[VMEM] WARNING: physical memory size is smaller than virtual memory size.

*** ChampSim Multicore Out-of-Order Simulator ***
Warmup Instructions: 50000000
Simulation Instructions: 200000000
Number of CPUs: 1
Page size: 4096
Core 0: /local-ssd/ben/dpc4-traces/ai-ml/bark.cpp-bark-small.coarse_token_gen.4.champsimtrace.gz
 L1D Berti prefetcher
Off-chip DRAM Size: 64 GiB Channels: 1 Width: 64-bit Data Rate: 4807 MT/s
Heartbeat CPU 0 instructions: 500002 cycles: 130112 heartbeat IPC: 3.843 cumulative IPC: 3.843 (Simulation time: 00 hr 00 min 03 sec)
Heartbeat CPU 0 instructions: 1000004 cycles: 253853 heartbeat IPC: 4.041 cumulative IPC: 3.939 (Simulation time: 00 hr 00 min 06 sec)
Heartbeat CPU 0 instructions: 1500007 cycles: 377275 heartbeat IPC: 4.051 cumulative IPC: 3.976 (Simulation time: 00 hr 00 min 08 sec)
Heartbeat CPU 0 instructions: 2000007 cycles: 501499 heartbeat IPC: 4.025 cumulative IPC: 3.988 (Simulation time: 00 hr 00 min 11 sec)
Heartbeat CPU 0 instructions: 2500010 cycles: 625671 heartbeat IPC: 4.027 cumulative IPC: 3.996 (Simulation time: 00 hr 00 min 13 sec)
Heartbeat CPU 0 instructions: 3000011 cycles: 749165 heartbeat IPC: 4.049 cumulative IPC: 4.004 (Simulation time: 00 hr 00 min 16 sec)
Heartbeat CPU 0 instructions: 3500011 cycles: 873025 heartbeat IPC: 4.037 cumulative IPC: 4.009 (Simulation time: 00 hr 00 min 18 sec)
Heartbeat CPU 0 instructions: 4000012 cycles: 997200 heartbeat IPC: 4.027 cumulative IPC: 4.011 (Simulation time: 00 hr 00 min 21 sec)
Heartbeat CPU 0 instructions: 4500015 cycles: 1121570 heartbeat IPC: 4.02 cumulative IPC: 4.012 (Simulation time: 00 hr 00 min 23 sec)
Heartbeat CPU 0 instructions: 5000018 cycles: 1244911 heartbeat IPC: 4.054 cumulative IPC: 4.016 (Simulation time: 00 hr 00 min 26 sec)
Heartbeat CPU 0 instructions: 5500022 cycles: 1369081 heartbeat IPC: 4.027 cumulative IPC: 4.017 (Simulation time: 00 hr 00 min 28 sec)
Heartbeat CPU 0 instructions: 6000023 cycles: 1493279 heartbeat IPC: 4.026 cumulative IPC: 4.018 (Simulation time: 00 hr 00 min 31 sec)
Heartbeat CPU 0 instructions: 6500028 cycles: 1617363 heartbeat IPC: 4.03 cumulative IPC: 4.019 (Simulation time: 00 hr 00 min 33 sec)
Heartbeat CPU 0 instructions: 7000029 cycles: 1740817 heartbeat IPC: 4.05 cumulative IPC: 4.021 (Simulation time: 00 hr 00 min 36 sec)
Heartbeat CPU 0 instructions: 7500030 cycles: 1864760 heartbeat IPC: 4.034 cumulative IPC: 4.022 (Simulation time: 00 hr 00 min 38 sec)
Heartbeat CPU 0 instructions: 8000033 cycles: 1988626 heartbeat IPC: 4.037 cumulative IPC: 4.023 (Simulation time: 00 hr 00 min 41 sec)
Heartbeat CPU 0 instructions: 8500040 cycles: 2112761 heartbeat IPC: 4.028 cumulative IPC: 4.023 (Simulation time: 00 hr 00 min 44 sec)
Heartbeat CPU 0 instructions: 9000042 cycles: 2235753 heartbeat IPC: 4.065 cumulative IPC: 4.026 (Simulation time: 00 hr 00 min 46 sec)
Heartbeat CPU 0 instructions: 9500047 cycles: 2359640 heartbeat IPC: 4.036 cumulative IPC: 4.026 (Simulation time: 00 hr 00 min 49 sec)
Heartbeat CPU 0 instructions: 10000050 cycles: 2483529 heartbeat IPC: 4.036 cumulative IPC: 4.027 (Simulation time: 00 hr 00 min 51 sec)
Heartbeat CPU 0 instructions: 10500057 cycles: 2607661 heartbeat IPC: 4.028 cumulative IPC: 4.027 (Simulation time: 00 hr 00 min 54 sec)
Heartbeat CPU 0 instructions: 11000060 cycles: 2730996 heartbeat IPC: 4.054 cumulative IPC: 4.028 (Simulation time: 00 hr 00 min 56 sec)
Heartbeat CPU 0 instructions: 11500061 cycles: 2855315 heartbeat IPC: 4.022 cumulative IPC: 4.028 (Simulation time: 00 hr 00 min 59 sec)
Heartbeat CPU 0 instructions: 12000066 cycles: 2979432 heartbeat IPC: 4.028 cumulative IPC: 4.028 (Simulation time: 00 hr 01 min 01 sec)
Heartbeat CPU 0 instructions: 12500066 cycles: 3100470 heartbeat IPC: 4.131 cumulative IPC: 4.032 (Simulation time: 00 hr 01 min 04 sec)
Heartbeat CPU 0 instructions: 13000071 cycles: 3217205 heartbeat IPC: 4.283 cumulative IPC: 4.041 (Simulation time: 00 hr 01 min 06 sec)
Heartbeat CPU 0 instructions: 13500077 cycles: 3333477 heartbeat IPC: 4.3 cumulative IPC: 4.05 (Simulation time: 00 hr 01 min 08 sec)
Heartbeat CPU 0 instructions: 14000078 cycles: 3449594 heartbeat IPC: 4.306 cumulative IPC: 4.058 (Simulation time: 00 hr 01 min 11 sec)
Heartbeat CPU 0 instructions: 14500078 cycles: 3565768 heartbeat IPC: 4.304 cumulative IPC: 4.066 (Simulation time: 00 hr 01 min 13 sec)
Heartbeat CPU 0 instructions: 15000079 cycles: 3681733 heartbeat IPC: 4.312 cumulative IPC: 4.074 (Simulation time: 00 hr 01 min 16 sec)
Heartbeat CPU 0 instructions: 15500080 cycles: 3797863 heartbeat IPC: 4.306 cumulative IPC: 4.081 (Simulation time: 00 hr 01 min 18 sec)
Heartbeat CPU 0 instructions: 16000081 cycles: 3913991 heartbeat IPC: 4.306 cumulative IPC: 4.088 (Simulation time: 00 hr 01 min 20 sec)
Heartbeat CPU 0 instructions: 16500083 cycles: 4029997 heartbeat IPC: 4.31 cumulative IPC: 4.094 (Simulation time: 00 hr 01 min 23 sec)
Heartbeat CPU 0 instructions: 17000088 cycles: 4146487 heartbeat IPC: 4.292 cumulative IPC: 4.1 (Simulation time: 00 hr 01 min 25 sec)
Heartbeat CPU 0 instructions: 17500088 cycles: 4262586 heartbeat IPC: 4.307 cumulative IPC: 4.106 (Simulation time: 00 hr 01 min 28 sec)
Heartbeat CPU 0 instructions: 18000094 cycles: 4378818 heartbeat IPC: 4.302 cumulative IPC: 4.111 (Simulation time: 00 hr 01 min 30 sec)
Heartbeat CPU 0 instructions: 18500095 cycles: 4494638 heartbeat IPC: 4.317 cumulative IPC: 4.116 (Simulation time: 00 hr 01 min 32 sec)
Heartbeat CPU 0 instructions: 19000098 cycles: 4610768 heartbeat IPC: 4.306 cumulative IPC: 4.121 (Simulation time: 00 hr 01 min 35 sec)
Heartbeat CPU 0 instructions: 19500098 cycles: 4726973 heartbeat IPC: 4.303 cumulative IPC: 4.125 (Simulation time: 00 hr 01 min 37 sec)
Heartbeat CPU 0 instructions: 20000099 cycles: 4843046 heartbeat IPC: 4.308 cumulative IPC: 4.13 (Simulation time: 00 hr 01 min 39 sec)
Heartbeat CPU 0 instructions: 20500099 cycles: 4959269 heartbeat IPC: 4.302 cumulative IPC: 4.134 (Simulation time: 00 hr 01 min 42 sec)
Heartbeat CPU 0 instructions: 21000102 cycles: 5075661 heartbeat IPC: 4.296 cumulative IPC: 4.137 (Simulation time: 00 hr 01 min 44 sec)
Heartbeat CPU 0 instructions: 21500106 cycles: 5191798 heartbeat IPC: 4.305 cumulative IPC: 4.141 (Simulation time: 00 hr 01 min 47 sec)
Heartbeat CPU 0 instructions: 22000106 cycles: 5307947 heartbeat IPC: 4.305 cumulative IPC: 4.145 (Simulation time: 00 hr 01 min 49 sec)
Heartbeat CPU 0 instructions: 22500111 cycles: 5424175 heartbeat IPC: 4.302 cumulative IPC: 4.148 (Simulation time: 00 hr 01 min 51 sec)
Heartbeat CPU 0 instructions: 23000115 cycles: 5540326 heartbeat IPC: 4.305 cumulative IPC: 4.151 (Simulation time: 00 hr 01 min 54 sec)
Heartbeat CPU 0 instructions: 23500116 cycles: 5656416 heartbeat IPC: 4.307 cumulative IPC: 4.155 (Simulation time: 00 hr 01 min 56 sec)
Heartbeat CPU 0 instructions: 24000123 cycles: 5772357 heartbeat IPC: 4.313 cumulative IPC: 4.158 (Simulation time: 00 hr 01 min 59 sec)
Heartbeat CPU 0 instructions: 24500127 cycles: 5888424 heartbeat IPC: 4.308 cumulative IPC: 4.161 (Simulation time: 00 hr 02 min 01 sec)
Heartbeat CPU 0 instructions: 25000127 cycles: 6005292 heartbeat IPC: 4.278 cumulative IPC: 4.163 (Simulation time: 00 hr 02 min 03 sec)
Heartbeat CPU 0 instructions: 25500129 cycles: 6121578 heartbeat IPC: 4.3 cumulative IPC: 4.166 (Simulation time: 00 hr 02 min 06 sec)
Heartbeat CPU 0 instructions: 26000135 cycles: 6237703 heartbeat IPC: 4.306 cumulative IPC: 4.168 (Simulation time: 00 hr 02 min 08 sec)
Heartbeat CPU 0 instructions: 26500142 cycles: 6353857 heartbeat IPC: 4.305 cumulative IPC: 4.171 (Simulation time: 00 hr 02 min 11 sec)
Heartbeat CPU 0 instructions: 27000143 cycles: 6470022 heartbeat IPC: 4.304 cumulative IPC: 4.173 (Simulation time: 00 hr 02 min 13 sec)
Heartbeat CPU 0 instructions: 27500149 cycles: 6586267 heartbeat IPC: 4.301 cumulative IPC: 4.175 (Simulation time: 00 hr 02 min 15 sec)
Heartbeat CPU 0 instructions: 28000150 cycles: 6702647 heartbeat IPC: 4.296 cumulative IPC: 4.177 (Simulation time: 00 hr 02 min 18 sec)
Heartbeat CPU 0 instructions: 28500155 cycles: 6818702 heartbeat IPC: 4.308 cumulative IPC: 4.18 (Simulation time: 00 hr 02 min 20 sec)
Heartbeat CPU 0 instructions: 29000160 cycles: 6935104 heartbeat IPC: 4.296 cumulative IPC: 4.182 (Simulation time: 00 hr 02 min 23 sec)
Heartbeat CPU 0 instructions: 29500161 cycles: 7051357 heartbeat IPC: 4.301 cumulative IPC: 4.184 (Simulation time: 00 hr 02 min 25 sec)
Heartbeat CPU 0 instructions: 30000164 cycles: 7167640 heartbeat IPC: 4.3 cumulative IPC: 4.186 (Simulation time: 00 hr 02 min 27 sec)
Heartbeat CPU 0 instructions: 30500164 cycles: 7283707 heartbeat IPC: 4.308 cumulative IPC: 4.187 (Simulation time: 00 hr 02 min 30 sec)
Heartbeat CPU 0 instructions: 31000165 cycles: 7399893 heartbeat IPC: 4.303 cumulative IPC: 4.189 (Simulation time: 00 hr 02 min 32 sec)
Heartbeat CPU 0 instructions: 31500172 cycles: 7516029 heartbeat IPC: 4.305 cumulative IPC: 4.191 (Simulation time: 00 hr 02 min 35 sec)
Heartbeat CPU 0 instructions: 32000177 cycles: 7632280 heartbeat IPC: 4.301 cumulative IPC: 4.193 (Simulation time: 00 hr 02 min 37 sec)
Heartbeat CPU 0 instructions: 32500177 cycles: 7748591 heartbeat IPC: 4.299 cumulative IPC: 4.194 (Simulation time: 00 hr 02 min 39 sec)
Heartbeat CPU 0 instructions: 33000183 cycles: 7864772 heartbeat IPC: 4.304 cumulative IPC: 4.196 (Simulation time: 00 hr 02 min 42 sec)
Heartbeat CPU 0 instructions: 33500186 cycles: 7980981 heartbeat IPC: 4.303 cumulative IPC: 4.198 (Simulation time: 00 hr 02 min 44 sec)
Heartbeat CPU 0 instructions: 34000186 cycles: 8097147 heartbeat IPC: 4.304 cumulative IPC: 4.199 (Simulation time: 00 hr 02 min 47 sec)
Heartbeat CPU 0 instructions: 34500192 cycles: 8213192 heartbeat IPC: 4.309 cumulative IPC: 4.201 (Simulation time: 00 hr 02 min 49 sec)
Heartbeat CPU 0 instructions: 35000193 cycles: 8329200 heartbeat IPC: 4.31 cumulative IPC: 4.202 (Simulation time: 00 hr 02 min 51 sec)
Heartbeat CPU 0 instructions: 35500197 cycles: 8445319 heartbeat IPC: 4.306 cumulative IPC: 4.204 (Simulation time: 00 hr 02 min 54 sec)
Heartbeat CPU 0 instructions: 36000199 cycles: 8561464 heartbeat IPC: 4.305 cumulative IPC: 4.205 (Simulation time: 00 hr 02 min 56 sec)
Heartbeat CPU 0 instructions: 36500199 cycles: 8677907 heartbeat IPC: 4.294 cumulative IPC: 4.206 (Simulation time: 00 hr 02 min 59 sec)
Heartbeat CPU 0 instructions: 37000206 cycles: 8793963 heartbeat IPC: 4.308 cumulative IPC: 4.207 (Simulation time: 00 hr 03 min 01 sec)
Heartbeat CPU 0 instructions: 37500211 cycles: 8910892 heartbeat IPC: 4.276 cumulative IPC: 4.208 (Simulation time: 00 hr 03 min 03 sec)
Heartbeat CPU 0 instructions: 38000218 cycles: 9027179 heartbeat IPC: 4.3 cumulative IPC: 4.21 (Simulation time: 00 hr 03 min 06 sec)
Heartbeat CPU 0 instructions: 38500223 cycles: 9143431 heartbeat IPC: 4.301 cumulative IPC: 4.211 (Simulation time: 00 hr 03 min 08 sec)
Heartbeat CPU 0 instructions: 39000227 cycles: 9259750 heartbeat IPC: 4.299 cumulative IPC: 4.212 (Simulation time: 00 hr 03 min 10 sec)
Heartbeat CPU 0 instructions: 39500232 cycles: 9375869 heartbeat IPC: 4.306 cumulative IPC: 4.213 (Simulation time: 00 hr 03 min 13 sec)
Heartbeat CPU 0 instructions: 40000238 cycles: 9491987 heartbeat IPC: 4.306 cumulative IPC: 4.214 (Simulation time: 00 hr 03 min 15 sec)
Heartbeat CPU 0 instructions: 40500239 cycles: 9608225 heartbeat IPC: 4.302 cumulative IPC: 4.215 (Simulation time: 00 hr 03 min 18 sec)
Heartbeat CPU 0 instructions: 41000242 cycles: 9724441 heartbeat IPC: 4.302 cumulative IPC: 4.216 (Simulation time: 00 hr 03 min 20 sec)
Heartbeat CPU 0 instructions: 41500248 cycles: 9840496 heartbeat IPC: 4.308 cumulative IPC: 4.217 (Simulation time: 00 hr 03 min 22 sec)
Heartbeat CPU 0 instructions: 42000254 cycles: 9956591 heartbeat IPC: 4.307 cumulative IPC: 4.218 (Simulation time: 00 hr 03 min 25 sec)
Heartbeat CPU 0 instructions: 42500256 cycles: 10072582 heartbeat IPC: 4.311 cumulative IPC: 4.219 (Simulation time: 00 hr 03 min 27 sec)
Heartbeat CPU 0 instructions: 43000259 cycles: 10188707 heartbeat IPC: 4.306 cumulative IPC: 4.22 (Simulation time: 00 hr 03 min 30 sec)
Heartbeat CPU 0 instructions: 43500263 cycles: 10304832 heartbeat IPC: 4.306 cumulative IPC: 4.221 (Simulation time: 00 hr 03 min 34 sec)
Heartbeat CPU 0 instructions: 44000266 cycles: 10420832 heartbeat IPC: 4.31 cumulative IPC: 4.222 (Simulation time: 00 hr 03 min 38 sec)
Heartbeat CPU 0 instructions: 44500267 cycles: 10536785 heartbeat IPC: 4.312 cumulative IPC: 4.223 (Simulation time: 00 hr 03 min 41 sec)
Heartbeat CPU 0 instructions: 45000268 cycles: 10652936 heartbeat IPC: 4.305 cumulative IPC: 4.224 (Simulation time: 00 hr 03 min 45 sec)
Heartbeat CPU 0 instructions: 45500273 cycles: 10769091 heartbeat IPC: 4.305 cumulative IPC: 4.225 (Simulation time: 00 hr 03 min 49 sec)
Heartbeat CPU 0 instructions: 46000278 cycles: 10885349 heartbeat IPC: 4.301 cumulative IPC: 4.226 (Simulation time: 00 hr 03 min 53 sec)
Heartbeat CPU 0 instructions: 46500278 cycles: 11001524 heartbeat IPC: 4.304 cumulative IPC: 4.227 (Simulation time: 00 hr 03 min 56 sec)
Heartbeat CPU 0 instructions: 47000281 cycles: 11117589 heartbeat IPC: 4.308 cumulative IPC: 4.228 (Simulation time: 00 hr 04 min 00 sec)
Heartbeat CPU 0 instructions: 47500284 cycles: 11233689 heartbeat IPC: 4.307 cumulative IPC: 4.228 (Simulation time: 00 hr 04 min 04 sec)
Heartbeat CPU 0 instructions: 48000291 cycles: 11349694 heartbeat IPC: 4.31 cumulative IPC: 4.229 (Simulation time: 00 hr 04 min 07 sec)
Heartbeat CPU 0 instructions: 48500293 cycles: 11465982 heartbeat IPC: 4.3 cumulative IPC: 4.23 (Simulation time: 00 hr 04 min 11 sec)
Heartbeat CPU 0 instructions: 49000296 cycles: 11582244 heartbeat IPC: 4.301 cumulative IPC: 4.231 (Simulation time: 00 hr 04 min 15 sec)
Heartbeat CPU 0 instructions: 49500297 cycles: 11698464 heartbeat IPC: 4.302 cumulative IPC: 4.231 (Simulation time: 00 hr 04 min 19 sec)
Warmup halting CPU 0 at instruction 50000004 cycle 11815258 for remainder of phase
Warmup finished CPU 0 instructions: 50000004 cycles: 11815258 cumulative IPC: 4.232 (Simulation time: 00 hr 04 min 22 sec)
Warmup complete CPU 0 instructions: 50000004 cycles: 11815258 cumulative IPC: 4.232 (Simulation time: 00 hr 04 min 22 sec)
Heartbeat CPU 0 instructions: 50000300 cycles: 11815295 heartbeat IPC: 4.28 cumulative IPC: 8 (Simulation time: 00 hr 04 min 22 sec)
Heartbeat CPU 0 instructions: 50500301 cycles: 11977576 heartbeat IPC: 3.081 cumulative IPC: 3.082 (Simulation time: 00 hr 04 min 26 sec)
Heartbeat CPU 0 instructions: 51000306 cycles: 12146192 heartbeat IPC: 2.965 cumulative IPC: 3.023 (Simulation time: 00 hr 04 min 30 sec)
Heartbeat CPU 0 instructions: 51500308 cycles: 12312590 heartbeat IPC: 3.005 cumulative IPC: 3.017 (Simulation time: 00 hr 04 min 34 sec)
Heartbeat CPU 0 instructions: 52000311 cycles: 12479261 heartbeat IPC: 3 cumulative IPC: 3.012 (Simulation time: 00 hr 04 min 38 sec)
Heartbeat CPU 0 instructions: 52500313 cycles: 12642388 heartbeat IPC: 3.065 cumulative IPC: 3.023 (Simulation time: 00 hr 04 min 42 sec)
Heartbeat CPU 0 instructions: 53000314 cycles: 12805212 heartbeat IPC: 3.071 cumulative IPC: 3.031 (Simulation time: 00 hr 04 min 46 sec)
Heartbeat CPU 0 instructions: 53500319 cycles: 12969372 heartbeat IPC: 3.046 cumulative IPC: 3.033 (Simulation time: 00 hr 04 min 50 sec)
Heartbeat CPU 0 instructions: 54000324 cycles: 13132287 heartbeat IPC: 3.069 cumulative IPC: 3.037 (Simulation time: 00 hr 04 min 54 sec)
Heartbeat CPU 0 instructions: 54500324 cycles: 13291143 heartbeat IPC: 3.148 cumulative IPC: 3.049 (Simulation time: 00 hr 04 min 58 sec)
Heartbeat CPU 0 instructions: 55000328 cycles: 13454509 heartbeat IPC: 3.061 cumulative IPC: 3.05 (Simulation time: 00 hr 05 min 02 sec)
Heartbeat CPU 0 instructions: 55500332 cycles: 13616098 heartbeat IPC: 3.094 cumulative IPC: 3.054 (Simulation time: 00 hr 05 min 06 sec)
Heartbeat CPU 0 instructions: 56000335 cycles: 13777376 heartbeat IPC: 3.1 cumulative IPC: 3.058 (Simulation time: 00 hr 05 min 09 sec)
Heartbeat CPU 0 instructions: 56500340 cycles: 13934319 heartbeat IPC: 3.186 cumulative IPC: 3.068 (Simulation time: 00 hr 05 min 13 sec)
Heartbeat CPU 0 instructions: 57000345 cycles: 14092082 heartbeat IPC: 3.169 cumulative IPC: 3.075 (Simulation time: 00 hr 05 min 17 sec)
Heartbeat CPU 0 instructions: 57500347 cycles: 14251418 heartbeat IPC: 3.138 cumulative IPC: 3.079 (Simulation time: 00 hr 05 min 21 sec)
Heartbeat CPU 0 instructions: 58000350 cycles: 14409198 heartbeat IPC: 3.169 cumulative IPC: 3.084 (Simulation time: 00 hr 05 min 25 sec)
Heartbeat CPU 0 instructions: 58500355 cycles: 14564008 heartbeat IPC: 3.23 cumulative IPC: 3.092 (Simulation time: 00 hr 05 min 29 sec)
Heartbeat CPU 0 instructions: 59000360 cycles: 14723626 heartbeat IPC: 3.133 cumulative IPC: 3.095 (Simulation time: 00 hr 05 min 32 sec)
Heartbeat CPU 0 instructions: 59500366 cycles: 14881036 heartbeat IPC: 3.176 cumulative IPC: 3.099 (Simulation time: 00 hr 05 min 36 sec)
Heartbeat CPU 0 instructions: 60000366 cycles: 15038839 heartbeat IPC: 3.169 cumulative IPC: 3.102 (Simulation time: 00 hr 05 min 40 sec)
Heartbeat CPU 0 instructions: 60500371 cycles: 15193989 heartbeat IPC: 3.223 cumulative IPC: 3.108 (Simulation time: 00 hr 05 min 44 sec)
Heartbeat CPU 0 instructions: 61000376 cycles: 15350871 heartbeat IPC: 3.187 cumulative IPC: 3.111 (Simulation time: 00 hr 05 min 48 sec)
Heartbeat CPU 0 instructions: 61500377 cycles: 15509563 heartbeat IPC: 3.151 cumulative IPC: 3.113 (Simulation time: 00 hr 05 min 51 sec)
Heartbeat CPU 0 instructions: 62000383 cycles: 15666170 heartbeat IPC: 3.193 cumulative IPC: 3.116 (Simulation time: 00 hr 05 min 55 sec)
Heartbeat CPU 0 instructions: 62500383 cycles: 15839157 heartbeat IPC: 2.89 cumulative IPC: 3.107 (Simulation time: 00 hr 05 min 59 sec)
Heartbeat CPU 0 instructions: 63000390 cycles: 16007896 heartbeat IPC: 2.963 cumulative IPC: 3.101 (Simulation time: 00 hr 06 min 03 sec)
Heartbeat CPU 0 instructions: 63500394 cycles: 16174022 heartbeat IPC: 3.01 cumulative IPC: 3.097 (Simulation time: 00 hr 06 min 07 sec)
Heartbeat CPU 0 instructions: 64000398 cycles: 16339710 heartbeat IPC: 3.018 cumulative IPC: 3.094 (Simulation time: 00 hr 06 min 11 sec)
Heartbeat CPU 0 instructions: 64500398 cycles: 16505055 heartbeat IPC: 3.024 cumulative IPC: 3.092 (Simulation time: 00 hr 06 min 15 sec)
Heartbeat CPU 0 instructions: 65000399 cycles: 16670161 heartbeat IPC: 3.028 cumulative IPC: 3.09 (Simulation time: 00 hr 06 min 19 sec)
Heartbeat CPU 0 instructions: 65500401 cycles: 16834162 heartbeat IPC: 3.049 cumulative IPC: 3.088 (Simulation time: 00 hr 06 min 23 sec)
Heartbeat CPU 0 instructions: 66000404 cycles: 16996506 heartbeat IPC: 3.08 cumulative IPC: 3.088 (Simulation time: 00 hr 06 min 27 sec)
Heartbeat CPU 0 instructions: 66500409 cycles: 17157616 heartbeat IPC: 3.104 cumulative IPC: 3.089 (Simulation time: 00 hr 06 min 31 sec)
Heartbeat CPU 0 instructions: 67000414 cycles: 17319901 heartbeat IPC: 3.081 cumulative IPC: 3.088 (Simulation time: 00 hr 06 min 35 sec)
Heartbeat CPU 0 instructions: 67500416 cycles: 17481438 heartbeat IPC: 3.095 cumulative IPC: 3.089 (Simulation time: 00 hr 06 min 39 sec)
Heartbeat CPU 0 instructions: 68000420 cycles: 17641081 heartbeat IPC: 3.132 cumulative IPC: 3.09 (Simulation time: 00 hr 06 min 43 sec)
Heartbeat CPU 0 instructions: 68500421 cycles: 17801771 heartbeat IPC: 3.112 cumulative IPC: 3.09 (Simulation time: 00 hr 06 min 47 sec)
Heartbeat CPU 0 instructions: 69000422 cycles: 17962427 heartbeat IPC: 3.112 cumulative IPC: 3.091 (Simulation time: 00 hr 06 min 49 sec)
Heartbeat CPU 0 instructions: 69500423 cycles: 18119688 heartbeat IPC: 3.179 cumulative IPC: 3.093 (Simulation time: 00 hr 06 min 52 sec)
Heartbeat CPU 0 instructions: 70000428 cycles: 18275916 heartbeat IPC: 3.2 cumulative IPC: 3.096 (Simulation time: 00 hr 06 min 54 sec)
Heartbeat CPU 0 instructions: 70500433 cycles: 18434336 heartbeat IPC: 3.156 cumulative IPC: 3.097 (Simulation time: 00 hr 06 min 57 sec)
Heartbeat CPU 0 instructions: 71000436 cycles: 18592460 heartbeat IPC: 3.162 cumulative IPC: 3.099 (Simulation time: 00 hr 06 min 59 sec)
Heartbeat CPU 0 instructions: 71500440 cycles: 18751780 heartbeat IPC: 3.138 cumulative IPC: 3.1 (Simulation time: 00 hr 07 min 02 sec)
Heartbeat CPU 0 instructions: 72000443 cycles: 18907396 heartbeat IPC: 3.213 cumulative IPC: 3.102 (Simulation time: 00 hr 07 min 04 sec)
Heartbeat CPU 0 instructions: 72500448 cycles: 19064510 heartbeat IPC: 3.182 cumulative IPC: 3.104 (Simulation time: 00 hr 07 min 06 sec)
Heartbeat CPU 0 instructions: 73000453 cycles: 19224560 heartbeat IPC: 3.124 cumulative IPC: 3.104 (Simulation time: 00 hr 07 min 09 sec)
Heartbeat CPU 0 instructions: 73500455 cycles: 19381961 heartbeat IPC: 3.177 cumulative IPC: 3.106 (Simulation time: 00 hr 07 min 11 sec)
Heartbeat CPU 0 instructions: 74000460 cycles: 19536960 heartbeat IPC: 3.226 cumulative IPC: 3.108 (Simulation time: 00 hr 07 min 14 sec)
Heartbeat CPU 0 instructions: 74500463 cycles: 19699732 heartbeat IPC: 3.072 cumulative IPC: 3.107 (Simulation time: 00 hr 07 min 16 sec)
Heartbeat CPU 0 instructions: 75000468 cycles: 19872001 heartbeat IPC: 2.902 cumulative IPC: 3.103 (Simulation time: 00 hr 07 min 19 sec)
Heartbeat CPU 0 instructions: 75500470 cycles: 20039251 heartbeat IPC: 2.99 cumulative IPC: 3.101 (Simulation time: 00 hr 07 min 21 sec)
Heartbeat CPU 0 instructions: 76000475 cycles: 20203444 heartbeat IPC: 3.045 cumulative IPC: 3.1 (Simulation time: 00 hr 07 min 24 sec)
Heartbeat CPU 0 instructions: 76500475 cycles: 20370723 heartbeat IPC: 2.989 cumulative IPC: 3.097 (Simulation time: 00 hr 07 min 26 sec)
Heartbeat CPU 0 instructions: 77000476 cycles: 20538198 heartbeat IPC: 2.986 cumulative IPC: 3.095 (Simulation time: 00 hr 07 min 29 sec)
Heartbeat CPU 0 instructions: 77500477 cycles: 20705044 heartbeat IPC: 2.997 cumulative IPC: 3.093 (Simulation time: 00 hr 07 min 32 sec)
Heartbeat CPU 0 instructions: 78000478 cycles: 20865934 heartbeat IPC: 3.108 cumulative IPC: 3.094 (Simulation time: 00 hr 07 min 34 sec)
Heartbeat CPU 0 instructions: 78500479 cycles: 21029248 heartbeat IPC: 3.062 cumulative IPC: 3.093 (Simulation time: 00 hr 07 min 37 sec)
Heartbeat CPU 0 instructions: 79000479 cycles: 21192628 heartbeat IPC: 3.06 cumulative IPC: 3.093 (Simulation time: 00 hr 07 min 39 sec)
Heartbeat CPU 0 instructions: 79500486 cycles: 21353866 heartbeat IPC: 3.101 cumulative IPC: 3.093 (Simulation time: 00 hr 07 min 42 sec)
Heartbeat CPU 0 instructions: 80000487 cycles: 21512552 heartbeat IPC: 3.151 cumulative IPC: 3.094 (Simulation time: 00 hr 07 min 44 sec)
Heartbeat CPU 0 instructions: 80500494 cycles: 21674653 heartbeat IPC: 3.085 cumulative IPC: 3.094 (Simulation time: 00 hr 07 min 46 sec)
Heartbeat CPU 0 instructions: 81000499 cycles: 21834390 heartbeat IPC: 3.13 cumulative IPC: 3.094 (Simulation time: 00 hr 07 min 49 sec)
Heartbeat CPU 0 instructions: 81500501 cycles: 21994029 heartbeat IPC: 3.132 cumulative IPC: 3.095 (Simulation time: 00 hr 07 min 51 sec)
Heartbeat CPU 0 instructions: 82000506 cycles: 22149087 heartbeat IPC: 3.225 cumulative IPC: 3.097 (Simulation time: 00 hr 07 min 54 sec)
Heartbeat CPU 0 instructions: 82500509 cycles: 22306811 heartbeat IPC: 3.17 cumulative IPC: 3.098 (Simulation time: 00 hr 07 min 56 sec)
Heartbeat CPU 0 instructions: 83000514 cycles: 22464145 heartbeat IPC: 3.178 cumulative IPC: 3.099 (Simulation time: 00 hr 07 min 59 sec)
Heartbeat CPU 0 instructions: 83500516 cycles: 22622877 heartbeat IPC: 3.15 cumulative IPC: 3.1 (Simulation time: 00 hr 08 min 01 sec)
Heartbeat CPU 0 instructions: 84000521 cycles: 22777627 heartbeat IPC: 3.231 cumulative IPC: 3.102 (Simulation time: 00 hr 08 min 04 sec)
Heartbeat CPU 0 instructions: 84500525 cycles: 22935590 heartbeat IPC: 3.165 cumulative IPC: 3.102 (Simulation time: 00 hr 08 min 06 sec)
Heartbeat CPU 0 instructions: 85000530 cycles: 23094766 heartbeat IPC: 3.141 cumulative IPC: 3.103 (Simulation time: 00 hr 08 min 08 sec)
Heartbeat CPU 0 instructions: 85500531 cycles: 23252246 heartbeat IPC: 3.175 cumulative IPC: 3.104 (Simulation time: 00 hr 08 min 11 sec)
Heartbeat CPU 0 instructions: 86000532 cycles: 23407524 heartbeat IPC: 3.22 cumulative IPC: 3.106 (Simulation time: 00 hr 08 min 13 sec)
Heartbeat CPU 0 instructions: 86500533 cycles: 23565253 heartbeat IPC: 3.17 cumulative IPC: 3.106 (Simulation time: 00 hr 08 min 16 sec)
Heartbeat CPU 0 instructions: 87000533 cycles: 23732860 heartbeat IPC: 2.983 cumulative IPC: 3.105 (Simulation time: 00 hr 08 min 18 sec)
Heartbeat CPU 0 instructions: 87500540 cycles: 23905678 heartbeat IPC: 2.893 cumulative IPC: 3.102 (Simulation time: 00 hr 08 min 21 sec)
Heartbeat CPU 0 instructions: 88000541 cycles: 24067480 heartbeat IPC: 3.09 cumulative IPC: 3.102 (Simulation time: 00 hr 08 min 23 sec)
Heartbeat CPU 0 instructions: 88500548 cycles: 24231967 heartbeat IPC: 3.04 cumulative IPC: 3.101 (Simulation time: 00 hr 08 min 26 sec)
Heartbeat CPU 0 instructions: 89000548 cycles: 24398940 heartbeat IPC: 2.994 cumulative IPC: 3.099 (Simulation time: 00 hr 08 min 28 sec)
Heartbeat CPU 0 instructions: 89500555 cycles: 24564557 heartbeat IPC: 3.019 cumulative IPC: 3.098 (Simulation time: 00 hr 08 min 31 sec)
Heartbeat CPU 0 instructions: 90000560 cycles: 24726207 heartbeat IPC: 3.093 cumulative IPC: 3.098 (Simulation time: 00 hr 08 min 33 sec)
Heartbeat CPU 0 instructions: 90500563 cycles: 24889281 heartbeat IPC: 3.066 cumulative IPC: 3.098 (Simulation time: 00 hr 08 min 36 sec)
Heartbeat CPU 0 instructions: 91000568 cycles: 25053839 heartbeat IPC: 3.038 cumulative IPC: 3.097 (Simulation time: 00 hr 08 min 38 sec)
Heartbeat CPU 0 instructions: 91500570 cycles: 25216741 heartbeat IPC: 3.069 cumulative IPC: 3.097 (Simulation time: 00 hr 08 min 41 sec)
Heartbeat CPU 0 instructions: 92000575 cycles: 25375322 heartbeat IPC: 3.153 cumulative IPC: 3.097 (Simulation time: 00 hr 08 min 43 sec)
Heartbeat CPU 0 instructions: 92500575 cycles: 25537023 heartbeat IPC: 3.092 cumulative IPC: 3.097 (Simulation time: 00 hr 08 min 46 sec)
Heartbeat CPU 0 instructions: 93000576 cycles: 25700599 heartbeat IPC: 3.057 cumulative IPC: 3.097 (Simulation time: 00 hr 08 min 48 sec)
Heartbeat CPU 0 instructions: 93500581 cycles: 25859976 heartbeat IPC: 3.137 cumulative IPC: 3.097 (Simulation time: 00 hr 08 min 51 sec)
Heartbeat CPU 0 instructions: 94000586 cycles: 26016712 heartbeat IPC: 3.19 cumulative IPC: 3.098 (Simulation time: 00 hr 08 min 53 sec)
Heartbeat CPU 0 instructions: 94500593 cycles: 26173658 heartbeat IPC: 3.186 cumulative IPC: 3.099 (Simulation time: 00 hr 08 min 56 sec)
Heartbeat CPU 0 instructions: 95000598 cycles: 26331563 heartbeat IPC: 3.166 cumulative IPC: 3.1 (Simulation time: 00 hr 08 min 58 sec)
Heartbeat CPU 0 instructions: 95500603 cycles: 26489553 heartbeat IPC: 3.165 cumulative IPC: 3.101 (Simulation time: 00 hr 09 min 01 sec)
Heartbeat CPU 0 instructions: 96000605 cycles: 26646064 heartbeat IPC: 3.195 cumulative IPC: 3.102 (Simulation time: 00 hr 09 min 03 sec)
Heartbeat CPU 0 instructions: 96500610 cycles: 26803603 heartbeat IPC: 3.174 cumulative IPC: 3.102 (Simulation time: 00 hr 09 min 06 sec)
Heartbeat CPU 0 instructions: 97000615 cycles: 26960861 heartbeat IPC: 3.18 cumulative IPC: 3.103 (Simulation time: 00 hr 09 min 08 sec)
Heartbeat CPU 0 instructions: 97500617 cycles: 27117978 heartbeat IPC: 3.182 cumulative IPC: 3.104 (Simulation time: 00 hr 09 min 10 sec)
Heartbeat CPU 0 instructions: 98000622 cycles: 27273180 heartbeat IPC: 3.222 cumulative IPC: 3.105 (Simulation time: 00 hr 09 min 13 sec)
Heartbeat CPU 0 instructions: 98500625 cycles: 27432801 heartbeat IPC: 3.132 cumulative IPC: 3.106 (Simulation time: 00 hr 09 min 15 sec)
Heartbeat CPU 0 instructions: 99000630 cycles: 27589549 heartbeat IPC: 3.19 cumulative IPC: 3.106 (Simulation time: 00 hr 09 min 18 sec)
Heartbeat CPU 0 instructions: 99500633 cycles: 27756742 heartbeat IPC: 2.991 cumulative IPC: 3.105 (Simulation time: 00 hr 09 min 20 sec)
Heartbeat CPU 0 instructions: 100000637 cycles: 27927550 heartbeat IPC: 2.927 cumulative IPC: 3.103 (Simulation time: 00 hr 09 min 23 sec)
Heartbeat CPU 0 instructions: 100500637 cycles: 28093369 heartbeat IPC: 3.015 cumulative IPC: 3.102 (Simulation time: 00 hr 09 min 25 sec)
Heartbeat CPU 0 instructions: 101000638 cycles: 28258792 heartbeat IPC: 3.023 cumulative IPC: 3.102 (Simulation time: 00 hr 09 min 28 sec)
Heartbeat CPU 0 instructions: 101500639 cycles: 28424009 heartbeat IPC: 3.026 cumulative IPC: 3.101 (Simulation time: 00 hr 09 min 30 sec)
Heartbeat CPU 0 instructions: 102000640 cycles: 28591169 heartbeat IPC: 2.991 cumulative IPC: 3.1 (Simulation time: 00 hr 09 min 33 sec)
Heartbeat CPU 0 instructions: 102500641 cycles: 28754432 heartbeat IPC: 3.063 cumulative IPC: 3.099 (Simulation time: 00 hr 09 min 36 sec)
Heartbeat CPU 0 instructions: 103000641 cycles: 28918431 heartbeat IPC: 3.049 cumulative IPC: 3.099 (Simulation time: 00 hr 09 min 38 sec)
Heartbeat CPU 0 instructions: 103500648 cycles: 29077758 heartbeat IPC: 3.138 cumulative IPC: 3.099 (Simulation time: 00 hr 09 min 40 sec)
Heartbeat CPU 0 instructions: 104000649 cycles: 29240777 heartbeat IPC: 3.067 cumulative IPC: 3.099 (Simulation time: 00 hr 09 min 43 sec)
Heartbeat CPU 0 instructions: 104500656 cycles: 29404216 heartbeat IPC: 3.059 cumulative IPC: 3.099 (Simulation time: 00 hr 09 min 46 sec)
Heartbeat CPU 0 instructions: 105000661 cycles: 29567171 heartbeat IPC: 3.068 cumulative IPC: 3.098 (Simulation time: 00 hr 09 min 48 sec)
Heartbeat CPU 0 instructions: 105500663 cycles: 29727428 heartbeat IPC: 3.12 cumulative IPC: 3.098 (Simulation time: 00 hr 09 min 51 sec)
Heartbeat CPU 0 instructions: 106000668 cycles: 29886465 heartbeat IPC: 3.144 cumulative IPC: 3.099 (Simulation time: 00 hr 09 min 53 sec)
Heartbeat CPU 0 instructions: 106500671 cycles: 30044908 heartbeat IPC: 3.156 cumulative IPC: 3.099 (Simulation time: 00 hr 09 min 55 sec)
Heartbeat CPU 0 instructions: 107000676 cycles: 30202822 heartbeat IPC: 3.166 cumulative IPC: 3.1 (Simulation time: 00 hr 09 min 58 sec)
Heartbeat CPU 0 instructions: 107500678 cycles: 30358002 heartbeat IPC: 3.222 cumulative IPC: 3.101 (Simulation time: 00 hr 10 min 00 sec)
Heartbeat CPU 0 instructions: 108000683 cycles: 30515439 heartbeat IPC: 3.176 cumulative IPC: 3.102 (Simulation time: 00 hr 10 min 03 sec)
Heartbeat CPU 0 instructions: 108500683 cycles: 30673420 heartbeat IPC: 3.165 cumulative IPC: 3.102 (Simulation time: 00 hr 10 min 05 sec)
Heartbeat CPU 0 instructions: 109000684 cycles: 30831379 heartbeat IPC: 3.165 cumulative IPC: 3.103 (Simulation time: 00 hr 10 min 08 sec)
Heartbeat CPU 0 instructions: 109500687 cycles: 30985520 heartbeat IPC: 3.244 cumulative IPC: 3.104 (Simulation time: 00 hr 10 min 10 sec)
Heartbeat CPU 0 instructions: 110000694 cycles: 31145084 heartbeat IPC: 3.134 cumulative IPC: 3.104 (Simulation time: 00 hr 10 min 12 sec)
Heartbeat CPU 0 instructions: 110500695 cycles: 31302959 heartbeat IPC: 3.167 cumulative IPC: 3.105 (Simulation time: 00 hr 10 min 15 sec)
Heartbeat CPU 0 instructions: 111000695 cycles: 31460602 heartbeat IPC: 3.172 cumulative IPC: 3.105 (Simulation time: 00 hr 10 min 17 sec)
Heartbeat CPU 0 instructions: 111500702 cycles: 31615762 heartbeat IPC: 3.223 cumulative IPC: 3.106 (Simulation time: 00 hr 10 min 20 sec)
Heartbeat CPU 0 instructions: 112000703 cycles: 31789969 heartbeat IPC: 2.87 cumulative IPC: 3.104 (Simulation time: 00 hr 10 min 22 sec)
Heartbeat CPU 0 instructions: 112500710 cycles: 31956815 heartbeat IPC: 2.997 cumulative IPC: 3.103 (Simulation time: 00 hr 10 min 25 sec)
Heartbeat CPU 0 instructions: 113000715 cycles: 32124402 heartbeat IPC: 2.984 cumulative IPC: 3.102 (Simulation time: 00 hr 10 min 28 sec)
Heartbeat CPU 0 instructions: 113500717 cycles: 32286422 heartbeat IPC: 3.086 cumulative IPC: 3.102 (Simulation time: 00 hr 10 min 30 sec)
Heartbeat CPU 0 instructions: 114000720 cycles: 32453784 heartbeat IPC: 2.988 cumulative IPC: 3.101 (Simulation time: 00 hr 10 min 33 sec)
Heartbeat CPU 0 instructions: 114500725 cycles: 32619610 heartbeat IPC: 3.015 cumulative IPC: 3.1 (Simulation time: 00 hr 10 min 35 sec)
Heartbeat CPU 0 instructions: 115000730 cycles: 32784178 heartbeat IPC: 3.038 cumulative IPC: 3.1 (Simulation time: 00 hr 10 min 38 sec)
Heartbeat CPU 0 instructions: 115500732 cycles: 32944403 heartbeat IPC: 3.121 cumulative IPC: 3.1 (Simulation time: 00 hr 10 min 40 sec)
Heartbeat CPU 0 instructions: 116000737 cycles: 33107170 heartbeat IPC: 3.072 cumulative IPC: 3.1 (Simulation time: 00 hr 10 min 43 sec)
Heartbeat CPU 0 instructions: 116500737 cycles: 33269544 heartbeat IPC: 3.079 cumulative IPC: 3.1 (Simulation time: 00 hr 10 min 45 sec)
Heartbeat CPU 0 instructions: 117000738 cycles: 33431789 heartbeat IPC: 3.082 cumulative IPC: 3.1 (Simulation time: 00 hr 10 min 48 sec)
Heartbeat CPU 0 instructions: 117500741 cycles: 33590793 heartbeat IPC: 3.145 cumulative IPC: 3.1 (Simulation time: 00 hr 10 min 50 sec)
Heartbeat CPU 0 instructions: 118000748 cycles: 33751928 heartbeat IPC: 3.103 cumulative IPC: 3.1 (Simulation time: 00 hr 10 min 53 sec)
Heartbeat CPU 0 instructions: 118500749 cycles: 33911863 heartbeat IPC: 3.126 cumulative IPC: 3.1 (Simulation time: 00 hr 10 min 55 sec)
Heartbeat CPU 0 instructions: 119000749 cycles: 34069909 heartbeat IPC: 3.164 cumulative IPC: 3.101 (Simulation time: 00 hr 10 min 58 sec)
Heartbeat CPU 0 instructions: 119500756 cycles: 34226118 heartbeat IPC: 3.201 cumulative IPC: 3.101 (Simulation time: 00 hr 11 min 00 sec)
Heartbeat CPU 0 instructions: 120000757 cycles: 34383729 heartbeat IPC: 3.172 cumulative IPC: 3.102 (Simulation time: 00 hr 11 min 02 sec)
Heartbeat CPU 0 instructions: 120500764 cycles: 34541920 heartbeat IPC: 3.161 cumulative IPC: 3.102 (Simulation time: 00 hr 11 min 05 sec)
Heartbeat CPU 0 instructions: 121000769 cycles: 34700006 heartbeat IPC: 3.163 cumulative IPC: 3.103 (Simulation time: 00 hr 11 min 07 sec)
Heartbeat CPU 0 instructions: 121500771 cycles: 34856316 heartbeat IPC: 3.199 cumulative IPC: 3.103 (Simulation time: 00 hr 11 min 10 sec)
Heartbeat CPU 0 instructions: 122000776 cycles: 35013913 heartbeat IPC: 3.173 cumulative IPC: 3.104 (Simulation time: 00 hr 11 min 12 sec)
Heartbeat CPU 0 instructions: 122500779 cycles: 35172019 heartbeat IPC: 3.162 cumulative IPC: 3.104 (Simulation time: 00 hr 11 min 15 sec)
Heartbeat CPU 0 instructions: 123000784 cycles: 35329757 heartbeat IPC: 3.17 cumulative IPC: 3.105 (Simulation time: 00 hr 11 min 17 sec)
Heartbeat CPU 0 instructions: 123500786 cycles: 35485860 heartbeat IPC: 3.203 cumulative IPC: 3.105 (Simulation time: 00 hr 11 min 20 sec)
Heartbeat CPU 0 instructions: 124000791 cycles: 35643363 heartbeat IPC: 3.175 cumulative IPC: 3.106 (Simulation time: 00 hr 11 min 22 sec)
Heartbeat CPU 0 instructions: 124500793 cycles: 35876108 heartbeat IPC: 2.148 cumulative IPC: 3.096 (Simulation time: 00 hr 11 min 25 sec)
Heartbeat CPU 0 instructions: 125000795 cycles: 36106719 heartbeat IPC: 2.168 cumulative IPC: 3.088 (Simulation time: 00 hr 11 min 28 sec)
Heartbeat CPU 0 instructions: 125500802 cycles: 36330979 heartbeat IPC: 2.23 cumulative IPC: 3.08 (Simulation time: 00 hr 11 min 32 sec)
Heartbeat CPU 0 instructions: 126000806 cycles: 36551607 heartbeat IPC: 2.266 cumulative IPC: 3.072 (Simulation time: 00 hr 11 min 35 sec)
Heartbeat CPU 0 instructions: 126500810 cycles: 36757622 heartbeat IPC: 2.427 cumulative IPC: 3.067 (Simulation time: 00 hr 11 min 38 sec)
Heartbeat CPU 0 instructions: 127000814 cycles: 36965951 heartbeat IPC: 2.4 cumulative IPC: 3.062 (Simulation time: 00 hr 11 min 40 sec)
Heartbeat CPU 0 instructions: 127500815 cycles: 37174197 heartbeat IPC: 2.401 cumulative IPC: 3.056 (Simulation time: 00 hr 11 min 43 sec)
Heartbeat CPU 0 instructions: 128000822 cycles: 37440895 heartbeat IPC: 1.875 cumulative IPC: 3.044 (Simulation time: 00 hr 11 min 47 sec)
Heartbeat CPU 0 instructions: 128500823 cycles: 37800909 heartbeat IPC: 1.389 cumulative IPC: 3.021 (Simulation time: 00 hr 11 min 52 sec)
Heartbeat CPU 0 instructions: 129000824 cycles: 38144387 heartbeat IPC: 1.456 cumulative IPC: 3.001 (Simulation time: 00 hr 11 min 57 sec)
Heartbeat CPU 0 instructions: 129500825 cycles: 38484965 heartbeat IPC: 1.468 cumulative IPC: 2.981 (Simulation time: 00 hr 12 min 01 sec)
Heartbeat CPU 0 instructions: 130000825 cycles: 38827602 heartbeat IPC: 1.459 cumulative IPC: 2.962 (Simulation time: 00 hr 12 min 06 sec)
Heartbeat CPU 0 instructions: 130500826 cycles: 39169247 heartbeat IPC: 1.464 cumulative IPC: 2.943 (Simulation time: 00 hr 12 min 11 sec)
Heartbeat CPU 0 instructions: 131000827 cycles: 39509394 heartbeat IPC: 1.47 cumulative IPC: 2.925 (Simulation time: 00 hr 12 min 15 sec)
Heartbeat CPU 0 instructions: 131500828 cycles: 39845778 heartbeat IPC: 1.486 cumulative IPC: 2.908 (Simulation time: 00 hr 12 min 20 sec)
Heartbeat CPU 0 instructions: 132000829 cycles: 40184191 heartbeat IPC: 1.477 cumulative IPC: 2.891 (Simulation time: 00 hr 12 min 24 sec)
Heartbeat CPU 0 instructions: 132500830 cycles: 40524576 heartbeat IPC: 1.469 cumulative IPC: 2.874 (Simulation time: 00 hr 12 min 29 sec)
Heartbeat CPU 0 instructions: 133000831 cycles: 40867406 heartbeat IPC: 1.458 cumulative IPC: 2.857 (Simulation time: 00 hr 12 min 34 sec)
Heartbeat CPU 0 instructions: 133500836 cycles: 41209811 heartbeat IPC: 1.46 cumulative IPC: 2.841 (Simulation time: 00 hr 12 min 39 sec)
Heartbeat CPU 0 instructions: 134000837 cycles: 41555420 heartbeat IPC: 1.447 cumulative IPC: 2.824 (Simulation time: 00 hr 12 min 43 sec)
Heartbeat CPU 0 instructions: 134500838 cycles: 41899773 heartbeat IPC: 1.452 cumulative IPC: 2.809 (Simulation time: 00 hr 12 min 48 sec)
Heartbeat CPU 0 instructions: 135000839 cycles: 42245435 heartbeat IPC: 1.447 cumulative IPC: 2.793 (Simulation time: 00 hr 12 min 53 sec)
Heartbeat CPU 0 instructions: 135500840 cycles: 42582343 heartbeat IPC: 1.484 cumulative IPC: 2.779 (Simulation time: 00 hr 12 min 58 sec)
Heartbeat CPU 0 instructions: 136000841 cycles: 42914961 heartbeat IPC: 1.503 cumulative IPC: 2.765 (Simulation time: 00 hr 13 min 02 sec)
Heartbeat CPU 0 instructions: 136500842 cycles: 43250478 heartbeat IPC: 1.49 cumulative IPC: 2.752 (Simulation time: 00 hr 13 min 07 sec)
Heartbeat CPU 0 instructions: 137000842 cycles: 43588386 heartbeat IPC: 1.48 cumulative IPC: 2.738 (Simulation time: 00 hr 13 min 12 sec)
Heartbeat CPU 0 instructions: 137500843 cycles: 43926044 heartbeat IPC: 1.481 cumulative IPC: 2.725 (Simulation time: 00 hr 13 min 16 sec)
Heartbeat CPU 0 instructions: 138000844 cycles: 44263820 heartbeat IPC: 1.48 cumulative IPC: 2.712 (Simulation time: 00 hr 13 min 21 sec)
Heartbeat CPU 0 instructions: 138500845 cycles: 44606021 heartbeat IPC: 1.461 cumulative IPC: 2.699 (Simulation time: 00 hr 13 min 26 sec)
Heartbeat CPU 0 instructions: 139000846 cycles: 44951255 heartbeat IPC: 1.448 cumulative IPC: 2.686 (Simulation time: 00 hr 13 min 31 sec)
Heartbeat CPU 0 instructions: 139500847 cycles: 45297387 heartbeat IPC: 1.445 cumulative IPC: 2.673 (Simulation time: 00 hr 13 min 35 sec)
Heartbeat CPU 0 instructions: 140000852 cycles: 45636899 heartbeat IPC: 1.473 cumulative IPC: 2.661 (Simulation time: 00 hr 13 min 40 sec)
Heartbeat CPU 0 instructions: 140500853 cycles: 45977932 heartbeat IPC: 1.466 cumulative IPC: 2.649 (Simulation time: 00 hr 13 min 45 sec)
Heartbeat CPU 0 instructions: 141000854 cycles: 46317895 heartbeat IPC: 1.471 cumulative IPC: 2.638 (Simulation time: 00 hr 13 min 50 sec)
Heartbeat CPU 0 instructions: 141500855 cycles: 46656723 heartbeat IPC: 1.476 cumulative IPC: 2.626 (Simulation time: 00 hr 13 min 55 sec)
Heartbeat CPU 0 instructions: 142000856 cycles: 46995156 heartbeat IPC: 1.477 cumulative IPC: 2.615 (Simulation time: 00 hr 13 min 59 sec)
Heartbeat CPU 0 instructions: 142500857 cycles: 47340436 heartbeat IPC: 1.448 cumulative IPC: 2.604 (Simulation time: 00 hr 14 min 04 sec)
Heartbeat CPU 0 instructions: 143000858 cycles: 47681675 heartbeat IPC: 1.465 cumulative IPC: 2.593 (Simulation time: 00 hr 14 min 09 sec)
Heartbeat CPU 0 instructions: 143500858 cycles: 48021243 heartbeat IPC: 1.472 cumulative IPC: 2.582 (Simulation time: 00 hr 14 min 13 sec)
Heartbeat CPU 0 instructions: 144000859 cycles: 48361767 heartbeat IPC: 1.468 cumulative IPC: 2.572 (Simulation time: 00 hr 14 min 18 sec)
Heartbeat CPU 0 instructions: 144500860 cycles: 48706202 heartbeat IPC: 1.452 cumulative IPC: 2.562 (Simulation time: 00 hr 14 min 23 sec)
Heartbeat CPU 0 instructions: 145000861 cycles: 49056398 heartbeat IPC: 1.428 cumulative IPC: 2.551 (Simulation time: 00 hr 14 min 28 sec)
Heartbeat CPU 0 instructions: 145500862 cycles: 49403017 heartbeat IPC: 1.443 cumulative IPC: 2.541 (Simulation time: 00 hr 14 min 33 sec)
Heartbeat CPU 0 instructions: 146000863 cycles: 49750326 heartbeat IPC: 1.44 cumulative IPC: 2.531 (Simulation time: 00 hr 14 min 38 sec)
Heartbeat CPU 0 instructions: 146500864 cycles: 50091347 heartbeat IPC: 1.466 cumulative IPC: 2.521 (Simulation time: 00 hr 14 min 42 sec)
Heartbeat CPU 0 instructions: 147000869 cycles: 50435418 heartbeat IPC: 1.453 cumulative IPC: 2.512 (Simulation time: 00 hr 14 min 47 sec)
Heartbeat CPU 0 instructions: 147500870 cycles: 50781846 heartbeat IPC: 1.443 cumulative IPC: 2.502 (Simulation time: 00 hr 14 min 52 sec)
Heartbeat CPU 0 instructions: 148000871 cycles: 51125672 heartbeat IPC: 1.454 cumulative IPC: 2.493 (Simulation time: 00 hr 14 min 57 sec)
Heartbeat CPU 0 instructions: 148500875 cycles: 52677218 heartbeat IPC: 0.3223 cumulative IPC: 2.411 (Simulation time: 00 hr 15 min 18 sec)
Heartbeat CPU 0 instructions: 149000877 cycles: 54036601 heartbeat IPC: 0.3678 cumulative IPC: 2.345 (Simulation time: 00 hr 15 min 35 sec)
Heartbeat CPU 0 instructions: 149500881 cycles: 54476894 heartbeat IPC: 1.136 cumulative IPC: 2.332 (Simulation time: 00 hr 15 min 42 sec)
Heartbeat CPU 0 instructions: 150000887 cycles: 54717207 heartbeat IPC: 2.081 cumulative IPC: 2.331 (Simulation time: 00 hr 15 min 46 sec)
Heartbeat CPU 0 instructions: 150500889 cycles: 54926508 heartbeat IPC: 2.389 cumulative IPC: 2.331 (Simulation time: 00 hr 15 min 49 sec)
Heartbeat CPU 0 instructions: 151000891 cycles: 55145770 heartbeat IPC: 2.28 cumulative IPC: 2.331 (Simulation time: 00 hr 15 min 53 sec)
Heartbeat CPU 0 instructions: 151500891 cycles: 55381170 heartbeat IPC: 2.124 cumulative IPC: 2.33 (Simulation time: 00 hr 15 min 57 sec)
Heartbeat CPU 0 instructions: 152000898 cycles: 55588202 heartbeat IPC: 2.415 cumulative IPC: 2.33 (Simulation time: 00 hr 16 min 00 sec)
Heartbeat CPU 0 instructions: 152500904 cycles: 55816240 heartbeat IPC: 2.193 cumulative IPC: 2.33 (Simulation time: 00 hr 16 min 04 sec)
Heartbeat CPU 0 instructions: 153000907 cycles: 56016535 heartbeat IPC: 2.496 cumulative IPC: 2.33 (Simulation time: 00 hr 16 min 07 sec)
Heartbeat CPU 0 instructions: 153500907 cycles: 56221287 heartbeat IPC: 2.442 cumulative IPC: 2.331 (Simulation time: 00 hr 16 min 11 sec)
Heartbeat CPU 0 instructions: 154000913 cycles: 56439549 heartbeat IPC: 2.291 cumulative IPC: 2.331 (Simulation time: 00 hr 16 min 14 sec)
Heartbeat CPU 0 instructions: 154500915 cycles: 56633812 heartbeat IPC: 2.574 cumulative IPC: 2.332 (Simulation time: 00 hr 16 min 17 sec)
Heartbeat CPU 0 instructions: 155000916 cycles: 56825477 heartbeat IPC: 2.609 cumulative IPC: 2.333 (Simulation time: 00 hr 16 min 21 sec)
Heartbeat CPU 0 instructions: 155500920 cycles: 57036232 heartbeat IPC: 2.372 cumulative IPC: 2.333 (Simulation time: 00 hr 16 min 24 sec)
Heartbeat CPU 0 instructions: 156000926 cycles: 57225005 heartbeat IPC: 2.649 cumulative IPC: 2.334 (Simulation time: 00 hr 16 min 27 sec)
Heartbeat CPU 0 instructions: 156500933 cycles: 57413670 heartbeat IPC: 2.65 cumulative IPC: 2.336 (Simulation time: 00 hr 16 min 31 sec)
Heartbeat CPU 0 instructions: 157000940 cycles: 57622442 heartbeat IPC: 2.395 cumulative IPC: 2.336 (Simulation time: 00 hr 16 min 34 sec)
Heartbeat CPU 0 instructions: 157500943 cycles: 57812059 heartbeat IPC: 2.637 cumulative IPC: 2.337 (Simulation time: 00 hr 16 min 37 sec)
Heartbeat CPU 0 instructions: 158000943 cycles: 58014777 heartbeat IPC: 2.466 cumulative IPC: 2.338 (Simulation time: 00 hr 16 min 41 sec)
Heartbeat CPU 0 instructions: 158500943 cycles: 58209877 heartbeat IPC: 2.563 cumulative IPC: 2.339 (Simulation time: 00 hr 16 min 44 sec)
Heartbeat CPU 0 instructions: 159000945 cycles: 58398551 heartbeat IPC: 2.65 cumulative IPC: 2.34 (Simulation time: 00 hr 16 min 47 sec)
Heartbeat CPU 0 instructions: 159500945 cycles: 58619204 heartbeat IPC: 2.266 cumulative IPC: 2.34 (Simulation time: 00 hr 16 min 51 sec)
Heartbeat CPU 0 instructions: 160000947 cycles: 58797508 heartbeat IPC: 2.804 cumulative IPC: 2.341 (Simulation time: 00 hr 16 min 54 sec)
Heartbeat CPU 0 instructions: 160500950 cycles: 58975751 heartbeat IPC: 2.805 cumulative IPC: 2.343 (Simulation time: 00 hr 16 min 57 sec)
Heartbeat CPU 0 instructions: 161000956 cycles: 59169136 heartbeat IPC: 2.586 cumulative IPC: 2.344 (Simulation time: 00 hr 17 min 00 sec)
Heartbeat CPU 0 instructions: 161500956 cycles: 59348063 heartbeat IPC: 2.794 cumulative IPC: 2.346 (Simulation time: 00 hr 17 min 03 sec)
Heartbeat CPU 0 instructions: 162000957 cycles: 59526650 heartbeat IPC: 2.8 cumulative IPC: 2.347 (Simulation time: 00 hr 17 min 06 sec)
Heartbeat CPU 0 instructions: 162500957 cycles: 59721323 heartbeat IPC: 2.568 cumulative IPC: 2.348 (Simulation time: 00 hr 17 min 09 sec)
Heartbeat CPU 0 instructions: 163000958 cycles: 59899792 heartbeat IPC: 2.802 cumulative IPC: 2.35 (Simulation time: 00 hr 17 min 13 sec)
Heartbeat CPU 0 instructions: 163500963 cycles: 60078242 heartbeat IPC: 2.802 cumulative IPC: 2.352 (Simulation time: 00 hr 17 min 16 sec)
Heartbeat CPU 0 instructions: 164000965 cycles: 60272548 heartbeat IPC: 2.573 cumulative IPC: 2.353 (Simulation time: 00 hr 17 min 19 sec)
Heartbeat CPU 0 instructions: 164500966 cycles: 60451000 heartbeat IPC: 2.802 cumulative IPC: 2.354 (Simulation time: 00 hr 17 min 22 sec)
Heartbeat CPU 0 instructions: 165000967 cycles: 60644231 heartbeat IPC: 2.588 cumulative IPC: 2.355 (Simulation time: 00 hr 17 min 25 sec)
Heartbeat CPU 0 instructions: 165500967 cycles: 60823892 heartbeat IPC: 2.783 cumulative IPC: 2.357 (Simulation time: 00 hr 17 min 28 sec)
Heartbeat CPU 0 instructions: 166000967 cycles: 61003289 heartbeat IPC: 2.787 cumulative IPC: 2.358 (Simulation time: 00 hr 17 min 32 sec)
Heartbeat CPU 0 instructions: 166500974 cycles: 61198804 heartbeat IPC: 2.557 cumulative IPC: 2.359 (Simulation time: 00 hr 17 min 35 sec)
Heartbeat CPU 0 instructions: 167000978 cycles: 61376704 heartbeat IPC: 2.811 cumulative IPC: 2.361 (Simulation time: 00 hr 17 min 38 sec)
Heartbeat CPU 0 instructions: 167500980 cycles: 61555423 heartbeat IPC: 2.798 cumulative IPC: 2.362 (Simulation time: 00 hr 17 min 41 sec)
Heartbeat CPU 0 instructions: 168000982 cycles: 61748717 heartbeat IPC: 2.587 cumulative IPC: 2.363 (Simulation time: 00 hr 17 min 44 sec)
Heartbeat CPU 0 instructions: 168500984 cycles: 61927560 heartbeat IPC: 2.796 cumulative IPC: 2.365 (Simulation time: 00 hr 17 min 47 sec)
Heartbeat CPU 0 instructions: 169000987 cycles: 62106522 heartbeat IPC: 2.794 cumulative IPC: 2.366 (Simulation time: 00 hr 17 min 51 sec)
Heartbeat CPU 0 instructions: 169500987 cycles: 62306729 heartbeat IPC: 2.497 cumulative IPC: 2.367 (Simulation time: 00 hr 17 min 54 sec)
Heartbeat CPU 0 instructions: 170000990 cycles: 62500328 heartbeat IPC: 2.583 cumulative IPC: 2.368 (Simulation time: 00 hr 17 min 57 sec)
Heartbeat CPU 0 instructions: 170500990 cycles: 62679054 heartbeat IPC: 2.798 cumulative IPC: 2.369 (Simulation time: 00 hr 18 min 00 sec)
Heartbeat CPU 0 instructions: 171000994 cycles: 62872706 heartbeat IPC: 2.582 cumulative IPC: 2.37 (Simulation time: 00 hr 18 min 04 sec)
Heartbeat CPU 0 instructions: 171500994 cycles: 63051597 heartbeat IPC: 2.795 cumulative IPC: 2.371 (Simulation time: 00 hr 18 min 07 sec)
Heartbeat CPU 0 instructions: 172000999 cycles: 63247092 heartbeat IPC: 2.558 cumulative IPC: 2.372 (Simulation time: 00 hr 18 min 10 sec)
Heartbeat CPU 0 instructions: 172501003 cycles: 63426189 heartbeat IPC: 2.792 cumulative IPC: 2.374 (Simulation time: 00 hr 18 min 13 sec)
Heartbeat CPU 0 instructions: 173001005 cycles: 63604799 heartbeat IPC: 2.799 cumulative IPC: 2.375 (Simulation time: 00 hr 18 min 16 sec)
Heartbeat CPU 0 instructions: 173501007 cycles: 63797782 heartbeat IPC: 2.591 cumulative IPC: 2.376 (Simulation time: 00 hr 18 min 19 sec)
Heartbeat CPU 0 instructions: 174001014 cycles: 63975964 heartbeat IPC: 2.806 cumulative IPC: 2.377 (Simulation time: 00 hr 18 min 23 sec)
Heartbeat CPU 0 instructions: 174501019 cycles: 64154609 heartbeat IPC: 2.799 cumulative IPC: 2.379 (Simulation time: 00 hr 18 min 26 sec)
Heartbeat CPU 0 instructions: 175001020 cycles: 64348571 heartbeat IPC: 2.578 cumulative IPC: 2.379 (Simulation time: 00 hr 18 min 29 sec)
Heartbeat CPU 0 instructions: 175501022 cycles: 64527440 heartbeat IPC: 2.795 cumulative IPC: 2.381 (Simulation time: 00 hr 18 min 32 sec)
Heartbeat CPU 0 instructions: 176001023 cycles: 64706139 heartbeat IPC: 2.798 cumulative IPC: 2.382 (Simulation time: 00 hr 18 min 35 sec)
Heartbeat CPU 0 instructions: 176501028 cycles: 64899368 heartbeat IPC: 2.588 cumulative IPC: 2.383 (Simulation time: 00 hr 18 min 38 sec)
Heartbeat CPU 0 instructions: 177001030 cycles: 65076864 heartbeat IPC: 2.817 cumulative IPC: 2.384 (Simulation time: 00 hr 18 min 41 sec)
Heartbeat CPU 0 instructions: 177501036 cycles: 65262286 heartbeat IPC: 2.697 cumulative IPC: 2.386 (Simulation time: 00 hr 18 min 45 sec)
Heartbeat CPU 0 instructions: 178001036 cycles: 65489143 heartbeat IPC: 2.204 cumulative IPC: 2.385 (Simulation time: 00 hr 18 min 48 sec)
Heartbeat CPU 0 instructions: 178501036 cycles: 65717855 heartbeat IPC: 2.186 cumulative IPC: 2.384 (Simulation time: 00 hr 18 min 52 sec)
Heartbeat CPU 0 instructions: 179001036 cycles: 65989136 heartbeat IPC: 1.843 cumulative IPC: 2.381 (Simulation time: 00 hr 18 min 57 sec)
Heartbeat CPU 0 instructions: 179501036 cycles: 66220670 heartbeat IPC: 2.16 cumulative IPC: 2.38 (Simulation time: 00 hr 19 min 00 sec)
Heartbeat CPU 0 instructions: 180001036 cycles: 66490164 heartbeat IPC: 1.855 cumulative IPC: 2.378 (Simulation time: 00 hr 19 min 05 sec)
Heartbeat CPU 0 instructions: 180501037 cycles: 66761699 heartbeat IPC: 1.841 cumulative IPC: 2.375 (Simulation time: 00 hr 19 min 09 sec)
Heartbeat CPU 0 instructions: 181001042 cycles: 66986388 heartbeat IPC: 2.225 cumulative IPC: 2.374 (Simulation time: 00 hr 19 min 13 sec)
Heartbeat CPU 0 instructions: 181501044 cycles: 67199645 heartbeat IPC: 2.345 cumulative IPC: 2.374 (Simulation time: 00 hr 19 min 16 sec)
Heartbeat CPU 0 instructions: 182001049 cycles: 67449316 heartbeat IPC: 2.003 cumulative IPC: 2.373 (Simulation time: 00 hr 19 min 21 sec)
Heartbeat CPU 0 instructions: 182501055 cycles: 67665437 heartbeat IPC: 2.314 cumulative IPC: 2.372 (Simulation time: 00 hr 19 min 24 sec)
Heartbeat CPU 0 instructions: 183001057 cycles: 67870569 heartbeat IPC: 2.437 cumulative IPC: 2.373 (Simulation time: 00 hr 19 min 28 sec)
Heartbeat CPU 0 instructions: 183501064 cycles: 68095218 heartbeat IPC: 2.226 cumulative IPC: 2.372 (Simulation time: 00 hr 19 min 31 sec)
Heartbeat CPU 0 instructions: 184001068 cycles: 68304276 heartbeat IPC: 2.392 cumulative IPC: 2.372 (Simulation time: 00 hr 19 min 35 sec)
Heartbeat CPU 0 instructions: 184501068 cycles: 68521900 heartbeat IPC: 2.298 cumulative IPC: 2.372 (Simulation time: 00 hr 19 min 38 sec)
Heartbeat CPU 0 instructions: 185001071 cycles: 68724408 heartbeat IPC: 2.469 cumulative IPC: 2.372 (Simulation time: 00 hr 19 min 42 sec)
Heartbeat CPU 0 instructions: 185501073 cycles: 68920197 heartbeat IPC: 2.554 cumulative IPC: 2.373 (Simulation time: 00 hr 19 min 45 sec)
Heartbeat CPU 0 instructions: 186001074 cycles: 69131665 heartbeat IPC: 2.364 cumulative IPC: 2.373 (Simulation time: 00 hr 19 min 49 sec)
Heartbeat CPU 0 instructions: 186501077 cycles: 69321615 heartbeat IPC: 2.632 cumulative IPC: 2.374 (Simulation time: 00 hr 19 min 52 sec)
Heartbeat CPU 0 instructions: 187001080 cycles: 69507078 heartbeat IPC: 2.696 cumulative IPC: 2.375 (Simulation time: 00 hr 19 min 55 sec)
Heartbeat CPU 0 instructions: 187501086 cycles: 69719934 heartbeat IPC: 2.349 cumulative IPC: 2.375 (Simulation time: 00 hr 19 min 59 sec)
Heartbeat CPU 0 instructions: 188001092 cycles: 69912784 heartbeat IPC: 2.593 cumulative IPC: 2.375 (Simulation time: 00 hr 20 min 02 sec)
Heartbeat CPU 0 instructions: 188501095 cycles: 70102560 heartbeat IPC: 2.635 cumulative IPC: 2.376 (Simulation time: 00 hr 20 min 05 sec)
Heartbeat CPU 0 instructions: 189001096 cycles: 70303271 heartbeat IPC: 2.491 cumulative IPC: 2.377 (Simulation time: 00 hr 20 min 09 sec)
Heartbeat CPU 0 instructions: 189501100 cycles: 70491707 heartbeat IPC: 2.653 cumulative IPC: 2.377 (Simulation time: 00 hr 20 min 12 sec)
Heartbeat CPU 0 instructions: 190001102 cycles: 70696923 heartbeat IPC: 2.436 cumulative IPC: 2.378 (Simulation time: 00 hr 20 min 15 sec)
Heartbeat CPU 0 instructions: 190501109 cycles: 70898543 heartbeat IPC: 2.48 cumulative IPC: 2.378 (Simulation time: 00 hr 20 min 19 sec)
Heartbeat CPU 0 instructions: 191001113 cycles: 71078178 heartbeat IPC: 2.783 cumulative IPC: 2.379 (Simulation time: 00 hr 20 min 22 sec)
Heartbeat CPU 0 instructions: 191501113 cycles: 71271261 heartbeat IPC: 2.59 cumulative IPC: 2.38 (Simulation time: 00 hr 20 min 25 sec)
Heartbeat CPU 0 instructions: 192001117 cycles: 71455929 heartbeat IPC: 2.708 cumulative IPC: 2.381 (Simulation time: 00 hr 20 min 28 sec)
Heartbeat CPU 0 instructions: 192501120 cycles: 71635155 heartbeat IPC: 2.79 cumulative IPC: 2.382 (Simulation time: 00 hr 20 min 31 sec)
Heartbeat CPU 0 instructions: 193001120 cycles: 71834759 heartbeat IPC: 2.505 cumulative IPC: 2.383 (Simulation time: 00 hr 20 min 35 sec)
Heartbeat CPU 0 instructions: 193501121 cycles: 72013406 heartbeat IPC: 2.799 cumulative IPC: 2.384 (Simulation time: 00 hr 20 min 38 sec)
Heartbeat CPU 0 instructions: 194001127 cycles: 72192478 heartbeat IPC: 2.792 cumulative IPC: 2.385 (Simulation time: 00 hr 20 min 41 sec)
Heartbeat CPU 0 instructions: 194501130 cycles: 72388190 heartbeat IPC: 2.555 cumulative IPC: 2.386 (Simulation time: 00 hr 20 min 44 sec)
Heartbeat CPU 0 instructions: 195001132 cycles: 72568413 heartbeat IPC: 2.774 cumulative IPC: 2.387 (Simulation time: 00 hr 20 min 47 sec)
Heartbeat CPU 0 instructions: 195501134 cycles: 72746118 heartbeat IPC: 2.814 cumulative IPC: 2.388 (Simulation time: 00 hr 20 min 51 sec)
Heartbeat CPU 0 instructions: 196001138 cycles: 72939989 heartbeat IPC: 2.579 cumulative IPC: 2.389 (Simulation time: 00 hr 20 min 54 sec)
Heartbeat CPU 0 instructions: 196501145 cycles: 73118938 heartbeat IPC: 2.794 cumulative IPC: 2.39 (Simulation time: 00 hr 20 min 57 sec)
Heartbeat CPU 0 instructions: 197001146 cycles: 73295940 heartbeat IPC: 2.825 cumulative IPC: 2.391 (Simulation time: 00 hr 21 min 00 sec)
Heartbeat CPU 0 instructions: 197501148 cycles: 73488488 heartbeat IPC: 2.597 cumulative IPC: 2.392 (Simulation time: 00 hr 21 min 03 sec)
Heartbeat CPU 0 instructions: 198001153 cycles: 73667354 heartbeat IPC: 2.795 cumulative IPC: 2.393 (Simulation time: 00 hr 21 min 06 sec)
Heartbeat CPU 0 instructions: 198501159 cycles: 73861075 heartbeat IPC: 2.581 cumulative IPC: 2.393 (Simulation time: 00 hr 21 min 10 sec)
Heartbeat CPU 0 instructions: 199001164 cycles: 74039743 heartbeat IPC: 2.799 cumulative IPC: 2.395 (Simulation time: 00 hr 21 min 13 sec)
Heartbeat CPU 0 instructions: 199501165 cycles: 74218846 heartbeat IPC: 2.792 cumulative IPC: 2.396 (Simulation time: 00 hr 21 min 16 sec)
Heartbeat CPU 0 instructions: 200001167 cycles: 74416720 heartbeat IPC: 2.527 cumulative IPC: 2.396 (Simulation time: 00 hr 21 min 19 sec)
Heartbeat CPU 0 instructions: 200501170 cycles: 74612434 heartbeat IPC: 2.555 cumulative IPC: 2.397 (Simulation time: 00 hr 21 min 22 sec)
Heartbeat CPU 0 instructions: 201001173 cycles: 74791135 heartbeat IPC: 2.798 cumulative IPC: 2.398 (Simulation time: 00 hr 21 min 26 sec)
Heartbeat CPU 0 instructions: 201501174 cycles: 74985413 heartbeat IPC: 2.574 cumulative IPC: 2.398 (Simulation time: 00 hr 21 min 29 sec)
Heartbeat CPU 0 instructions: 202001178 cycles: 75164000 heartbeat IPC: 2.8 cumulative IPC: 2.399 (Simulation time: 00 hr 21 min 32 sec)
Heartbeat CPU 0 instructions: 202501179 cycles: 75341907 heartbeat IPC: 2.81 cumulative IPC: 2.401 (Simulation time: 00 hr 21 min 35 sec)
Heartbeat CPU 0 instructions: 203001180 cycles: 75535085 heartbeat IPC: 2.588 cumulative IPC: 2.401 (Simulation time: 00 hr 21 min 38 sec)
Heartbeat CPU 0 instructions: 203501182 cycles: 75713532 heartbeat IPC: 2.802 cumulative IPC: 2.402 (Simulation time: 00 hr 21 min 41 sec)
Heartbeat CPU 0 instructions: 204001182 cycles: 75896773 heartbeat IPC: 2.729 cumulative IPC: 2.403 (Simulation time: 00 hr 21 min 45 sec)
Heartbeat CPU 0 instructions: 204501182 cycles: 76086541 heartbeat IPC: 2.635 cumulative IPC: 2.404 (Simulation time: 00 hr 21 min 48 sec)
Heartbeat CPU 0 instructions: 205001182 cycles: 76265435 heartbeat IPC: 2.795 cumulative IPC: 2.405 (Simulation time: 00 hr 21 min 51 sec)
Heartbeat CPU 0 instructions: 205501189 cycles: 76458054 heartbeat IPC: 2.596 cumulative IPC: 2.406 (Simulation time: 00 hr 21 min 54 sec)
Heartbeat CPU 0 instructions: 206001190 cycles: 76635193 heartbeat IPC: 2.823 cumulative IPC: 2.407 (Simulation time: 00 hr 21 min 57 sec)
Heartbeat CPU 0 instructions: 206501190 cycles: 76812850 heartbeat IPC: 2.814 cumulative IPC: 2.408 (Simulation time: 00 hr 22 min 00 sec)
Heartbeat CPU 0 instructions: 207001190 cycles: 77005882 heartbeat IPC: 2.59 cumulative IPC: 2.408 (Simulation time: 00 hr 22 min 04 sec)
Heartbeat CPU 0 instructions: 207501192 cycles: 77183900 heartbeat IPC: 2.809 cumulative IPC: 2.409 (Simulation time: 00 hr 22 min 07 sec)
Heartbeat CPU 0 instructions: 208001195 cycles: 77363038 heartbeat IPC: 2.791 cumulative IPC: 2.41 (Simulation time: 00 hr 22 min 10 sec)
Heartbeat CPU 0 instructions: 208501195 cycles: 77555580 heartbeat IPC: 2.597 cumulative IPC: 2.411 (Simulation time: 00 hr 22 min 13 sec)
Heartbeat CPU 0 instructions: 209001199 cycles: 77733254 heartbeat IPC: 2.814 cumulative IPC: 2.412 (Simulation time: 00 hr 22 min 16 sec)
Heartbeat CPU 0 instructions: 209501202 cycles: 77912047 heartbeat IPC: 2.797 cumulative IPC: 2.413 (Simulation time: 00 hr 22 min 19 sec)
Heartbeat CPU 0 instructions: 210001203 cycles: 78106539 heartbeat IPC: 2.571 cumulative IPC: 2.414 (Simulation time: 00 hr 22 min 23 sec)
Heartbeat CPU 0 instructions: 210501207 cycles: 78303369 heartbeat IPC: 2.54 cumulative IPC: 2.414 (Simulation time: 00 hr 22 min 26 sec)
Heartbeat CPU 0 instructions: 211001207 cycles: 78491006 heartbeat IPC: 2.665 cumulative IPC: 2.415 (Simulation time: 00 hr 22 min 29 sec)
Heartbeat CPU 0 instructions: 211501209 cycles: 78675509 heartbeat IPC: 2.71 cumulative IPC: 2.416 (Simulation time: 00 hr 22 min 32 sec)
Heartbeat CPU 0 instructions: 212001210 cycles: 78853939 heartbeat IPC: 2.802 cumulative IPC: 2.417 (Simulation time: 00 hr 22 min 35 sec)
Heartbeat CPU 0 instructions: 212501210 cycles: 79048342 heartbeat IPC: 2.572 cumulative IPC: 2.417 (Simulation time: 00 hr 22 min 39 sec)
Heartbeat CPU 0 instructions: 213001212 cycles: 79226410 heartbeat IPC: 2.808 cumulative IPC: 2.418 (Simulation time: 00 hr 22 min 42 sec)
Heartbeat CPU 0 instructions: 213501219 cycles: 79404991 heartbeat IPC: 2.8 cumulative IPC: 2.419 (Simulation time: 00 hr 22 min 45 sec)
Heartbeat CPU 0 instructions: 214001223 cycles: 79598290 heartbeat IPC: 2.587 cumulative IPC: 2.42 (Simulation time: 00 hr 22 min 48 sec)
Heartbeat CPU 0 instructions: 214501224 cycles: 79777680 heartbeat IPC: 2.787 cumulative IPC: 2.42 (Simulation time: 00 hr 22 min 51 sec)
Heartbeat CPU 0 instructions: 215001227 cycles: 79956423 heartbeat IPC: 2.797 cumulative IPC: 2.421 (Simulation time: 00 hr 22 min 54 sec)
Heartbeat CPU 0 instructions: 215501234 cycles: 80149376 heartbeat IPC: 2.591 cumulative IPC: 2.422 (Simulation time: 00 hr 22 min 58 sec)
Heartbeat CPU 0 instructions: 216001238 cycles: 80328020 heartbeat IPC: 2.799 cumulative IPC: 2.423 (Simulation time: 00 hr 23 min 01 sec)
Heartbeat CPU 0 instructions: 216501240 cycles: 80507004 heartbeat IPC: 2.794 cumulative IPC: 2.424 (Simulation time: 00 hr 23 min 04 sec)
Heartbeat CPU 0 instructions: 217001247 cycles: 80700024 heartbeat IPC: 2.59 cumulative IPC: 2.424 (Simulation time: 00 hr 23 min 07 sec)
Heartbeat CPU 0 instructions: 217501251 cycles: 80878381 heartbeat IPC: 2.803 cumulative IPC: 2.425 (Simulation time: 00 hr 23 min 10 sec)
Heartbeat CPU 0 instructions: 218001252 cycles: 81068663 heartbeat IPC: 2.628 cumulative IPC: 2.426 (Simulation time: 00 hr 23 min 13 sec)
Heartbeat CPU 0 instructions: 218501256 cycles: 81248253 heartbeat IPC: 2.784 cumulative IPC: 2.427 (Simulation time: 00 hr 23 min 17 sec)
Heartbeat CPU 0 instructions: 219001257 cycles: 81426740 heartbeat IPC: 2.801 cumulative IPC: 2.428 (Simulation time: 00 hr 23 min 20 sec)
Heartbeat CPU 0 instructions: 219501262 cycles: 81619202 heartbeat IPC: 2.598 cumulative IPC: 2.428 (Simulation time: 00 hr 23 min 23 sec)
Heartbeat CPU 0 instructions: 220001262 cycles: 81797513 heartbeat IPC: 2.804 cumulative IPC: 2.429 (Simulation time: 00 hr 23 min 26 sec)
Heartbeat CPU 0 instructions: 220501264 cycles: 81993585 heartbeat IPC: 2.55 cumulative IPC: 2.43 (Simulation time: 00 hr 23 min 29 sec)
Heartbeat CPU 0 instructions: 221001270 cycles: 82189812 heartbeat IPC: 2.548 cumulative IPC: 2.43 (Simulation time: 00 hr 23 min 33 sec)
Heartbeat CPU 0 instructions: 221501277 cycles: 82368281 heartbeat IPC: 2.802 cumulative IPC: 2.431 (Simulation time: 00 hr 23 min 36 sec)
Heartbeat CPU 0 instructions: 222001280 cycles: 82547087 heartbeat IPC: 2.796 cumulative IPC: 2.432 (Simulation time: 00 hr 23 min 39 sec)
Heartbeat CPU 0 instructions: 222501281 cycles: 82740764 heartbeat IPC: 2.582 cumulative IPC: 2.432 (Simulation time: 00 hr 23 min 42 sec)
Heartbeat CPU 0 instructions: 223001282 cycles: 82918871 heartbeat IPC: 2.807 cumulative IPC: 2.433 (Simulation time: 00 hr 23 min 45 sec)
Heartbeat CPU 0 instructions: 223501288 cycles: 83096576 heartbeat IPC: 2.814 cumulative IPC: 2.434 (Simulation time: 00 hr 23 min 48 sec)
Heartbeat CPU 0 instructions: 224001295 cycles: 83289932 heartbeat IPC: 2.586 cumulative IPC: 2.434 (Simulation time: 00 hr 23 min 52 sec)
Heartbeat CPU 0 instructions: 224501297 cycles: 83467544 heartbeat IPC: 2.815 cumulative IPC: 2.435 (Simulation time: 00 hr 23 min 55 sec)
Heartbeat CPU 0 instructions: 225001300 cycles: 83661589 heartbeat IPC: 2.577 cumulative IPC: 2.436 (Simulation time: 00 hr 23 min 58 sec)
Heartbeat CPU 0 instructions: 225501303 cycles: 83840982 heartbeat IPC: 2.787 cumulative IPC: 2.437 (Simulation time: 00 hr 24 min 01 sec)
Heartbeat CPU 0 instructions: 226001309 cycles: 84019232 heartbeat IPC: 2.805 cumulative IPC: 2.438 (Simulation time: 00 hr 24 min 04 sec)
Heartbeat CPU 0 instructions: 226501312 cycles: 84212242 heartbeat IPC: 2.591 cumulative IPC: 2.438 (Simulation time: 00 hr 24 min 07 sec)
Heartbeat CPU 0 instructions: 227001317 cycles: 84391052 heartbeat IPC: 2.796 cumulative IPC: 2.439 (Simulation time: 00 hr 24 min 11 sec)
Heartbeat CPU 0 instructions: 227501321 cycles: 84568389 heartbeat IPC: 2.82 cumulative IPC: 2.44 (Simulation time: 00 hr 24 min 14 sec)
Heartbeat CPU 0 instructions: 228001324 cycles: 84761229 heartbeat IPC: 2.593 cumulative IPC: 2.44 (Simulation time: 00 hr 24 min 17 sec)
Heartbeat CPU 0 instructions: 228501326 cycles: 84937742 heartbeat IPC: 2.833 cumulative IPC: 2.441 (Simulation time: 00 hr 24 min 20 sec)
Heartbeat CPU 0 instructions: 229001333 cycles: 85116247 heartbeat IPC: 2.801 cumulative IPC: 2.442 (Simulation time: 00 hr 24 min 23 sec)
Heartbeat CPU 0 instructions: 229501337 cycles: 85310049 heartbeat IPC: 2.58 cumulative IPC: 2.442 (Simulation time: 00 hr 24 min 26 sec)
Heartbeat CPU 0 instructions: 230001338 cycles: 85488297 heartbeat IPC: 2.805 cumulative IPC: 2.443 (Simulation time: 00 hr 24 min 29 sec)
Heartbeat CPU 0 instructions: 230501338 cycles: 85671444 heartbeat IPC: 2.73 cumulative IPC: 2.444 (Simulation time: 00 hr 24 min 33 sec)
Heartbeat CPU 0 instructions: 231001345 cycles: 85880266 heartbeat IPC: 2.394 cumulative IPC: 2.444 (Simulation time: 00 hr 24 min 36 sec)
Heartbeat CPU 0 instructions: 231501347 cycles: 86058810 heartbeat IPC: 2.8 cumulative IPC: 2.445 (Simulation time: 00 hr 24 min 39 sec)
Heartbeat CPU 0 instructions: 232001354 cycles: 86251200 heartbeat IPC: 2.599 cumulative IPC: 2.445 (Simulation time: 00 hr 24 min 42 sec)
Heartbeat CPU 0 instructions: 232501356 cycles: 86431195 heartbeat IPC: 2.778 cumulative IPC: 2.446 (Simulation time: 00 hr 24 min 46 sec)
Heartbeat CPU 0 instructions: 233001359 cycles: 86610355 heartbeat IPC: 2.791 cumulative IPC: 2.447 (Simulation time: 00 hr 24 min 49 sec)
Heartbeat CPU 0 instructions: 233501360 cycles: 86803622 heartbeat IPC: 2.587 cumulative IPC: 2.447 (Simulation time: 00 hr 24 min 52 sec)
Heartbeat CPU 0 instructions: 234001367 cycles: 86981817 heartbeat IPC: 2.806 cumulative IPC: 2.448 (Simulation time: 00 hr 24 min 55 sec)
Heartbeat CPU 0 instructions: 234501373 cycles: 87160987 heartbeat IPC: 2.791 cumulative IPC: 2.449 (Simulation time: 00 hr 24 min 58 sec)
Heartbeat CPU 0 instructions: 235001374 cycles: 87355963 heartbeat IPC: 2.564 cumulative IPC: 2.449 (Simulation time: 00 hr 25 min 01 sec)
Heartbeat CPU 0 instructions: 235501378 cycles: 87533440 heartbeat IPC: 2.817 cumulative IPC: 2.45 (Simulation time: 00 hr 25 min 05 sec)
Heartbeat CPU 0 instructions: 236001382 cycles: 87711490 heartbeat IPC: 2.808 cumulative IPC: 2.451 (Simulation time: 00 hr 25 min 08 sec)
Heartbeat CPU 0 instructions: 236501384 cycles: 87904915 heartbeat IPC: 2.585 cumulative IPC: 2.451 (Simulation time: 00 hr 25 min 11 sec)
Heartbeat CPU 0 instructions: 237001385 cycles: 88083645 heartbeat IPC: 2.798 cumulative IPC: 2.452 (Simulation time: 00 hr 25 min 14 sec)
Heartbeat CPU 0 instructions: 237501386 cycles: 88270205 heartbeat IPC: 2.68 cumulative IPC: 2.452 (Simulation time: 00 hr 25 min 17 sec)
Heartbeat CPU 0 instructions: 238001388 cycles: 88453705 heartbeat IPC: 2.725 cumulative IPC: 2.453 (Simulation time: 00 hr 25 min 20 sec)
Heartbeat CPU 0 instructions: 238501388 cycles: 88632332 heartbeat IPC: 2.799 cumulative IPC: 2.454 (Simulation time: 00 hr 25 min 23 sec)
Heartbeat CPU 0 instructions: 239001392 cycles: 88825078 heartbeat IPC: 2.594 cumulative IPC: 2.454 (Simulation time: 00 hr 25 min 27 sec)
Heartbeat CPU 0 instructions: 239501395 cycles: 89002776 heartbeat IPC: 2.814 cumulative IPC: 2.455 (Simulation time: 00 hr 25 min 30 sec)
Heartbeat CPU 0 instructions: 240001402 cycles: 89181085 heartbeat IPC: 2.804 cumulative IPC: 2.456 (Simulation time: 00 hr 25 min 33 sec)
Heartbeat CPU 0 instructions: 240501405 cycles: 89372923 heartbeat IPC: 2.606 cumulative IPC: 2.456 (Simulation time: 00 hr 25 min 36 sec)
Heartbeat CPU 0 instructions: 241001409 cycles: 89571559 heartbeat IPC: 2.517 cumulative IPC: 2.456 (Simulation time: 00 hr 25 min 40 sec)
Heartbeat CPU 0 instructions: 241501412 cycles: 89749714 heartbeat IPC: 2.807 cumulative IPC: 2.457 (Simulation time: 00 hr 25 min 43 sec)
Heartbeat CPU 0 instructions: 242001414 cycles: 89943000 heartbeat IPC: 2.587 cumulative IPC: 2.458 (Simulation time: 00 hr 25 min 46 sec)
Heartbeat CPU 0 instructions: 242501417 cycles: 90121488 heartbeat IPC: 2.801 cumulative IPC: 2.458 (Simulation time: 00 hr 25 min 49 sec)
Heartbeat CPU 0 instructions: 243001417 cycles: 90299926 heartbeat IPC: 2.802 cumulative IPC: 2.459 (Simulation time: 00 hr 25 min 52 sec)
Heartbeat CPU 0 instructions: 243501418 cycles: 90495414 heartbeat IPC: 2.558 cumulative IPC: 2.459 (Simulation time: 00 hr 25 min 55 sec)
Heartbeat CPU 0 instructions: 244001421 cycles: 90674874 heartbeat IPC: 2.786 cumulative IPC: 2.46 (Simulation time: 00 hr 25 min 59 sec)
Heartbeat CPU 0 instructions: 244501424 cycles: 90865804 heartbeat IPC: 2.619 cumulative IPC: 2.46 (Simulation time: 00 hr 26 min 02 sec)
Heartbeat CPU 0 instructions: 245001430 cycles: 91045810 heartbeat IPC: 2.778 cumulative IPC: 2.461 (Simulation time: 00 hr 26 min 05 sec)
Heartbeat CPU 0 instructions: 245501434 cycles: 91224596 heartbeat IPC: 2.797 cumulative IPC: 2.462 (Simulation time: 00 hr 26 min 08 sec)
Heartbeat CPU 0 instructions: 246001434 cycles: 91418339 heartbeat IPC: 2.581 cumulative IPC: 2.462 (Simulation time: 00 hr 26 min 11 sec)
Heartbeat CPU 0 instructions: 246501435 cycles: 91596717 heartbeat IPC: 2.803 cumulative IPC: 2.463 (Simulation time: 00 hr 26 min 14 sec)
Heartbeat CPU 0 instructions: 247001436 cycles: 91775130 heartbeat IPC: 2.802 cumulative IPC: 2.464 (Simulation time: 00 hr 26 min 17 sec)
Heartbeat CPU 0 instructions: 247501436 cycles: 91966523 heartbeat IPC: 2.612 cumulative IPC: 2.464 (Simulation time: 00 hr 26 min 21 sec)
Heartbeat CPU 0 instructions: 248001443 cycles: 92144104 heartbeat IPC: 2.816 cumulative IPC: 2.465 (Simulation time: 00 hr 26 min 24 sec)
Heartbeat CPU 0 instructions: 248501445 cycles: 92321851 heartbeat IPC: 2.813 cumulative IPC: 2.466 (Simulation time: 00 hr 26 min 27 sec)
Heartbeat CPU 0 instructions: 249001452 cycles: 92514272 heartbeat IPC: 2.599 cumulative IPC: 2.466 (Simulation time: 00 hr 26 min 30 sec)
Heartbeat CPU 0 instructions: 249501453 cycles: 92692660 heartbeat IPC: 2.803 cumulative IPC: 2.467 (Simulation time: 00 hr 26 min 33 sec)
Simulation finished CPU 0 instructions: 200000003 cycles: 81055566 cumulative IPC: 2.467 (Simulation time: 00 hr 26 min 36 sec)
Simulation complete CPU 0 instructions: 200000003 cycles: 81055566 cumulative IPC: 2.467 (Simulation time: 00 hr 26 min 36 sec)

ChampSim completed all CPUs

=== Simulation ===
CPU 0 runs /local-ssd/ben/dpc4-traces/ai-ml/bark.cpp-bark-small.coarse_token_gen.4.champsimtrace.gz

Region of Interest Statistics

CPU 0 cumulative IPC: 2.467 instructions: 200000003 cycles: 81055566
CPU 0 Branch Prediction Accuracy: 97.24% MPKI: 2.302 Average ROB Occupancy at Mispredict: 246.6
Branch type MPKI
BRANCH_DIRECT_JUMP: 3e-05
BRANCH_INDIRECT: 1.5e-05
BRANCH_CONDITIONAL: 2.302
BRANCH_DIRECT_CALL: 5e-06
BRANCH_INDIRECT_CALL: 1.5e-05
BRANCH_RETURN: 1.5e-05

cpu0->cpu0_STLB TOTAL        ACCESS:      72022 HIT:      67290 MISS:       4732 MSHR_MERGE:          0
cpu0->cpu0_STLB LOAD         ACCESS:      72022 HIT:      67290 MISS:       4732 MSHR_MERGE:          0
cpu0->cpu0_STLB RFO          ACCESS:          0 HIT:          0 MISS:          0 MSHR_MERGE:          0
cpu0->cpu0_STLB PREFETCH     ACCESS:          0 HIT:          0 MISS:          0 MSHR_MERGE:          0
cpu0->cpu0_STLB WRITE        ACCESS:          0 HIT:          0 MISS:          0 MSHR_MERGE:          0
cpu0->cpu0_STLB TRANSLATION  ACCESS:          0 HIT:          0 MISS:          0 MSHR_MERGE:          0
cpu0->cpu0_STLB PREFETCH REQUESTED:          0 ISSUED:          0 USEFUL:          0 USELESS:          0
cpu0->cpu0_STLB AVERAGE MISS LATENCY: 206.2 cycles
cpu0->cpu0_L2C TOTAL        ACCESS:   14555315 HIT:   13051214 MISS:    1504101 MSHR_MERGE:          0
cpu0->cpu0_L2C LOAD         ACCESS:   10749751 HIT:    9737448 MISS:    1012303 MSHR_MERGE:          0
cpu0->cpu0_L2C RFO          ACCESS:     114122 HIT:      45003 MISS:      69119 MSHR_MERGE:          0
cpu0->cpu0_L2C PREFETCH     ACCESS:    3470898 HIT:    3048938 MISS:     421960 MSHR_MERGE:          0
cpu0->cpu0_L2C WRITE        ACCESS:     218695 HIT:     218686 MISS:          9 MSHR_MERGE:          0
cpu0->cpu0_L2C TRANSLATION  ACCESS:       1849 HIT:       1139 MISS:        710 MSHR_MERGE:          0
cpu0->cpu0_L2C PREFETCH REQUESTED:          0 ISSUED:          0 USEFUL:          0 USELESS:          0
cpu0->cpu0_L2C AVERAGE MISS LATENCY: 207.5 cycles
cpu0->cpu0_L1I TOTAL        ACCESS:   31510555 HIT:   31510497 MISS:         58 MSHR_MERGE:          8
cpu0->cpu0_L1I LOAD         ACCESS:   31510555 HIT:   31510497 MISS:         58 MSHR_MERGE:          8
cpu0->cpu0_L1I RFO          ACCESS:          0 HIT:          0 MISS:          0 MSHR_MERGE:          0
cpu0->cpu0_L1I PREFETCH     ACCESS:          0 HIT:          0 MISS:          0 MSHR_MERGE:          0
cpu0->cpu0_L1I WRITE        ACCESS:          0 HIT:          0 MISS:          0 MSHR_MERGE:          0
cpu0->cpu0_L1I TRANSLATION  ACCESS:          0 HIT:          0 MISS:          0 MSHR_MERGE:          0
cpu0->cpu0_L1I PREFETCH REQUESTED:          0 ISSUED:          0 USEFUL:          0 USELESS:          0
cpu0->cpu0_L1I AVERAGE MISS LATENCY: 268.5 cycles
cpu0->cpu0_L1D TOTAL        ACCESS:   64641929 HIT:   46971943 MISS:   17669986 MSHR_MERGE:    3333274
cpu0->cpu0_L1D LOAD         ACCESS:   52301589 HIT:   39961315 MISS:   12340274 MSHR_MERGE:    1590571
cpu0->cpu0_L1D RFO          ACCESS:          0 HIT:          0 MISS:          0 MSHR_MERGE:          0
cpu0->cpu0_L1D PREFETCH     ACCESS:    8796336 HIT:    3709725 MISS:    5086611 MSHR_MERGE:    1615713
cpu0->cpu0_L1D WRITE        ACCESS:    3534533 HIT:    3293285 MISS:     241248 MSHR_MERGE:     126986
cpu0->cpu0_L1D TRANSLATION  ACCESS:       9471 HIT:       7618 MISS:       1853 MSHR_MERGE:          4
cpu0->cpu0_L1D PREFETCH REQUESTED:   13637950 ISSUED:    8796336 USEFUL:    3313286 USELESS:     157613
cpu0->cpu0_L1D AVERAGE MISS LATENCY: 28.82 cycles
cpu0->cpu0_ITLB TOTAL        ACCESS:   22488585 HIT:   22488571 MISS:         14 MSHR_MERGE:          7
cpu0->cpu0_ITLB LOAD         ACCESS:   22488585 HIT:   22488571 MISS:         14 MSHR_MERGE:          7
cpu0->cpu0_ITLB RFO          ACCESS:          0 HIT:          0 MISS:          0 MSHR_MERGE:          0
cpu0->cpu0_ITLB PREFETCH     ACCESS:          0 HIT:          0 MISS:          0 MSHR_MERGE:          0
cpu0->cpu0_ITLB WRITE        ACCESS:          0 HIT:          0 MISS:          0 MSHR_MERGE:          0
cpu0->cpu0_ITLB TRANSLATION  ACCESS:          0 HIT:          0 MISS:          0 MSHR_MERGE:          0
cpu0->cpu0_ITLB PREFETCH REQUESTED:          0 ISSUED:          0 USEFUL:          0 USELESS:          0
cpu0->cpu0_ITLB AVERAGE MISS LATENCY: 412.3 cycles
cpu0->cpu0_DTLB TOTAL        ACCESS:   56826660 HIT:   56675978 MISS:     150682 MSHR_MERGE:      78667
cpu0->cpu0_DTLB LOAD         ACCESS:   56826660 HIT:   56675978 MISS:     150682 MSHR_MERGE:      78667
cpu0->cpu0_DTLB RFO          ACCESS:          0 HIT:          0 MISS:          0 MSHR_MERGE:          0
cpu0->cpu0_DTLB PREFETCH     ACCESS:          0 HIT:          0 MISS:          0 MSHR_MERGE:          0
cpu0->cpu0_DTLB WRITE        ACCESS:          0 HIT:          0 MISS:          0 MSHR_MERGE:          0
cpu0->cpu0_DTLB TRANSLATION  ACCESS:          0 HIT:          0 MISS:          0 MSHR_MERGE:          0
cpu0->cpu0_DTLB PREFETCH REQUESTED:          0 ISSUED:          0 USEFUL:          0 USELESS:          0
cpu0->cpu0_DTLB AVERAGE MISS LATENCY: 18.57 cycles
cpu0->LLC TOTAL        ACCESS:    1658062 HIT:     308109 MISS:    1349953 MSHR_MERGE:          0
cpu0->LLC LOAD         ACCESS:    1012303 HIT:     123827 MISS:     888476 MSHR_MERGE:          0
cpu0->LLC RFO          ACCESS:      69119 HIT:        154 MISS:      68965 MSHR_MERGE:          0
cpu0->LLC PREFETCH     ACCESS:     421960 HIT:     168392 MISS:     253568 MSHR_MERGE:          0
cpu0->LLC WRITE        ACCESS:     153970 HIT:      15732 MISS:     138238 MSHR_MERGE:          0
cpu0->LLC TRANSLATION  ACCESS:        710 HIT:          4 MISS:        706 MSHR_MERGE:          0
cpu0->LLC PREFETCH REQUESTED:          0 ISSUED:          0 USEFUL:          0 USELESS:          0
cpu0->LLC AVERAGE MISS LATENCY: 184.4 cycles

DRAM Statistics

Channel 0 RQ ROW_BUFFER_HIT:     417206
  ROW_BUFFER_MISS:     794324
  AVG DBUS CONGESTED CYCLE: 13.29
Channel 0 WQ ROW_BUFFER_HIT:      26082
  ROW_BUFFER_MISS:     125460
  FULL:      11277
Channel 0 REFRESHES ISSUED:       6754
