[VMEM] WARNING: physical memory size is smaller than virtual memory size.

*** ChampSim Multicore Out-of-Order Simulator ***
Warmup Instructions: 50000000
Simulation Instructions: 200000000
Number of CPUs: 1
Page size: 4096
Core 0: /local-ssd/ben/dpc4-traces/ai-ml/stable-diffusion.cpp-v2-1_768-nonema-pruned.3.champsimtrace.gz
 L1D Berti prefetcher
Off-chip DRAM Size: 64 GiB Channels: 1 Width: 64-bit Data Rate: 4807 MT/s
Heartbeat CPU 0 instructions: 500003 cycles: 188205 heartbeat IPC: 2.657 cumulative IPC: 2.657 (Simulation time: 00 hr 00 min 07 sec)
Heartbeat CPU 0 instructions: 1000007 cycles: 351717 heartbeat IPC: 3.058 cumulative IPC: 2.843 (Simulation time: 00 hr 00 min 12 sec)
Heartbeat CPU 0 instructions: 1500013 cycles: 515095 heartbeat IPC: 3.06 cumulative IPC: 2.912 (Simulation time: 00 hr 00 min 18 sec)
Heartbeat CPU 0 instructions: 2000013 cycles: 686273 heartbeat IPC: 2.921 cumulative IPC: 2.914 (Simulation time: 00 hr 00 min 23 sec)
Heartbeat CPU 0 instructions: 2500014 cycles: 849666 heartbeat IPC: 3.06 cumulative IPC: 2.942 (Simulation time: 00 hr 00 min 29 sec)
Heartbeat CPU 0 instructions: 3000021 cycles: 1013090 heartbeat IPC: 3.06 cumulative IPC: 2.961 (Simulation time: 00 hr 00 min 34 sec)
Heartbeat CPU 0 instructions: 3500028 cycles: 1181757 heartbeat IPC: 2.964 cumulative IPC: 2.962 (Simulation time: 00 hr 00 min 40 sec)
Heartbeat CPU 0 instructions: 4000029 cycles: 1347641 heartbeat IPC: 3.014 cumulative IPC: 2.968 (Simulation time: 00 hr 00 min 45 sec)
Heartbeat CPU 0 instructions: 4500035 cycles: 1511063 heartbeat IPC: 3.06 cumulative IPC: 2.978 (Simulation time: 00 hr 00 min 51 sec)
Heartbeat CPU 0 instructions: 5000036 cycles: 1674639 heartbeat IPC: 3.057 cumulative IPC: 2.986 (Simulation time: 00 hr 00 min 56 sec)
Heartbeat CPU 0 instructions: 5500037 cycles: 1845490 heartbeat IPC: 2.927 cumulative IPC: 2.98 (Simulation time: 00 hr 01 min 02 sec)
Heartbeat CPU 0 instructions: 6000043 cycles: 2008754 heartbeat IPC: 3.063 cumulative IPC: 2.987 (Simulation time: 00 hr 01 min 07 sec)
Heartbeat CPU 0 instructions: 6500048 cycles: 2172282 heartbeat IPC: 3.058 cumulative IPC: 2.992 (Simulation time: 00 hr 01 min 13 sec)
Heartbeat CPU 0 instructions: 7000055 cycles: 2343160 heartbeat IPC: 2.926 cumulative IPC: 2.987 (Simulation time: 00 hr 01 min 18 sec)
Heartbeat CPU 0 instructions: 7500059 cycles: 2506469 heartbeat IPC: 3.062 cumulative IPC: 2.992 (Simulation time: 00 hr 01 min 24 sec)
Heartbeat CPU 0 instructions: 8000063 cycles: 2670066 heartbeat IPC: 3.056 cumulative IPC: 2.996 (Simulation time: 00 hr 01 min 29 sec)
Heartbeat CPU 0 instructions: 8500063 cycles: 2841032 heartbeat IPC: 2.925 cumulative IPC: 2.992 (Simulation time: 00 hr 01 min 34 sec)
Heartbeat CPU 0 instructions: 9000065 cycles: 3004542 heartbeat IPC: 3.058 cumulative IPC: 2.995 (Simulation time: 00 hr 01 min 40 sec)
Heartbeat CPU 0 instructions: 9500066 cycles: 3168188 heartbeat IPC: 3.055 cumulative IPC: 2.999 (Simulation time: 00 hr 01 min 45 sec)
Heartbeat CPU 0 instructions: 10000072 cycles: 3331739 heartbeat IPC: 3.057 cumulative IPC: 3.001 (Simulation time: 00 hr 01 min 50 sec)
Heartbeat CPU 0 instructions: 10500074 cycles: 3502903 heartbeat IPC: 2.921 cumulative IPC: 2.998 (Simulation time: 00 hr 01 min 55 sec)
Heartbeat CPU 0 instructions: 11000075 cycles: 3666094 heartbeat IPC: 3.064 cumulative IPC: 3 (Simulation time: 00 hr 02 min 01 sec)
Heartbeat CPU 0 instructions: 11500079 cycles: 3829529 heartbeat IPC: 3.059 cumulative IPC: 3.003 (Simulation time: 00 hr 02 min 06 sec)
Heartbeat CPU 0 instructions: 12000086 cycles: 4000472 heartbeat IPC: 2.925 cumulative IPC: 3 (Simulation time: 00 hr 02 min 11 sec)
Heartbeat CPU 0 instructions: 12500091 cycles: 4163907 heartbeat IPC: 3.059 cumulative IPC: 3.002 (Simulation time: 00 hr 02 min 17 sec)
Heartbeat CPU 0 instructions: 13000097 cycles: 4327289 heartbeat IPC: 3.06 cumulative IPC: 3.004 (Simulation time: 00 hr 02 min 22 sec)
Heartbeat CPU 0 instructions: 13500104 cycles: 4498596 heartbeat IPC: 2.919 cumulative IPC: 3.001 (Simulation time: 00 hr 02 min 27 sec)
Heartbeat CPU 0 instructions: 14000109 cycles: 4662059 heartbeat IPC: 3.059 cumulative IPC: 3.003 (Simulation time: 00 hr 02 min 33 sec)
Heartbeat CPU 0 instructions: 14500113 cycles: 4825657 heartbeat IPC: 3.056 cumulative IPC: 3.005 (Simulation time: 00 hr 02 min 38 sec)
Heartbeat CPU 0 instructions: 15000114 cycles: 4989194 heartbeat IPC: 3.057 cumulative IPC: 3.007 (Simulation time: 00 hr 02 min 43 sec)
Heartbeat CPU 0 instructions: 15500117 cycles: 5159997 heartbeat IPC: 2.927 cumulative IPC: 3.004 (Simulation time: 00 hr 02 min 49 sec)
Heartbeat CPU 0 instructions: 16000123 cycles: 5323717 heartbeat IPC: 3.054 cumulative IPC: 3.005 (Simulation time: 00 hr 02 min 53 sec)
Heartbeat CPU 0 instructions: 16500125 cycles: 5487257 heartbeat IPC: 3.057 cumulative IPC: 3.007 (Simulation time: 00 hr 02 min 57 sec)
Heartbeat CPU 0 instructions: 17000126 cycles: 5658297 heartbeat IPC: 2.923 cumulative IPC: 3.004 (Simulation time: 00 hr 03 min 01 sec)
Heartbeat CPU 0 instructions: 17500130 cycles: 5821847 heartbeat IPC: 3.057 cumulative IPC: 3.006 (Simulation time: 00 hr 03 min 04 sec)
Heartbeat CPU 0 instructions: 18000136 cycles: 5985456 heartbeat IPC: 3.056 cumulative IPC: 3.007 (Simulation time: 00 hr 03 min 07 sec)
Heartbeat CPU 0 instructions: 18500143 cycles: 6156441 heartbeat IPC: 2.924 cumulative IPC: 3.005 (Simulation time: 00 hr 03 min 11 sec)
Heartbeat CPU 0 instructions: 19000144 cycles: 6319977 heartbeat IPC: 3.057 cumulative IPC: 3.006 (Simulation time: 00 hr 03 min 14 sec)
Heartbeat CPU 0 instructions: 19500145 cycles: 6483351 heartbeat IPC: 3.06 cumulative IPC: 3.008 (Simulation time: 00 hr 03 min 18 sec)
Heartbeat CPU 0 instructions: 20000145 cycles: 6647368 heartbeat IPC: 3.048 cumulative IPC: 3.009 (Simulation time: 00 hr 03 min 21 sec)
Heartbeat CPU 0 instructions: 20500152 cycles: 6817772 heartbeat IPC: 2.934 cumulative IPC: 3.007 (Simulation time: 00 hr 03 min 25 sec)
Heartbeat CPU 0 instructions: 21000157 cycles: 6981109 heartbeat IPC: 3.061 cumulative IPC: 3.008 (Simulation time: 00 hr 03 min 29 sec)
Heartbeat CPU 0 instructions: 21500158 cycles: 7144583 heartbeat IPC: 3.059 cumulative IPC: 3.009 (Simulation time: 00 hr 03 min 32 sec)
Heartbeat CPU 0 instructions: 22000162 cycles: 7315869 heartbeat IPC: 2.919 cumulative IPC: 3.007 (Simulation time: 00 hr 03 min 36 sec)
Heartbeat CPU 0 instructions: 22500167 cycles: 7479456 heartbeat IPC: 3.057 cumulative IPC: 3.008 (Simulation time: 00 hr 03 min 40 sec)
Heartbeat CPU 0 instructions: 23000168 cycles: 7642765 heartbeat IPC: 3.062 cumulative IPC: 3.009 (Simulation time: 00 hr 03 min 43 sec)
Heartbeat CPU 0 instructions: 23500174 cycles: 7813822 heartbeat IPC: 2.923 cumulative IPC: 3.008 (Simulation time: 00 hr 03 min 47 sec)
Heartbeat CPU 0 instructions: 24000179 cycles: 7977373 heartbeat IPC: 3.057 cumulative IPC: 3.009 (Simulation time: 00 hr 03 min 50 sec)
Heartbeat CPU 0 instructions: 24500184 cycles: 8140759 heartbeat IPC: 3.06 cumulative IPC: 3.01 (Simulation time: 00 hr 03 min 54 sec)
Heartbeat CPU 0 instructions: 25000187 cycles: 8307316 heartbeat IPC: 3.002 cumulative IPC: 3.009 (Simulation time: 00 hr 03 min 57 sec)
Heartbeat CPU 0 instructions: 25500193 cycles: 8474934 heartbeat IPC: 2.983 cumulative IPC: 3.009 (Simulation time: 00 hr 04 min 01 sec)
Heartbeat CPU 0 instructions: 26000194 cycles: 8638497 heartbeat IPC: 3.057 cumulative IPC: 3.01 (Simulation time: 00 hr 04 min 04 sec)
Heartbeat CPU 0 instructions: 26500194 cycles: 8801838 heartbeat IPC: 3.061 cumulative IPC: 3.011 (Simulation time: 00 hr 04 min 07 sec)
Heartbeat CPU 0 instructions: 27000201 cycles: 8973011 heartbeat IPC: 2.921 cumulative IPC: 3.009 (Simulation time: 00 hr 04 min 11 sec)
Heartbeat CPU 0 instructions: 27500206 cycles: 9136456 heartbeat IPC: 3.059 cumulative IPC: 3.01 (Simulation time: 00 hr 04 min 15 sec)
Heartbeat CPU 0 instructions: 28000208 cycles: 9299976 heartbeat IPC: 3.058 cumulative IPC: 3.011 (Simulation time: 00 hr 04 min 18 sec)
Heartbeat CPU 0 instructions: 28500210 cycles: 9470943 heartbeat IPC: 2.925 cumulative IPC: 3.009 (Simulation time: 00 hr 04 min 22 sec)
Heartbeat CPU 0 instructions: 29000213 cycles: 9634441 heartbeat IPC: 3.058 cumulative IPC: 3.01 (Simulation time: 00 hr 04 min 25 sec)
Heartbeat CPU 0 instructions: 29500215 cycles: 9798158 heartbeat IPC: 3.054 cumulative IPC: 3.011 (Simulation time: 00 hr 04 min 29 sec)
Heartbeat CPU 0 instructions: 30000218 cycles: 9966943 heartbeat IPC: 2.962 cumulative IPC: 3.01 (Simulation time: 00 hr 04 min 32 sec)
Heartbeat CPU 0 instructions: 30500224 cycles: 10132839 heartbeat IPC: 3.014 cumulative IPC: 3.01 (Simulation time: 00 hr 04 min 36 sec)
Heartbeat CPU 0 instructions: 31000228 cycles: 10296459 heartbeat IPC: 3.056 cumulative IPC: 3.011 (Simulation time: 00 hr 04 min 39 sec)
Heartbeat CPU 0 instructions: 31500230 cycles: 10459543 heartbeat IPC: 3.066 cumulative IPC: 3.012 (Simulation time: 00 hr 04 min 43 sec)
Heartbeat CPU 0 instructions: 32000236 cycles: 10630357 heartbeat IPC: 2.927 cumulative IPC: 3.01 (Simulation time: 00 hr 04 min 46 sec)
Heartbeat CPU 0 instructions: 32500237 cycles: 10793980 heartbeat IPC: 3.056 cumulative IPC: 3.011 (Simulation time: 00 hr 04 min 50 sec)
Heartbeat CPU 0 instructions: 33000242 cycles: 10957530 heartbeat IPC: 3.057 cumulative IPC: 3.012 (Simulation time: 00 hr 04 min 53 sec)
Heartbeat CPU 0 instructions: 33500245 cycles: 11128398 heartbeat IPC: 2.926 cumulative IPC: 3.01 (Simulation time: 00 hr 04 min 57 sec)
Heartbeat CPU 0 instructions: 34000251 cycles: 11292111 heartbeat IPC: 3.054 cumulative IPC: 3.011 (Simulation time: 00 hr 05 min 00 sec)
Heartbeat CPU 0 instructions: 34500252 cycles: 11455789 heartbeat IPC: 3.055 cumulative IPC: 3.012 (Simulation time: 00 hr 05 min 04 sec)
Heartbeat CPU 0 instructions: 35000257 cycles: 11626588 heartbeat IPC: 2.927 cumulative IPC: 3.01 (Simulation time: 00 hr 05 min 07 sec)
Heartbeat CPU 0 instructions: 35500261 cycles: 11790102 heartbeat IPC: 3.058 cumulative IPC: 3.011 (Simulation time: 00 hr 05 min 11 sec)
Heartbeat CPU 0 instructions: 36000263 cycles: 11953733 heartbeat IPC: 3.056 cumulative IPC: 3.012 (Simulation time: 00 hr 05 min 14 sec)
Heartbeat CPU 0 instructions: 36500269 cycles: 12117029 heartbeat IPC: 3.062 cumulative IPC: 3.012 (Simulation time: 00 hr 05 min 18 sec)
Heartbeat CPU 0 instructions: 37000272 cycles: 12288034 heartbeat IPC: 2.924 cumulative IPC: 3.011 (Simulation time: 00 hr 05 min 21 sec)
Heartbeat CPU 0 instructions: 37500273 cycles: 12451463 heartbeat IPC: 3.059 cumulative IPC: 3.012 (Simulation time: 00 hr 05 min 25 sec)
Heartbeat CPU 0 instructions: 38000273 cycles: 12615030 heartbeat IPC: 3.057 cumulative IPC: 3.012 (Simulation time: 00 hr 05 min 28 sec)
Heartbeat CPU 0 instructions: 38500280 cycles: 12786312 heartbeat IPC: 2.919 cumulative IPC: 3.011 (Simulation time: 00 hr 05 min 32 sec)
Heartbeat CPU 0 instructions: 39000285 cycles: 12949875 heartbeat IPC: 3.057 cumulative IPC: 3.012 (Simulation time: 00 hr 05 min 35 sec)
Heartbeat CPU 0 instructions: 39500291 cycles: 13113543 heartbeat IPC: 3.055 cumulative IPC: 3.012 (Simulation time: 00 hr 05 min 39 sec)
Heartbeat CPU 0 instructions: 40000298 cycles: 13284396 heartbeat IPC: 2.927 cumulative IPC: 3.011 (Simulation time: 00 hr 05 min 42 sec)
Heartbeat CPU 0 instructions: 40500303 cycles: 13447853 heartbeat IPC: 3.059 cumulative IPC: 3.012 (Simulation time: 00 hr 05 min 46 sec)
Heartbeat CPU 0 instructions: 41000303 cycles: 13611395 heartbeat IPC: 3.057 cumulative IPC: 3.012 (Simulation time: 00 hr 05 min 49 sec)
Heartbeat CPU 0 instructions: 41500308 cycles: 13775049 heartbeat IPC: 3.055 cumulative IPC: 3.013 (Simulation time: 00 hr 05 min 53 sec)
Heartbeat CPU 0 instructions: 42000308 cycles: 13946167 heartbeat IPC: 2.922 cumulative IPC: 3.012 (Simulation time: 00 hr 05 min 56 sec)
Heartbeat CPU 0 instructions: 42500312 cycles: 14109579 heartbeat IPC: 3.06 cumulative IPC: 3.012 (Simulation time: 00 hr 06 min 00 sec)
Heartbeat CPU 0 instructions: 43000318 cycles: 14272798 heartbeat IPC: 3.063 cumulative IPC: 3.013 (Simulation time: 00 hr 06 min 03 sec)
Heartbeat CPU 0 instructions: 43500321 cycles: 14444115 heartbeat IPC: 2.919 cumulative IPC: 3.012 (Simulation time: 00 hr 06 min 07 sec)
Heartbeat CPU 0 instructions: 44000325 cycles: 14607603 heartbeat IPC: 3.058 cumulative IPC: 3.012 (Simulation time: 00 hr 06 min 10 sec)
Heartbeat CPU 0 instructions: 44500326 cycles: 14771183 heartbeat IPC: 3.057 cumulative IPC: 3.013 (Simulation time: 00 hr 06 min 14 sec)
Heartbeat CPU 0 instructions: 45000329 cycles: 14942254 heartbeat IPC: 2.923 cumulative IPC: 3.012 (Simulation time: 00 hr 06 min 17 sec)
Heartbeat CPU 0 instructions: 45500330 cycles: 15105734 heartbeat IPC: 3.058 cumulative IPC: 3.012 (Simulation time: 00 hr 06 min 21 sec)
Heartbeat CPU 0 instructions: 46000331 cycles: 15269090 heartbeat IPC: 3.061 cumulative IPC: 3.013 (Simulation time: 00 hr 06 min 24 sec)
Heartbeat CPU 0 instructions: 46500335 cycles: 15433344 heartbeat IPC: 3.044 cumulative IPC: 3.013 (Simulation time: 00 hr 06 min 28 sec)
Heartbeat CPU 0 instructions: 47000342 cycles: 15603621 heartbeat IPC: 2.936 cumulative IPC: 3.012 (Simulation time: 00 hr 06 min 31 sec)
Heartbeat CPU 0 instructions: 47500347 cycles: 15767221 heartbeat IPC: 3.056 cumulative IPC: 3.013 (Simulation time: 00 hr 06 min 35 sec)
Heartbeat CPU 0 instructions: 48000353 cycles: 15930672 heartbeat IPC: 3.059 cumulative IPC: 3.013 (Simulation time: 00 hr 06 min 38 sec)
Heartbeat CPU 0 instructions: 48500360 cycles: 16101818 heartbeat IPC: 2.922 cumulative IPC: 3.012 (Simulation time: 00 hr 06 min 42 sec)
Heartbeat CPU 0 instructions: 49000364 cycles: 16265450 heartbeat IPC: 3.056 cumulative IPC: 3.013 (Simulation time: 00 hr 06 min 45 sec)
Heartbeat CPU 0 instructions: 49500370 cycles: 16429038 heartbeat IPC: 3.056 cumulative IPC: 3.013 (Simulation time: 00 hr 06 min 49 sec)
Warmup halting CPU 0 at instruction 50000007 cycle 16599944 for remainder of phase
Warmup finished CPU 0 instructions: 50000007 cycles: 16599944 cumulative IPC: 3.012 (Simulation time: 00 hr 06 min 52 sec)
Warmup complete CPU 0 instructions: 50000007 cycles: 16599944 cumulative IPC: 3.012 (Simulation time: 00 hr 06 min 52 sec)
Heartbeat CPU 0 instructions: 50000371 cycles: 16600103 heartbeat IPC: 2.923 cumulative IPC: 2.289 (Simulation time: 00 hr 06 min 52 sec)
Heartbeat CPU 0 instructions: 50500378 cycles: 16793820 heartbeat IPC: 2.581 cumulative IPC: 2.581 (Simulation time: 00 hr 06 min 56 sec)
Heartbeat CPU 0 instructions: 51000380 cycles: 16987677 heartbeat IPC: 2.579 cumulative IPC: 2.58 (Simulation time: 00 hr 06 min 59 sec)
Heartbeat CPU 0 instructions: 51500386 cycles: 17195876 heartbeat IPC: 2.402 cumulative IPC: 2.518 (Simulation time: 00 hr 07 min 03 sec)
Heartbeat CPU 0 instructions: 52000388 cycles: 17414131 heartbeat IPC: 2.291 cumulative IPC: 2.457 (Simulation time: 00 hr 07 min 06 sec)
Heartbeat CPU 0 instructions: 52500392 cycles: 17608167 heartbeat IPC: 2.577 cumulative IPC: 2.48 (Simulation time: 00 hr 07 min 10 sec)
Heartbeat CPU 0 instructions: 53000392 cycles: 17802149 heartbeat IPC: 2.578 cumulative IPC: 2.496 (Simulation time: 00 hr 07 min 13 sec)
Heartbeat CPU 0 instructions: 53500392 cycles: 18032135 heartbeat IPC: 2.174 cumulative IPC: 2.444 (Simulation time: 00 hr 07 min 17 sec)
Heartbeat CPU 0 instructions: 54000397 cycles: 18225477 heartbeat IPC: 2.586 cumulative IPC: 2.461 (Simulation time: 00 hr 07 min 20 sec)
Heartbeat CPU 0 instructions: 54500402 cycles: 18418848 heartbeat IPC: 2.586 cumulative IPC: 2.474 (Simulation time: 00 hr 07 min 23 sec)
Heartbeat CPU 0 instructions: 55000402 cycles: 18651494 heartbeat IPC: 2.149 cumulative IPC: 2.437 (Simulation time: 00 hr 07 min 27 sec)
Heartbeat CPU 0 instructions: 55500409 cycles: 18845552 heartbeat IPC: 2.577 cumulative IPC: 2.449 (Simulation time: 00 hr 07 min 31 sec)
Heartbeat CPU 0 instructions: 56000416 cycles: 19039510 heartbeat IPC: 2.578 cumulative IPC: 2.46 (Simulation time: 00 hr 07 min 34 sec)
Heartbeat CPU 0 instructions: 56500416 cycles: 19257919 heartbeat IPC: 2.289 cumulative IPC: 2.446 (Simulation time: 00 hr 07 min 38 sec)
Heartbeat CPU 0 instructions: 57000419 cycles: 19462922 heartbeat IPC: 2.439 cumulative IPC: 2.445 (Simulation time: 00 hr 07 min 41 sec)
Heartbeat CPU 0 instructions: 57500424 cycles: 19658287 heartbeat IPC: 2.559 cumulative IPC: 2.452 (Simulation time: 00 hr 07 min 44 sec)
Heartbeat CPU 0 instructions: 58000429 cycles: 19852390 heartbeat IPC: 2.576 cumulative IPC: 2.46 (Simulation time: 00 hr 07 min 48 sec)
Heartbeat CPU 0 instructions: 58500429 cycles: 20083910 heartbeat IPC: 2.16 cumulative IPC: 2.44 (Simulation time: 00 hr 07 min 52 sec)
Heartbeat CPU 0 instructions: 59000436 cycles: 20278283 heartbeat IPC: 2.572 cumulative IPC: 2.447 (Simulation time: 00 hr 07 min 55 sec)
Heartbeat CPU 0 instructions: 59500438 cycles: 20471395 heartbeat IPC: 2.589 cumulative IPC: 2.454 (Simulation time: 00 hr 07 min 58 sec)
Heartbeat CPU 0 instructions: 60000440 cycles: 20703959 heartbeat IPC: 2.15 cumulative IPC: 2.437 (Simulation time: 00 hr 08 min 02 sec)
Heartbeat CPU 0 instructions: 60500440 cycles: 20898140 heartbeat IPC: 2.575 cumulative IPC: 2.443 (Simulation time: 00 hr 08 min 06 sec)
Heartbeat CPU 0 instructions: 61000443 cycles: 21092346 heartbeat IPC: 2.575 cumulative IPC: 2.449 (Simulation time: 00 hr 08 min 09 sec)
Heartbeat CPU 0 instructions: 61500447 cycles: 21324296 heartbeat IPC: 2.156 cumulative IPC: 2.434 (Simulation time: 00 hr 08 min 13 sec)
Heartbeat CPU 0 instructions: 62000447 cycles: 21519265 heartbeat IPC: 2.565 cumulative IPC: 2.439 (Simulation time: 00 hr 08 min 16 sec)
Heartbeat CPU 0 instructions: 62500449 cycles: 21712448 heartbeat IPC: 2.588 cumulative IPC: 2.445 (Simulation time: 00 hr 08 min 19 sec)
Heartbeat CPU 0 instructions: 63000450 cycles: 21906017 heartbeat IPC: 2.583 cumulative IPC: 2.45 (Simulation time: 00 hr 08 min 23 sec)
Heartbeat CPU 0 instructions: 63500450 cycles: 22137604 heartbeat IPC: 2.159 cumulative IPC: 2.438 (Simulation time: 00 hr 08 min 27 sec)
Heartbeat CPU 0 instructions: 64000455 cycles: 22331587 heartbeat IPC: 2.578 cumulative IPC: 2.443 (Simulation time: 00 hr 08 min 30 sec)
Heartbeat CPU 0 instructions: 64500461 cycles: 22524720 heartbeat IPC: 2.589 cumulative IPC: 2.447 (Simulation time: 00 hr 08 min 33 sec)
Heartbeat CPU 0 instructions: 65000463 cycles: 22758236 heartbeat IPC: 2.141 cumulative IPC: 2.436 (Simulation time: 00 hr 08 min 37 sec)
Heartbeat CPU 0 instructions: 65500464 cycles: 22974804 heartbeat IPC: 2.309 cumulative IPC: 2.431 (Simulation time: 00 hr 08 min 41 sec)
Heartbeat CPU 0 instructions: 66000468 cycles: 23190333 heartbeat IPC: 2.32 cumulative IPC: 2.428 (Simulation time: 00 hr 08 min 44 sec)
Heartbeat CPU 0 instructions: 66500468 cycles: 23423486 heartbeat IPC: 2.145 cumulative IPC: 2.418 (Simulation time: 00 hr 08 min 48 sec)
Heartbeat CPU 0 instructions: 67000468 cycles: 23617957 heartbeat IPC: 2.571 cumulative IPC: 2.422 (Simulation time: 00 hr 08 min 52 sec)
Heartbeat CPU 0 instructions: 67500473 cycles: 23811442 heartbeat IPC: 2.584 cumulative IPC: 2.427 (Simulation time: 00 hr 08 min 55 sec)
Heartbeat CPU 0 instructions: 68000475 cycles: 24005614 heartbeat IPC: 2.575 cumulative IPC: 2.431 (Simulation time: 00 hr 08 min 58 sec)
Heartbeat CPU 0 instructions: 68500482 cycles: 24237806 heartbeat IPC: 2.153 cumulative IPC: 2.422 (Simulation time: 00 hr 09 min 02 sec)
Heartbeat CPU 0 instructions: 69000483 cycles: 24431189 heartbeat IPC: 2.586 cumulative IPC: 2.426 (Simulation time: 00 hr 09 min 06 sec)
Heartbeat CPU 0 instructions: 69500487 cycles: 24624605 heartbeat IPC: 2.585 cumulative IPC: 2.43 (Simulation time: 00 hr 09 min 09 sec)
Heartbeat CPU 0 instructions: 70000490 cycles: 24855546 heartbeat IPC: 2.165 cumulative IPC: 2.423 (Simulation time: 00 hr 09 min 13 sec)
Heartbeat CPU 0 instructions: 70500497 cycles: 25047937 heartbeat IPC: 2.599 cumulative IPC: 2.427 (Simulation time: 00 hr 09 min 16 sec)
Heartbeat CPU 0 instructions: 71000497 cycles: 25240636 heartbeat IPC: 2.595 cumulative IPC: 2.43 (Simulation time: 00 hr 09 min 19 sec)
Heartbeat CPU 0 instructions: 71500500 cycles: 25473501 heartbeat IPC: 2.147 cumulative IPC: 2.423 (Simulation time: 00 hr 09 min 23 sec)
Heartbeat CPU 0 instructions: 72000501 cycles: 25667058 heartbeat IPC: 2.583 cumulative IPC: 2.426 (Simulation time: 00 hr 09 min 27 sec)
Heartbeat CPU 0 instructions: 72500502 cycles: 25860438 heartbeat IPC: 2.586 cumulative IPC: 2.43 (Simulation time: 00 hr 09 min 30 sec)
Heartbeat CPU 0 instructions: 73000502 cycles: 26057097 heartbeat IPC: 2.542 cumulative IPC: 2.432 (Simulation time: 00 hr 09 min 33 sec)
Heartbeat CPU 0 instructions: 73500508 cycles: 26284621 heartbeat IPC: 2.198 cumulative IPC: 2.427 (Simulation time: 00 hr 09 min 37 sec)
Heartbeat CPU 0 instructions: 74000508 cycles: 26477717 heartbeat IPC: 2.589 cumulative IPC: 2.43 (Simulation time: 00 hr 09 min 41 sec)
Heartbeat CPU 0 instructions: 74500508 cycles: 26670958 heartbeat IPC: 2.587 cumulative IPC: 2.433 (Simulation time: 00 hr 09 min 44 sec)
Heartbeat CPU 0 instructions: 75000511 cycles: 26901852 heartbeat IPC: 2.166 cumulative IPC: 2.427 (Simulation time: 00 hr 09 min 48 sec)
Heartbeat CPU 0 instructions: 75500515 cycles: 27095840 heartbeat IPC: 2.577 cumulative IPC: 2.43 (Simulation time: 00 hr 09 min 51 sec)
Heartbeat CPU 0 instructions: 76000521 cycles: 27290242 heartbeat IPC: 2.572 cumulative IPC: 2.432 (Simulation time: 00 hr 09 min 55 sec)
Heartbeat CPU 0 instructions: 76500523 cycles: 27521184 heartbeat IPC: 2.165 cumulative IPC: 2.427 (Simulation time: 00 hr 09 min 58 sec)
Heartbeat CPU 0 instructions: 77000528 cycles: 27715745 heartbeat IPC: 2.57 cumulative IPC: 2.429 (Simulation time: 00 hr 10 min 02 sec)
Heartbeat CPU 0 instructions: 77500530 cycles: 27910068 heartbeat IPC: 2.573 cumulative IPC: 2.431 (Simulation time: 00 hr 10 min 05 sec)
Heartbeat CPU 0 instructions: 78000535 cycles: 28119062 heartbeat IPC: 2.392 cumulative IPC: 2.431 (Simulation time: 00 hr 10 min 09 sec)
Heartbeat CPU 0 instructions: 78500542 cycles: 28336717 heartbeat IPC: 2.297 cumulative IPC: 2.428 (Simulation time: 00 hr 10 min 12 sec)
Heartbeat CPU 0 instructions: 79000545 cycles: 28531201 heartbeat IPC: 2.571 cumulative IPC: 2.431 (Simulation time: 00 hr 10 min 16 sec)
Heartbeat CPU 0 instructions: 79500546 cycles: 28724386 heartbeat IPC: 2.588 cumulative IPC: 2.433 (Simulation time: 00 hr 10 min 19 sec)
Heartbeat CPU 0 instructions: 80000550 cycles: 28955798 heartbeat IPC: 2.161 cumulative IPC: 2.428 (Simulation time: 00 hr 10 min 23 sec)
Heartbeat CPU 0 instructions: 80500555 cycles: 29150721 heartbeat IPC: 2.565 cumulative IPC: 2.43 (Simulation time: 00 hr 10 min 26 sec)
Heartbeat CPU 0 instructions: 81000556 cycles: 29344395 heartbeat IPC: 2.582 cumulative IPC: 2.432 (Simulation time: 00 hr 10 min 30 sec)
Heartbeat CPU 0 instructions: 81500557 cycles: 29576150 heartbeat IPC: 2.157 cumulative IPC: 2.428 (Simulation time: 00 hr 10 min 33 sec)
Heartbeat CPU 0 instructions: 82000561 cycles: 29770038 heartbeat IPC: 2.579 cumulative IPC: 2.43 (Simulation time: 00 hr 10 min 37 sec)
Heartbeat CPU 0 instructions: 82500564 cycles: 29964131 heartbeat IPC: 2.576 cumulative IPC: 2.432 (Simulation time: 00 hr 10 min 40 sec)
Heartbeat CPU 0 instructions: 83000567 cycles: 30184086 heartbeat IPC: 2.273 cumulative IPC: 2.429 (Simulation time: 00 hr 10 min 44 sec)
Heartbeat CPU 0 instructions: 83500567 cycles: 30389082 heartbeat IPC: 2.439 cumulative IPC: 2.429 (Simulation time: 00 hr 10 min 47 sec)
Heartbeat CPU 0 instructions: 84000574 cycles: 30583149 heartbeat IPC: 2.576 cumulative IPC: 2.432 (Simulation time: 00 hr 10 min 51 sec)
Heartbeat CPU 0 instructions: 84500581 cycles: 30777544 heartbeat IPC: 2.572 cumulative IPC: 2.433 (Simulation time: 00 hr 10 min 54 sec)
Heartbeat CPU 0 instructions: 85000581 cycles: 31009991 heartbeat IPC: 2.151 cumulative IPC: 2.429 (Simulation time: 00 hr 10 min 58 sec)
Heartbeat CPU 0 instructions: 85500586 cycles: 31204104 heartbeat IPC: 2.576 cumulative IPC: 2.431 (Simulation time: 00 hr 11 min 01 sec)
Heartbeat CPU 0 instructions: 86000593 cycles: 31398827 heartbeat IPC: 2.568 cumulative IPC: 2.433 (Simulation time: 00 hr 11 min 05 sec)
Heartbeat CPU 0 instructions: 86500594 cycles: 31630170 heartbeat IPC: 2.161 cumulative IPC: 2.428 (Simulation time: 00 hr 11 min 08 sec)
Heartbeat CPU 0 instructions: 87000594 cycles: 31823275 heartbeat IPC: 2.589 cumulative IPC: 2.431 (Simulation time: 00 hr 11 min 12 sec)
Heartbeat CPU 0 instructions: 87500598 cycles: 32016104 heartbeat IPC: 2.593 cumulative IPC: 2.433 (Simulation time: 00 hr 11 min 15 sec)
Heartbeat CPU 0 instructions: 88000598 cycles: 32246006 heartbeat IPC: 2.175 cumulative IPC: 2.429 (Simulation time: 00 hr 11 min 19 sec)
Heartbeat CPU 0 instructions: 88500599 cycles: 32442598 heartbeat IPC: 2.543 cumulative IPC: 2.43 (Simulation time: 00 hr 11 min 22 sec)
Heartbeat CPU 0 instructions: 89000599 cycles: 32636588 heartbeat IPC: 2.577 cumulative IPC: 2.432 (Simulation time: 00 hr 11 min 26 sec)
Heartbeat CPU 0 instructions: 89500606 cycles: 32830633 heartbeat IPC: 2.577 cumulative IPC: 2.434 (Simulation time: 00 hr 11 min 29 sec)
Heartbeat CPU 0 instructions: 90000613 cycles: 33060877 heartbeat IPC: 2.172 cumulative IPC: 2.43 (Simulation time: 00 hr 11 min 33 sec)
Heartbeat CPU 0 instructions: 90500613 cycles: 33253754 heartbeat IPC: 2.592 cumulative IPC: 2.432 (Simulation time: 00 hr 11 min 36 sec)
Heartbeat CPU 0 instructions: 91000616 cycles: 33446412 heartbeat IPC: 2.595 cumulative IPC: 2.434 (Simulation time: 00 hr 11 min 40 sec)
Heartbeat CPU 0 instructions: 91500617 cycles: 33679859 heartbeat IPC: 2.142 cumulative IPC: 2.43 (Simulation time: 00 hr 11 min 44 sec)
Heartbeat CPU 0 instructions: 92000621 cycles: 33874145 heartbeat IPC: 2.574 cumulative IPC: 2.431 (Simulation time: 00 hr 11 min 47 sec)
Heartbeat CPU 0 instructions: 92500626 cycles: 34068354 heartbeat IPC: 2.575 cumulative IPC: 2.433 (Simulation time: 00 hr 11 min 50 sec)
Heartbeat CPU 0 instructions: 93000627 cycles: 34300202 heartbeat IPC: 2.157 cumulative IPC: 2.429 (Simulation time: 00 hr 11 min 54 sec)
Heartbeat CPU 0 instructions: 93500632 cycles: 34494733 heartbeat IPC: 2.57 cumulative IPC: 2.431 (Simulation time: 00 hr 11 min 57 sec)
Heartbeat CPU 0 instructions: 94000634 cycles: 34688265 heartbeat IPC: 2.584 cumulative IPC: 2.433 (Simulation time: 00 hr 12 min 01 sec)
Heartbeat CPU 0 instructions: 94500641 cycles: 34881457 heartbeat IPC: 2.588 cumulative IPC: 2.434 (Simulation time: 00 hr 12 min 04 sec)
Heartbeat CPU 0 instructions: 95000646 cycles: 35113302 heartbeat IPC: 2.157 cumulative IPC: 2.431 (Simulation time: 00 hr 12 min 08 sec)
Heartbeat CPU 0 instructions: 95500651 cycles: 35307449 heartbeat IPC: 2.575 cumulative IPC: 2.432 (Simulation time: 00 hr 12 min 11 sec)
Heartbeat CPU 0 instructions: 96000653 cycles: 35501219 heartbeat IPC: 2.58 cumulative IPC: 2.434 (Simulation time: 00 hr 12 min 15 sec)
Heartbeat CPU 0 instructions: 96500653 cycles: 35733398 heartbeat IPC: 2.154 cumulative IPC: 2.43 (Simulation time: 00 hr 12 min 19 sec)
Heartbeat CPU 0 instructions: 97000658 cycles: 35927518 heartbeat IPC: 2.576 cumulative IPC: 2.432 (Simulation time: 00 hr 12 min 22 sec)
Heartbeat CPU 0 instructions: 97500661 cycles: 36121841 heartbeat IPC: 2.573 cumulative IPC: 2.433 (Simulation time: 00 hr 12 min 25 sec)
Heartbeat CPU 0 instructions: 98000665 cycles: 36345730 heartbeat IPC: 2.233 cumulative IPC: 2.431 (Simulation time: 00 hr 12 min 29 sec)
Heartbeat CPU 0 instructions: 98500667 cycles: 36531107 heartbeat IPC: 2.697 cumulative IPC: 2.433 (Simulation time: 00 hr 12 min 32 sec)
Heartbeat CPU 0 instructions: 99000667 cycles: 36716264 heartbeat IPC: 2.7 cumulative IPC: 2.436 (Simulation time: 00 hr 12 min 36 sec)
Heartbeat CPU 0 instructions: 99500673 cycles: 36902128 heartbeat IPC: 2.69 cumulative IPC: 2.438 (Simulation time: 00 hr 12 min 39 sec)
Heartbeat CPU 0 instructions: 100000675 cycles: 37113313 heartbeat IPC: 2.368 cumulative IPC: 2.437 (Simulation time: 00 hr 12 min 43 sec)
Heartbeat CPU 0 instructions: 100500680 cycles: 37297645 heartbeat IPC: 2.713 cumulative IPC: 2.44 (Simulation time: 00 hr 12 min 46 sec)
Heartbeat CPU 0 instructions: 101000681 cycles: 37481119 heartbeat IPC: 2.725 cumulative IPC: 2.442 (Simulation time: 00 hr 12 min 49 sec)
Heartbeat CPU 0 instructions: 101500685 cycles: 37694119 heartbeat IPC: 2.347 cumulative IPC: 2.441 (Simulation time: 00 hr 12 min 53 sec)
Heartbeat CPU 0 instructions: 102000686 cycles: 37878553 heartbeat IPC: 2.711 cumulative IPC: 2.444 (Simulation time: 00 hr 12 min 56 sec)
Heartbeat CPU 0 instructions: 102500692 cycles: 38062694 heartbeat IPC: 2.715 cumulative IPC: 2.446 (Simulation time: 00 hr 12 min 59 sec)
Heartbeat CPU 0 instructions: 103000695 cycles: 38275584 heartbeat IPC: 2.349 cumulative IPC: 2.445 (Simulation time: 00 hr 13 min 03 sec)
Heartbeat CPU 0 instructions: 103500702 cycles: 38460011 heartbeat IPC: 2.711 cumulative IPC: 2.447 (Simulation time: 00 hr 13 min 06 sec)
Heartbeat CPU 0 instructions: 104000704 cycles: 38645091 heartbeat IPC: 2.702 cumulative IPC: 2.45 (Simulation time: 00 hr 13 min 10 sec)
Heartbeat CPU 0 instructions: 104500704 cycles: 38841828 heartbeat IPC: 2.541 cumulative IPC: 2.45 (Simulation time: 00 hr 13 min 13 sec)
Heartbeat CPU 0 instructions: 105000708 cycles: 39047169 heartbeat IPC: 2.435 cumulative IPC: 2.45 (Simulation time: 00 hr 13 min 17 sec)
Heartbeat CPU 0 instructions: 105500713 cycles: 39232077 heartbeat IPC: 2.704 cumulative IPC: 2.452 (Simulation time: 00 hr 13 min 20 sec)
Heartbeat CPU 0 instructions: 106000716 cycles: 39417196 heartbeat IPC: 2.701 cumulative IPC: 2.454 (Simulation time: 00 hr 13 min 23 sec)
Heartbeat CPU 0 instructions: 106500722 cycles: 39632519 heartbeat IPC: 2.322 cumulative IPC: 2.453 (Simulation time: 00 hr 13 min 27 sec)
Heartbeat CPU 0 instructions: 107000723 cycles: 39817911 heartbeat IPC: 2.697 cumulative IPC: 2.455 (Simulation time: 00 hr 13 min 30 sec)
Heartbeat CPU 0 instructions: 107500728 cycles: 40002998 heartbeat IPC: 2.701 cumulative IPC: 2.457 (Simulation time: 00 hr 13 min 33 sec)
Heartbeat CPU 0 instructions: 108000731 cycles: 40218956 heartbeat IPC: 2.315 cumulative IPC: 2.456 (Simulation time: 00 hr 13 min 37 sec)
Heartbeat CPU 0 instructions: 108500731 cycles: 40404934 heartbeat IPC: 2.688 cumulative IPC: 2.457 (Simulation time: 00 hr 13 min 40 sec)
Heartbeat CPU 0 instructions: 109000732 cycles: 40590616 heartbeat IPC: 2.693 cumulative IPC: 2.459 (Simulation time: 00 hr 13 min 44 sec)
Heartbeat CPU 0 instructions: 109500732 cycles: 40795289 heartbeat IPC: 2.443 cumulative IPC: 2.459 (Simulation time: 00 hr 13 min 47 sec)
Heartbeat CPU 0 instructions: 110000735 cycles: 40990580 heartbeat IPC: 2.56 cumulative IPC: 2.46 (Simulation time: 00 hr 13 min 51 sec)
Heartbeat CPU 0 instructions: 110500739 cycles: 41175618 heartbeat IPC: 2.702 cumulative IPC: 2.462 (Simulation time: 00 hr 13 min 54 sec)
Heartbeat CPU 0 instructions: 111000739 cycles: 41360942 heartbeat IPC: 2.698 cumulative IPC: 2.464 (Simulation time: 00 hr 13 min 57 sec)
Heartbeat CPU 0 instructions: 111500739 cycles: 41575286 heartbeat IPC: 2.333 cumulative IPC: 2.462 (Simulation time: 00 hr 14 min 01 sec)
Heartbeat CPU 0 instructions: 112000742 cycles: 41762407 heartbeat IPC: 2.672 cumulative IPC: 2.464 (Simulation time: 00 hr 14 min 04 sec)
Heartbeat CPU 0 instructions: 112500749 cycles: 41947328 heartbeat IPC: 2.704 cumulative IPC: 2.466 (Simulation time: 00 hr 14 min 07 sec)
Heartbeat CPU 0 instructions: 113000756 cycles: 42164309 heartbeat IPC: 2.304 cumulative IPC: 2.464 (Simulation time: 00 hr 14 min 11 sec)
Heartbeat CPU 0 instructions: 113500757 cycles: 42349794 heartbeat IPC: 2.696 cumulative IPC: 2.466 (Simulation time: 00 hr 14 min 14 sec)
Heartbeat CPU 0 instructions: 114000761 cycles: 42534745 heartbeat IPC: 2.703 cumulative IPC: 2.468 (Simulation time: 00 hr 14 min 18 sec)
Heartbeat CPU 0 instructions: 114500763 cycles: 42749454 heartbeat IPC: 2.329 cumulative IPC: 2.467 (Simulation time: 00 hr 14 min 21 sec)
Heartbeat CPU 0 instructions: 115000766 cycles: 42935189 heartbeat IPC: 2.692 cumulative IPC: 2.468 (Simulation time: 00 hr 14 min 25 sec)
Heartbeat CPU 0 instructions: 115500767 cycles: 43120743 heartbeat IPC: 2.695 cumulative IPC: 2.47 (Simulation time: 00 hr 14 min 28 sec)
Heartbeat CPU 0 instructions: 116000767 cycles: 43305963 heartbeat IPC: 2.699 cumulative IPC: 2.471 (Simulation time: 00 hr 14 min 31 sec)
Heartbeat CPU 0 instructions: 116500771 cycles: 43522205 heartbeat IPC: 2.312 cumulative IPC: 2.47 (Simulation time: 00 hr 14 min 35 sec)
Heartbeat CPU 0 instructions: 117000772 cycles: 43707246 heartbeat IPC: 2.702 cumulative IPC: 2.472 (Simulation time: 00 hr 14 min 38 sec)
Heartbeat CPU 0 instructions: 117500772 cycles: 43892658 heartbeat IPC: 2.697 cumulative IPC: 2.473 (Simulation time: 00 hr 14 min 42 sec)
Heartbeat CPU 0 instructions: 118000772 cycles: 44108909 heartbeat IPC: 2.312 cumulative IPC: 2.472 (Simulation time: 00 hr 14 min 45 sec)
Heartbeat CPU 0 instructions: 118500777 cycles: 44294163 heartbeat IPC: 2.699 cumulative IPC: 2.473 (Simulation time: 00 hr 14 min 49 sec)
Heartbeat CPU 0 instructions: 119000777 cycles: 44479057 heartbeat IPC: 2.704 cumulative IPC: 2.475 (Simulation time: 00 hr 14 min 52 sec)
Heartbeat CPU 0 instructions: 119500779 cycles: 44694629 heartbeat IPC: 2.319 cumulative IPC: 2.474 (Simulation time: 00 hr 14 min 55 sec)
Heartbeat CPU 0 instructions: 120000781 cycles: 44881158 heartbeat IPC: 2.681 cumulative IPC: 2.475 (Simulation time: 00 hr 14 min 59 sec)
Heartbeat CPU 0 instructions: 120500781 cycles: 45067330 heartbeat IPC: 2.686 cumulative IPC: 2.477 (Simulation time: 00 hr 15 min 02 sec)
Heartbeat CPU 0 instructions: 121000783 cycles: 45252510 heartbeat IPC: 2.7 cumulative IPC: 2.478 (Simulation time: 00 hr 15 min 05 sec)
Heartbeat CPU 0 instructions: 121500785 cycles: 45468299 heartbeat IPC: 2.317 cumulative IPC: 2.477 (Simulation time: 00 hr 15 min 09 sec)
Heartbeat CPU 0 instructions: 122000788 cycles: 45653150 heartbeat IPC: 2.705 cumulative IPC: 2.478 (Simulation time: 00 hr 15 min 12 sec)
Heartbeat CPU 0 instructions: 122500791 cycles: 45839007 heartbeat IPC: 2.69 cumulative IPC: 2.48 (Simulation time: 00 hr 15 min 16 sec)
Heartbeat CPU 0 instructions: 123000798 cycles: 46054255 heartbeat IPC: 2.323 cumulative IPC: 2.478 (Simulation time: 00 hr 15 min 19 sec)
Heartbeat CPU 0 instructions: 123500803 cycles: 46239806 heartbeat IPC: 2.695 cumulative IPC: 2.48 (Simulation time: 00 hr 15 min 23 sec)
Heartbeat CPU 0 instructions: 124000804 cycles: 46424739 heartbeat IPC: 2.704 cumulative IPC: 2.481 (Simulation time: 00 hr 15 min 26 sec)
Heartbeat CPU 0 instructions: 124500807 cycles: 46641333 heartbeat IPC: 2.308 cumulative IPC: 2.48 (Simulation time: 00 hr 15 min 30 sec)
Heartbeat CPU 0 instructions: 125000810 cycles: 46827580 heartbeat IPC: 2.685 cumulative IPC: 2.481 (Simulation time: 00 hr 15 min 33 sec)
Heartbeat CPU 0 instructions: 125500810 cycles: 47013890 heartbeat IPC: 2.684 cumulative IPC: 2.482 (Simulation time: 00 hr 15 min 36 sec)
Heartbeat CPU 0 instructions: 126000812 cycles: 47201263 heartbeat IPC: 2.668 cumulative IPC: 2.484 (Simulation time: 00 hr 15 min 40 sec)
Heartbeat CPU 0 instructions: 126500817 cycles: 47413447 heartbeat IPC: 2.356 cumulative IPC: 2.483 (Simulation time: 00 hr 15 min 43 sec)
Heartbeat CPU 0 instructions: 127000822 cycles: 47598603 heartbeat IPC: 2.7 cumulative IPC: 2.484 (Simulation time: 00 hr 15 min 46 sec)
Heartbeat CPU 0 instructions: 127500824 cycles: 47783760 heartbeat IPC: 2.7 cumulative IPC: 2.485 (Simulation time: 00 hr 15 min 50 sec)
Heartbeat CPU 0 instructions: 128000826 cycles: 47998978 heartbeat IPC: 2.323 cumulative IPC: 2.484 (Simulation time: 00 hr 15 min 53 sec)
Heartbeat CPU 0 instructions: 128500831 cycles: 48184306 heartbeat IPC: 2.698 cumulative IPC: 2.485 (Simulation time: 00 hr 15 min 57 sec)
Heartbeat CPU 0 instructions: 129000833 cycles: 48370299 heartbeat IPC: 2.688 cumulative IPC: 2.487 (Simulation time: 00 hr 16 min 00 sec)
Heartbeat CPU 0 instructions: 129500836 cycles: 48587320 heartbeat IPC: 2.304 cumulative IPC: 2.485 (Simulation time: 00 hr 16 min 04 sec)
Heartbeat CPU 0 instructions: 130000836 cycles: 48771837 heartbeat IPC: 2.71 cumulative IPC: 2.487 (Simulation time: 00 hr 16 min 07 sec)
Heartbeat CPU 0 instructions: 130500841 cycles: 48956690 heartbeat IPC: 2.705 cumulative IPC: 2.488 (Simulation time: 00 hr 16 min 10 sec)
Heartbeat CPU 0 instructions: 131000843 cycles: 49152778 heartbeat IPC: 2.55 cumulative IPC: 2.488 (Simulation time: 00 hr 16 min 14 sec)
Heartbeat CPU 0 instructions: 131500844 cycles: 49357010 heartbeat IPC: 2.448 cumulative IPC: 2.488 (Simulation time: 00 hr 16 min 17 sec)
Heartbeat CPU 0 instructions: 132000845 cycles: 49542425 heartbeat IPC: 2.697 cumulative IPC: 2.489 (Simulation time: 00 hr 16 min 20 sec)
Heartbeat CPU 0 instructions: 132500850 cycles: 49729033 heartbeat IPC: 2.679 cumulative IPC: 2.49 (Simulation time: 00 hr 16 min 24 sec)
Heartbeat CPU 0 instructions: 133000853 cycles: 49945459 heartbeat IPC: 2.31 cumulative IPC: 2.489 (Simulation time: 00 hr 16 min 27 sec)
Heartbeat CPU 0 instructions: 133500855 cycles: 50131013 heartbeat IPC: 2.695 cumulative IPC: 2.49 (Simulation time: 00 hr 16 min 31 sec)
Heartbeat CPU 0 instructions: 134000860 cycles: 50317034 heartbeat IPC: 2.688 cumulative IPC: 2.491 (Simulation time: 00 hr 16 min 34 sec)
Heartbeat CPU 0 instructions: 134500867 cycles: 50533343 heartbeat IPC: 2.312 cumulative IPC: 2.49 (Simulation time: 00 hr 16 min 38 sec)
Heartbeat CPU 0 instructions: 135000870 cycles: 50719043 heartbeat IPC: 2.693 cumulative IPC: 2.491 (Simulation time: 00 hr 16 min 41 sec)
Heartbeat CPU 0 instructions: 135500874 cycles: 50904056 heartbeat IPC: 2.703 cumulative IPC: 2.492 (Simulation time: 00 hr 16 min 44 sec)
Heartbeat CPU 0 instructions: 136000874 cycles: 51108995 heartbeat IPC: 2.44 cumulative IPC: 2.492 (Simulation time: 00 hr 16 min 48 sec)
Heartbeat CPU 0 instructions: 136500874 cycles: 51304280 heartbeat IPC: 2.56 cumulative IPC: 2.493 (Simulation time: 00 hr 16 min 51 sec)
Heartbeat CPU 0 instructions: 137000874 cycles: 51489446 heartbeat IPC: 2.7 cumulative IPC: 2.494 (Simulation time: 00 hr 16 min 55 sec)
Heartbeat CPU 0 instructions: 137500874 cycles: 51675128 heartbeat IPC: 2.693 cumulative IPC: 2.495 (Simulation time: 00 hr 16 min 58 sec)
Heartbeat CPU 0 instructions: 138000881 cycles: 51891827 heartbeat IPC: 2.307 cumulative IPC: 2.494 (Simulation time: 00 hr 17 min 02 sec)
Heartbeat CPU 0 instructions: 138500885 cycles: 52077218 heartbeat IPC: 2.697 cumulative IPC: 2.495 (Simulation time: 00 hr 17 min 05 sec)
Heartbeat CPU 0 instructions: 139000887 cycles: 52263006 heartbeat IPC: 2.691 cumulative IPC: 2.496 (Simulation time: 00 hr 17 min 08 sec)
Heartbeat CPU 0 instructions: 139500894 cycles: 52478311 heartbeat IPC: 2.322 cumulative IPC: 2.495 (Simulation time: 00 hr 17 min 12 sec)
Heartbeat CPU 0 instructions: 140000899 cycles: 52663317 heartbeat IPC: 2.703 cumulative IPC: 2.496 (Simulation time: 00 hr 17 min 15 sec)
Heartbeat CPU 0 instructions: 140500900 cycles: 52849009 heartbeat IPC: 2.693 cumulative IPC: 2.497 (Simulation time: 00 hr 17 min 18 sec)
Heartbeat CPU 0 instructions: 141000900 cycles: 53062580 heartbeat IPC: 2.341 cumulative IPC: 2.496 (Simulation time: 00 hr 17 min 22 sec)
Heartbeat CPU 0 instructions: 141500903 cycles: 53249510 heartbeat IPC: 2.675 cumulative IPC: 2.497 (Simulation time: 00 hr 17 min 25 sec)
Heartbeat CPU 0 instructions: 142000903 cycles: 53434693 heartbeat IPC: 2.7 cumulative IPC: 2.498 (Simulation time: 00 hr 17 min 29 sec)
Heartbeat CPU 0 instructions: 142500910 cycles: 53620509 heartbeat IPC: 2.691 cumulative IPC: 2.499 (Simulation time: 00 hr 17 min 32 sec)
Heartbeat CPU 0 instructions: 143000913 cycles: 53835927 heartbeat IPC: 2.321 cumulative IPC: 2.498 (Simulation time: 00 hr 17 min 36 sec)
Heartbeat CPU 0 instructions: 143500915 cycles: 54020834 heartbeat IPC: 2.704 cumulative IPC: 2.499 (Simulation time: 00 hr 17 min 39 sec)
Heartbeat CPU 0 instructions: 144000922 cycles: 54206166 heartbeat IPC: 2.698 cumulative IPC: 2.5 (Simulation time: 00 hr 17 min 42 sec)
Heartbeat CPU 0 instructions: 144500927 cycles: 54420683 heartbeat IPC: 2.331 cumulative IPC: 2.499 (Simulation time: 00 hr 17 min 46 sec)
Heartbeat CPU 0 instructions: 145000930 cycles: 54607305 heartbeat IPC: 2.679 cumulative IPC: 2.5 (Simulation time: 00 hr 17 min 49 sec)
Heartbeat CPU 0 instructions: 145500930 cycles: 54792582 heartbeat IPC: 2.699 cumulative IPC: 2.501 (Simulation time: 00 hr 17 min 52 sec)
Heartbeat CPU 0 instructions: 146000935 cycles: 55008079 heartbeat IPC: 2.32 cumulative IPC: 2.499 (Simulation time: 00 hr 17 min 56 sec)
Heartbeat CPU 0 instructions: 146500936 cycles: 55193105 heartbeat IPC: 2.702 cumulative IPC: 2.5 (Simulation time: 00 hr 17 min 59 sec)
Heartbeat CPU 0 instructions: 147000941 cycles: 55377935 heartbeat IPC: 2.705 cumulative IPC: 2.501 (Simulation time: 00 hr 18 min 03 sec)
Heartbeat CPU 0 instructions: 147500941 cycles: 55562771 heartbeat IPC: 2.705 cumulative IPC: 2.502 (Simulation time: 00 hr 18 min 06 sec)
Heartbeat CPU 0 instructions: 148000943 cycles: 55778493 heartbeat IPC: 2.318 cumulative IPC: 2.501 (Simulation time: 00 hr 18 min 10 sec)
Heartbeat CPU 0 instructions: 148500949 cycles: 55964623 heartbeat IPC: 2.686 cumulative IPC: 2.502 (Simulation time: 00 hr 18 min 13 sec)
Heartbeat CPU 0 instructions: 149000956 cycles: 56150087 heartbeat IPC: 2.696 cumulative IPC: 2.503 (Simulation time: 00 hr 18 min 16 sec)
Heartbeat CPU 0 instructions: 149500958 cycles: 56366122 heartbeat IPC: 2.314 cumulative IPC: 2.502 (Simulation time: 00 hr 18 min 20 sec)
Heartbeat CPU 0 instructions: 150000961 cycles: 56553149 heartbeat IPC: 2.673 cumulative IPC: 2.503 (Simulation time: 00 hr 18 min 23 sec)
Heartbeat CPU 0 instructions: 150500968 cycles: 56738173 heartbeat IPC: 2.702 cumulative IPC: 2.504 (Simulation time: 00 hr 18 min 27 sec)
Heartbeat CPU 0 instructions: 151000972 cycles: 56953334 heartbeat IPC: 2.324 cumulative IPC: 2.503 (Simulation time: 00 hr 18 min 30 sec)
Heartbeat CPU 0 instructions: 151500979 cycles: 57138575 heartbeat IPC: 2.699 cumulative IPC: 2.504 (Simulation time: 00 hr 18 min 34 sec)
Heartbeat CPU 0 instructions: 152000986 cycles: 57322850 heartbeat IPC: 2.713 cumulative IPC: 2.505 (Simulation time: 00 hr 18 min 37 sec)
Heartbeat CPU 0 instructions: 152500986 cycles: 57510671 heartbeat IPC: 2.662 cumulative IPC: 2.505 (Simulation time: 00 hr 18 min 40 sec)
Heartbeat CPU 0 instructions: 153000987 cycles: 57725056 heartbeat IPC: 2.332 cumulative IPC: 2.505 (Simulation time: 00 hr 18 min 44 sec)
Heartbeat CPU 0 instructions: 153500988 cycles: 57911895 heartbeat IPC: 2.676 cumulative IPC: 2.505 (Simulation time: 00 hr 18 min 47 sec)
Heartbeat CPU 0 instructions: 154000990 cycles: 58097041 heartbeat IPC: 2.701 cumulative IPC: 2.506 (Simulation time: 00 hr 18 min 50 sec)
Heartbeat CPU 0 instructions: 154500990 cycles: 58312883 heartbeat IPC: 2.317 cumulative IPC: 2.505 (Simulation time: 00 hr 18 min 54 sec)
Heartbeat CPU 0 instructions: 155000992 cycles: 58499417 heartbeat IPC: 2.68 cumulative IPC: 2.506 (Simulation time: 00 hr 18 min 57 sec)
Heartbeat CPU 0 instructions: 155500992 cycles: 58684319 heartbeat IPC: 2.704 cumulative IPC: 2.507 (Simulation time: 00 hr 19 min 01 sec)
Heartbeat CPU 0 instructions: 156000997 cycles: 58898834 heartbeat IPC: 2.331 cumulative IPC: 2.506 (Simulation time: 00 hr 19 min 04 sec)
Heartbeat CPU 0 instructions: 156501002 cycles: 59083884 heartbeat IPC: 2.702 cumulative IPC: 2.507 (Simulation time: 00 hr 19 min 08 sec)
Heartbeat CPU 0 instructions: 157001002 cycles: 59268992 heartbeat IPC: 2.701 cumulative IPC: 2.508 (Simulation time: 00 hr 19 min 11 sec)
Heartbeat CPU 0 instructions: 157501004 cycles: 59466012 heartbeat IPC: 2.538 cumulative IPC: 2.508 (Simulation time: 00 hr 19 min 14 sec)
Heartbeat CPU 0 instructions: 158001011 cycles: 59670751 heartbeat IPC: 2.442 cumulative IPC: 2.508 (Simulation time: 00 hr 19 min 18 sec)
Heartbeat CPU 0 instructions: 158501013 cycles: 59856814 heartbeat IPC: 2.687 cumulative IPC: 2.508 (Simulation time: 00 hr 19 min 21 sec)
Heartbeat CPU 0 instructions: 159001020 cycles: 60041713 heartbeat IPC: 2.704 cumulative IPC: 2.509 (Simulation time: 00 hr 19 min 24 sec)
Heartbeat CPU 0 instructions: 159501024 cycles: 60256678 heartbeat IPC: 2.326 cumulative IPC: 2.508 (Simulation time: 00 hr 19 min 28 sec)
Heartbeat CPU 0 instructions: 160001028 cycles: 60441668 heartbeat IPC: 2.703 cumulative IPC: 2.509 (Simulation time: 00 hr 19 min 31 sec)
Heartbeat CPU 0 instructions: 160501028 cycles: 60627191 heartbeat IPC: 2.695 cumulative IPC: 2.51 (Simulation time: 00 hr 19 min 35 sec)
Heartbeat CPU 0 instructions: 161001029 cycles: 60842584 heartbeat IPC: 2.321 cumulative IPC: 2.509 (Simulation time: 00 hr 19 min 38 sec)
Heartbeat CPU 0 instructions: 161501034 cycles: 61026976 heartbeat IPC: 2.712 cumulative IPC: 2.51 (Simulation time: 00 hr 19 min 42 sec)
Heartbeat CPU 0 instructions: 162001037 cycles: 61211636 heartbeat IPC: 2.708 cumulative IPC: 2.511 (Simulation time: 00 hr 19 min 45 sec)
Heartbeat CPU 0 instructions: 162501040 cycles: 61415906 heartbeat IPC: 2.448 cumulative IPC: 2.51 (Simulation time: 00 hr 19 min 48 sec)
Heartbeat CPU 0 instructions: 163001040 cycles: 61612420 heartbeat IPC: 2.544 cumulative IPC: 2.51 (Simulation time: 00 hr 19 min 52 sec)
Heartbeat CPU 0 instructions: 163501046 cycles: 61798774 heartbeat IPC: 2.683 cumulative IPC: 2.511 (Simulation time: 00 hr 19 min 55 sec)
Heartbeat CPU 0 instructions: 164001053 cycles: 62029161 heartbeat IPC: 2.17 cumulative IPC: 2.509 (Simulation time: 00 hr 19 min 59 sec)
Heartbeat CPU 0 instructions: 164501055 cycles: 62244764 heartbeat IPC: 2.319 cumulative IPC: 2.509 (Simulation time: 00 hr 20 min 03 sec)
Heartbeat CPU 0 instructions: 165001059 cycles: 62430700 heartbeat IPC: 2.689 cumulative IPC: 2.509 (Simulation time: 00 hr 20 min 06 sec)
Heartbeat CPU 0 instructions: 165501065 cycles: 62616930 heartbeat IPC: 2.685 cumulative IPC: 2.51 (Simulation time: 00 hr 20 min 09 sec)
Heartbeat CPU 0 instructions: 166001068 cycles: 62831893 heartbeat IPC: 2.326 cumulative IPC: 2.509 (Simulation time: 00 hr 20 min 13 sec)
Heartbeat CPU 0 instructions: 166501070 cycles: 63018229 heartbeat IPC: 2.683 cumulative IPC: 2.51 (Simulation time: 00 hr 20 min 16 sec)
Heartbeat CPU 0 instructions: 167001075 cycles: 63203403 heartbeat IPC: 2.7 cumulative IPC: 2.511 (Simulation time: 00 hr 20 min 20 sec)
Heartbeat CPU 0 instructions: 167501079 cycles: 63418921 heartbeat IPC: 2.32 cumulative IPC: 2.51 (Simulation time: 00 hr 20 min 23 sec)
Heartbeat CPU 0 instructions: 168001081 cycles: 63605637 heartbeat IPC: 2.678 cumulative IPC: 2.51 (Simulation time: 00 hr 20 min 27 sec)
Heartbeat CPU 0 instructions: 168501081 cycles: 63791149 heartbeat IPC: 2.695 cumulative IPC: 2.511 (Simulation time: 00 hr 20 min 30 sec)
Heartbeat CPU 0 instructions: 169001086 cycles: 63977004 heartbeat IPC: 2.69 cumulative IPC: 2.512 (Simulation time: 00 hr 20 min 33 sec)
Heartbeat CPU 0 instructions: 169501087 cycles: 64191934 heartbeat IPC: 2.326 cumulative IPC: 2.511 (Simulation time: 00 hr 20 min 37 sec)
Heartbeat CPU 0 instructions: 170001092 cycles: 64376644 heartbeat IPC: 2.707 cumulative IPC: 2.512 (Simulation time: 00 hr 20 min 40 sec)
Heartbeat CPU 0 instructions: 170501093 cycles: 64562257 heartbeat IPC: 2.694 cumulative IPC: 2.512 (Simulation time: 00 hr 20 min 43 sec)
Heartbeat CPU 0 instructions: 171001098 cycles: 64777817 heartbeat IPC: 2.32 cumulative IPC: 2.512 (Simulation time: 00 hr 20 min 47 sec)
Heartbeat CPU 0 instructions: 171501100 cycles: 64963913 heartbeat IPC: 2.687 cumulative IPC: 2.512 (Simulation time: 00 hr 20 min 50 sec)
Heartbeat CPU 0 instructions: 172001103 cycles: 65148857 heartbeat IPC: 2.704 cumulative IPC: 2.513 (Simulation time: 00 hr 20 min 54 sec)
Heartbeat CPU 0 instructions: 172501109 cycles: 65366326 heartbeat IPC: 2.299 cumulative IPC: 2.512 (Simulation time: 00 hr 20 min 57 sec)
Heartbeat CPU 0 instructions: 173001116 cycles: 65551971 heartbeat IPC: 2.693 cumulative IPC: 2.513 (Simulation time: 00 hr 21 min 01 sec)
Heartbeat CPU 0 instructions: 173501121 cycles: 65737181 heartbeat IPC: 2.7 cumulative IPC: 2.513 (Simulation time: 00 hr 21 min 04 sec)
Heartbeat CPU 0 instructions: 174001127 cycles: 65921912 heartbeat IPC: 2.707 cumulative IPC: 2.514 (Simulation time: 00 hr 21 min 07 sec)
Heartbeat CPU 0 instructions: 174501128 cycles: 66136875 heartbeat IPC: 2.326 cumulative IPC: 2.513 (Simulation time: 00 hr 21 min 11 sec)
Heartbeat CPU 0 instructions: 175001133 cycles: 66322202 heartbeat IPC: 2.698 cumulative IPC: 2.514 (Simulation time: 00 hr 21 min 14 sec)
Heartbeat CPU 0 instructions: 175501133 cycles: 66508207 heartbeat IPC: 2.688 cumulative IPC: 2.515 (Simulation time: 00 hr 21 min 18 sec)
Heartbeat CPU 0 instructions: 176001134 cycles: 66724526 heartbeat IPC: 2.311 cumulative IPC: 2.514 (Simulation time: 00 hr 21 min 21 sec)
Heartbeat CPU 0 instructions: 176501137 cycles: 66909502 heartbeat IPC: 2.703 cumulative IPC: 2.514 (Simulation time: 00 hr 21 min 25 sec)
Heartbeat CPU 0 instructions: 177001144 cycles: 67093839 heartbeat IPC: 2.712 cumulative IPC: 2.515 (Simulation time: 00 hr 21 min 28 sec)
Heartbeat CPU 0 instructions: 177501151 cycles: 67308511 heartbeat IPC: 2.329 cumulative IPC: 2.514 (Simulation time: 00 hr 21 min 31 sec)
Heartbeat CPU 0 instructions: 178001153 cycles: 67493324 heartbeat IPC: 2.705 cumulative IPC: 2.515 (Simulation time: 00 hr 21 min 35 sec)
Heartbeat CPU 0 instructions: 178501158 cycles: 67679404 heartbeat IPC: 2.687 cumulative IPC: 2.516 (Simulation time: 00 hr 21 min 38 sec)
Heartbeat CPU 0 instructions: 179001161 cycles: 67867199 heartbeat IPC: 2.662 cumulative IPC: 2.516 (Simulation time: 00 hr 21 min 41 sec)
Heartbeat CPU 0 instructions: 179501165 cycles: 68080859 heartbeat IPC: 2.34 cumulative IPC: 2.516 (Simulation time: 00 hr 21 min 45 sec)
Heartbeat CPU 0 instructions: 180001172 cycles: 68267530 heartbeat IPC: 2.679 cumulative IPC: 2.516 (Simulation time: 00 hr 21 min 48 sec)
Heartbeat CPU 0 instructions: 180501175 cycles: 68454007 heartbeat IPC: 2.681 cumulative IPC: 2.517 (Simulation time: 00 hr 21 min 52 sec)
Heartbeat CPU 0 instructions: 181001175 cycles: 68669286 heartbeat IPC: 2.323 cumulative IPC: 2.516 (Simulation time: 00 hr 21 min 55 sec)
Heartbeat CPU 0 instructions: 181501182 cycles: 68854029 heartbeat IPC: 2.707 cumulative IPC: 2.517 (Simulation time: 00 hr 21 min 59 sec)
Heartbeat CPU 0 instructions: 182001182 cycles: 69039516 heartbeat IPC: 2.696 cumulative IPC: 2.517 (Simulation time: 00 hr 22 min 02 sec)
Heartbeat CPU 0 instructions: 182501182 cycles: 69253979 heartbeat IPC: 2.331 cumulative IPC: 2.516 (Simulation time: 00 hr 22 min 06 sec)
Heartbeat CPU 0 instructions: 183001183 cycles: 69438698 heartbeat IPC: 2.707 cumulative IPC: 2.517 (Simulation time: 00 hr 22 min 09 sec)
Heartbeat CPU 0 instructions: 183501183 cycles: 69625553 heartbeat IPC: 2.676 cumulative IPC: 2.518 (Simulation time: 00 hr 22 min 12 sec)
Heartbeat CPU 0 instructions: 184001183 cycles: 69821895 heartbeat IPC: 2.547 cumulative IPC: 2.518 (Simulation time: 00 hr 22 min 16 sec)
Heartbeat CPU 0 instructions: 184501189 cycles: 70025079 heartbeat IPC: 2.461 cumulative IPC: 2.518 (Simulation time: 00 hr 22 min 19 sec)
Heartbeat CPU 0 instructions: 185001196 cycles: 70209554 heartbeat IPC: 2.71 cumulative IPC: 2.518 (Simulation time: 00 hr 22 min 22 sec)
Heartbeat CPU 0 instructions: 185501203 cycles: 70393645 heartbeat IPC: 2.716 cumulative IPC: 2.519 (Simulation time: 00 hr 22 min 26 sec)
Heartbeat CPU 0 instructions: 186001203 cycles: 70606095 heartbeat IPC: 2.353 cumulative IPC: 2.518 (Simulation time: 00 hr 22 min 29 sec)
Heartbeat CPU 0 instructions: 186501207 cycles: 70790256 heartbeat IPC: 2.715 cumulative IPC: 2.519 (Simulation time: 00 hr 22 min 33 sec)
Heartbeat CPU 0 instructions: 187001207 cycles: 70975796 heartbeat IPC: 2.695 cumulative IPC: 2.52 (Simulation time: 00 hr 22 min 36 sec)
Heartbeat CPU 0 instructions: 187501207 cycles: 71190796 heartbeat IPC: 2.326 cumulative IPC: 2.519 (Simulation time: 00 hr 22 min 40 sec)
Heartbeat CPU 0 instructions: 188001214 cycles: 71376225 heartbeat IPC: 2.696 cumulative IPC: 2.519 (Simulation time: 00 hr 22 min 43 sec)
Heartbeat CPU 0 instructions: 188501214 cycles: 71561110 heartbeat IPC: 2.704 cumulative IPC: 2.52 (Simulation time: 00 hr 22 min 46 sec)
Heartbeat CPU 0 instructions: 189001214 cycles: 71766649 heartbeat IPC: 2.433 cumulative IPC: 2.52 (Simulation time: 00 hr 22 min 50 sec)
Heartbeat CPU 0 instructions: 189501216 cycles: 71960323 heartbeat IPC: 2.582 cumulative IPC: 2.52 (Simulation time: 00 hr 22 min 53 sec)
Heartbeat CPU 0 instructions: 190001216 cycles: 72143007 heartbeat IPC: 2.737 cumulative IPC: 2.521 (Simulation time: 00 hr 22 min 56 sec)
Heartbeat CPU 0 instructions: 190501219 cycles: 72324451 heartbeat IPC: 2.756 cumulative IPC: 2.521 (Simulation time: 00 hr 23 min 00 sec)
Heartbeat CPU 0 instructions: 191001224 cycles: 72530390 heartbeat IPC: 2.428 cumulative IPC: 2.521 (Simulation time: 00 hr 23 min 03 sec)
Heartbeat CPU 0 instructions: 191501225 cycles: 72707359 heartbeat IPC: 2.825 cumulative IPC: 2.522 (Simulation time: 00 hr 23 min 06 sec)
Heartbeat CPU 0 instructions: 192001231 cycles: 72885722 heartbeat IPC: 2.803 cumulative IPC: 2.523 (Simulation time: 00 hr 23 min 10 sec)
Heartbeat CPU 0 instructions: 192501236 cycles: 73085866 heartbeat IPC: 2.498 cumulative IPC: 2.523 (Simulation time: 00 hr 23 min 13 sec)
Heartbeat CPU 0 instructions: 193001241 cycles: 73259516 heartbeat IPC: 2.879 cumulative IPC: 2.524 (Simulation time: 00 hr 23 min 16 sec)
Heartbeat CPU 0 instructions: 193501247 cycles: 73434386 heartbeat IPC: 2.859 cumulative IPC: 2.525 (Simulation time: 00 hr 23 min 19 sec)
Heartbeat CPU 0 instructions: 194001248 cycles: 73625961 heartbeat IPC: 2.61 cumulative IPC: 2.525 (Simulation time: 00 hr 23 min 23 sec)
Heartbeat CPU 0 instructions: 194501251 cycles: 73800257 heartbeat IPC: 2.869 cumulative IPC: 2.526 (Simulation time: 00 hr 23 min 26 sec)
Heartbeat CPU 0 instructions: 195001252 cycles: 73974901 heartbeat IPC: 2.863 cumulative IPC: 2.527 (Simulation time: 00 hr 23 min 29 sec)
Heartbeat CPU 0 instructions: 195501258 cycles: 74147673 heartbeat IPC: 2.894 cumulative IPC: 2.528 (Simulation time: 00 hr 23 min 32 sec)
Heartbeat CPU 0 instructions: 196001265 cycles: 74339123 heartbeat IPC: 2.612 cumulative IPC: 2.529 (Simulation time: 00 hr 23 min 35 sec)
Heartbeat CPU 0 instructions: 196501268 cycles: 74522647 heartbeat IPC: 2.724 cumulative IPC: 2.529 (Simulation time: 00 hr 23 min 39 sec)
Heartbeat CPU 0 instructions: 197001272 cycles: 74707878 heartbeat IPC: 2.699 cumulative IPC: 2.53 (Simulation time: 00 hr 23 min 42 sec)
Heartbeat CPU 0 instructions: 197501273 cycles: 74920283 heartbeat IPC: 2.354 cumulative IPC: 2.529 (Simulation time: 00 hr 23 min 46 sec)
Heartbeat CPU 0 instructions: 198001274 cycles: 75105043 heartbeat IPC: 2.706 cumulative IPC: 2.53 (Simulation time: 00 hr 23 min 49 sec)
Heartbeat CPU 0 instructions: 198501275 cycles: 75288935 heartbeat IPC: 2.719 cumulative IPC: 2.53 (Simulation time: 00 hr 23 min 52 sec)
Heartbeat CPU 0 instructions: 199001277 cycles: 75501845 heartbeat IPC: 2.348 cumulative IPC: 2.53 (Simulation time: 00 hr 23 min 56 sec)
Heartbeat CPU 0 instructions: 199501282 cycles: 75685356 heartbeat IPC: 2.725 cumulative IPC: 2.53 (Simulation time: 00 hr 23 min 59 sec)
Heartbeat CPU 0 instructions: 200001287 cycles: 75869287 heartbeat IPC: 2.718 cumulative IPC: 2.531 (Simulation time: 00 hr 24 min 02 sec)
Heartbeat CPU 0 instructions: 200501289 cycles: 76053283 heartbeat IPC: 2.717 cumulative IPC: 2.531 (Simulation time: 00 hr 24 min 06 sec)
Heartbeat CPU 0 instructions: 201001292 cycles: 76266318 heartbeat IPC: 2.347 cumulative IPC: 2.531 (Simulation time: 00 hr 24 min 09 sec)
Heartbeat CPU 0 instructions: 201501297 cycles: 76449852 heartbeat IPC: 2.724 cumulative IPC: 2.531 (Simulation time: 00 hr 24 min 13 sec)
Heartbeat CPU 0 instructions: 202001302 cycles: 76634098 heartbeat IPC: 2.714 cumulative IPC: 2.532 (Simulation time: 00 hr 24 min 16 sec)
Heartbeat CPU 0 instructions: 202501307 cycles: 76847988 heartbeat IPC: 2.338 cumulative IPC: 2.531 (Simulation time: 00 hr 24 min 19 sec)
Heartbeat CPU 0 instructions: 203001309 cycles: 77033006 heartbeat IPC: 2.702 cumulative IPC: 2.532 (Simulation time: 00 hr 24 min 23 sec)
Heartbeat CPU 0 instructions: 203501314 cycles: 77218215 heartbeat IPC: 2.7 cumulative IPC: 2.532 (Simulation time: 00 hr 24 min 26 sec)
Heartbeat CPU 0 instructions: 204001321 cycles: 77434627 heartbeat IPC: 2.31 cumulative IPC: 2.531 (Simulation time: 00 hr 24 min 30 sec)
Heartbeat CPU 0 instructions: 204501327 cycles: 77620060 heartbeat IPC: 2.696 cumulative IPC: 2.532 (Simulation time: 00 hr 24 min 33 sec)
Heartbeat CPU 0 instructions: 205001332 cycles: 77806798 heartbeat IPC: 2.678 cumulative IPC: 2.532 (Simulation time: 00 hr 24 min 36 sec)
Heartbeat CPU 0 instructions: 205501334 cycles: 77995457 heartbeat IPC: 2.65 cumulative IPC: 2.533 (Simulation time: 00 hr 24 min 40 sec)
Heartbeat CPU 0 instructions: 206001336 cycles: 78209473 heartbeat IPC: 2.336 cumulative IPC: 2.532 (Simulation time: 00 hr 24 min 43 sec)
Heartbeat CPU 0 instructions: 206501341 cycles: 78395721 heartbeat IPC: 2.685 cumulative IPC: 2.533 (Simulation time: 00 hr 24 min 47 sec)
Heartbeat CPU 0 instructions: 207001346 cycles: 78580508 heartbeat IPC: 2.706 cumulative IPC: 2.533 (Simulation time: 00 hr 24 min 50 sec)
Heartbeat CPU 0 instructions: 207501349 cycles: 78796686 heartbeat IPC: 2.313 cumulative IPC: 2.532 (Simulation time: 00 hr 24 min 54 sec)
Heartbeat CPU 0 instructions: 208001356 cycles: 78982218 heartbeat IPC: 2.695 cumulative IPC: 2.533 (Simulation time: 00 hr 24 min 57 sec)
Heartbeat CPU 0 instructions: 208501363 cycles: 79166897 heartbeat IPC: 2.707 cumulative IPC: 2.533 (Simulation time: 00 hr 25 min 00 sec)
Heartbeat CPU 0 instructions: 209001366 cycles: 79381778 heartbeat IPC: 2.327 cumulative IPC: 2.533 (Simulation time: 00 hr 25 min 04 sec)
Heartbeat CPU 0 instructions: 209501366 cycles: 79566854 heartbeat IPC: 2.702 cumulative IPC: 2.533 (Simulation time: 00 hr 25 min 07 sec)
Heartbeat CPU 0 instructions: 210001371 cycles: 79752667 heartbeat IPC: 2.691 cumulative IPC: 2.534 (Simulation time: 00 hr 25 min 10 sec)
Heartbeat CPU 0 instructions: 210501373 cycles: 79948819 heartbeat IPC: 2.549 cumulative IPC: 2.534 (Simulation time: 00 hr 25 min 14 sec)
Heartbeat CPU 0 instructions: 211001376 cycles: 80154603 heartbeat IPC: 2.43 cumulative IPC: 2.533 (Simulation time: 00 hr 25 min 17 sec)
Heartbeat CPU 0 instructions: 211501381 cycles: 80341833 heartbeat IPC: 2.671 cumulative IPC: 2.534 (Simulation time: 00 hr 25 min 21 sec)
Heartbeat CPU 0 instructions: 212001388 cycles: 80526458 heartbeat IPC: 2.708 cumulative IPC: 2.534 (Simulation time: 00 hr 25 min 24 sec)
Heartbeat CPU 0 instructions: 212501395 cycles: 80741573 heartbeat IPC: 2.324 cumulative IPC: 2.533 (Simulation time: 00 hr 25 min 28 sec)
Heartbeat CPU 0 instructions: 213001400 cycles: 80926624 heartbeat IPC: 2.702 cumulative IPC: 2.534 (Simulation time: 00 hr 25 min 31 sec)
Heartbeat CPU 0 instructions: 213501403 cycles: 81111910 heartbeat IPC: 2.699 cumulative IPC: 2.534 (Simulation time: 00 hr 25 min 34 sec)
Heartbeat CPU 0 instructions: 214001403 cycles: 81328191 heartbeat IPC: 2.312 cumulative IPC: 2.534 (Simulation time: 00 hr 25 min 38 sec)
Heartbeat CPU 0 instructions: 214501410 cycles: 81513832 heartbeat IPC: 2.693 cumulative IPC: 2.534 (Simulation time: 00 hr 25 min 41 sec)
Heartbeat CPU 0 instructions: 215001412 cycles: 81699380 heartbeat IPC: 2.695 cumulative IPC: 2.535 (Simulation time: 00 hr 25 min 44 sec)
Heartbeat CPU 0 instructions: 215501412 cycles: 81904191 heartbeat IPC: 2.441 cumulative IPC: 2.534 (Simulation time: 00 hr 25 min 48 sec)
Heartbeat CPU 0 instructions: 216001412 cycles: 82100089 heartbeat IPC: 2.552 cumulative IPC: 2.534 (Simulation time: 00 hr 25 min 51 sec)
Heartbeat CPU 0 instructions: 216501412 cycles: 82285480 heartbeat IPC: 2.697 cumulative IPC: 2.535 (Simulation time: 00 hr 25 min 55 sec)
Heartbeat CPU 0 instructions: 217001412 cycles: 82470382 heartbeat IPC: 2.704 cumulative IPC: 2.535 (Simulation time: 00 hr 25 min 58 sec)
Heartbeat CPU 0 instructions: 217501418 cycles: 82685432 heartbeat IPC: 2.325 cumulative IPC: 2.535 (Simulation time: 00 hr 26 min 02 sec)
Heartbeat CPU 0 instructions: 218001421 cycles: 82870209 heartbeat IPC: 2.706 cumulative IPC: 2.535 (Simulation time: 00 hr 26 min 05 sec)
Heartbeat CPU 0 instructions: 218501421 cycles: 83055631 heartbeat IPC: 2.697 cumulative IPC: 2.536 (Simulation time: 00 hr 26 min 08 sec)
Heartbeat CPU 0 instructions: 219001424 cycles: 83271502 heartbeat IPC: 2.316 cumulative IPC: 2.535 (Simulation time: 00 hr 26 min 12 sec)
Heartbeat CPU 0 instructions: 219501425 cycles: 83456229 heartbeat IPC: 2.707 cumulative IPC: 2.535 (Simulation time: 00 hr 26 min 15 sec)
Heartbeat CPU 0 instructions: 220001431 cycles: 83640997 heartbeat IPC: 2.706 cumulative IPC: 2.536 (Simulation time: 00 hr 26 min 18 sec)
Heartbeat CPU 0 instructions: 220501435 cycles: 83854575 heartbeat IPC: 2.341 cumulative IPC: 2.535 (Simulation time: 00 hr 26 min 22 sec)
Heartbeat CPU 0 instructions: 221001435 cycles: 84040518 heartbeat IPC: 2.689 cumulative IPC: 2.536 (Simulation time: 00 hr 26 min 25 sec)
Heartbeat CPU 0 instructions: 221501440 cycles: 84225428 heartbeat IPC: 2.704 cumulative IPC: 2.536 (Simulation time: 00 hr 26 min 29 sec)
Heartbeat CPU 0 instructions: 222001442 cycles: 84410822 heartbeat IPC: 2.697 cumulative IPC: 2.536 (Simulation time: 00 hr 26 min 32 sec)
Heartbeat CPU 0 instructions: 222501443 cycles: 84625380 heartbeat IPC: 2.33 cumulative IPC: 2.536 (Simulation time: 00 hr 26 min 36 sec)
Heartbeat CPU 0 instructions: 223001444 cycles: 84811075 heartbeat IPC: 2.693 cumulative IPC: 2.536 (Simulation time: 00 hr 26 min 39 sec)
Heartbeat CPU 0 instructions: 223501450 cycles: 84996978 heartbeat IPC: 2.69 cumulative IPC: 2.537 (Simulation time: 00 hr 26 min 42 sec)
Heartbeat CPU 0 instructions: 224001457 cycles: 85212925 heartbeat IPC: 2.315 cumulative IPC: 2.536 (Simulation time: 00 hr 26 min 46 sec)
Heartbeat CPU 0 instructions: 224501457 cycles: 85398455 heartbeat IPC: 2.695 cumulative IPC: 2.536 (Simulation time: 00 hr 26 min 49 sec)
Heartbeat CPU 0 instructions: 225001457 cycles: 85583779 heartbeat IPC: 2.698 cumulative IPC: 2.537 (Simulation time: 00 hr 26 min 53 sec)
Heartbeat CPU 0 instructions: 225501457 cycles: 85799135 heartbeat IPC: 2.322 cumulative IPC: 2.536 (Simulation time: 00 hr 26 min 56 sec)
Heartbeat CPU 0 instructions: 226001462 cycles: 85984297 heartbeat IPC: 2.7 cumulative IPC: 2.537 (Simulation time: 00 hr 26 min 59 sec)
Heartbeat CPU 0 instructions: 226501463 cycles: 86170280 heartbeat IPC: 2.688 cumulative IPC: 2.537 (Simulation time: 00 hr 27 min 03 sec)
Heartbeat CPU 0 instructions: 227001463 cycles: 86355811 heartbeat IPC: 2.695 cumulative IPC: 2.537 (Simulation time: 00 hr 27 min 06 sec)
Heartbeat CPU 0 instructions: 227501466 cycles: 86572481 heartbeat IPC: 2.308 cumulative IPC: 2.537 (Simulation time: 00 hr 27 min 10 sec)
Heartbeat CPU 0 instructions: 228001467 cycles: 86758950 heartbeat IPC: 2.681 cumulative IPC: 2.537 (Simulation time: 00 hr 27 min 13 sec)
Heartbeat CPU 0 instructions: 228501468 cycles: 86943859 heartbeat IPC: 2.704 cumulative IPC: 2.538 (Simulation time: 00 hr 27 min 16 sec)
Heartbeat CPU 0 instructions: 229001475 cycles: 87159784 heartbeat IPC: 2.316 cumulative IPC: 2.537 (Simulation time: 00 hr 27 min 20 sec)
Heartbeat CPU 0 instructions: 229501479 cycles: 87344772 heartbeat IPC: 2.703 cumulative IPC: 2.537 (Simulation time: 00 hr 27 min 23 sec)
Heartbeat CPU 0 instructions: 230001484 cycles: 87529798 heartbeat IPC: 2.702 cumulative IPC: 2.538 (Simulation time: 00 hr 27 min 27 sec)
Heartbeat CPU 0 instructions: 230501485 cycles: 87745135 heartbeat IPC: 2.322 cumulative IPC: 2.537 (Simulation time: 00 hr 27 min 30 sec)
Heartbeat CPU 0 instructions: 231001485 cycles: 87930251 heartbeat IPC: 2.701 cumulative IPC: 2.538 (Simulation time: 00 hr 27 min 33 sec)
Heartbeat CPU 0 instructions: 231501490 cycles: 88115863 heartbeat IPC: 2.694 cumulative IPC: 2.538 (Simulation time: 00 hr 27 min 37 sec)
Heartbeat CPU 0 instructions: 232001492 cycles: 88303730 heartbeat IPC: 2.661 cumulative IPC: 2.538 (Simulation time: 00 hr 27 min 40 sec)
Heartbeat CPU 0 instructions: 232501494 cycles: 88517309 heartbeat IPC: 2.341 cumulative IPC: 2.538 (Simulation time: 00 hr 27 min 44 sec)
Heartbeat CPU 0 instructions: 233001496 cycles: 88703971 heartbeat IPC: 2.679 cumulative IPC: 2.538 (Simulation time: 00 hr 27 min 47 sec)
Heartbeat CPU 0 instructions: 233501499 cycles: 88890035 heartbeat IPC: 2.687 cumulative IPC: 2.538 (Simulation time: 00 hr 27 min 50 sec)
Heartbeat CPU 0 instructions: 234001499 cycles: 89106160 heartbeat IPC: 2.313 cumulative IPC: 2.538 (Simulation time: 00 hr 27 min 54 sec)
Heartbeat CPU 0 instructions: 234501504 cycles: 89290939 heartbeat IPC: 2.706 cumulative IPC: 2.538 (Simulation time: 00 hr 27 min 57 sec)
Heartbeat CPU 0 instructions: 235001505 cycles: 89475982 heartbeat IPC: 2.702 cumulative IPC: 2.539 (Simulation time: 00 hr 28 min 01 sec)
Heartbeat CPU 0 instructions: 235501510 cycles: 89691087 heartbeat IPC: 2.324 cumulative IPC: 2.538 (Simulation time: 00 hr 28 min 04 sec)
Heartbeat CPU 0 instructions: 236001511 cycles: 89877544 heartbeat IPC: 2.682 cumulative IPC: 2.538 (Simulation time: 00 hr 28 min 08 sec)
Heartbeat CPU 0 instructions: 236501518 cycles: 90063248 heartbeat IPC: 2.692 cumulative IPC: 2.539 (Simulation time: 00 hr 28 min 11 sec)
Heartbeat CPU 0 instructions: 237001518 cycles: 90259447 heartbeat IPC: 2.548 cumulative IPC: 2.539 (Simulation time: 00 hr 28 min 14 sec)
Heartbeat CPU 0 instructions: 237501523 cycles: 90464340 heartbeat IPC: 2.44 cumulative IPC: 2.538 (Simulation time: 00 hr 28 min 18 sec)
Heartbeat CPU 0 instructions: 238001523 cycles: 90651357 heartbeat IPC: 2.674 cumulative IPC: 2.539 (Simulation time: 00 hr 28 min 21 sec)
Heartbeat CPU 0 instructions: 238501524 cycles: 90837013 heartbeat IPC: 2.693 cumulative IPC: 2.539 (Simulation time: 00 hr 28 min 24 sec)
Heartbeat CPU 0 instructions: 239001527 cycles: 91053242 heartbeat IPC: 2.312 cumulative IPC: 2.539 (Simulation time: 00 hr 28 min 28 sec)
Heartbeat CPU 0 instructions: 239501530 cycles: 91237608 heartbeat IPC: 2.712 cumulative IPC: 2.539 (Simulation time: 00 hr 28 min 31 sec)
Heartbeat CPU 0 instructions: 240001537 cycles: 91423040 heartbeat IPC: 2.696 cumulative IPC: 2.539 (Simulation time: 00 hr 28 min 35 sec)
Heartbeat CPU 0 instructions: 240501543 cycles: 91637776 heartbeat IPC: 2.328 cumulative IPC: 2.539 (Simulation time: 00 hr 28 min 38 sec)
Heartbeat CPU 0 instructions: 241001544 cycles: 91822623 heartbeat IPC: 2.705 cumulative IPC: 2.539 (Simulation time: 00 hr 28 min 42 sec)
Heartbeat CPU 0 instructions: 241501544 cycles: 92008336 heartbeat IPC: 2.692 cumulative IPC: 2.54 (Simulation time: 00 hr 28 min 45 sec)
Heartbeat CPU 0 instructions: 242001546 cycles: 92213115 heartbeat IPC: 2.442 cumulative IPC: 2.539 (Simulation time: 00 hr 28 min 48 sec)
Heartbeat CPU 0 instructions: 242501546 cycles: 92410206 heartbeat IPC: 2.537 cumulative IPC: 2.539 (Simulation time: 00 hr 28 min 52 sec)
Heartbeat CPU 0 instructions: 243001551 cycles: 92595450 heartbeat IPC: 2.699 cumulative IPC: 2.54 (Simulation time: 00 hr 28 min 55 sec)
Heartbeat CPU 0 instructions: 243501551 cycles: 92781674 heartbeat IPC: 2.685 cumulative IPC: 2.54 (Simulation time: 00 hr 28 min 58 sec)
Heartbeat CPU 0 instructions: 244001552 cycles: 92995969 heartbeat IPC: 2.333 cumulative IPC: 2.539 (Simulation time: 00 hr 29 min 02 sec)
Heartbeat CPU 0 instructions: 244501555 cycles: 93180884 heartbeat IPC: 2.704 cumulative IPC: 2.54 (Simulation time: 00 hr 29 min 05 sec)
Heartbeat CPU 0 instructions: 245001557 cycles: 93366222 heartbeat IPC: 2.698 cumulative IPC: 2.54 (Simulation time: 00 hr 29 min 09 sec)
Heartbeat CPU 0 instructions: 245501558 cycles: 93580870 heartbeat IPC: 2.329 cumulative IPC: 2.54 (Simulation time: 00 hr 29 min 12 sec)
Heartbeat CPU 0 instructions: 246001565 cycles: 93765895 heartbeat IPC: 2.702 cumulative IPC: 2.54 (Simulation time: 00 hr 29 min 16 sec)
Heartbeat CPU 0 instructions: 246501568 cycles: 93951410 heartbeat IPC: 2.695 cumulative IPC: 2.54 (Simulation time: 00 hr 29 min 19 sec)
Heartbeat CPU 0 instructions: 247001569 cycles: 94164721 heartbeat IPC: 2.344 cumulative IPC: 2.54 (Simulation time: 00 hr 29 min 23 sec)
Heartbeat CPU 0 instructions: 247501569 cycles: 94351488 heartbeat IPC: 2.677 cumulative IPC: 2.54 (Simulation time: 00 hr 29 min 26 sec)
Heartbeat CPU 0 instructions: 248001576 cycles: 94537266 heartbeat IPC: 2.691 cumulative IPC: 2.541 (Simulation time: 00 hr 29 min 29 sec)
Heartbeat CPU 0 instructions: 248501580 cycles: 94723497 heartbeat IPC: 2.685 cumulative IPC: 2.541 (Simulation time: 00 hr 29 min 32 sec)
Heartbeat CPU 0 instructions: 249001585 cycles: 94940359 heartbeat IPC: 2.306 cumulative IPC: 2.54 (Simulation time: 00 hr 29 min 36 sec)
Heartbeat CPU 0 instructions: 249501592 cycles: 95125956 heartbeat IPC: 2.694 cumulative IPC: 2.541 (Simulation time: 00 hr 29 min 39 sec)
Simulation finished CPU 0 instructions: 200000001 cycles: 78709846 cumulative IPC: 2.541 (Simulation time: 00 hr 29 min 43 sec)
Simulation complete CPU 0 instructions: 200000001 cycles: 78709846 cumulative IPC: 2.541 (Simulation time: 00 hr 29 min 43 sec)

ChampSim completed all CPUs

=== Simulation ===
CPU 0 runs /local-ssd/ben/dpc4-traces/ai-ml/stable-diffusion.cpp-v2-1_768-nonema-pruned.3.champsimtrace.gz

Region of Interest Statistics

CPU 0 cumulative IPC: 2.541 instructions: 200000001 cycles: 78709846
CPU 0 Branch Prediction Accuracy: 98.9% MPKI: 0.7108 Average ROB Occupancy at Mispredict: 528.4
Branch type MPKI
BRANCH_DIRECT_JUMP: 0
BRANCH_INDIRECT: 0
BRANCH_CONDITIONAL: 0.7108
BRANCH_DIRECT_CALL: 0
BRANCH_INDIRECT_CALL: 0
BRANCH_RETURN: 0

cpu0->cpu0_STLB TOTAL        ACCESS:      95741 HIT:      72087 MISS:      23654 MSHR_MERGE:          0
cpu0->cpu0_STLB LOAD         ACCESS:      95741 HIT:      72087 MISS:      23654 MSHR_MERGE:          0
cpu0->cpu0_STLB RFO          ACCESS:          0 HIT:          0 MISS:          0 MSHR_MERGE:          0
cpu0->cpu0_STLB PREFETCH     ACCESS:          0 HIT:          0 MISS:          0 MSHR_MERGE:          0
cpu0->cpu0_STLB WRITE        ACCESS:          0 HIT:          0 MISS:          0 MSHR_MERGE:          0
cpu0->cpu0_STLB TRANSLATION  ACCESS:          0 HIT:          0 MISS:          0 MSHR_MERGE:          0
cpu0->cpu0_STLB PREFETCH REQUESTED:          0 ISSUED:          0 USEFUL:          0 USELESS:          0
cpu0->cpu0_STLB AVERAGE MISS LATENCY: 94.6 cycles
cpu0->cpu0_L2C TOTAL        ACCESS:   25724181 HIT:   24209143 MISS:    1515038 MSHR_MERGE:          0
cpu0->cpu0_L2C LOAD         ACCESS:   19220767 HIT:   17794647 MISS:    1426120 MSHR_MERGE:          0
cpu0->cpu0_L2C RFO          ACCESS:      47271 HIT:      38939 MISS:       8332 MSHR_MERGE:          0
cpu0->cpu0_L2C PREFETCH     ACCESS:    6385815 HIT:    6308246 MISS:      77569 MSHR_MERGE:          0
cpu0->cpu0_L2C WRITE        ACCESS:      66736 HIT:      66736 MISS:          0 MSHR_MERGE:          0
cpu0->cpu0_L2C TRANSLATION  ACCESS:       3592 HIT:        575 MISS:       3017 MSHR_MERGE:          0
cpu0->cpu0_L2C PREFETCH REQUESTED:          0 ISSUED:          0 USEFUL:          0 USELESS:          0
cpu0->cpu0_L2C AVERAGE MISS LATENCY: 188.1 cycles
cpu0->cpu0_L1I TOTAL        ACCESS:   43989414 HIT:   43989414 MISS:          0 MSHR_MERGE:          0
cpu0->cpu0_L1I LOAD         ACCESS:   43989414 HIT:   43989414 MISS:          0 MSHR_MERGE:          0
cpu0->cpu0_L1I RFO          ACCESS:          0 HIT:          0 MISS:          0 MSHR_MERGE:          0
cpu0->cpu0_L1I PREFETCH     ACCESS:          0 HIT:          0 MISS:          0 MSHR_MERGE:          0
cpu0->cpu0_L1I WRITE        ACCESS:          0 HIT:          0 MISS:          0 MSHR_MERGE:          0
cpu0->cpu0_L1I TRANSLATION  ACCESS:          0 HIT:          0 MISS:          0 MSHR_MERGE:          0
cpu0->cpu0_L1I PREFETCH REQUESTED:          0 ISSUED:          0 USEFUL:          0 USELESS:          0
cpu0->cpu0_L1I AVERAGE MISS LATENCY: - cycles
cpu0->cpu0_L1D TOTAL        ACCESS:   73934236 HIT:   42771480 MISS:   31162756 MSHR_MERGE:    5505218
cpu0->cpu0_L1D LOAD         ACCESS:   58160939 HIT:   36504711 MISS:   21656228 MSHR_MERGE:    2435458
cpu0->cpu0_L1D RFO          ACCESS:          0 HIT:          0 MISS:          0 MSHR_MERGE:          0
cpu0->cpu0_L1D PREFETCH     ACCESS:   15099983 HIT:    5654996 MISS:    9444987 MSHR_MERGE:    3059170
cpu0->cpu0_L1D WRITE        ACCESS:     625997 HIT:     568050 MISS:      57947 MSHR_MERGE:      10588
cpu0->cpu0_L1D TRANSLATION  ACCESS:      47317 HIT:      43723 MISS:       3594 MSHR_MERGE:          2
cpu0->cpu0_L1D PREFETCH REQUESTED:   23373369 ISSUED:   15099981 USEFUL:    6342829 USELESS:      42986
cpu0->cpu0_L1D AVERAGE MISS LATENCY: 20.89 cycles
cpu0->cpu0_ITLB TOTAL        ACCESS:   27460280 HIT:   27460280 MISS:          0 MSHR_MERGE:          0
cpu0->cpu0_ITLB LOAD         ACCESS:   27460280 HIT:   27460280 MISS:          0 MSHR_MERGE:          0
cpu0->cpu0_ITLB RFO          ACCESS:          0 HIT:          0 MISS:          0 MSHR_MERGE:          0
cpu0->cpu0_ITLB PREFETCH     ACCESS:          0 HIT:          0 MISS:          0 MSHR_MERGE:          0
cpu0->cpu0_ITLB WRITE        ACCESS:          0 HIT:          0 MISS:          0 MSHR_MERGE:          0
cpu0->cpu0_ITLB TRANSLATION  ACCESS:          0 HIT:          0 MISS:          0 MSHR_MERGE:          0
cpu0->cpu0_ITLB PREFETCH REQUESTED:          0 ISSUED:          0 USEFUL:          0 USELESS:          0
cpu0->cpu0_ITLB AVERAGE MISS LATENCY: - cycles
cpu0->cpu0_DTLB TOTAL        ACCESS:   60064765 HIT:   59654558 MISS:     410207 MSHR_MERGE:     314466
cpu0->cpu0_DTLB LOAD         ACCESS:   60064765 HIT:   59654558 MISS:     410207 MSHR_MERGE:     314466
cpu0->cpu0_DTLB RFO          ACCESS:          0 HIT:          0 MISS:          0 MSHR_MERGE:          0
cpu0->cpu0_DTLB PREFETCH     ACCESS:          0 HIT:          0 MISS:          0 MSHR_MERGE:          0
cpu0->cpu0_DTLB WRITE        ACCESS:          0 HIT:          0 MISS:          0 MSHR_MERGE:          0
cpu0->cpu0_DTLB TRANSLATION  ACCESS:          0 HIT:          0 MISS:          0 MSHR_MERGE:          0
cpu0->cpu0_DTLB PREFETCH REQUESTED:          0 ISSUED:          0 USEFUL:          0 USELESS:          0
cpu0->cpu0_DTLB AVERAGE MISS LATENCY: 28.62 cycles
cpu0->LLC TOTAL        ACCESS:    1523372 HIT:      42496 MISS:    1480876 MSHR_MERGE:          0
cpu0->LLC LOAD         ACCESS:    1426120 HIT:      21816 MISS:    1404304 MSHR_MERGE:          0
cpu0->LLC RFO          ACCESS:       8332 HIT:          0 MISS:       8332 MSHR_MERGE:          0
cpu0->LLC PREFETCH     ACCESS:      77569 HIT:      18736 MISS:      58833 MSHR_MERGE:          0
cpu0->LLC WRITE        ACCESS:       8334 HIT:       1883 MISS:       6451 MSHR_MERGE:          0
cpu0->LLC TRANSLATION  ACCESS:       3017 HIT:         61 MISS:       2956 MSHR_MERGE:          0
cpu0->LLC PREFETCH REQUESTED:          0 ISSUED:          0 USEFUL:          0 USELESS:          0
cpu0->LLC AVERAGE MISS LATENCY: 167 cycles

DRAM Statistics

Channel 0 RQ ROW_BUFFER_HIT:     692564
  ROW_BUFFER_MISS:     781861
  AVG DBUS CONGESTED CYCLE: 5.243
Channel 0 WQ ROW_BUFFER_HIT:       2288
  ROW_BUFFER_MISS:       3753
  FULL:          0
Channel 0 REFRESHES ISSUED:       6558
