[VMEM] WARNING: physical memory size is smaller than virtual memory size.

*** ChampSim Multicore Out-of-Order Simulator ***
Warmup Instructions: 50000000
Simulation Instructions: 200000000
Number of CPUs: 1
Page size: 4096
Core 0: /local-ssd/ben/dpc4-traces/ai-ml/whisper_trace_3.champsimtrace.gz
 L1D Berti prefetcher
Off-chip DRAM Size: 64 GiB Channels: 1 Width: 64-bit Data Rate: 4807 MT/s
Heartbeat CPU 0 instructions: 500001 cycles: 138865 heartbeat IPC: 3.601 cumulative IPC: 3.601 (Simulation time: 00 hr 00 min 03 sec)
Heartbeat CPU 0 instructions: 1000002 cycles: 271799 heartbeat IPC: 3.761 cumulative IPC: 3.679 (Simulation time: 00 hr 00 min 06 sec)
Heartbeat CPU 0 instructions: 1500007 cycles: 404646 heartbeat IPC: 3.764 cumulative IPC: 3.707 (Simulation time: 00 hr 00 min 09 sec)
Heartbeat CPU 0 instructions: 2000010 cycles: 537621 heartbeat IPC: 3.76 cumulative IPC: 3.72 (Simulation time: 00 hr 00 min 12 sec)
Heartbeat CPU 0 instructions: 2500013 cycles: 670548 heartbeat IPC: 3.761 cumulative IPC: 3.728 (Simulation time: 00 hr 00 min 15 sec)
Heartbeat CPU 0 instructions: 3000014 cycles: 803874 heartbeat IPC: 3.75 cumulative IPC: 3.732 (Simulation time: 00 hr 00 min 18 sec)
Heartbeat CPU 0 instructions: 3500020 cycles: 938865 heartbeat IPC: 3.704 cumulative IPC: 3.728 (Simulation time: 00 hr 00 min 21 sec)
Heartbeat CPU 0 instructions: 4000022 cycles: 1071743 heartbeat IPC: 3.763 cumulative IPC: 3.732 (Simulation time: 00 hr 00 min 23 sec)
Heartbeat CPU 0 instructions: 4500026 cycles: 1204901 heartbeat IPC: 3.755 cumulative IPC: 3.735 (Simulation time: 00 hr 00 min 26 sec)
Heartbeat CPU 0 instructions: 5000029 cycles: 1337683 heartbeat IPC: 3.766 cumulative IPC: 3.738 (Simulation time: 00 hr 00 min 29 sec)
Heartbeat CPU 0 instructions: 5500030 cycles: 1470499 heartbeat IPC: 3.765 cumulative IPC: 3.74 (Simulation time: 00 hr 00 min 32 sec)
Heartbeat CPU 0 instructions: 6000032 cycles: 1603863 heartbeat IPC: 3.749 cumulative IPC: 3.741 (Simulation time: 00 hr 00 min 35 sec)
Heartbeat CPU 0 instructions: 6500036 cycles: 1736709 heartbeat IPC: 3.764 cumulative IPC: 3.743 (Simulation time: 00 hr 00 min 38 sec)
Heartbeat CPU 0 instructions: 7000042 cycles: 1870406 heartbeat IPC: 3.74 cumulative IPC: 3.743 (Simulation time: 00 hr 00 min 41 sec)
Heartbeat CPU 0 instructions: 7500042 cycles: 2004401 heartbeat IPC: 3.731 cumulative IPC: 3.742 (Simulation time: 00 hr 00 min 43 sec)
Heartbeat CPU 0 instructions: 8000048 cycles: 2137654 heartbeat IPC: 3.752 cumulative IPC: 3.742 (Simulation time: 00 hr 00 min 46 sec)
Heartbeat CPU 0 instructions: 8500049 cycles: 2270740 heartbeat IPC: 3.757 cumulative IPC: 3.743 (Simulation time: 00 hr 00 min 49 sec)
Heartbeat CPU 0 instructions: 9000052 cycles: 2403739 heartbeat IPC: 3.759 cumulative IPC: 3.744 (Simulation time: 00 hr 00 min 52 sec)
Heartbeat CPU 0 instructions: 9500052 cycles: 2536605 heartbeat IPC: 3.763 cumulative IPC: 3.745 (Simulation time: 00 hr 00 min 55 sec)
Heartbeat CPU 0 instructions: 10000053 cycles: 2669444 heartbeat IPC: 3.764 cumulative IPC: 3.746 (Simulation time: 00 hr 00 min 58 sec)
Heartbeat CPU 0 instructions: 10500058 cycles: 2802395 heartbeat IPC: 3.761 cumulative IPC: 3.747 (Simulation time: 00 hr 01 min 01 sec)
Heartbeat CPU 0 instructions: 11000063 cycles: 2937430 heartbeat IPC: 3.703 cumulative IPC: 3.745 (Simulation time: 00 hr 01 min 03 sec)
Heartbeat CPU 0 instructions: 11500065 cycles: 3070508 heartbeat IPC: 3.757 cumulative IPC: 3.745 (Simulation time: 00 hr 01 min 06 sec)
Heartbeat CPU 0 instructions: 12000068 cycles: 3203631 heartbeat IPC: 3.756 cumulative IPC: 3.746 (Simulation time: 00 hr 01 min 09 sec)
Heartbeat CPU 0 instructions: 12500074 cycles: 3336598 heartbeat IPC: 3.76 cumulative IPC: 3.746 (Simulation time: 00 hr 01 min 12 sec)
Heartbeat CPU 0 instructions: 13000074 cycles: 3469799 heartbeat IPC: 3.754 cumulative IPC: 3.747 (Simulation time: 00 hr 01 min 15 sec)
Heartbeat CPU 0 instructions: 13500077 cycles: 3602574 heartbeat IPC: 3.766 cumulative IPC: 3.747 (Simulation time: 00 hr 01 min 18 sec)
Heartbeat CPU 0 instructions: 14000081 cycles: 3735379 heartbeat IPC: 3.765 cumulative IPC: 3.748 (Simulation time: 00 hr 01 min 21 sec)
Heartbeat CPU 0 instructions: 14500084 cycles: 3870087 heartbeat IPC: 3.712 cumulative IPC: 3.747 (Simulation time: 00 hr 01 min 23 sec)
Heartbeat CPU 0 instructions: 15000084 cycles: 4002951 heartbeat IPC: 3.763 cumulative IPC: 3.747 (Simulation time: 00 hr 01 min 26 sec)
Heartbeat CPU 0 instructions: 15500085 cycles: 4136039 heartbeat IPC: 3.757 cumulative IPC: 3.748 (Simulation time: 00 hr 01 min 29 sec)
Heartbeat CPU 0 instructions: 16000085 cycles: 4269106 heartbeat IPC: 3.758 cumulative IPC: 3.748 (Simulation time: 00 hr 01 min 32 sec)
Heartbeat CPU 0 instructions: 16500088 cycles: 4402076 heartbeat IPC: 3.76 cumulative IPC: 3.748 (Simulation time: 00 hr 01 min 35 sec)
Heartbeat CPU 0 instructions: 17000093 cycles: 4535254 heartbeat IPC: 3.754 cumulative IPC: 3.748 (Simulation time: 00 hr 01 min 38 sec)
Heartbeat CPU 0 instructions: 17500097 cycles: 4668275 heartbeat IPC: 3.759 cumulative IPC: 3.749 (Simulation time: 00 hr 01 min 40 sec)
Heartbeat CPU 0 instructions: 18000098 cycles: 4802285 heartbeat IPC: 3.731 cumulative IPC: 3.748 (Simulation time: 00 hr 01 min 43 sec)
Heartbeat CPU 0 instructions: 18500098 cycles: 4936329 heartbeat IPC: 3.73 cumulative IPC: 3.748 (Simulation time: 00 hr 01 min 46 sec)
Heartbeat CPU 0 instructions: 19000101 cycles: 5069230 heartbeat IPC: 3.762 cumulative IPC: 3.748 (Simulation time: 00 hr 01 min 49 sec)
Heartbeat CPU 0 instructions: 19500102 cycles: 5202111 heartbeat IPC: 3.763 cumulative IPC: 3.748 (Simulation time: 00 hr 01 min 52 sec)
Heartbeat CPU 0 instructions: 20000108 cycles: 5335131 heartbeat IPC: 3.759 cumulative IPC: 3.749 (Simulation time: 00 hr 01 min 55 sec)
Heartbeat CPU 0 instructions: 20500108 cycles: 5468160 heartbeat IPC: 3.759 cumulative IPC: 3.749 (Simulation time: 00 hr 01 min 58 sec)
Heartbeat CPU 0 instructions: 21000111 cycles: 5601239 heartbeat IPC: 3.757 cumulative IPC: 3.749 (Simulation time: 00 hr 02 min 00 sec)
Heartbeat CPU 0 instructions: 21500112 cycles: 5734150 heartbeat IPC: 3.762 cumulative IPC: 3.749 (Simulation time: 00 hr 02 min 03 sec)
Heartbeat CPU 0 instructions: 22000118 cycles: 5868988 heartbeat IPC: 3.708 cumulative IPC: 3.749 (Simulation time: 00 hr 02 min 06 sec)
Heartbeat CPU 0 instructions: 22500118 cycles: 6002349 heartbeat IPC: 3.749 cumulative IPC: 3.749 (Simulation time: 00 hr 02 min 09 sec)
Heartbeat CPU 0 instructions: 23000119 cycles: 6135380 heartbeat IPC: 3.759 cumulative IPC: 3.749 (Simulation time: 00 hr 02 min 12 sec)
Heartbeat CPU 0 instructions: 23500124 cycles: 6268427 heartbeat IPC: 3.758 cumulative IPC: 3.749 (Simulation time: 00 hr 02 min 15 sec)
Heartbeat CPU 0 instructions: 24000126 cycles: 6401307 heartbeat IPC: 3.763 cumulative IPC: 3.749 (Simulation time: 00 hr 02 min 17 sec)
Heartbeat CPU 0 instructions: 24500128 cycles: 6534292 heartbeat IPC: 3.76 cumulative IPC: 3.749 (Simulation time: 00 hr 02 min 20 sec)
Heartbeat CPU 0 instructions: 25000135 cycles: 6667247 heartbeat IPC: 3.761 cumulative IPC: 3.75 (Simulation time: 00 hr 02 min 23 sec)
Heartbeat CPU 0 instructions: 25500137 cycles: 6802004 heartbeat IPC: 3.71 cumulative IPC: 3.749 (Simulation time: 00 hr 02 min 26 sec)
Heartbeat CPU 0 instructions: 26000143 cycles: 6934794 heartbeat IPC: 3.765 cumulative IPC: 3.749 (Simulation time: 00 hr 02 min 29 sec)
Heartbeat CPU 0 instructions: 26500143 cycles: 7067702 heartbeat IPC: 3.762 cumulative IPC: 3.749 (Simulation time: 00 hr 02 min 32 sec)
Heartbeat CPU 0 instructions: 27000149 cycles: 7200730 heartbeat IPC: 3.759 cumulative IPC: 3.75 (Simulation time: 00 hr 02 min 34 sec)
Heartbeat CPU 0 instructions: 27500152 cycles: 7333744 heartbeat IPC: 3.759 cumulative IPC: 3.75 (Simulation time: 00 hr 02 min 37 sec)
Heartbeat CPU 0 instructions: 28000158 cycles: 7466941 heartbeat IPC: 3.754 cumulative IPC: 3.75 (Simulation time: 00 hr 02 min 40 sec)
Heartbeat CPU 0 instructions: 28500161 cycles: 7599777 heartbeat IPC: 3.764 cumulative IPC: 3.75 (Simulation time: 00 hr 02 min 43 sec)
Heartbeat CPU 0 instructions: 29000162 cycles: 7735140 heartbeat IPC: 3.694 cumulative IPC: 3.749 (Simulation time: 00 hr 02 min 46 sec)
Heartbeat CPU 0 instructions: 29500162 cycles: 7868781 heartbeat IPC: 3.741 cumulative IPC: 3.749 (Simulation time: 00 hr 02 min 49 sec)
Heartbeat CPU 0 instructions: 30000162 cycles: 8001774 heartbeat IPC: 3.76 cumulative IPC: 3.749 (Simulation time: 00 hr 02 min 52 sec)
Heartbeat CPU 0 instructions: 30500163 cycles: 8134732 heartbeat IPC: 3.761 cumulative IPC: 3.749 (Simulation time: 00 hr 02 min 54 sec)
Heartbeat CPU 0 instructions: 31000169 cycles: 8267889 heartbeat IPC: 3.755 cumulative IPC: 3.749 (Simulation time: 00 hr 02 min 57 sec)
Heartbeat CPU 0 instructions: 31500172 cycles: 8393726 heartbeat IPC: 3.973 cumulative IPC: 3.753 (Simulation time: 00 hr 03 min 00 sec)
Heartbeat CPU 0 instructions: 32000175 cycles: 8517960 heartbeat IPC: 4.025 cumulative IPC: 3.757 (Simulation time: 00 hr 03 min 03 sec)
Heartbeat CPU 0 instructions: 32500181 cycles: 8642124 heartbeat IPC: 4.027 cumulative IPC: 3.761 (Simulation time: 00 hr 03 min 05 sec)
Heartbeat CPU 0 instructions: 33000187 cycles: 8766433 heartbeat IPC: 4.022 cumulative IPC: 3.764 (Simulation time: 00 hr 03 min 08 sec)
Heartbeat CPU 0 instructions: 33500190 cycles: 8890552 heartbeat IPC: 4.028 cumulative IPC: 3.768 (Simulation time: 00 hr 03 min 11 sec)
Heartbeat CPU 0 instructions: 34000193 cycles: 9014757 heartbeat IPC: 4.026 cumulative IPC: 3.772 (Simulation time: 00 hr 03 min 13 sec)
Heartbeat CPU 0 instructions: 34500196 cycles: 9138930 heartbeat IPC: 4.027 cumulative IPC: 3.775 (Simulation time: 00 hr 03 min 16 sec)
Heartbeat CPU 0 instructions: 35000199 cycles: 9263095 heartbeat IPC: 4.027 cumulative IPC: 3.778 (Simulation time: 00 hr 03 min 19 sec)
Heartbeat CPU 0 instructions: 35500199 cycles: 9387540 heartbeat IPC: 4.018 cumulative IPC: 3.782 (Simulation time: 00 hr 03 min 22 sec)
Heartbeat CPU 0 instructions: 36000203 cycles: 9511776 heartbeat IPC: 4.025 cumulative IPC: 3.785 (Simulation time: 00 hr 03 min 24 sec)
Heartbeat CPU 0 instructions: 36500205 cycles: 9635841 heartbeat IPC: 4.03 cumulative IPC: 3.788 (Simulation time: 00 hr 03 min 27 sec)
Heartbeat CPU 0 instructions: 37000212 cycles: 9760148 heartbeat IPC: 4.022 cumulative IPC: 3.791 (Simulation time: 00 hr 03 min 30 sec)
Heartbeat CPU 0 instructions: 37500213 cycles: 9884239 heartbeat IPC: 4.029 cumulative IPC: 3.794 (Simulation time: 00 hr 03 min 32 sec)
Heartbeat CPU 0 instructions: 38000218 cycles: 10008350 heartbeat IPC: 4.029 cumulative IPC: 3.797 (Simulation time: 00 hr 03 min 35 sec)
Heartbeat CPU 0 instructions: 38500223 cycles: 10132346 heartbeat IPC: 4.032 cumulative IPC: 3.8 (Simulation time: 00 hr 03 min 38 sec)
Heartbeat CPU 0 instructions: 39000224 cycles: 10256563 heartbeat IPC: 4.025 cumulative IPC: 3.802 (Simulation time: 00 hr 03 min 41 sec)
Heartbeat CPU 0 instructions: 39500226 cycles: 10380718 heartbeat IPC: 4.027 cumulative IPC: 3.805 (Simulation time: 00 hr 03 min 43 sec)
Heartbeat CPU 0 instructions: 40000228 cycles: 10504746 heartbeat IPC: 4.031 cumulative IPC: 3.808 (Simulation time: 00 hr 03 min 46 sec)
Heartbeat CPU 0 instructions: 40500234 cycles: 10628851 heartbeat IPC: 4.029 cumulative IPC: 3.81 (Simulation time: 00 hr 03 min 49 sec)
Heartbeat CPU 0 instructions: 41000237 cycles: 10752920 heartbeat IPC: 4.03 cumulative IPC: 3.813 (Simulation time: 00 hr 03 min 51 sec)
Heartbeat CPU 0 instructions: 41500243 cycles: 10877266 heartbeat IPC: 4.021 cumulative IPC: 3.815 (Simulation time: 00 hr 03 min 54 sec)
Heartbeat CPU 0 instructions: 42000246 cycles: 11001305 heartbeat IPC: 4.031 cumulative IPC: 3.818 (Simulation time: 00 hr 03 min 57 sec)
Heartbeat CPU 0 instructions: 42500252 cycles: 11125617 heartbeat IPC: 4.022 cumulative IPC: 3.82 (Simulation time: 00 hr 04 min 00 sec)
Heartbeat CPU 0 instructions: 43000258 cycles: 11249828 heartbeat IPC: 4.025 cumulative IPC: 3.822 (Simulation time: 00 hr 04 min 02 sec)
Heartbeat CPU 0 instructions: 43500263 cycles: 11374215 heartbeat IPC: 4.02 cumulative IPC: 3.824 (Simulation time: 00 hr 04 min 05 sec)
Heartbeat CPU 0 instructions: 44000263 cycles: 11498361 heartbeat IPC: 4.028 cumulative IPC: 3.827 (Simulation time: 00 hr 04 min 08 sec)
Heartbeat CPU 0 instructions: 44500270 cycles: 11622296 heartbeat IPC: 4.034 cumulative IPC: 3.829 (Simulation time: 00 hr 04 min 10 sec)
Heartbeat CPU 0 instructions: 45000270 cycles: 11746567 heartbeat IPC: 4.023 cumulative IPC: 3.831 (Simulation time: 00 hr 04 min 13 sec)
Heartbeat CPU 0 instructions: 45500276 cycles: 11870530 heartbeat IPC: 4.034 cumulative IPC: 3.833 (Simulation time: 00 hr 04 min 16 sec)
Heartbeat CPU 0 instructions: 46000279 cycles: 11994557 heartbeat IPC: 4.031 cumulative IPC: 3.835 (Simulation time: 00 hr 04 min 19 sec)
Heartbeat CPU 0 instructions: 46500284 cycles: 12118949 heartbeat IPC: 4.02 cumulative IPC: 3.837 (Simulation time: 00 hr 04 min 21 sec)
Heartbeat CPU 0 instructions: 47000286 cycles: 12243068 heartbeat IPC: 4.028 cumulative IPC: 3.839 (Simulation time: 00 hr 04 min 24 sec)
Heartbeat CPU 0 instructions: 47500293 cycles: 12367460 heartbeat IPC: 4.02 cumulative IPC: 3.841 (Simulation time: 00 hr 04 min 27 sec)
Heartbeat CPU 0 instructions: 48000297 cycles: 12491638 heartbeat IPC: 4.027 cumulative IPC: 3.843 (Simulation time: 00 hr 04 min 29 sec)
Heartbeat CPU 0 instructions: 48500300 cycles: 12616038 heartbeat IPC: 4.019 cumulative IPC: 3.844 (Simulation time: 00 hr 04 min 32 sec)
Heartbeat CPU 0 instructions: 49000306 cycles: 12740458 heartbeat IPC: 4.019 cumulative IPC: 3.846 (Simulation time: 00 hr 04 min 35 sec)
Heartbeat CPU 0 instructions: 49500312 cycles: 12864693 heartbeat IPC: 4.025 cumulative IPC: 3.848 (Simulation time: 00 hr 04 min 38 sec)
Warmup halting CPU 0 at instruction 50000006 cycle 12988954 for remainder of phase
Warmup finished CPU 0 instructions: 50000006 cycles: 12988954 cumulative IPC: 3.849 (Simulation time: 00 hr 04 min 40 sec)
Warmup complete CPU 0 instructions: 50000006 cycles: 12988954 cumulative IPC: 3.849 (Simulation time: 00 hr 04 min 40 sec)
Heartbeat CPU 0 instructions: 50000318 cycles: 12988993 heartbeat IPC: 4.023 cumulative IPC: 8 (Simulation time: 00 hr 04 min 40 sec)
Heartbeat CPU 0 instructions: 50500322 cycles: 13166481 heartbeat IPC: 2.817 cumulative IPC: 2.818 (Simulation time: 00 hr 04 min 43 sec)
Heartbeat CPU 0 instructions: 51000324 cycles: 13346804 heartbeat IPC: 2.773 cumulative IPC: 2.795 (Simulation time: 00 hr 04 min 46 sec)
Heartbeat CPU 0 instructions: 51500325 cycles: 13524002 heartbeat IPC: 2.822 cumulative IPC: 2.804 (Simulation time: 00 hr 04 min 49 sec)
Heartbeat CPU 0 instructions: 52000328 cycles: 13701223 heartbeat IPC: 2.821 cumulative IPC: 2.808 (Simulation time: 00 hr 04 min 52 sec)
Heartbeat CPU 0 instructions: 52500329 cycles: 13876007 heartbeat IPC: 2.861 cumulative IPC: 2.819 (Simulation time: 00 hr 04 min 54 sec)
Heartbeat CPU 0 instructions: 53000331 cycles: 14050405 heartbeat IPC: 2.867 cumulative IPC: 2.827 (Simulation time: 00 hr 04 min 57 sec)
Heartbeat CPU 0 instructions: 53500335 cycles: 14224109 heartbeat IPC: 2.878 cumulative IPC: 2.834 (Simulation time: 00 hr 05 min 00 sec)
Heartbeat CPU 0 instructions: 54000338 cycles: 14400721 heartbeat IPC: 2.831 cumulative IPC: 2.834 (Simulation time: 00 hr 05 min 03 sec)
Heartbeat CPU 0 instructions: 54500341 cycles: 14575287 heartbeat IPC: 2.864 cumulative IPC: 2.837 (Simulation time: 00 hr 05 min 06 sec)
Heartbeat CPU 0 instructions: 55000345 cycles: 14754842 heartbeat IPC: 2.785 cumulative IPC: 2.832 (Simulation time: 00 hr 05 min 08 sec)
Heartbeat CPU 0 instructions: 55500351 cycles: 14928078 heartbeat IPC: 2.886 cumulative IPC: 2.837 (Simulation time: 00 hr 05 min 11 sec)
Heartbeat CPU 0 instructions: 56000354 cycles: 15098679 heartbeat IPC: 2.931 cumulative IPC: 2.844 (Simulation time: 00 hr 05 min 14 sec)
Heartbeat CPU 0 instructions: 56500358 cycles: 15269166 heartbeat IPC: 2.933 cumulative IPC: 2.851 (Simulation time: 00 hr 05 min 17 sec)
Heartbeat CPU 0 instructions: 57000358 cycles: 15438102 heartbeat IPC: 2.96 cumulative IPC: 2.858 (Simulation time: 00 hr 05 min 19 sec)
Heartbeat CPU 0 instructions: 57500365 cycles: 15607606 heartbeat IPC: 2.95 cumulative IPC: 2.864 (Simulation time: 00 hr 05 min 22 sec)
Heartbeat CPU 0 instructions: 58000372 cycles: 15777985 heartbeat IPC: 2.935 cumulative IPC: 2.869 (Simulation time: 00 hr 05 min 25 sec)
Heartbeat CPU 0 instructions: 58500374 cycles: 15949405 heartbeat IPC: 2.917 cumulative IPC: 2.871 (Simulation time: 00 hr 05 min 28 sec)
Heartbeat CPU 0 instructions: 59000375 cycles: 16116796 heartbeat IPC: 2.987 cumulative IPC: 2.878 (Simulation time: 00 hr 05 min 30 sec)
Heartbeat CPU 0 instructions: 59500378 cycles: 16282667 heartbeat IPC: 3.014 cumulative IPC: 2.884 (Simulation time: 00 hr 05 min 33 sec)
Heartbeat CPU 0 instructions: 60000378 cycles: 16453497 heartbeat IPC: 2.927 cumulative IPC: 2.886 (Simulation time: 00 hr 05 min 36 sec)
Heartbeat CPU 0 instructions: 60500384 cycles: 16623365 heartbeat IPC: 2.943 cumulative IPC: 2.889 (Simulation time: 00 hr 05 min 38 sec)
Heartbeat CPU 0 instructions: 61000385 cycles: 16788646 heartbeat IPC: 3.025 cumulative IPC: 2.895 (Simulation time: 00 hr 05 min 41 sec)
Heartbeat CPU 0 instructions: 61500385 cycles: 16952566 heartbeat IPC: 3.05 cumulative IPC: 2.901 (Simulation time: 00 hr 05 min 44 sec)
Heartbeat CPU 0 instructions: 62000389 cycles: 17121108 heartbeat IPC: 2.967 cumulative IPC: 2.904 (Simulation time: 00 hr 05 min 46 sec)
Heartbeat CPU 0 instructions: 62500394 cycles: 17291800 heartbeat IPC: 2.929 cumulative IPC: 2.905 (Simulation time: 00 hr 05 min 49 sec)
Heartbeat CPU 0 instructions: 63000397 cycles: 17470058 heartbeat IPC: 2.805 cumulative IPC: 2.901 (Simulation time: 00 hr 05 min 52 sec)
Heartbeat CPU 0 instructions: 63500404 cycles: 17645626 heartbeat IPC: 2.848 cumulative IPC: 2.899 (Simulation time: 00 hr 05 min 55 sec)
Heartbeat CPU 0 instructions: 64000407 cycles: 17820390 heartbeat IPC: 2.861 cumulative IPC: 2.898 (Simulation time: 00 hr 05 min 58 sec)
Heartbeat CPU 0 instructions: 64500411 cycles: 17998311 heartbeat IPC: 2.81 cumulative IPC: 2.895 (Simulation time: 00 hr 06 min 00 sec)
Heartbeat CPU 0 instructions: 65000414 cycles: 18173765 heartbeat IPC: 2.85 cumulative IPC: 2.893 (Simulation time: 00 hr 06 min 03 sec)
Heartbeat CPU 0 instructions: 65500418 cycles: 18350905 heartbeat IPC: 2.823 cumulative IPC: 2.891 (Simulation time: 00 hr 06 min 06 sec)
Heartbeat CPU 0 instructions: 66000422 cycles: 18534191 heartbeat IPC: 2.728 cumulative IPC: 2.885 (Simulation time: 00 hr 06 min 09 sec)
Heartbeat CPU 0 instructions: 66500429 cycles: 18709738 heartbeat IPC: 2.848 cumulative IPC: 2.884 (Simulation time: 00 hr 06 min 12 sec)
Heartbeat CPU 0 instructions: 67000430 cycles: 18886419 heartbeat IPC: 2.83 cumulative IPC: 2.883 (Simulation time: 00 hr 06 min 15 sec)
Heartbeat CPU 0 instructions: 67500431 cycles: 19062655 heartbeat IPC: 2.837 cumulative IPC: 2.881 (Simulation time: 00 hr 06 min 17 sec)
Heartbeat CPU 0 instructions: 68000434 cycles: 19237946 heartbeat IPC: 2.852 cumulative IPC: 2.881 (Simulation time: 00 hr 06 min 20 sec)
Heartbeat CPU 0 instructions: 68500435 cycles: 19417184 heartbeat IPC: 2.79 cumulative IPC: 2.878 (Simulation time: 00 hr 06 min 23 sec)
Heartbeat CPU 0 instructions: 69000438 cycles: 19592782 heartbeat IPC: 2.847 cumulative IPC: 2.877 (Simulation time: 00 hr 06 min 26 sec)
Heartbeat CPU 0 instructions: 69500439 cycles: 19775282 heartbeat IPC: 2.74 cumulative IPC: 2.873 (Simulation time: 00 hr 06 min 29 sec)
Heartbeat CPU 0 instructions: 70000442 cycles: 19954460 heartbeat IPC: 2.791 cumulative IPC: 2.871 (Simulation time: 00 hr 06 min 31 sec)
Heartbeat CPU 0 instructions: 70500447 cycles: 20130574 heartbeat IPC: 2.839 cumulative IPC: 2.871 (Simulation time: 00 hr 06 min 34 sec)
Heartbeat CPU 0 instructions: 71000452 cycles: 20308293 heartbeat IPC: 2.813 cumulative IPC: 2.869 (Simulation time: 00 hr 06 min 37 sec)
Heartbeat CPU 0 instructions: 71500457 cycles: 20483910 heartbeat IPC: 2.847 cumulative IPC: 2.869 (Simulation time: 00 hr 06 min 40 sec)
Heartbeat CPU 0 instructions: 72000460 cycles: 20661158 heartbeat IPC: 2.821 cumulative IPC: 2.868 (Simulation time: 00 hr 06 min 43 sec)
Heartbeat CPU 0 instructions: 72500461 cycles: 20837942 heartbeat IPC: 2.828 cumulative IPC: 2.867 (Simulation time: 00 hr 06 min 46 sec)
Heartbeat CPU 0 instructions: 73000462 cycles: 21018579 heartbeat IPC: 2.768 cumulative IPC: 2.864 (Simulation time: 00 hr 06 min 48 sec)
Heartbeat CPU 0 instructions: 73500466 cycles: 21198416 heartbeat IPC: 2.78 cumulative IPC: 2.863 (Simulation time: 00 hr 06 min 51 sec)
Heartbeat CPU 0 instructions: 74000467 cycles: 21374359 heartbeat IPC: 2.842 cumulative IPC: 2.862 (Simulation time: 00 hr 06 min 54 sec)
Heartbeat CPU 0 instructions: 74500470 cycles: 21549525 heartbeat IPC: 2.854 cumulative IPC: 2.862 (Simulation time: 00 hr 06 min 57 sec)
Heartbeat CPU 0 instructions: 75000475 cycles: 21727482 heartbeat IPC: 2.81 cumulative IPC: 2.861 (Simulation time: 00 hr 07 min 00 sec)
Heartbeat CPU 0 instructions: 75500480 cycles: 21903883 heartbeat IPC: 2.834 cumulative IPC: 2.86 (Simulation time: 00 hr 07 min 03 sec)
Heartbeat CPU 0 instructions: 76000486 cycles: 22081540 heartbeat IPC: 2.814 cumulative IPC: 2.86 (Simulation time: 00 hr 07 min 05 sec)
Heartbeat CPU 0 instructions: 76500490 cycles: 22256917 heartbeat IPC: 2.851 cumulative IPC: 2.859 (Simulation time: 00 hr 07 min 08 sec)
Heartbeat CPU 0 instructions: 77000497 cycles: 22439876 heartbeat IPC: 2.733 cumulative IPC: 2.857 (Simulation time: 00 hr 07 min 11 sec)
Heartbeat CPU 0 instructions: 77500500 cycles: 22617894 heartbeat IPC: 2.809 cumulative IPC: 2.856 (Simulation time: 00 hr 07 min 14 sec)
Heartbeat CPU 0 instructions: 78000505 cycles: 22793422 heartbeat IPC: 2.849 cumulative IPC: 2.856 (Simulation time: 00 hr 07 min 17 sec)
Heartbeat CPU 0 instructions: 78500507 cycles: 22970106 heartbeat IPC: 2.83 cumulative IPC: 2.855 (Simulation time: 00 hr 07 min 20 sec)
Heartbeat CPU 0 instructions: 79000511 cycles: 23146225 heartbeat IPC: 2.839 cumulative IPC: 2.855 (Simulation time: 00 hr 07 min 22 sec)
Heartbeat CPU 0 instructions: 79500518 cycles: 23322586 heartbeat IPC: 2.835 cumulative IPC: 2.855 (Simulation time: 00 hr 07 min 25 sec)
Heartbeat CPU 0 instructions: 80000522 cycles: 23500430 heartbeat IPC: 2.811 cumulative IPC: 2.854 (Simulation time: 00 hr 07 min 28 sec)
Heartbeat CPU 0 instructions: 80500523 cycles: 23682174 heartbeat IPC: 2.751 cumulative IPC: 2.852 (Simulation time: 00 hr 07 min 31 sec)
Heartbeat CPU 0 instructions: 81000526 cycles: 23857799 heartbeat IPC: 2.847 cumulative IPC: 2.852 (Simulation time: 00 hr 07 min 34 sec)
Heartbeat CPU 0 instructions: 81500527 cycles: 24035209 heartbeat IPC: 2.818 cumulative IPC: 2.852 (Simulation time: 00 hr 07 min 37 sec)
Heartbeat CPU 0 instructions: 82000530 cycles: 24211592 heartbeat IPC: 2.835 cumulative IPC: 2.851 (Simulation time: 00 hr 07 min 39 sec)
Heartbeat CPU 0 instructions: 82500531 cycles: 24386855 heartbeat IPC: 2.853 cumulative IPC: 2.851 (Simulation time: 00 hr 07 min 42 sec)
Heartbeat CPU 0 instructions: 83000534 cycles: 24564226 heartbeat IPC: 2.819 cumulative IPC: 2.851 (Simulation time: 00 hr 07 min 45 sec)
Heartbeat CPU 0 instructions: 83500537 cycles: 24738906 heartbeat IPC: 2.862 cumulative IPC: 2.851 (Simulation time: 00 hr 07 min 48 sec)
Heartbeat CPU 0 instructions: 84000539 cycles: 24918602 heartbeat IPC: 2.782 cumulative IPC: 2.85 (Simulation time: 00 hr 07 min 51 sec)
Heartbeat CPU 0 instructions: 84500545 cycles: 25095188 heartbeat IPC: 2.832 cumulative IPC: 2.85 (Simulation time: 00 hr 07 min 53 sec)
Heartbeat CPU 0 instructions: 85000550 cycles: 25270826 heartbeat IPC: 2.847 cumulative IPC: 2.85 (Simulation time: 00 hr 07 min 56 sec)
Heartbeat CPU 0 instructions: 85500553 cycles: 25445615 heartbeat IPC: 2.861 cumulative IPC: 2.85 (Simulation time: 00 hr 07 min 59 sec)
Heartbeat CPU 0 instructions: 86000557 cycles: 25619162 heartbeat IPC: 2.881 cumulative IPC: 2.85 (Simulation time: 00 hr 08 min 02 sec)
Heartbeat CPU 0 instructions: 86500561 cycles: 25792444 heartbeat IPC: 2.885 cumulative IPC: 2.851 (Simulation time: 00 hr 08 min 05 sec)
Heartbeat CPU 0 instructions: 87000564 cycles: 25964549 heartbeat IPC: 2.905 cumulative IPC: 2.852 (Simulation time: 00 hr 08 min 07 sec)
Heartbeat CPU 0 instructions: 87500568 cycles: 26134676 heartbeat IPC: 2.939 cumulative IPC: 2.853 (Simulation time: 00 hr 08 min 10 sec)
Heartbeat CPU 0 instructions: 88000571 cycles: 26310881 heartbeat IPC: 2.838 cumulative IPC: 2.852 (Simulation time: 00 hr 08 min 13 sec)
Heartbeat CPU 0 instructions: 88500574 cycles: 26480919 heartbeat IPC: 2.941 cumulative IPC: 2.854 (Simulation time: 00 hr 08 min 16 sec)
Heartbeat CPU 0 instructions: 89000577 cycles: 26650977 heartbeat IPC: 2.94 cumulative IPC: 2.855 (Simulation time: 00 hr 08 min 18 sec)
Heartbeat CPU 0 instructions: 89500580 cycles: 26817952 heartbeat IPC: 2.994 cumulative IPC: 2.856 (Simulation time: 00 hr 08 min 21 sec)
Heartbeat CPU 0 instructions: 90000583 cycles: 26986972 heartbeat IPC: 2.958 cumulative IPC: 2.858 (Simulation time: 00 hr 08 min 24 sec)
Heartbeat CPU 0 instructions: 90500584 cycles: 27153146 heartbeat IPC: 3.009 cumulative IPC: 2.859 (Simulation time: 00 hr 08 min 26 sec)
Heartbeat CPU 0 instructions: 91000584 cycles: 27318254 heartbeat IPC: 3.028 cumulative IPC: 2.861 (Simulation time: 00 hr 08 min 29 sec)
Heartbeat CPU 0 instructions: 91500584 cycles: 27497634 heartbeat IPC: 2.787 cumulative IPC: 2.86 (Simulation time: 00 hr 08 min 32 sec)
Heartbeat CPU 0 instructions: 92000585 cycles: 27661773 heartbeat IPC: 3.046 cumulative IPC: 2.862 (Simulation time: 00 hr 08 min 35 sec)
Heartbeat CPU 0 instructions: 92500586 cycles: 27825805 heartbeat IPC: 3.048 cumulative IPC: 2.865 (Simulation time: 00 hr 08 min 37 sec)
Heartbeat CPU 0 instructions: 93000591 cycles: 27991540 heartbeat IPC: 3.017 cumulative IPC: 2.866 (Simulation time: 00 hr 08 min 40 sec)
Heartbeat CPU 0 instructions: 93500598 cycles: 28157174 heartbeat IPC: 3.019 cumulative IPC: 2.868 (Simulation time: 00 hr 08 min 43 sec)
Heartbeat CPU 0 instructions: 94000602 cycles: 28334610 heartbeat IPC: 2.818 cumulative IPC: 2.867 (Simulation time: 00 hr 08 min 45 sec)
Heartbeat CPU 0 instructions: 94500602 cycles: 28514587 heartbeat IPC: 2.778 cumulative IPC: 2.866 (Simulation time: 00 hr 08 min 48 sec)
Heartbeat CPU 0 instructions: 95000604 cycles: 28695482 heartbeat IPC: 2.764 cumulative IPC: 2.865 (Simulation time: 00 hr 08 min 51 sec)
Heartbeat CPU 0 instructions: 95500607 cycles: 28872568 heartbeat IPC: 2.824 cumulative IPC: 2.865 (Simulation time: 00 hr 08 min 54 sec)
Heartbeat CPU 0 instructions: 96000608 cycles: 29048768 heartbeat IPC: 2.838 cumulative IPC: 2.864 (Simulation time: 00 hr 08 min 57 sec)
Heartbeat CPU 0 instructions: 96500611 cycles: 29224455 heartbeat IPC: 2.846 cumulative IPC: 2.864 (Simulation time: 00 hr 09 min 00 sec)
Heartbeat CPU 0 instructions: 97000613 cycles: 29399994 heartbeat IPC: 2.848 cumulative IPC: 2.864 (Simulation time: 00 hr 09 min 02 sec)
Heartbeat CPU 0 instructions: 97500617 cycles: 29577611 heartbeat IPC: 2.815 cumulative IPC: 2.863 (Simulation time: 00 hr 09 min 05 sec)
Heartbeat CPU 0 instructions: 98000620 cycles: 29753603 heartbeat IPC: 2.841 cumulative IPC: 2.863 (Simulation time: 00 hr 09 min 08 sec)
Heartbeat CPU 0 instructions: 98500623 cycles: 29929065 heartbeat IPC: 2.85 cumulative IPC: 2.863 (Simulation time: 00 hr 09 min 11 sec)
Heartbeat CPU 0 instructions: 99000630 cycles: 30113451 heartbeat IPC: 2.712 cumulative IPC: 2.861 (Simulation time: 00 hr 09 min 14 sec)
Heartbeat CPU 0 instructions: 99500634 cycles: 30289507 heartbeat IPC: 2.84 cumulative IPC: 2.861 (Simulation time: 00 hr 09 min 16 sec)
Heartbeat CPU 0 instructions: 100000637 cycles: 30464470 heartbeat IPC: 2.858 cumulative IPC: 2.861 (Simulation time: 00 hr 09 min 19 sec)
Heartbeat CPU 0 instructions: 100500641 cycles: 30642355 heartbeat IPC: 2.811 cumulative IPC: 2.861 (Simulation time: 00 hr 09 min 22 sec)
Heartbeat CPU 0 instructions: 101000642 cycles: 30817514 heartbeat IPC: 2.855 cumulative IPC: 2.861 (Simulation time: 00 hr 09 min 25 sec)
Heartbeat CPU 0 instructions: 101500643 cycles: 30992847 heartbeat IPC: 2.852 cumulative IPC: 2.861 (Simulation time: 00 hr 09 min 28 sec)
Heartbeat CPU 0 instructions: 102000648 cycles: 31170601 heartbeat IPC: 2.813 cumulative IPC: 2.86 (Simulation time: 00 hr 09 min 30 sec)
Heartbeat CPU 0 instructions: 102500654 cycles: 31353311 heartbeat IPC: 2.737 cumulative IPC: 2.859 (Simulation time: 00 hr 09 min 33 sec)
Heartbeat CPU 0 instructions: 103000657 cycles: 31530056 heartbeat IPC: 2.829 cumulative IPC: 2.859 (Simulation time: 00 hr 09 min 36 sec)
Heartbeat CPU 0 instructions: 103500660 cycles: 31706679 heartbeat IPC: 2.831 cumulative IPC: 2.858 (Simulation time: 00 hr 09 min 39 sec)
Heartbeat CPU 0 instructions: 104000661 cycles: 31882547 heartbeat IPC: 2.843 cumulative IPC: 2.858 (Simulation time: 00 hr 09 min 42 sec)
Heartbeat CPU 0 instructions: 104500664 cycles: 32060887 heartbeat IPC: 2.804 cumulative IPC: 2.858 (Simulation time: 00 hr 09 min 45 sec)
Heartbeat CPU 0 instructions: 105000667 cycles: 32237280 heartbeat IPC: 2.835 cumulative IPC: 2.857 (Simulation time: 00 hr 09 min 47 sec)
Heartbeat CPU 0 instructions: 105500670 cycles: 32413495 heartbeat IPC: 2.837 cumulative IPC: 2.857 (Simulation time: 00 hr 09 min 50 sec)
Heartbeat CPU 0 instructions: 106000672 cycles: 32595801 heartbeat IPC: 2.743 cumulative IPC: 2.856 (Simulation time: 00 hr 09 min 53 sec)
Heartbeat CPU 0 instructions: 106500676 cycles: 32772895 heartbeat IPC: 2.823 cumulative IPC: 2.856 (Simulation time: 00 hr 09 min 56 sec)
Heartbeat CPU 0 instructions: 107000683 cycles: 32951326 heartbeat IPC: 2.802 cumulative IPC: 2.855 (Simulation time: 00 hr 09 min 59 sec)
Heartbeat CPU 0 instructions: 107500687 cycles: 33127290 heartbeat IPC: 2.842 cumulative IPC: 2.855 (Simulation time: 00 hr 10 min 02 sec)
Heartbeat CPU 0 instructions: 108000691 cycles: 33303850 heartbeat IPC: 2.832 cumulative IPC: 2.855 (Simulation time: 00 hr 10 min 04 sec)
Heartbeat CPU 0 instructions: 108500692 cycles: 33481214 heartbeat IPC: 2.819 cumulative IPC: 2.855 (Simulation time: 00 hr 10 min 07 sec)
Heartbeat CPU 0 instructions: 109000696 cycles: 33656946 heartbeat IPC: 2.845 cumulative IPC: 2.855 (Simulation time: 00 hr 10 min 10 sec)
Heartbeat CPU 0 instructions: 109500700 cycles: 33834823 heartbeat IPC: 2.811 cumulative IPC: 2.854 (Simulation time: 00 hr 10 min 13 sec)
Heartbeat CPU 0 instructions: 110000704 cycles: 34016906 heartbeat IPC: 2.746 cumulative IPC: 2.853 (Simulation time: 00 hr 10 min 16 sec)
Heartbeat CPU 0 instructions: 110500709 cycles: 34192665 heartbeat IPC: 2.845 cumulative IPC: 2.853 (Simulation time: 00 hr 10 min 19 sec)
Heartbeat CPU 0 instructions: 111000710 cycles: 34370115 heartbeat IPC: 2.818 cumulative IPC: 2.853 (Simulation time: 00 hr 10 min 21 sec)
Heartbeat CPU 0 instructions: 111500713 cycles: 34545460 heartbeat IPC: 2.852 cumulative IPC: 2.853 (Simulation time: 00 hr 10 min 24 sec)
Heartbeat CPU 0 instructions: 112000716 cycles: 34721366 heartbeat IPC: 2.842 cumulative IPC: 2.853 (Simulation time: 00 hr 10 min 27 sec)
Heartbeat CPU 0 instructions: 112500717 cycles: 34898962 heartbeat IPC: 2.815 cumulative IPC: 2.853 (Simulation time: 00 hr 10 min 30 sec)
Heartbeat CPU 0 instructions: 113000720 cycles: 35074057 heartbeat IPC: 2.856 cumulative IPC: 2.853 (Simulation time: 00 hr 10 min 33 sec)
Heartbeat CPU 0 instructions: 113500722 cycles: 35255737 heartbeat IPC: 2.752 cumulative IPC: 2.852 (Simulation time: 00 hr 10 min 35 sec)
Heartbeat CPU 0 instructions: 114000725 cycles: 35433196 heartbeat IPC: 2.818 cumulative IPC: 2.852 (Simulation time: 00 hr 10 min 38 sec)
Heartbeat CPU 0 instructions: 114500725 cycles: 35607875 heartbeat IPC: 2.862 cumulative IPC: 2.852 (Simulation time: 00 hr 10 min 41 sec)
Heartbeat CPU 0 instructions: 115000728 cycles: 35782780 heartbeat IPC: 2.859 cumulative IPC: 2.852 (Simulation time: 00 hr 10 min 44 sec)
Heartbeat CPU 0 instructions: 115500735 cycles: 35958139 heartbeat IPC: 2.851 cumulative IPC: 2.852 (Simulation time: 00 hr 10 min 47 sec)
Heartbeat CPU 0 instructions: 116000735 cycles: 36132557 heartbeat IPC: 2.867 cumulative IPC: 2.852 (Simulation time: 00 hr 10 min 49 sec)
Heartbeat CPU 0 instructions: 116500739 cycles: 36306725 heartbeat IPC: 2.871 cumulative IPC: 2.852 (Simulation time: 00 hr 10 min 52 sec)
Heartbeat CPU 0 instructions: 117000739 cycles: 36486235 heartbeat IPC: 2.785 cumulative IPC: 2.851 (Simulation time: 00 hr 10 min 55 sec)
Heartbeat CPU 0 instructions: 117500740 cycles: 36659985 heartbeat IPC: 2.878 cumulative IPC: 2.852 (Simulation time: 00 hr 10 min 58 sec)
Heartbeat CPU 0 instructions: 118000741 cycles: 36832891 heartbeat IPC: 2.892 cumulative IPC: 2.852 (Simulation time: 00 hr 11 min 01 sec)
Heartbeat CPU 0 instructions: 118500746 cycles: 37002790 heartbeat IPC: 2.943 cumulative IPC: 2.853 (Simulation time: 00 hr 11 min 03 sec)
Heartbeat CPU 0 instructions: 119000747 cycles: 37173688 heartbeat IPC: 2.926 cumulative IPC: 2.853 (Simulation time: 00 hr 11 min 06 sec)
Heartbeat CPU 0 instructions: 119500750 cycles: 37344002 heartbeat IPC: 2.936 cumulative IPC: 2.854 (Simulation time: 00 hr 11 min 09 sec)
Heartbeat CPU 0 instructions: 120000753 cycles: 37514425 heartbeat IPC: 2.934 cumulative IPC: 2.854 (Simulation time: 00 hr 11 min 12 sec)
Heartbeat CPU 0 instructions: 120500760 cycles: 37683671 heartbeat IPC: 2.954 cumulative IPC: 2.855 (Simulation time: 00 hr 11 min 14 sec)
Heartbeat CPU 0 instructions: 121000763 cycles: 37854547 heartbeat IPC: 2.926 cumulative IPC: 2.855 (Simulation time: 00 hr 11 min 17 sec)
Heartbeat CPU 0 instructions: 121500768 cycles: 38020267 heartbeat IPC: 3.017 cumulative IPC: 2.856 (Simulation time: 00 hr 11 min 20 sec)
Heartbeat CPU 0 instructions: 122000773 cycles: 38187532 heartbeat IPC: 2.989 cumulative IPC: 2.857 (Simulation time: 00 hr 11 min 22 sec)
Heartbeat CPU 0 instructions: 122500774 cycles: 38363469 heartbeat IPC: 2.842 cumulative IPC: 2.857 (Simulation time: 00 hr 11 min 25 sec)
Heartbeat CPU 0 instructions: 123000774 cycles: 38527323 heartbeat IPC: 3.051 cumulative IPC: 2.858 (Simulation time: 00 hr 11 min 28 sec)
Heartbeat CPU 0 instructions: 123500778 cycles: 38691853 heartbeat IPC: 3.039 cumulative IPC: 2.86 (Simulation time: 00 hr 11 min 31 sec)
Heartbeat CPU 0 instructions: 124000779 cycles: 38856591 heartbeat IPC: 3.035 cumulative IPC: 2.861 (Simulation time: 00 hr 11 min 33 sec)
Heartbeat CPU 0 instructions: 124500783 cycles: 39026990 heartbeat IPC: 2.934 cumulative IPC: 2.861 (Simulation time: 00 hr 11 min 36 sec)
Heartbeat CPU 0 instructions: 125000786 cycles: 39205232 heartbeat IPC: 2.805 cumulative IPC: 2.861 (Simulation time: 00 hr 11 min 39 sec)
Heartbeat CPU 0 instructions: 125500793 cycles: 39380584 heartbeat IPC: 2.851 cumulative IPC: 2.861 (Simulation time: 00 hr 11 min 42 sec)
Heartbeat CPU 0 instructions: 126000794 cycles: 39558186 heartbeat IPC: 2.815 cumulative IPC: 2.86 (Simulation time: 00 hr 11 min 44 sec)
Heartbeat CPU 0 instructions: 126500796 cycles: 39733287 heartbeat IPC: 2.856 cumulative IPC: 2.86 (Simulation time: 00 hr 11 min 47 sec)
Heartbeat CPU 0 instructions: 127000800 cycles: 39907916 heartbeat IPC: 2.863 cumulative IPC: 2.86 (Simulation time: 00 hr 11 min 50 sec)
Heartbeat CPU 0 instructions: 127500805 cycles: 40084941 heartbeat IPC: 2.824 cumulative IPC: 2.86 (Simulation time: 00 hr 11 min 53 sec)
Heartbeat CPU 0 instructions: 128000808 cycles: 40266463 heartbeat IPC: 2.755 cumulative IPC: 2.86 (Simulation time: 00 hr 11 min 56 sec)
Heartbeat CPU 0 instructions: 128500809 cycles: 40442656 heartbeat IPC: 2.838 cumulative IPC: 2.859 (Simulation time: 00 hr 11 min 58 sec)
Heartbeat CPU 0 instructions: 129000816 cycles: 40620264 heartbeat IPC: 2.815 cumulative IPC: 2.859 (Simulation time: 00 hr 12 min 01 sec)
Heartbeat CPU 0 instructions: 129500821 cycles: 40795940 heartbeat IPC: 2.846 cumulative IPC: 2.859 (Simulation time: 00 hr 12 min 04 sec)
Heartbeat CPU 0 instructions: 130000824 cycles: 40972346 heartbeat IPC: 2.834 cumulative IPC: 2.859 (Simulation time: 00 hr 12 min 07 sec)
Heartbeat CPU 0 instructions: 130500829 cycles: 41149565 heartbeat IPC: 2.821 cumulative IPC: 2.859 (Simulation time: 00 hr 12 min 10 sec)
Heartbeat CPU 0 instructions: 131000832 cycles: 41324600 heartbeat IPC: 2.857 cumulative IPC: 2.859 (Simulation time: 00 hr 12 min 12 sec)
Heartbeat CPU 0 instructions: 131500833 cycles: 41502888 heartbeat IPC: 2.804 cumulative IPC: 2.858 (Simulation time: 00 hr 12 min 15 sec)
Heartbeat CPU 0 instructions: 132000837 cycles: 41684622 heartbeat IPC: 2.751 cumulative IPC: 2.858 (Simulation time: 00 hr 12 min 18 sec)
Heartbeat CPU 0 instructions: 132500844 cycles: 41860751 heartbeat IPC: 2.839 cumulative IPC: 2.857 (Simulation time: 00 hr 12 min 21 sec)
Heartbeat CPU 0 instructions: 133000851 cycles: 42038453 heartbeat IPC: 2.814 cumulative IPC: 2.857 (Simulation time: 00 hr 12 min 24 sec)
Heartbeat CPU 0 instructions: 133500856 cycles: 42214113 heartbeat IPC: 2.846 cumulative IPC: 2.857 (Simulation time: 00 hr 12 min 27 sec)
Heartbeat CPU 0 instructions: 134000863 cycles: 42389964 heartbeat IPC: 2.843 cumulative IPC: 2.857 (Simulation time: 00 hr 12 min 29 sec)
Heartbeat CPU 0 instructions: 134500866 cycles: 42567823 heartbeat IPC: 2.811 cumulative IPC: 2.857 (Simulation time: 00 hr 12 min 32 sec)
Heartbeat CPU 0 instructions: 135000869 cycles: 42743705 heartbeat IPC: 2.843 cumulative IPC: 2.857 (Simulation time: 00 hr 12 min 35 sec)
Heartbeat CPU 0 instructions: 135500872 cycles: 42927247 heartbeat IPC: 2.724 cumulative IPC: 2.856 (Simulation time: 00 hr 12 min 38 sec)
Heartbeat CPU 0 instructions: 136000877 cycles: 43103829 heartbeat IPC: 2.832 cumulative IPC: 2.856 (Simulation time: 00 hr 12 min 41 sec)
Heartbeat CPU 0 instructions: 136500878 cycles: 43279576 heartbeat IPC: 2.845 cumulative IPC: 2.856 (Simulation time: 00 hr 12 min 44 sec)
Heartbeat CPU 0 instructions: 137000879 cycles: 43457519 heartbeat IPC: 2.81 cumulative IPC: 2.855 (Simulation time: 00 hr 12 min 46 sec)
Heartbeat CPU 0 instructions: 137500881 cycles: 43632053 heartbeat IPC: 2.865 cumulative IPC: 2.855 (Simulation time: 00 hr 12 min 49 sec)
Heartbeat CPU 0 instructions: 138000881 cycles: 43807939 heartbeat IPC: 2.843 cumulative IPC: 2.855 (Simulation time: 00 hr 12 min 52 sec)
Heartbeat CPU 0 instructions: 138500882 cycles: 43986070 heartbeat IPC: 2.807 cumulative IPC: 2.855 (Simulation time: 00 hr 12 min 55 sec)
Heartbeat CPU 0 instructions: 139000885 cycles: 44167749 heartbeat IPC: 2.752 cumulative IPC: 2.855 (Simulation time: 00 hr 12 min 58 sec)
Heartbeat CPU 0 instructions: 139500887 cycles: 44344072 heartbeat IPC: 2.836 cumulative IPC: 2.854 (Simulation time: 00 hr 13 min 01 sec)
Heartbeat CPU 0 instructions: 140000892 cycles: 44522286 heartbeat IPC: 2.806 cumulative IPC: 2.854 (Simulation time: 00 hr 13 min 03 sec)
Heartbeat CPU 0 instructions: 140500895 cycles: 44697818 heartbeat IPC: 2.849 cumulative IPC: 2.854 (Simulation time: 00 hr 13 min 06 sec)
Heartbeat CPU 0 instructions: 141000900 cycles: 44875626 heartbeat IPC: 2.812 cumulative IPC: 2.854 (Simulation time: 00 hr 13 min 09 sec)
Heartbeat CPU 0 instructions: 141500901 cycles: 45052067 heartbeat IPC: 2.834 cumulative IPC: 2.854 (Simulation time: 00 hr 13 min 12 sec)
Heartbeat CPU 0 instructions: 142000904 cycles: 45228594 heartbeat IPC: 2.832 cumulative IPC: 2.854 (Simulation time: 00 hr 13 min 15 sec)
Heartbeat CPU 0 instructions: 142500909 cycles: 45405642 heartbeat IPC: 2.824 cumulative IPC: 2.853 (Simulation time: 00 hr 13 min 18 sec)
Heartbeat CPU 0 instructions: 143000914 cycles: 45586766 heartbeat IPC: 2.761 cumulative IPC: 2.853 (Simulation time: 00 hr 13 min 20 sec)
Heartbeat CPU 0 instructions: 143500917 cycles: 45763101 heartbeat IPC: 2.836 cumulative IPC: 2.853 (Simulation time: 00 hr 13 min 23 sec)
Heartbeat CPU 0 instructions: 144000922 cycles: 45940374 heartbeat IPC: 2.821 cumulative IPC: 2.853 (Simulation time: 00 hr 13 min 26 sec)
Heartbeat CPU 0 instructions: 144500925 cycles: 46116270 heartbeat IPC: 2.843 cumulative IPC: 2.853 (Simulation time: 00 hr 13 min 29 sec)
Heartbeat CPU 0 instructions: 145000930 cycles: 46293952 heartbeat IPC: 2.814 cumulative IPC: 2.852 (Simulation time: 00 hr 13 min 32 sec)
Heartbeat CPU 0 instructions: 145500935 cycles: 46469318 heartbeat IPC: 2.851 cumulative IPC: 2.852 (Simulation time: 00 hr 13 min 35 sec)
Heartbeat CPU 0 instructions: 146000938 cycles: 46643766 heartbeat IPC: 2.866 cumulative IPC: 2.853 (Simulation time: 00 hr 13 min 37 sec)
Heartbeat CPU 0 instructions: 146500938 cycles: 46824949 heartbeat IPC: 2.76 cumulative IPC: 2.852 (Simulation time: 00 hr 13 min 40 sec)
Heartbeat CPU 0 instructions: 147000941 cycles: 46999657 heartbeat IPC: 2.862 cumulative IPC: 2.852 (Simulation time: 00 hr 13 min 43 sec)
Heartbeat CPU 0 instructions: 147500942 cycles: 47176148 heartbeat IPC: 2.833 cumulative IPC: 2.852 (Simulation time: 00 hr 13 min 46 sec)
Heartbeat CPU 0 instructions: 148000947 cycles: 47350977 heartbeat IPC: 2.86 cumulative IPC: 2.852 (Simulation time: 00 hr 13 min 49 sec)
Heartbeat CPU 0 instructions: 148500954 cycles: 47525054 heartbeat IPC: 2.872 cumulative IPC: 2.852 (Simulation time: 00 hr 13 min 51 sec)
Heartbeat CPU 0 instructions: 149000959 cycles: 47698857 heartbeat IPC: 2.877 cumulative IPC: 2.852 (Simulation time: 00 hr 13 min 54 sec)
Heartbeat CPU 0 instructions: 149500962 cycles: 47869746 heartbeat IPC: 2.926 cumulative IPC: 2.853 (Simulation time: 00 hr 13 min 57 sec)
Heartbeat CPU 0 instructions: 150000962 cycles: 48044260 heartbeat IPC: 2.865 cumulative IPC: 2.853 (Simulation time: 00 hr 14 min 00 sec)
Heartbeat CPU 0 instructions: 150500962 cycles: 48215501 heartbeat IPC: 2.92 cumulative IPC: 2.853 (Simulation time: 00 hr 14 min 02 sec)
Heartbeat CPU 0 instructions: 151000967 cycles: 48385941 heartbeat IPC: 2.934 cumulative IPC: 2.853 (Simulation time: 00 hr 14 min 05 sec)
Heartbeat CPU 0 instructions: 151500969 cycles: 48553476 heartbeat IPC: 2.984 cumulative IPC: 2.854 (Simulation time: 00 hr 14 min 08 sec)
Heartbeat CPU 0 instructions: 152000969 cycles: 48720613 heartbeat IPC: 2.992 cumulative IPC: 2.855 (Simulation time: 00 hr 14 min 11 sec)
Heartbeat CPU 0 instructions: 152500976 cycles: 48888335 heartbeat IPC: 2.981 cumulative IPC: 2.855 (Simulation time: 00 hr 14 min 13 sec)
Heartbeat CPU 0 instructions: 153000976 cycles: 49053564 heartbeat IPC: 3.026 cumulative IPC: 2.856 (Simulation time: 00 hr 14 min 16 sec)
Heartbeat CPU 0 instructions: 153500977 cycles: 49231585 heartbeat IPC: 2.809 cumulative IPC: 2.856 (Simulation time: 00 hr 14 min 19 sec)
Heartbeat CPU 0 instructions: 154000978 cycles: 49400779 heartbeat IPC: 2.955 cumulative IPC: 2.856 (Simulation time: 00 hr 14 min 22 sec)
Heartbeat CPU 0 instructions: 154500981 cycles: 49565028 heartbeat IPC: 3.044 cumulative IPC: 2.857 (Simulation time: 00 hr 14 min 24 sec)
Heartbeat CPU 0 instructions: 155000982 cycles: 49730327 heartbeat IPC: 3.025 cumulative IPC: 2.858 (Simulation time: 00 hr 14 min 27 sec)
Heartbeat CPU 0 instructions: 155500987 cycles: 49895346 heartbeat IPC: 3.03 cumulative IPC: 2.859 (Simulation time: 00 hr 14 min 30 sec)
Heartbeat CPU 0 instructions: 156000990 cycles: 50067374 heartbeat IPC: 2.907 cumulative IPC: 2.859 (Simulation time: 00 hr 14 min 32 sec)
Heartbeat CPU 0 instructions: 156500990 cycles: 50249061 heartbeat IPC: 2.752 cumulative IPC: 2.858 (Simulation time: 00 hr 14 min 35 sec)
Heartbeat CPU 0 instructions: 157000994 cycles: 50424090 heartbeat IPC: 2.857 cumulative IPC: 2.858 (Simulation time: 00 hr 14 min 38 sec)
Heartbeat CPU 0 instructions: 157500997 cycles: 50607789 heartbeat IPC: 2.722 cumulative IPC: 2.858 (Simulation time: 00 hr 14 min 41 sec)
Heartbeat CPU 0 instructions: 158001002 cycles: 50784029 heartbeat IPC: 2.837 cumulative IPC: 2.858 (Simulation time: 00 hr 14 min 44 sec)
Heartbeat CPU 0 instructions: 158501008 cycles: 50958965 heartbeat IPC: 2.858 cumulative IPC: 2.858 (Simulation time: 00 hr 14 min 46 sec)
Heartbeat CPU 0 instructions: 159001012 cycles: 51135313 heartbeat IPC: 2.835 cumulative IPC: 2.857 (Simulation time: 00 hr 14 min 49 sec)
Heartbeat CPU 0 instructions: 159501017 cycles: 51311733 heartbeat IPC: 2.834 cumulative IPC: 2.857 (Simulation time: 00 hr 14 min 52 sec)
Heartbeat CPU 0 instructions: 160001022 cycles: 51486769 heartbeat IPC: 2.857 cumulative IPC: 2.857 (Simulation time: 00 hr 14 min 55 sec)
Heartbeat CPU 0 instructions: 160501026 cycles: 51663321 heartbeat IPC: 2.832 cumulative IPC: 2.857 (Simulation time: 00 hr 14 min 58 sec)
Heartbeat CPU 0 instructions: 161001027 cycles: 51846648 heartbeat IPC: 2.727 cumulative IPC: 2.857 (Simulation time: 00 hr 15 min 01 sec)
Heartbeat CPU 0 instructions: 161501028 cycles: 52023530 heartbeat IPC: 2.827 cumulative IPC: 2.856 (Simulation time: 00 hr 15 min 03 sec)
Heartbeat CPU 0 instructions: 162001031 cycles: 52201288 heartbeat IPC: 2.813 cumulative IPC: 2.856 (Simulation time: 00 hr 15 min 06 sec)
Heartbeat CPU 0 instructions: 162501036 cycles: 52377231 heartbeat IPC: 2.842 cumulative IPC: 2.856 (Simulation time: 00 hr 15 min 09 sec)
Heartbeat CPU 0 instructions: 163001037 cycles: 52553800 heartbeat IPC: 2.832 cumulative IPC: 2.856 (Simulation time: 00 hr 15 min 12 sec)
Heartbeat CPU 0 instructions: 163501040 cycles: 52730671 heartbeat IPC: 2.827 cumulative IPC: 2.856 (Simulation time: 00 hr 15 min 15 sec)
Heartbeat CPU 0 instructions: 164001041 cycles: 52906712 heartbeat IPC: 2.84 cumulative IPC: 2.856 (Simulation time: 00 hr 15 min 17 sec)
Heartbeat CPU 0 instructions: 164501043 cycles: 53085688 heartbeat IPC: 2.794 cumulative IPC: 2.856 (Simulation time: 00 hr 15 min 20 sec)
Heartbeat CPU 0 instructions: 165001046 cycles: 53266878 heartbeat IPC: 2.76 cumulative IPC: 2.855 (Simulation time: 00 hr 15 min 23 sec)
Heartbeat CPU 0 instructions: 165501046 cycles: 53442724 heartbeat IPC: 2.843 cumulative IPC: 2.855 (Simulation time: 00 hr 15 min 26 sec)
Heartbeat CPU 0 instructions: 166001047 cycles: 53621338 heartbeat IPC: 2.799 cumulative IPC: 2.855 (Simulation time: 00 hr 15 min 29 sec)
Heartbeat CPU 0 instructions: 166501050 cycles: 53797216 heartbeat IPC: 2.843 cumulative IPC: 2.855 (Simulation time: 00 hr 15 min 32 sec)
Heartbeat CPU 0 instructions: 167001057 cycles: 53974515 heartbeat IPC: 2.82 cumulative IPC: 2.855 (Simulation time: 00 hr 15 min 34 sec)
Heartbeat CPU 0 instructions: 167501057 cycles: 54150284 heartbeat IPC: 2.845 cumulative IPC: 2.855 (Simulation time: 00 hr 15 min 37 sec)
Heartbeat CPU 0 instructions: 168001063 cycles: 54326294 heartbeat IPC: 2.841 cumulative IPC: 2.855 (Simulation time: 00 hr 15 min 40 sec)
Heartbeat CPU 0 instructions: 168501065 cycles: 54511388 heartbeat IPC: 2.701 cumulative IPC: 2.854 (Simulation time: 00 hr 15 min 43 sec)
Heartbeat CPU 0 instructions: 169001066 cycles: 54687642 heartbeat IPC: 2.837 cumulative IPC: 2.854 (Simulation time: 00 hr 15 min 46 sec)
Heartbeat CPU 0 instructions: 169501067 cycles: 54863901 heartbeat IPC: 2.837 cumulative IPC: 2.854 (Simulation time: 00 hr 15 min 49 sec)
Heartbeat CPU 0 instructions: 170001070 cycles: 55040821 heartbeat IPC: 2.826 cumulative IPC: 2.854 (Simulation time: 00 hr 15 min 51 sec)
Heartbeat CPU 0 instructions: 170501073 cycles: 55216016 heartbeat IPC: 2.854 cumulative IPC: 2.854 (Simulation time: 00 hr 15 min 54 sec)
Heartbeat CPU 0 instructions: 171001074 cycles: 55393676 heartbeat IPC: 2.814 cumulative IPC: 2.853 (Simulation time: 00 hr 15 min 57 sec)
Heartbeat CPU 0 instructions: 171501076 cycles: 55568680 heartbeat IPC: 2.857 cumulative IPC: 2.853 (Simulation time: 00 hr 16 min 00 sec)
Heartbeat CPU 0 instructions: 172001079 cycles: 55751269 heartbeat IPC: 2.738 cumulative IPC: 2.853 (Simulation time: 00 hr 16 min 03 sec)
Heartbeat CPU 0 instructions: 172501080 cycles: 55928915 heartbeat IPC: 2.815 cumulative IPC: 2.853 (Simulation time: 00 hr 16 min 06 sec)
Heartbeat CPU 0 instructions: 173001084 cycles: 56104951 heartbeat IPC: 2.84 cumulative IPC: 2.853 (Simulation time: 00 hr 16 min 08 sec)
Heartbeat CPU 0 instructions: 173501089 cycles: 56279804 heartbeat IPC: 2.86 cumulative IPC: 2.853 (Simulation time: 00 hr 16 min 11 sec)
Heartbeat CPU 0 instructions: 174001090 cycles: 56457148 heartbeat IPC: 2.819 cumulative IPC: 2.853 (Simulation time: 00 hr 16 min 14 sec)
Heartbeat CPU 0 instructions: 174501093 cycles: 56633010 heartbeat IPC: 2.843 cumulative IPC: 2.853 (Simulation time: 00 hr 16 min 17 sec)
Heartbeat CPU 0 instructions: 175001093 cycles: 56809889 heartbeat IPC: 2.827 cumulative IPC: 2.853 (Simulation time: 00 hr 16 min 20 sec)
Heartbeat CPU 0 instructions: 175501094 cycles: 56987629 heartbeat IPC: 2.813 cumulative IPC: 2.852 (Simulation time: 00 hr 16 min 22 sec)
Heartbeat CPU 0 instructions: 176001095 cycles: 57168075 heartbeat IPC: 2.771 cumulative IPC: 2.852 (Simulation time: 00 hr 16 min 25 sec)
Heartbeat CPU 0 instructions: 176501098 cycles: 57344560 heartbeat IPC: 2.833 cumulative IPC: 2.852 (Simulation time: 00 hr 16 min 28 sec)
Heartbeat CPU 0 instructions: 177001101 cycles: 57521529 heartbeat IPC: 2.825 cumulative IPC: 2.852 (Simulation time: 00 hr 16 min 31 sec)
Heartbeat CPU 0 instructions: 177501106 cycles: 57695926 heartbeat IPC: 2.867 cumulative IPC: 2.852 (Simulation time: 00 hr 16 min 34 sec)
Heartbeat CPU 0 instructions: 178001107 cycles: 57869458 heartbeat IPC: 2.881 cumulative IPC: 2.852 (Simulation time: 00 hr 16 min 37 sec)
Heartbeat CPU 0 instructions: 178501108 cycles: 58044804 heartbeat IPC: 2.852 cumulative IPC: 2.852 (Simulation time: 00 hr 16 min 39 sec)
Heartbeat CPU 0 instructions: 179001111 cycles: 58220602 heartbeat IPC: 2.844 cumulative IPC: 2.852 (Simulation time: 00 hr 16 min 42 sec)
Heartbeat CPU 0 instructions: 179501116 cycles: 58401383 heartbeat IPC: 2.766 cumulative IPC: 2.852 (Simulation time: 00 hr 16 min 45 sec)
Heartbeat CPU 0 instructions: 180001119 cycles: 58574867 heartbeat IPC: 2.882 cumulative IPC: 2.852 (Simulation time: 00 hr 16 min 48 sec)
Heartbeat CPU 0 instructions: 180501124 cycles: 58746550 heartbeat IPC: 2.912 cumulative IPC: 2.852 (Simulation time: 00 hr 16 min 51 sec)
Heartbeat CPU 0 instructions: 181001129 cycles: 58917584 heartbeat IPC: 2.923 cumulative IPC: 2.852 (Simulation time: 00 hr 16 min 53 sec)
Heartbeat CPU 0 instructions: 181501132 cycles: 59088495 heartbeat IPC: 2.926 cumulative IPC: 2.853 (Simulation time: 00 hr 16 min 56 sec)
Heartbeat CPU 0 instructions: 182001137 cycles: 59259154 heartbeat IPC: 2.93 cumulative IPC: 2.853 (Simulation time: 00 hr 16 min 59 sec)
Heartbeat CPU 0 instructions: 182501138 cycles: 59429133 heartbeat IPC: 2.942 cumulative IPC: 2.853 (Simulation time: 00 hr 17 min 02 sec)
Heartbeat CPU 0 instructions: 183001144 cycles: 59600575 heartbeat IPC: 2.916 cumulative IPC: 2.853 (Simulation time: 00 hr 17 min 04 sec)
Heartbeat CPU 0 instructions: 183501145 cycles: 59769078 heartbeat IPC: 2.967 cumulative IPC: 2.854 (Simulation time: 00 hr 17 min 07 sec)
Heartbeat CPU 0 instructions: 184001148 cycles: 59934304 heartbeat IPC: 3.026 cumulative IPC: 2.854 (Simulation time: 00 hr 17 min 10 sec)
Heartbeat CPU 0 instructions: 184501151 cycles: 60098809 heartbeat IPC: 3.039 cumulative IPC: 2.855 (Simulation time: 00 hr 17 min 12 sec)
Heartbeat CPU 0 instructions: 185001156 cycles: 60274597 heartbeat IPC: 2.844 cumulative IPC: 2.855 (Simulation time: 00 hr 17 min 15 sec)
Heartbeat CPU 0 instructions: 185501157 cycles: 60438871 heartbeat IPC: 3.044 cumulative IPC: 2.856 (Simulation time: 00 hr 17 min 18 sec)
Heartbeat CPU 0 instructions: 186001160 cycles: 60605627 heartbeat IPC: 2.998 cumulative IPC: 2.856 (Simulation time: 00 hr 17 min 20 sec)
Heartbeat CPU 0 instructions: 186501163 cycles: 60770905 heartbeat IPC: 3.025 cumulative IPC: 2.857 (Simulation time: 00 hr 17 min 23 sec)
Heartbeat CPU 0 instructions: 187001164 cycles: 60941838 heartbeat IPC: 2.925 cumulative IPC: 2.857 (Simulation time: 00 hr 17 min 26 sec)
Heartbeat CPU 0 instructions: 187501169 cycles: 61120205 heartbeat IPC: 2.803 cumulative IPC: 2.857 (Simulation time: 00 hr 17 min 29 sec)
Heartbeat CPU 0 instructions: 188001169 cycles: 61297561 heartbeat IPC: 2.819 cumulative IPC: 2.857 (Simulation time: 00 hr 17 min 32 sec)
Heartbeat CPU 0 instructions: 188501171 cycles: 61473745 heartbeat IPC: 2.838 cumulative IPC: 2.857 (Simulation time: 00 hr 17 min 34 sec)
Heartbeat CPU 0 instructions: 189001172 cycles: 61649800 heartbeat IPC: 2.84 cumulative IPC: 2.857 (Simulation time: 00 hr 17 min 37 sec)
Heartbeat CPU 0 instructions: 189501176 cycles: 61826904 heartbeat IPC: 2.823 cumulative IPC: 2.856 (Simulation time: 00 hr 17 min 40 sec)
Heartbeat CPU 0 instructions: 190001180 cycles: 62002370 heartbeat IPC: 2.85 cumulative IPC: 2.856 (Simulation time: 00 hr 17 min 43 sec)
Heartbeat CPU 0 instructions: 190501182 cycles: 62184492 heartbeat IPC: 2.745 cumulative IPC: 2.856 (Simulation time: 00 hr 17 min 46 sec)
Heartbeat CPU 0 instructions: 191001189 cycles: 62360941 heartbeat IPC: 2.834 cumulative IPC: 2.856 (Simulation time: 00 hr 17 min 48 sec)
Heartbeat CPU 0 instructions: 191501190 cycles: 62537919 heartbeat IPC: 2.825 cumulative IPC: 2.856 (Simulation time: 00 hr 17 min 51 sec)
Heartbeat CPU 0 instructions: 192001193 cycles: 62713310 heartbeat IPC: 2.851 cumulative IPC: 2.856 (Simulation time: 00 hr 17 min 54 sec)
Heartbeat CPU 0 instructions: 192501196 cycles: 62890968 heartbeat IPC: 2.814 cumulative IPC: 2.856 (Simulation time: 00 hr 17 min 57 sec)
Heartbeat CPU 0 instructions: 193001201 cycles: 63066774 heartbeat IPC: 2.844 cumulative IPC: 2.856 (Simulation time: 00 hr 18 min 00 sec)
Heartbeat CPU 0 instructions: 193501202 cycles: 63243460 heartbeat IPC: 2.83 cumulative IPC: 2.855 (Simulation time: 00 hr 18 min 03 sec)
Heartbeat CPU 0 instructions: 194001202 cycles: 63426902 heartbeat IPC: 2.726 cumulative IPC: 2.855 (Simulation time: 00 hr 18 min 05 sec)
Heartbeat CPU 0 instructions: 194501206 cycles: 63603165 heartbeat IPC: 2.837 cumulative IPC: 2.855 (Simulation time: 00 hr 18 min 08 sec)
Heartbeat CPU 0 instructions: 195001208 cycles: 63779524 heartbeat IPC: 2.835 cumulative IPC: 2.855 (Simulation time: 00 hr 18 min 11 sec)
Heartbeat CPU 0 instructions: 195501212 cycles: 63956527 heartbeat IPC: 2.825 cumulative IPC: 2.855 (Simulation time: 00 hr 18 min 14 sec)
Heartbeat CPU 0 instructions: 196001217 cycles: 64132342 heartbeat IPC: 2.844 cumulative IPC: 2.855 (Simulation time: 00 hr 18 min 17 sec)
Heartbeat CPU 0 instructions: 196501218 cycles: 64310084 heartbeat IPC: 2.813 cumulative IPC: 2.855 (Simulation time: 00 hr 18 min 20 sec)
Heartbeat CPU 0 instructions: 197001221 cycles: 64485656 heartbeat IPC: 2.848 cumulative IPC: 2.855 (Simulation time: 00 hr 18 min 22 sec)
Heartbeat CPU 0 instructions: 197501224 cycles: 64664110 heartbeat IPC: 2.802 cumulative IPC: 2.854 (Simulation time: 00 hr 18 min 25 sec)
Heartbeat CPU 0 instructions: 198001227 cycles: 64845035 heartbeat IPC: 2.764 cumulative IPC: 2.854 (Simulation time: 00 hr 18 min 28 sec)
Heartbeat CPU 0 instructions: 198501231 cycles: 65020766 heartbeat IPC: 2.845 cumulative IPC: 2.854 (Simulation time: 00 hr 18 min 31 sec)
Heartbeat CPU 0 instructions: 199001232 cycles: 65197308 heartbeat IPC: 2.832 cumulative IPC: 2.854 (Simulation time: 00 hr 18 min 34 sec)
Heartbeat CPU 0 instructions: 199501237 cycles: 65373684 heartbeat IPC: 2.835 cumulative IPC: 2.854 (Simulation time: 00 hr 18 min 37 sec)
Heartbeat CPU 0 instructions: 200001238 cycles: 65550090 heartbeat IPC: 2.834 cumulative IPC: 2.854 (Simulation time: 00 hr 18 min 39 sec)
Heartbeat CPU 0 instructions: 200501241 cycles: 65727167 heartbeat IPC: 2.824 cumulative IPC: 2.854 (Simulation time: 00 hr 18 min 42 sec)
Heartbeat CPU 0 instructions: 201001246 cycles: 65902657 heartbeat IPC: 2.849 cumulative IPC: 2.854 (Simulation time: 00 hr 18 min 45 sec)
Heartbeat CPU 0 instructions: 201501246 cycles: 66084849 heartbeat IPC: 2.744 cumulative IPC: 2.853 (Simulation time: 00 hr 18 min 48 sec)
Heartbeat CPU 0 instructions: 202001250 cycles: 66261316 heartbeat IPC: 2.833 cumulative IPC: 2.853 (Simulation time: 00 hr 18 min 51 sec)
Heartbeat CPU 0 instructions: 202501257 cycles: 66437515 heartbeat IPC: 2.838 cumulative IPC: 2.853 (Simulation time: 00 hr 18 min 54 sec)
Heartbeat CPU 0 instructions: 203001262 cycles: 66613281 heartbeat IPC: 2.845 cumulative IPC: 2.853 (Simulation time: 00 hr 18 min 56 sec)
Heartbeat CPU 0 instructions: 203501267 cycles: 66791257 heartbeat IPC: 2.809 cumulative IPC: 2.853 (Simulation time: 00 hr 18 min 59 sec)
Heartbeat CPU 0 instructions: 204001272 cycles: 66967288 heartbeat IPC: 2.84 cumulative IPC: 2.853 (Simulation time: 00 hr 19 min 02 sec)
Heartbeat CPU 0 instructions: 204501279 cycles: 67144126 heartbeat IPC: 2.827 cumulative IPC: 2.853 (Simulation time: 00 hr 19 min 05 sec)
Heartbeat CPU 0 instructions: 205001281 cycles: 67328144 heartbeat IPC: 2.717 cumulative IPC: 2.852 (Simulation time: 00 hr 19 min 08 sec)
Heartbeat CPU 0 instructions: 205501286 cycles: 67503623 heartbeat IPC: 2.849 cumulative IPC: 2.852 (Simulation time: 00 hr 19 min 11 sec)
Heartbeat CPU 0 instructions: 206001289 cycles: 67681507 heartbeat IPC: 2.811 cumulative IPC: 2.852 (Simulation time: 00 hr 19 min 13 sec)
Heartbeat CPU 0 instructions: 206501292 cycles: 67856578 heartbeat IPC: 2.856 cumulative IPC: 2.852 (Simulation time: 00 hr 19 min 16 sec)
Heartbeat CPU 0 instructions: 207001295 cycles: 68031698 heartbeat IPC: 2.855 cumulative IPC: 2.852 (Simulation time: 00 hr 19 min 19 sec)
Heartbeat CPU 0 instructions: 207501301 cycles: 68208771 heartbeat IPC: 2.824 cumulative IPC: 2.852 (Simulation time: 00 hr 19 min 22 sec)
Heartbeat CPU 0 instructions: 208001301 cycles: 68384022 heartbeat IPC: 2.853 cumulative IPC: 2.852 (Simulation time: 00 hr 19 min 25 sec)
Heartbeat CPU 0 instructions: 208501308 cycles: 68559970 heartbeat IPC: 2.842 cumulative IPC: 2.852 (Simulation time: 00 hr 19 min 28 sec)
Heartbeat CPU 0 instructions: 209001313 cycles: 68739477 heartbeat IPC: 2.785 cumulative IPC: 2.852 (Simulation time: 00 hr 19 min 30 sec)
Heartbeat CPU 0 instructions: 209501319 cycles: 68914242 heartbeat IPC: 2.861 cumulative IPC: 2.852 (Simulation time: 00 hr 19 min 33 sec)
Heartbeat CPU 0 instructions: 210001321 cycles: 69090130 heartbeat IPC: 2.843 cumulative IPC: 2.852 (Simulation time: 00 hr 19 min 36 sec)
Heartbeat CPU 0 instructions: 210501327 cycles: 69263687 heartbeat IPC: 2.881 cumulative IPC: 2.852 (Simulation time: 00 hr 19 min 39 sec)
Heartbeat CPU 0 instructions: 211001327 cycles: 69436443 heartbeat IPC: 2.894 cumulative IPC: 2.852 (Simulation time: 00 hr 19 min 42 sec)
Heartbeat CPU 0 instructions: 211501328 cycles: 69609553 heartbeat IPC: 2.888 cumulative IPC: 2.852 (Simulation time: 00 hr 19 min 44 sec)
Heartbeat CPU 0 instructions: 212001329 cycles: 69779394 heartbeat IPC: 2.944 cumulative IPC: 2.853 (Simulation time: 00 hr 19 min 47 sec)
Heartbeat CPU 0 instructions: 212501329 cycles: 69956280 heartbeat IPC: 2.827 cumulative IPC: 2.853 (Simulation time: 00 hr 19 min 50 sec)
Heartbeat CPU 0 instructions: 213001330 cycles: 70124959 heartbeat IPC: 2.964 cumulative IPC: 2.853 (Simulation time: 00 hr 19 min 53 sec)
Heartbeat CPU 0 instructions: 213501336 cycles: 70295858 heartbeat IPC: 2.926 cumulative IPC: 2.853 (Simulation time: 00 hr 19 min 55 sec)
Heartbeat CPU 0 instructions: 214001342 cycles: 70464892 heartbeat IPC: 2.958 cumulative IPC: 2.853 (Simulation time: 00 hr 19 min 58 sec)
Heartbeat CPU 0 instructions: 214501345 cycles: 70631629 heartbeat IPC: 2.999 cumulative IPC: 2.854 (Simulation time: 00 hr 20 min 01 sec)
Heartbeat CPU 0 instructions: 215001347 cycles: 70797585 heartbeat IPC: 3.013 cumulative IPC: 2.854 (Simulation time: 00 hr 20 min 03 sec)
Heartbeat CPU 0 instructions: 215501354 cycles: 70964419 heartbeat IPC: 2.997 cumulative IPC: 2.855 (Simulation time: 00 hr 20 min 06 sec)
Heartbeat CPU 0 instructions: 216001358 cycles: 71144866 heartbeat IPC: 2.771 cumulative IPC: 2.854 (Simulation time: 00 hr 20 min 09 sec)
Heartbeat CPU 0 instructions: 216501362 cycles: 71310118 heartbeat IPC: 3.026 cumulative IPC: 2.855 (Simulation time: 00 hr 20 min 12 sec)
Heartbeat CPU 0 instructions: 217001366 cycles: 71475376 heartbeat IPC: 3.026 cumulative IPC: 2.855 (Simulation time: 00 hr 20 min 14 sec)
Heartbeat CPU 0 instructions: 217501371 cycles: 71639223 heartbeat IPC: 3.052 cumulative IPC: 2.856 (Simulation time: 00 hr 20 min 17 sec)
Heartbeat CPU 0 instructions: 218001372 cycles: 71805975 heartbeat IPC: 2.998 cumulative IPC: 2.856 (Simulation time: 00 hr 20 min 20 sec)
Heartbeat CPU 0 instructions: 218501375 cycles: 71985671 heartbeat IPC: 2.782 cumulative IPC: 2.856 (Simulation time: 00 hr 20 min 23 sec)
Heartbeat CPU 0 instructions: 219001376 cycles: 72163182 heartbeat IPC: 2.817 cumulative IPC: 2.856 (Simulation time: 00 hr 20 min 25 sec)
Heartbeat CPU 0 instructions: 219501381 cycles: 72340280 heartbeat IPC: 2.823 cumulative IPC: 2.856 (Simulation time: 00 hr 20 min 28 sec)
Heartbeat CPU 0 instructions: 220001387 cycles: 72521042 heartbeat IPC: 2.766 cumulative IPC: 2.856 (Simulation time: 00 hr 20 min 31 sec)
Heartbeat CPU 0 instructions: 220501388 cycles: 72698109 heartbeat IPC: 2.824 cumulative IPC: 2.856 (Simulation time: 00 hr 20 min 34 sec)
Heartbeat CPU 0 instructions: 221001394 cycles: 72874016 heartbeat IPC: 2.842 cumulative IPC: 2.855 (Simulation time: 00 hr 20 min 37 sec)
Heartbeat CPU 0 instructions: 221501394 cycles: 73049912 heartbeat IPC: 2.843 cumulative IPC: 2.855 (Simulation time: 00 hr 20 min 40 sec)
Heartbeat CPU 0 instructions: 222001395 cycles: 73226563 heartbeat IPC: 2.83 cumulative IPC: 2.855 (Simulation time: 00 hr 20 min 42 sec)
Heartbeat CPU 0 instructions: 222501398 cycles: 73401830 heartbeat IPC: 2.853 cumulative IPC: 2.855 (Simulation time: 00 hr 20 min 45 sec)
Heartbeat CPU 0 instructions: 223001398 cycles: 73578195 heartbeat IPC: 2.835 cumulative IPC: 2.855 (Simulation time: 00 hr 20 min 48 sec)
Heartbeat CPU 0 instructions: 223501404 cycles: 73761696 heartbeat IPC: 2.725 cumulative IPC: 2.855 (Simulation time: 00 hr 20 min 51 sec)
Heartbeat CPU 0 instructions: 224001407 cycles: 73938196 heartbeat IPC: 2.833 cumulative IPC: 2.855 (Simulation time: 00 hr 20 min 54 sec)
Heartbeat CPU 0 instructions: 224501410 cycles: 74116635 heartbeat IPC: 2.802 cumulative IPC: 2.855 (Simulation time: 00 hr 20 min 56 sec)
Heartbeat CPU 0 instructions: 225001416 cycles: 74292084 heartbeat IPC: 2.85 cumulative IPC: 2.855 (Simulation time: 00 hr 20 min 59 sec)
Heartbeat CPU 0 instructions: 225501416 cycles: 74468683 heartbeat IPC: 2.831 cumulative IPC: 2.855 (Simulation time: 00 hr 21 min 02 sec)
Heartbeat CPU 0 instructions: 226001417 cycles: 74645572 heartbeat IPC: 2.827 cumulative IPC: 2.855 (Simulation time: 00 hr 21 min 05 sec)
Heartbeat CPU 0 instructions: 226501419 cycles: 74821738 heartbeat IPC: 2.838 cumulative IPC: 2.854 (Simulation time: 00 hr 21 min 08 sec)
Heartbeat CPU 0 instructions: 227001424 cycles: 75005003 heartbeat IPC: 2.728 cumulative IPC: 2.854 (Simulation time: 00 hr 21 min 11 sec)
Heartbeat CPU 0 instructions: 227501429 cycles: 75182180 heartbeat IPC: 2.822 cumulative IPC: 2.854 (Simulation time: 00 hr 21 min 13 sec)
Heartbeat CPU 0 instructions: 228001432 cycles: 75357959 heartbeat IPC: 2.844 cumulative IPC: 2.854 (Simulation time: 00 hr 21 min 16 sec)
Heartbeat CPU 0 instructions: 228501435 cycles: 75535995 heartbeat IPC: 2.808 cumulative IPC: 2.854 (Simulation time: 00 hr 21 min 19 sec)
Heartbeat CPU 0 instructions: 229001439 cycles: 75711817 heartbeat IPC: 2.844 cumulative IPC: 2.854 (Simulation time: 00 hr 21 min 22 sec)
Heartbeat CPU 0 instructions: 229501445 cycles: 75889470 heartbeat IPC: 2.815 cumulative IPC: 2.854 (Simulation time: 00 hr 21 min 25 sec)
Heartbeat CPU 0 instructions: 230001448 cycles: 76065386 heartbeat IPC: 2.842 cumulative IPC: 2.854 (Simulation time: 00 hr 21 min 28 sec)
Heartbeat CPU 0 instructions: 230501450 cycles: 76244592 heartbeat IPC: 2.79 cumulative IPC: 2.854 (Simulation time: 00 hr 21 min 30 sec)
Heartbeat CPU 0 instructions: 231001456 cycles: 76425899 heartbeat IPC: 2.758 cumulative IPC: 2.853 (Simulation time: 00 hr 21 min 33 sec)
Heartbeat CPU 0 instructions: 231501457 cycles: 76601919 heartbeat IPC: 2.841 cumulative IPC: 2.853 (Simulation time: 00 hr 21 min 36 sec)
Heartbeat CPU 0 instructions: 232001460 cycles: 76778787 heartbeat IPC: 2.827 cumulative IPC: 2.853 (Simulation time: 00 hr 21 min 39 sec)
Heartbeat CPU 0 instructions: 232501460 cycles: 76956124 heartbeat IPC: 2.819 cumulative IPC: 2.853 (Simulation time: 00 hr 21 min 42 sec)
Heartbeat CPU 0 instructions: 233001466 cycles: 77131976 heartbeat IPC: 2.843 cumulative IPC: 2.853 (Simulation time: 00 hr 21 min 45 sec)
Heartbeat CPU 0 instructions: 233501467 cycles: 77309770 heartbeat IPC: 2.812 cumulative IPC: 2.853 (Simulation time: 00 hr 21 min 48 sec)
Heartbeat CPU 0 instructions: 234001467 cycles: 77485746 heartbeat IPC: 2.841 cumulative IPC: 2.853 (Simulation time: 00 hr 21 min 50 sec)
Heartbeat CPU 0 instructions: 234501468 cycles: 77669857 heartbeat IPC: 2.716 cumulative IPC: 2.852 (Simulation time: 00 hr 21 min 53 sec)
Heartbeat CPU 0 instructions: 235001469 cycles: 77846945 heartbeat IPC: 2.823 cumulative IPC: 2.852 (Simulation time: 00 hr 21 min 56 sec)
Heartbeat CPU 0 instructions: 235501474 cycles: 78022844 heartbeat IPC: 2.843 cumulative IPC: 2.852 (Simulation time: 00 hr 21 min 59 sec)
Heartbeat CPU 0 instructions: 236001477 cycles: 78200095 heartbeat IPC: 2.821 cumulative IPC: 2.852 (Simulation time: 00 hr 22 min 02 sec)
Heartbeat CPU 0 instructions: 236501478 cycles: 78375097 heartbeat IPC: 2.857 cumulative IPC: 2.852 (Simulation time: 00 hr 22 min 05 sec)
Heartbeat CPU 0 instructions: 237001484 cycles: 78550814 heartbeat IPC: 2.846 cumulative IPC: 2.852 (Simulation time: 00 hr 22 min 07 sec)
Heartbeat CPU 0 instructions: 237501484 cycles: 78729221 heartbeat IPC: 2.803 cumulative IPC: 2.852 (Simulation time: 00 hr 22 min 10 sec)
Heartbeat CPU 0 instructions: 238001487 cycles: 78911800 heartbeat IPC: 2.739 cumulative IPC: 2.852 (Simulation time: 00 hr 22 min 13 sec)
Heartbeat CPU 0 instructions: 238501488 cycles: 79088485 heartbeat IPC: 2.83 cumulative IPC: 2.852 (Simulation time: 00 hr 22 min 16 sec)
Heartbeat CPU 0 instructions: 239001493 cycles: 79265027 heartbeat IPC: 2.832 cumulative IPC: 2.852 (Simulation time: 00 hr 22 min 19 sec)
Heartbeat CPU 0 instructions: 239501493 cycles: 79439735 heartbeat IPC: 2.862 cumulative IPC: 2.852 (Simulation time: 00 hr 22 min 22 sec)
Heartbeat CPU 0 instructions: 240001493 cycles: 79613977 heartbeat IPC: 2.87 cumulative IPC: 2.852 (Simulation time: 00 hr 22 min 24 sec)
Heartbeat CPU 0 instructions: 240501497 cycles: 79790126 heartbeat IPC: 2.839 cumulative IPC: 2.852 (Simulation time: 00 hr 22 min 27 sec)
Heartbeat CPU 0 instructions: 241001497 cycles: 79964802 heartbeat IPC: 2.862 cumulative IPC: 2.852 (Simulation time: 00 hr 22 min 30 sec)
Heartbeat CPU 0 instructions: 241501498 cycles: 80142621 heartbeat IPC: 2.812 cumulative IPC: 2.852 (Simulation time: 00 hr 22 min 33 sec)
Heartbeat CPU 0 instructions: 242001502 cycles: 80318872 heartbeat IPC: 2.837 cumulative IPC: 2.852 (Simulation time: 00 hr 22 min 36 sec)
Heartbeat CPU 0 instructions: 242501509 cycles: 80492155 heartbeat IPC: 2.885 cumulative IPC: 2.852 (Simulation time: 00 hr 22 min 38 sec)
Heartbeat CPU 0 instructions: 243001511 cycles: 80662179 heartbeat IPC: 2.941 cumulative IPC: 2.852 (Simulation time: 00 hr 22 min 41 sec)
Heartbeat CPU 0 instructions: 243501517 cycles: 80832708 heartbeat IPC: 2.932 cumulative IPC: 2.852 (Simulation time: 00 hr 22 min 44 sec)
Heartbeat CPU 0 instructions: 244001520 cycles: 81003074 heartbeat IPC: 2.935 cumulative IPC: 2.852 (Simulation time: 00 hr 22 min 47 sec)
Heartbeat CPU 0 instructions: 244501523 cycles: 81174246 heartbeat IPC: 2.921 cumulative IPC: 2.853 (Simulation time: 00 hr 22 min 49 sec)
Heartbeat CPU 0 instructions: 245001529 cycles: 81342523 heartbeat IPC: 2.971 cumulative IPC: 2.853 (Simulation time: 00 hr 22 min 52 sec)
Heartbeat CPU 0 instructions: 245501529 cycles: 81514929 heartbeat IPC: 2.9 cumulative IPC: 2.853 (Simulation time: 00 hr 22 min 55 sec)
Heartbeat CPU 0 instructions: 246001530 cycles: 81682713 heartbeat IPC: 2.98 cumulative IPC: 2.853 (Simulation time: 00 hr 22 min 58 sec)
Heartbeat CPU 0 instructions: 246501533 cycles: 81848700 heartbeat IPC: 3.012 cumulative IPC: 2.854 (Simulation time: 00 hr 23 min 00 sec)
Heartbeat CPU 0 instructions: 247001536 cycles: 82026168 heartbeat IPC: 2.817 cumulative IPC: 2.854 (Simulation time: 00 hr 23 min 03 sec)
Heartbeat CPU 0 instructions: 247501539 cycles: 82192559 heartbeat IPC: 3.005 cumulative IPC: 2.854 (Simulation time: 00 hr 23 min 06 sec)
Heartbeat CPU 0 instructions: 248001546 cycles: 82357905 heartbeat IPC: 3.024 cumulative IPC: 2.854 (Simulation time: 00 hr 23 min 08 sec)
Heartbeat CPU 0 instructions: 248501546 cycles: 82524073 heartbeat IPC: 3.009 cumulative IPC: 2.855 (Simulation time: 00 hr 23 min 11 sec)
Heartbeat CPU 0 instructions: 249001549 cycles: 82694565 heartbeat IPC: 2.933 cumulative IPC: 2.855 (Simulation time: 00 hr 23 min 14 sec)
Heartbeat CPU 0 instructions: 249501554 cycles: 82867537 heartbeat IPC: 2.891 cumulative IPC: 2.855 (Simulation time: 00 hr 23 min 17 sec)
Simulation finished CPU 0 instructions: 200000001 cycles: 70054959 cumulative IPC: 2.855 (Simulation time: 00 hr 23 min 19 sec)
Simulation complete CPU 0 instructions: 200000001 cycles: 70054959 cumulative IPC: 2.855 (Simulation time: 00 hr 23 min 19 sec)

ChampSim completed all CPUs

=== Simulation ===
CPU 0 runs /local-ssd/ben/dpc4-traces/ai-ml/whisper_trace_3.champsimtrace.gz

Region of Interest Statistics

CPU 0 cumulative IPC: 2.855 instructions: 200000001 cycles: 70054959
CPU 0 Branch Prediction Accuracy: 96.01% MPKI: 2.804 Average ROB Occupancy at Mispredict: 231.9
Branch type MPKI
BRANCH_DIRECT_JUMP: 0
BRANCH_INDIRECT: 0
BRANCH_CONDITIONAL: 2.804
BRANCH_DIRECT_CALL: 0
BRANCH_INDIRECT_CALL: 0
BRANCH_RETURN: 0

cpu0->cpu0_STLB TOTAL        ACCESS:      26775 HIT:       5523 MISS:      21252 MSHR_MERGE:          0
cpu0->cpu0_STLB LOAD         ACCESS:      26775 HIT:       5523 MISS:      21252 MSHR_MERGE:          0
cpu0->cpu0_STLB RFO          ACCESS:          0 HIT:          0 MISS:          0 MSHR_MERGE:          0
cpu0->cpu0_STLB PREFETCH     ACCESS:          0 HIT:          0 MISS:          0 MSHR_MERGE:          0
cpu0->cpu0_STLB WRITE        ACCESS:          0 HIT:          0 MISS:          0 MSHR_MERGE:          0
cpu0->cpu0_STLB TRANSLATION  ACCESS:          0 HIT:          0 MISS:          0 MSHR_MERGE:          0
cpu0->cpu0_STLB PREFETCH REQUESTED:          0 ISSUED:          0 USEFUL:          0 USELESS:          0
cpu0->cpu0_STLB AVERAGE MISS LATENCY: 49.22 cycles
cpu0->cpu0_L2C TOTAL        ACCESS:    4136119 HIT:    2779966 MISS:    1356153 MSHR_MERGE:          0
cpu0->cpu0_L2C LOAD         ACCESS:    2953253 HIT:    1942472 MISS:    1010781 MSHR_MERGE:          0
cpu0->cpu0_L2C RFO          ACCESS:      33197 HIT:        324 MISS:      32873 MSHR_MERGE:          0
cpu0->cpu0_L2C PREFETCH     ACCESS:    1104094 HIT:     794591 MISS:     309503 MSHR_MERGE:          0
cpu0->cpu0_L2C WRITE        ACCESS:      41020 HIT:      41004 MISS:         16 MSHR_MERGE:          0
cpu0->cpu0_L2C TRANSLATION  ACCESS:       4555 HIT:       1575 MISS:       2980 MSHR_MERGE:          0
cpu0->cpu0_L2C PREFETCH REQUESTED:          0 ISSUED:          0 USEFUL:          0 USELESS:          0
cpu0->cpu0_L2C AVERAGE MISS LATENCY: 178.4 cycles
cpu0->cpu0_L1I TOTAL        ACCESS:   21303826 HIT:   21303826 MISS:          0 MSHR_MERGE:          0
cpu0->cpu0_L1I LOAD         ACCESS:   21303826 HIT:   21303826 MISS:          0 MSHR_MERGE:          0
cpu0->cpu0_L1I RFO          ACCESS:          0 HIT:          0 MISS:          0 MSHR_MERGE:          0
cpu0->cpu0_L1I PREFETCH     ACCESS:          0 HIT:          0 MISS:          0 MSHR_MERGE:          0
cpu0->cpu0_L1I WRITE        ACCESS:          0 HIT:          0 MISS:          0 MSHR_MERGE:          0
cpu0->cpu0_L1I TRANSLATION  ACCESS:          0 HIT:          0 MISS:          0 MSHR_MERGE:          0
cpu0->cpu0_L1I PREFETCH REQUESTED:          0 ISSUED:          0 USEFUL:          0 USELESS:          0
cpu0->cpu0_L1I AVERAGE MISS LATENCY: - cycles
cpu0->cpu0_L1D TOTAL        ACCESS:   64758224 HIT:   59768134 MISS:    4990090 MSHR_MERGE:     894953
cpu0->cpu0_L1D LOAD         ACCESS:   52228231 HIT:   48768414 MISS:    3459817 MSHR_MERGE:     506543
cpu0->cpu0_L1D RFO          ACCESS:          0 HIT:          0 MISS:          0 MSHR_MERGE:          0
cpu0->cpu0_L1D PREFETCH     ACCESS:   10015823 HIT:    8556197 MISS:    1459626 MSHR_MERGE:     355530
cpu0->cpu0_L1D WRITE        ACCESS:    2471665 HIT:    2405573 MISS:      66092 MSHR_MERGE:      32880
cpu0->cpu0_L1D TRANSLATION  ACCESS:      42505 HIT:      37950 MISS:       4555 MSHR_MERGE:          0
cpu0->cpu0_L1D PREFETCH REQUESTED:   15225561 ISSUED:   10015820 USEFUL:    1040899 USELESS:      63193
cpu0->cpu0_L1D AVERAGE MISS LATENCY: 71.4 cycles
cpu0->cpu0_ITLB TOTAL        ACCESS:   15458586 HIT:   15458586 MISS:          0 MSHR_MERGE:          0
cpu0->cpu0_ITLB LOAD         ACCESS:   15458586 HIT:   15458586 MISS:          0 MSHR_MERGE:          0
cpu0->cpu0_ITLB RFO          ACCESS:          0 HIT:          0 MISS:          0 MSHR_MERGE:          0
cpu0->cpu0_ITLB PREFETCH     ACCESS:          0 HIT:          0 MISS:          0 MSHR_MERGE:          0
cpu0->cpu0_ITLB WRITE        ACCESS:          0 HIT:          0 MISS:          0 MSHR_MERGE:          0
cpu0->cpu0_ITLB TRANSLATION  ACCESS:          0 HIT:          0 MISS:          0 MSHR_MERGE:          0
cpu0->cpu0_ITLB PREFETCH REQUESTED:          0 ISSUED:          0 USEFUL:          0 USELESS:          0
cpu0->cpu0_ITLB AVERAGE MISS LATENCY: - cycles
cpu0->cpu0_DTLB TOTAL        ACCESS:   55101217 HIT:   54928313 MISS:     172904 MSHR_MERGE:     146129
cpu0->cpu0_DTLB LOAD         ACCESS:   55101217 HIT:   54928313 MISS:     172904 MSHR_MERGE:     146129
cpu0->cpu0_DTLB RFO          ACCESS:          0 HIT:          0 MISS:          0 MSHR_MERGE:          0
cpu0->cpu0_DTLB PREFETCH     ACCESS:          0 HIT:          0 MISS:          0 MSHR_MERGE:          0
cpu0->cpu0_DTLB WRITE        ACCESS:          0 HIT:          0 MISS:          0 MSHR_MERGE:          0
cpu0->cpu0_DTLB TRANSLATION  ACCESS:          0 HIT:          0 MISS:          0 MSHR_MERGE:          0
cpu0->cpu0_DTLB PREFETCH REQUESTED:          0 ISSUED:          0 USEFUL:          0 USELESS:          0
cpu0->cpu0_DTLB AVERAGE MISS LATENCY: 44.86 cycles
cpu0->LLC TOTAL        ACCESS:    1389042 HIT:     239841 MISS:    1149201 MSHR_MERGE:          0
cpu0->LLC LOAD         ACCESS:    1010781 HIT:     115876 MISS:     894905 MSHR_MERGE:          0
cpu0->LLC RFO          ACCESS:      32873 HIT:          0 MISS:      32873 MSHR_MERGE:          0
cpu0->LLC PREFETCH     ACCESS:     309503 HIT:     117850 MISS:     191653 MSHR_MERGE:          0
cpu0->LLC WRITE        ACCESS:      32905 HIT:       5430 MISS:      27475 MSHR_MERGE:          0
cpu0->LLC TRANSLATION  ACCESS:       2980 HIT:        685 MISS:       2295 MSHR_MERGE:          0
cpu0->LLC PREFETCH REQUESTED:          0 ISSUED:          0 USEFUL:          0 USELESS:          0
cpu0->LLC AVERAGE MISS LATENCY: 170.5 cycles

DRAM Statistics

Channel 0 RQ ROW_BUFFER_HIT:     432131
  ROW_BUFFER_MISS:     689595
  AVG DBUS CONGESTED CYCLE: 6.797
Channel 0 WQ ROW_BUFFER_HIT:      14040
  ROW_BUFFER_MISS:      16605
  FULL:          0
Channel 0 REFRESHES ISSUED:       5837
