[VMEM] WARNING: physical memory size is smaller than virtual memory size.

*** ChampSim Multicore Out-of-Order Simulator ***
Warmup Instructions: 50000000
Simulation Instructions: 200000000
Number of CPUs: 1
Page size: 4096
Core 0: /local-ssd/ben/dpc4-traces/ai-ml/biogpt.cpp-ggml-model-tocilizumab.3.champsimtrace.gz
 L1D Berti prefetcher
Off-chip DRAM Size: 64 GiB Channels: 1 Width: 64-bit Data Rate: 4807 MT/s
Heartbeat CPU 0 instructions: 500006 cycles: 381811 heartbeat IPC: 1.31 cumulative IPC: 1.31 (Simulation time: 00 hr 00 min 07 sec)
Heartbeat CPU 0 instructions: 1000008 cycles: 789457 heartbeat IPC: 1.227 cumulative IPC: 1.267 (Simulation time: 00 hr 00 min 14 sec)
Heartbeat CPU 0 instructions: 1500012 cycles: 1196085 heartbeat IPC: 1.23 cumulative IPC: 1.254 (Simulation time: 00 hr 00 min 21 sec)
Heartbeat CPU 0 instructions: 2000016 cycles: 1574601 heartbeat IPC: 1.321 cumulative IPC: 1.27 (Simulation time: 00 hr 00 min 28 sec)
Heartbeat CPU 0 instructions: 2500016 cycles: 1932696 heartbeat IPC: 1.396 cumulative IPC: 1.294 (Simulation time: 00 hr 00 min 34 sec)
Heartbeat CPU 0 instructions: 3000018 cycles: 2176298 heartbeat IPC: 2.053 cumulative IPC: 1.378 (Simulation time: 00 hr 00 min 38 sec)
Heartbeat CPU 0 instructions: 3500021 cycles: 2505861 heartbeat IPC: 1.517 cumulative IPC: 1.397 (Simulation time: 00 hr 00 min 44 sec)
Heartbeat CPU 0 instructions: 4000023 cycles: 2783316 heartbeat IPC: 1.802 cumulative IPC: 1.437 (Simulation time: 00 hr 00 min 49 sec)
Heartbeat CPU 0 instructions: 4500023 cycles: 3131236 heartbeat IPC: 1.437 cumulative IPC: 1.437 (Simulation time: 00 hr 00 min 55 sec)
Heartbeat CPU 0 instructions: 5000028 cycles: 3489603 heartbeat IPC: 1.395 cumulative IPC: 1.433 (Simulation time: 00 hr 01 min 02 sec)
Heartbeat CPU 0 instructions: 5500032 cycles: 3848085 heartbeat IPC: 1.395 cumulative IPC: 1.429 (Simulation time: 00 hr 01 min 08 sec)
Heartbeat CPU 0 instructions: 6000036 cycles: 4192882 heartbeat IPC: 1.45 cumulative IPC: 1.431 (Simulation time: 00 hr 01 min 14 sec)
Heartbeat CPU 0 instructions: 6500040 cycles: 4602637 heartbeat IPC: 1.22 cumulative IPC: 1.412 (Simulation time: 00 hr 01 min 21 sec)
Heartbeat CPU 0 instructions: 7000044 cycles: 5012602 heartbeat IPC: 1.22 cumulative IPC: 1.396 (Simulation time: 00 hr 01 min 28 sec)
Heartbeat CPU 0 instructions: 7500045 cycles: 5421582 heartbeat IPC: 1.223 cumulative IPC: 1.383 (Simulation time: 00 hr 01 min 35 sec)
Heartbeat CPU 0 instructions: 8000048 cycles: 5775823 heartbeat IPC: 1.411 cumulative IPC: 1.385 (Simulation time: 00 hr 01 min 42 sec)
Heartbeat CPU 0 instructions: 8500050 cycles: 6122924 heartbeat IPC: 1.441 cumulative IPC: 1.388 (Simulation time: 00 hr 01 min 48 sec)
Heartbeat CPU 0 instructions: 9000052 cycles: 6370989 heartbeat IPC: 2.016 cumulative IPC: 1.413 (Simulation time: 00 hr 01 min 52 sec)
Heartbeat CPU 0 instructions: 9500053 cycles: 6618977 heartbeat IPC: 2.016 cumulative IPC: 1.435 (Simulation time: 00 hr 01 min 57 sec)
Heartbeat CPU 0 instructions: 10000055 cycles: 6967455 heartbeat IPC: 1.435 cumulative IPC: 1.435 (Simulation time: 00 hr 02 min 03 sec)
Heartbeat CPU 0 instructions: 10500058 cycles: 7326007 heartbeat IPC: 1.395 cumulative IPC: 1.433 (Simulation time: 00 hr 02 min 09 sec)
Heartbeat CPU 0 instructions: 11000058 cycles: 7684111 heartbeat IPC: 1.396 cumulative IPC: 1.432 (Simulation time: 00 hr 02 min 15 sec)
Heartbeat CPU 0 instructions: 11500062 cycles: 8042418 heartbeat IPC: 1.395 cumulative IPC: 1.43 (Simulation time: 00 hr 02 min 22 sec)
Heartbeat CPU 0 instructions: 12000066 cycles: 8409905 heartbeat IPC: 1.361 cumulative IPC: 1.427 (Simulation time: 00 hr 02 min 28 sec)
Heartbeat CPU 0 instructions: 12500073 cycles: 8819660 heartbeat IPC: 1.22 cumulative IPC: 1.417 (Simulation time: 00 hr 02 min 35 sec)
Heartbeat CPU 0 instructions: 13000073 cycles: 9228208 heartbeat IPC: 1.224 cumulative IPC: 1.409 (Simulation time: 00 hr 02 min 43 sec)
Heartbeat CPU 0 instructions: 13500077 cycles: 9612283 heartbeat IPC: 1.302 cumulative IPC: 1.404 (Simulation time: 00 hr 02 min 49 sec)
Heartbeat CPU 0 instructions: 14000078 cycles: 9969570 heartbeat IPC: 1.399 cumulative IPC: 1.404 (Simulation time: 00 hr 02 min 56 sec)
Heartbeat CPU 0 instructions: 14500079 cycles: 10227786 heartbeat IPC: 1.936 cumulative IPC: 1.418 (Simulation time: 00 hr 03 min 00 sec)
Heartbeat CPU 0 instructions: 15000083 cycles: 10561712 heartbeat IPC: 1.497 cumulative IPC: 1.42 (Simulation time: 00 hr 03 min 06 sec)
Heartbeat CPU 0 instructions: 15500084 cycles: 10809689 heartbeat IPC: 2.016 cumulative IPC: 1.434 (Simulation time: 00 hr 03 min 11 sec)
Heartbeat CPU 0 instructions: 16000084 cycles: 11157808 heartbeat IPC: 1.436 cumulative IPC: 1.434 (Simulation time: 00 hr 03 min 17 sec)
Heartbeat CPU 0 instructions: 16500088 cycles: 11516351 heartbeat IPC: 1.395 cumulative IPC: 1.433 (Simulation time: 00 hr 03 min 23 sec)
Heartbeat CPU 0 instructions: 17000089 cycles: 11874894 heartbeat IPC: 1.395 cumulative IPC: 1.432 (Simulation time: 00 hr 03 min 30 sec)
Heartbeat CPU 0 instructions: 17500092 cycles: 12213462 heartbeat IPC: 1.477 cumulative IPC: 1.433 (Simulation time: 00 hr 03 min 36 sec)
Heartbeat CPU 0 instructions: 18000097 cycles: 12623133 heartbeat IPC: 1.221 cumulative IPC: 1.426 (Simulation time: 00 hr 03 min 43 sec)
Heartbeat CPU 0 instructions: 18500103 cycles: 13033508 heartbeat IPC: 1.218 cumulative IPC: 1.419 (Simulation time: 00 hr 03 min 50 sec)
Heartbeat CPU 0 instructions: 19000103 cycles: 13441628 heartbeat IPC: 1.225 cumulative IPC: 1.414 (Simulation time: 00 hr 03 min 57 sec)
Heartbeat CPU 0 instructions: 19500109 cycles: 13801905 heartbeat IPC: 1.388 cumulative IPC: 1.413 (Simulation time: 00 hr 04 min 04 sec)
Heartbeat CPU 0 instructions: 20000113 cycles: 14159203 heartbeat IPC: 1.399 cumulative IPC: 1.413 (Simulation time: 00 hr 04 min 10 sec)
Heartbeat CPU 0 instructions: 20500113 cycles: 14396153 heartbeat IPC: 2.11 cumulative IPC: 1.424 (Simulation time: 00 hr 04 min 14 sec)
Heartbeat CPU 0 instructions: 21000115 cycles: 14646088 heartbeat IPC: 2.001 cumulative IPC: 1.434 (Simulation time: 00 hr 04 min 19 sec)
Heartbeat CPU 0 instructions: 21500122 cycles: 14991894 heartbeat IPC: 1.446 cumulative IPC: 1.434 (Simulation time: 00 hr 04 min 25 sec)
Heartbeat CPU 0 instructions: 22000126 cycles: 15350360 heartbeat IPC: 1.395 cumulative IPC: 1.433 (Simulation time: 00 hr 04 min 31 sec)
Heartbeat CPU 0 instructions: 22500131 cycles: 15708548 heartbeat IPC: 1.396 cumulative IPC: 1.432 (Simulation time: 00 hr 04 min 37 sec)
Heartbeat CPU 0 instructions: 23000131 cycles: 16066865 heartbeat IPC: 1.395 cumulative IPC: 1.432 (Simulation time: 00 hr 04 min 44 sec)
Heartbeat CPU 0 instructions: 23500135 cycles: 16427653 heartbeat IPC: 1.386 cumulative IPC: 1.431 (Simulation time: 00 hr 04 min 50 sec)
Heartbeat CPU 0 instructions: 24000135 cycles: 16838370 heartbeat IPC: 1.217 cumulative IPC: 1.425 (Simulation time: 00 hr 04 min 57 sec)
Heartbeat CPU 0 instructions: 24500136 cycles: 17247685 heartbeat IPC: 1.222 cumulative IPC: 1.42 (Simulation time: 00 hr 05 min 05 sec)
Heartbeat CPU 0 instructions: 25000137 cycles: 17636781 heartbeat IPC: 1.285 cumulative IPC: 1.417 (Simulation time: 00 hr 05 min 11 sec)
Heartbeat CPU 0 instructions: 25500139 cycles: 17993976 heartbeat IPC: 1.4 cumulative IPC: 1.417 (Simulation time: 00 hr 05 min 18 sec)
Heartbeat CPU 0 instructions: 26000139 cycles: 18281908 heartbeat IPC: 1.737 cumulative IPC: 1.422 (Simulation time: 00 hr 05 min 23 sec)
Heartbeat CPU 0 instructions: 26500145 cycles: 18590082 heartbeat IPC: 1.622 cumulative IPC: 1.425 (Simulation time: 00 hr 05 min 28 sec)
Heartbeat CPU 0 instructions: 27000152 cycles: 18838011 heartbeat IPC: 2.017 cumulative IPC: 1.433 (Simulation time: 00 hr 05 min 33 sec)
Heartbeat CPU 0 instructions: 27500156 cycles: 19185889 heartbeat IPC: 1.437 cumulative IPC: 1.433 (Simulation time: 00 hr 05 min 39 sec)
Heartbeat CPU 0 instructions: 28000157 cycles: 19544060 heartbeat IPC: 1.396 cumulative IPC: 1.433 (Simulation time: 00 hr 05 min 45 sec)
Heartbeat CPU 0 instructions: 28500161 cycles: 19902755 heartbeat IPC: 1.394 cumulative IPC: 1.432 (Simulation time: 00 hr 05 min 52 sec)
Heartbeat CPU 0 instructions: 29000161 cycles: 20260556 heartbeat IPC: 1.397 cumulative IPC: 1.431 (Simulation time: 00 hr 05 min 58 sec)
Heartbeat CPU 0 instructions: 29500161 cycles: 20643453 heartbeat IPC: 1.306 cumulative IPC: 1.429 (Simulation time: 00 hr 06 min 05 sec)
Heartbeat CPU 0 instructions: 30000162 cycles: 21054738 heartbeat IPC: 1.216 cumulative IPC: 1.425 (Simulation time: 00 hr 06 min 12 sec)
Heartbeat CPU 0 instructions: 30500166 cycles: 21464165 heartbeat IPC: 1.221 cumulative IPC: 1.421 (Simulation time: 00 hr 06 min 19 sec)
Heartbeat CPU 0 instructions: 31000169 cycles: 21829903 heartbeat IPC: 1.367 cumulative IPC: 1.42 (Simulation time: 00 hr 06 min 26 sec)
Heartbeat CPU 0 instructions: 31500173 cycles: 22187277 heartbeat IPC: 1.399 cumulative IPC: 1.42 (Simulation time: 00 hr 06 min 32 sec)
Heartbeat CPU 0 instructions: 32000173 cycles: 22423577 heartbeat IPC: 2.116 cumulative IPC: 1.427 (Simulation time: 00 hr 06 min 36 sec)
Heartbeat CPU 0 instructions: 32500177 cycles: 22707526 heartbeat IPC: 1.761 cumulative IPC: 1.431 (Simulation time: 00 hr 06 min 41 sec)
Heartbeat CPU 0 instructions: 33000179 cycles: 23029165 heartbeat IPC: 1.555 cumulative IPC: 1.433 (Simulation time: 00 hr 06 min 47 sec)
Heartbeat CPU 0 instructions: 33500179 cycles: 23377361 heartbeat IPC: 1.436 cumulative IPC: 1.433 (Simulation time: 00 hr 06 min 53 sec)
Heartbeat CPU 0 instructions: 34000183 cycles: 23735468 heartbeat IPC: 1.396 cumulative IPC: 1.432 (Simulation time: 00 hr 07 min 00 sec)
Heartbeat CPU 0 instructions: 34500183 cycles: 24093939 heartbeat IPC: 1.395 cumulative IPC: 1.432 (Simulation time: 00 hr 07 min 06 sec)
Heartbeat CPU 0 instructions: 35000190 cycles: 24448384 heartbeat IPC: 1.411 cumulative IPC: 1.432 (Simulation time: 00 hr 07 min 12 sec)
Heartbeat CPU 0 instructions: 35500194 cycles: 24858533 heartbeat IPC: 1.219 cumulative IPC: 1.428 (Simulation time: 00 hr 07 min 19 sec)
Heartbeat CPU 0 instructions: 36000194 cycles: 25266834 heartbeat IPC: 1.225 cumulative IPC: 1.425 (Simulation time: 00 hr 07 min 26 sec)
Heartbeat CPU 0 instructions: 36500198 cycles: 25664025 heartbeat IPC: 1.259 cumulative IPC: 1.422 (Simulation time: 00 hr 07 min 33 sec)
Heartbeat CPU 0 instructions: 37000203 cycles: 26021251 heartbeat IPC: 1.4 cumulative IPC: 1.422 (Simulation time: 00 hr 07 min 40 sec)
Heartbeat CPU 0 instructions: 37500205 cycles: 26333844 heartbeat IPC: 1.6 cumulative IPC: 1.424 (Simulation time: 00 hr 07 min 45 sec)
Heartbeat CPU 0 instructions: 38000212 cycles: 26615658 heartbeat IPC: 1.774 cumulative IPC: 1.428 (Simulation time: 00 hr 07 min 50 sec)
Heartbeat CPU 0 instructions: 38500213 cycles: 26863649 heartbeat IPC: 2.016 cumulative IPC: 1.433 (Simulation time: 00 hr 07 min 55 sec)
Heartbeat CPU 0 instructions: 39000213 cycles: 27211401 heartbeat IPC: 1.438 cumulative IPC: 1.433 (Simulation time: 00 hr 08 min 01 sec)
Heartbeat CPU 0 instructions: 39500217 cycles: 27569612 heartbeat IPC: 1.396 cumulative IPC: 1.433 (Simulation time: 00 hr 08 min 07 sec)
Heartbeat CPU 0 instructions: 40000222 cycles: 27928066 heartbeat IPC: 1.395 cumulative IPC: 1.432 (Simulation time: 00 hr 08 min 14 sec)
Heartbeat CPU 0 instructions: 40500222 cycles: 28286058 heartbeat IPC: 1.397 cumulative IPC: 1.432 (Simulation time: 00 hr 08 min 20 sec)
Heartbeat CPU 0 instructions: 41000228 cycles: 28661000 heartbeat IPC: 1.334 cumulative IPC: 1.431 (Simulation time: 00 hr 08 min 26 sec)
Heartbeat CPU 0 instructions: 41500232 cycles: 29070812 heartbeat IPC: 1.22 cumulative IPC: 1.428 (Simulation time: 00 hr 08 min 34 sec)
Heartbeat CPU 0 instructions: 42000235 cycles: 29479907 heartbeat IPC: 1.222 cumulative IPC: 1.425 (Simulation time: 00 hr 08 min 41 sec)
Heartbeat CPU 0 instructions: 42500236 cycles: 29854422 heartbeat IPC: 1.335 cumulative IPC: 1.424 (Simulation time: 00 hr 08 min 47 sec)
Heartbeat CPU 0 instructions: 43000242 cycles: 30211881 heartbeat IPC: 1.399 cumulative IPC: 1.423 (Simulation time: 00 hr 08 min 54 sec)
Heartbeat CPU 0 instructions: 43500242 cycles: 30448030 heartbeat IPC: 2.117 cumulative IPC: 1.429 (Simulation time: 00 hr 08 min 58 sec)
Heartbeat CPU 0 instructions: 44000245 cycles: 30765815 heartbeat IPC: 1.573 cumulative IPC: 1.43 (Simulation time: 00 hr 09 min 04 sec)
Heartbeat CPU 0 instructions: 44500247 cycles: 31053713 heartbeat IPC: 1.737 cumulative IPC: 1.433 (Simulation time: 00 hr 09 min 09 sec)
Heartbeat CPU 0 instructions: 45000247 cycles: 31401891 heartbeat IPC: 1.436 cumulative IPC: 1.433 (Simulation time: 00 hr 09 min 15 sec)
Heartbeat CPU 0 instructions: 45500252 cycles: 31759802 heartbeat IPC: 1.397 cumulative IPC: 1.433 (Simulation time: 00 hr 09 min 21 sec)
Heartbeat CPU 0 instructions: 46000252 cycles: 32117993 heartbeat IPC: 1.396 cumulative IPC: 1.432 (Simulation time: 00 hr 09 min 27 sec)
Heartbeat CPU 0 instructions: 46500252 cycles: 32465179 heartbeat IPC: 1.44 cumulative IPC: 1.432 (Simulation time: 00 hr 09 min 34 sec)
Heartbeat CPU 0 instructions: 47000252 cycles: 32875582 heartbeat IPC: 1.218 cumulative IPC: 1.43 (Simulation time: 00 hr 09 min 41 sec)
Heartbeat CPU 0 instructions: 47500253 cycles: 33287025 heartbeat IPC: 1.215 cumulative IPC: 1.427 (Simulation time: 00 hr 09 min 48 sec)
Heartbeat CPU 0 instructions: 48000258 cycles: 33697317 heartbeat IPC: 1.219 cumulative IPC: 1.424 (Simulation time: 00 hr 09 min 55 sec)
Heartbeat CPU 0 instructions: 48500262 cycles: 34049432 heartbeat IPC: 1.42 cumulative IPC: 1.424 (Simulation time: 00 hr 10 min 01 sec)
Heartbeat CPU 0 instructions: 49000265 cycles: 34386710 heartbeat IPC: 1.482 cumulative IPC: 1.425 (Simulation time: 00 hr 10 min 07 sec)
Heartbeat CPU 0 instructions: 49500266 cycles: 34642623 heartbeat IPC: 1.954 cumulative IPC: 1.429 (Simulation time: 00 hr 10 min 12 sec)
Warmup halting CPU 0 at instruction 50000001 cycle 34890305 for remainder of phase
Warmup finished CPU 0 instructions: 50000001 cycles: 34890305 cumulative IPC: 1.433 (Simulation time: 00 hr 10 min 16 sec)
Warmup complete CPU 0 instructions: 50000001 cycles: 34890305 cumulative IPC: 1.433 (Simulation time: 00 hr 10 min 16 sec)
Heartbeat CPU 0 instructions: 50000273 cycles: 34890339 heartbeat IPC: 2.018 cumulative IPC: 8 (Simulation time: 00 hr 10 min 16 sec)
Heartbeat CPU 0 instructions: 50500275 cycles: 36049777 heartbeat IPC: 0.4312 cumulative IPC: 0.4315 (Simulation time: 00 hr 10 min 29 sec)
Heartbeat CPU 0 instructions: 51000276 cycles: 37247964 heartbeat IPC: 0.4173 cumulative IPC: 0.4243 (Simulation time: 00 hr 10 min 42 sec)
Heartbeat CPU 0 instructions: 51500278 cycles: 38448949 heartbeat IPC: 0.4163 cumulative IPC: 0.4216 (Simulation time: 00 hr 10 min 55 sec)
Heartbeat CPU 0 instructions: 52000280 cycles: 39652086 heartbeat IPC: 0.4156 cumulative IPC: 0.4201 (Simulation time: 00 hr 11 min 09 sec)
Heartbeat CPU 0 instructions: 52500281 cycles: 40854632 heartbeat IPC: 0.4158 cumulative IPC: 0.4192 (Simulation time: 00 hr 11 min 22 sec)
Heartbeat CPU 0 instructions: 53000281 cycles: 42142861 heartbeat IPC: 0.3881 cumulative IPC: 0.4137 (Simulation time: 00 hr 11 min 37 sec)
Heartbeat CPU 0 instructions: 53500287 cycles: 43433623 heartbeat IPC: 0.3874 cumulative IPC: 0.4097 (Simulation time: 00 hr 11 min 51 sec)
Heartbeat CPU 0 instructions: 54000293 cycles: 44660277 heartbeat IPC: 0.4076 cumulative IPC: 0.4094 (Simulation time: 00 hr 12 min 05 sec)
Heartbeat CPU 0 instructions: 54500298 cycles: 45864878 heartbeat IPC: 0.4151 cumulative IPC: 0.4101 (Simulation time: 00 hr 12 min 18 sec)
Heartbeat CPU 0 instructions: 55000303 cycles: 46582650 heartbeat IPC: 0.6966 cumulative IPC: 0.4277 (Simulation time: 00 hr 12 min 27 sec)
Heartbeat CPU 0 instructions: 55500306 cycles: 47696379 heartbeat IPC: 0.4489 cumulative IPC: 0.4295 (Simulation time: 00 hr 12 min 39 sec)
Heartbeat CPU 0 instructions: 56000306 cycles: 48551275 heartbeat IPC: 0.5849 cumulative IPC: 0.4392 (Simulation time: 00 hr 12 min 48 sec)
Heartbeat CPU 0 instructions: 56500312 cycles: 49716226 heartbeat IPC: 0.4292 cumulative IPC: 0.4384 (Simulation time: 00 hr 13 min 01 sec)
Heartbeat CPU 0 instructions: 57000314 cycles: 50914424 heartbeat IPC: 0.4173 cumulative IPC: 0.4369 (Simulation time: 00 hr 13 min 14 sec)
Heartbeat CPU 0 instructions: 57500314 cycles: 52117468 heartbeat IPC: 0.4156 cumulative IPC: 0.4354 (Simulation time: 00 hr 13 min 27 sec)
Heartbeat CPU 0 instructions: 58000315 cycles: 53273996 heartbeat IPC: 0.4323 cumulative IPC: 0.4352 (Simulation time: 00 hr 13 min 40 sec)
Heartbeat CPU 0 instructions: 58500317 cycles: 54562616 heartbeat IPC: 0.388 cumulative IPC: 0.4321 (Simulation time: 00 hr 13 min 54 sec)
Heartbeat CPU 0 instructions: 59000319 cycles: 55851453 heartbeat IPC: 0.3879 cumulative IPC: 0.4294 (Simulation time: 00 hr 14 min 09 sec)
Heartbeat CPU 0 instructions: 59500320 cycles: 57142642 heartbeat IPC: 0.3872 cumulative IPC: 0.4269 (Simulation time: 00 hr 14 min 24 sec)
Heartbeat CPU 0 instructions: 60000323 cycles: 58328397 heartbeat IPC: 0.4217 cumulative IPC: 0.4267 (Simulation time: 00 hr 14 min 37 sec)
Heartbeat CPU 0 instructions: 60500323 cycles: 59530493 heartbeat IPC: 0.4159 cumulative IPC: 0.4261 (Simulation time: 00 hr 14 min 50 sec)
Heartbeat CPU 0 instructions: 61000328 cycles: 60182522 heartbeat IPC: 0.7668 cumulative IPC: 0.4349 (Simulation time: 00 hr 14 min 57 sec)
Heartbeat CPU 0 instructions: 61500332 cycles: 61027076 heartbeat IPC: 0.592 cumulative IPC: 0.44 (Simulation time: 00 hr 15 min 07 sec)
Heartbeat CPU 0 instructions: 62000332 cycles: 62191570 heartbeat IPC: 0.4294 cumulative IPC: 0.4396 (Simulation time: 00 hr 15 min 20 sec)
Heartbeat CPU 0 instructions: 62500332 cycles: 63390111 heartbeat IPC: 0.4172 cumulative IPC: 0.4386 (Simulation time: 00 hr 15 min 33 sec)
Heartbeat CPU 0 instructions: 63000336 cycles: 64587468 heartbeat IPC: 0.4176 cumulative IPC: 0.4378 (Simulation time: 00 hr 15 min 46 sec)
Heartbeat CPU 0 instructions: 63500337 cycles: 65789594 heartbeat IPC: 0.4159 cumulative IPC: 0.4369 (Simulation time: 00 hr 15 min 59 sec)
Heartbeat CPU 0 instructions: 64000339 cycles: 66983117 heartbeat IPC: 0.4189 cumulative IPC: 0.4362 (Simulation time: 00 hr 16 min 12 sec)
Heartbeat CPU 0 instructions: 64500345 cycles: 68273765 heartbeat IPC: 0.3874 cumulative IPC: 0.4344 (Simulation time: 00 hr 16 min 27 sec)
Heartbeat CPU 0 instructions: 65000346 cycles: 69561775 heartbeat IPC: 0.3882 cumulative IPC: 0.4326 (Simulation time: 00 hr 16 min 41 sec)
Heartbeat CPU 0 instructions: 65500347 cycles: 70796286 heartbeat IPC: 0.405 cumulative IPC: 0.4317 (Simulation time: 00 hr 16 min 55 sec)
Heartbeat CPU 0 instructions: 66000347 cycles: 72000780 heartbeat IPC: 0.4151 cumulative IPC: 0.4312 (Simulation time: 00 hr 17 min 08 sec)
Heartbeat CPU 0 instructions: 66500348 cycles: 72835394 heartbeat IPC: 0.5991 cumulative IPC: 0.4348 (Simulation time: 00 hr 17 min 18 sec)
Heartbeat CPU 0 instructions: 67000349 cycles: 73834547 heartbeat IPC: 0.5004 cumulative IPC: 0.4365 (Simulation time: 00 hr 17 min 29 sec)
Heartbeat CPU 0 instructions: 67500350 cycles: 74678501 heartbeat IPC: 0.5925 cumulative IPC: 0.4398 (Simulation time: 00 hr 17 min 38 sec)
Heartbeat CPU 0 instructions: 68000356 cycles: 75844567 heartbeat IPC: 0.4288 cumulative IPC: 0.4395 (Simulation time: 00 hr 17 min 51 sec)
Heartbeat CPU 0 instructions: 68500359 cycles: 77044041 heartbeat IPC: 0.4169 cumulative IPC: 0.4389 (Simulation time: 00 hr 18 min 04 sec)
Heartbeat CPU 0 instructions: 69000365 cycles: 78246462 heartbeat IPC: 0.4158 cumulative IPC: 0.4382 (Simulation time: 00 hr 18 min 17 sec)
Heartbeat CPU 0 instructions: 69500369 cycles: 79449663 heartbeat IPC: 0.4156 cumulative IPC: 0.4376 (Simulation time: 00 hr 18 min 30 sec)
Heartbeat CPU 0 instructions: 70000376 cycles: 80682792 heartbeat IPC: 0.4055 cumulative IPC: 0.4368 (Simulation time: 00 hr 18 min 44 sec)
Heartbeat CPU 0 instructions: 70500382 cycles: 81973841 heartbeat IPC: 0.3873 cumulative IPC: 0.4354 (Simulation time: 00 hr 18 min 59 sec)
Heartbeat CPU 0 instructions: 71000384 cycles: 83265411 heartbeat IPC: 0.3871 cumulative IPC: 0.4341 (Simulation time: 00 hr 19 min 14 sec)
Heartbeat CPU 0 instructions: 71500387 cycles: 84464421 heartbeat IPC: 0.417 cumulative IPC: 0.4337 (Simulation time: 00 hr 19 min 27 sec)
Heartbeat CPU 0 instructions: 72000387 cycles: 85667373 heartbeat IPC: 0.4156 cumulative IPC: 0.4333 (Simulation time: 00 hr 19 min 40 sec)
Heartbeat CPU 0 instructions: 72500387 cycles: 86319144 heartbeat IPC: 0.7671 cumulative IPC: 0.4375 (Simulation time: 00 hr 19 min 48 sec)
Heartbeat CPU 0 instructions: 73000387 cycles: 87265917 heartbeat IPC: 0.5281 cumulative IPC: 0.4391 (Simulation time: 00 hr 19 min 59 sec)
Heartbeat CPU 0 instructions: 73500387 cycles: 88357025 heartbeat IPC: 0.4582 cumulative IPC: 0.4395 (Simulation time: 00 hr 20 min 11 sec)
Heartbeat CPU 0 instructions: 74000389 cycles: 89532518 heartbeat IPC: 0.4254 cumulative IPC: 0.4392 (Simulation time: 00 hr 20 min 24 sec)
Heartbeat CPU 0 instructions: 74500391 cycles: 90730433 heartbeat IPC: 0.4174 cumulative IPC: 0.4388 (Simulation time: 00 hr 20 min 37 sec)
Heartbeat CPU 0 instructions: 75000393 cycles: 91932329 heartbeat IPC: 0.416 cumulative IPC: 0.4383 (Simulation time: 00 hr 20 min 50 sec)
Heartbeat CPU 0 instructions: 75500394 cycles: 93116549 heartbeat IPC: 0.4222 cumulative IPC: 0.438 (Simulation time: 00 hr 21 min 03 sec)
Heartbeat CPU 0 instructions: 76000400 cycles: 94405137 heartbeat IPC: 0.388 cumulative IPC: 0.4369 (Simulation time: 00 hr 21 min 18 sec)
Heartbeat CPU 0 instructions: 76500400 cycles: 95698150 heartbeat IPC: 0.3867 cumulative IPC: 0.4358 (Simulation time: 00 hr 21 min 32 sec)
Heartbeat CPU 0 instructions: 77000406 cycles: 96943856 heartbeat IPC: 0.4014 cumulative IPC: 0.4351 (Simulation time: 00 hr 21 min 46 sec)
Heartbeat CPU 0 instructions: 77500411 cycles: 98146783 heartbeat IPC: 0.4157 cumulative IPC: 0.4347 (Simulation time: 00 hr 21 min 59 sec)
Heartbeat CPU 0 instructions: 78000416 cycles: 99107124 heartbeat IPC: 0.5207 cumulative IPC: 0.436 (Simulation time: 00 hr 22 min 10 sec)
Heartbeat CPU 0 instructions: 78500417 cycles: 99988069 heartbeat IPC: 0.5676 cumulative IPC: 0.4378 (Simulation time: 00 hr 22 min 20 sec)
Heartbeat CPU 0 instructions: 79000422 cycles: 100837100 heartbeat IPC: 0.5889 cumulative IPC: 0.4398 (Simulation time: 00 hr 22 min 29 sec)
Heartbeat CPU 0 instructions: 79500422 cycles: 102004094 heartbeat IPC: 0.4285 cumulative IPC: 0.4396 (Simulation time: 00 hr 22 min 42 sec)
Heartbeat CPU 0 instructions: 80000422 cycles: 103202985 heartbeat IPC: 0.4171 cumulative IPC: 0.4392 (Simulation time: 00 hr 22 min 55 sec)
Heartbeat CPU 0 instructions: 80500425 cycles: 104405370 heartbeat IPC: 0.4158 cumulative IPC: 0.4388 (Simulation time: 00 hr 23 min 08 sec)
Heartbeat CPU 0 instructions: 81000431 cycles: 105608976 heartbeat IPC: 0.4154 cumulative IPC: 0.4384 (Simulation time: 00 hr 23 min 21 sec)
Heartbeat CPU 0 instructions: 81500431 cycles: 106832798 heartbeat IPC: 0.4086 cumulative IPC: 0.4379 (Simulation time: 00 hr 23 min 35 sec)
Heartbeat CPU 0 instructions: 82000437 cycles: 108120535 heartbeat IPC: 0.3883 cumulative IPC: 0.437 (Simulation time: 00 hr 23 min 50 sec)
Heartbeat CPU 0 instructions: 82500444 cycles: 109410024 heartbeat IPC: 0.3878 cumulative IPC: 0.4361 (Simulation time: 00 hr 24 min 04 sec)
Heartbeat CPU 0 instructions: 83000445 cycles: 110617365 heartbeat IPC: 0.4141 cumulative IPC: 0.4358 (Simulation time: 00 hr 24 min 18 sec)
Heartbeat CPU 0 instructions: 83500445 cycles: 111820188 heartbeat IPC: 0.4157 cumulative IPC: 0.4355 (Simulation time: 00 hr 24 min 31 sec)
Heartbeat CPU 0 instructions: 84000446 cycles: 113024458 heartbeat IPC: 0.4152 cumulative IPC: 0.4352 (Simulation time: 00 hr 24 min 44 sec)
Heartbeat CPU 0 instructions: 84500451 cycles: 114227957 heartbeat IPC: 0.4155 cumulative IPC: 0.4349 (Simulation time: 00 hr 24 min 57 sec)
Heartbeat CPU 0 instructions: 85000456 cycles: 115430295 heartbeat IPC: 0.4159 cumulative IPC: 0.4346 (Simulation time: 00 hr 25 min 10 sec)
Heartbeat CPU 0 instructions: 85500457 cycles: 116633790 heartbeat IPC: 0.4155 cumulative IPC: 0.4343 (Simulation time: 00 hr 25 min 23 sec)
Heartbeat CPU 0 instructions: 86000457 cycles: 117835322 heartbeat IPC: 0.4161 cumulative IPC: 0.434 (Simulation time: 00 hr 25 min 36 sec)
Heartbeat CPU 0 instructions: 86500461 cycles: 119038421 heartbeat IPC: 0.4156 cumulative IPC: 0.4338 (Simulation time: 00 hr 25 min 49 sec)
Heartbeat CPU 0 instructions: 87000468 cycles: 120239798 heartbeat IPC: 0.4162 cumulative IPC: 0.4335 (Simulation time: 00 hr 26 min 02 sec)
Heartbeat CPU 0 instructions: 87500470 cycles: 121442153 heartbeat IPC: 0.4159 cumulative IPC: 0.4333 (Simulation time: 00 hr 26 min 15 sec)
Heartbeat CPU 0 instructions: 88000470 cycles: 122643987 heartbeat IPC: 0.416 cumulative IPC: 0.433 (Simulation time: 00 hr 26 min 28 sec)
Heartbeat CPU 0 instructions: 88500477 cycles: 123845804 heartbeat IPC: 0.416 cumulative IPC: 0.4328 (Simulation time: 00 hr 26 min 41 sec)
Heartbeat CPU 0 instructions: 89000479 cycles: 125050348 heartbeat IPC: 0.4151 cumulative IPC: 0.4326 (Simulation time: 00 hr 26 min 54 sec)
Heartbeat CPU 0 instructions: 89500481 cycles: 126253227 heartbeat IPC: 0.4157 cumulative IPC: 0.4323 (Simulation time: 00 hr 27 min 07 sec)
Heartbeat CPU 0 instructions: 90000488 cycles: 127455972 heartbeat IPC: 0.4157 cumulative IPC: 0.4321 (Simulation time: 00 hr 27 min 20 sec)
Heartbeat CPU 0 instructions: 90500488 cycles: 128659922 heartbeat IPC: 0.4153 cumulative IPC: 0.4319 (Simulation time: 00 hr 27 min 33 sec)
Heartbeat CPU 0 instructions: 91000490 cycles: 129863839 heartbeat IPC: 0.4153 cumulative IPC: 0.4317 (Simulation time: 00 hr 27 min 47 sec)
Heartbeat CPU 0 instructions: 91500491 cycles: 131065701 heartbeat IPC: 0.416 cumulative IPC: 0.4315 (Simulation time: 00 hr 28 min 00 sec)
Heartbeat CPU 0 instructions: 92000491 cycles: 132268708 heartbeat IPC: 0.4156 cumulative IPC: 0.4313 (Simulation time: 00 hr 28 min 13 sec)
Heartbeat CPU 0 instructions: 92500496 cycles: 133471414 heartbeat IPC: 0.4157 cumulative IPC: 0.4311 (Simulation time: 00 hr 28 min 26 sec)
Heartbeat CPU 0 instructions: 93000502 cycles: 134674914 heartbeat IPC: 0.4155 cumulative IPC: 0.4309 (Simulation time: 00 hr 28 min 39 sec)
Heartbeat CPU 0 instructions: 93500504 cycles: 135877075 heartbeat IPC: 0.4159 cumulative IPC: 0.4308 (Simulation time: 00 hr 28 min 52 sec)
Heartbeat CPU 0 instructions: 94000504 cycles: 137079714 heartbeat IPC: 0.4158 cumulative IPC: 0.4306 (Simulation time: 00 hr 29 min 05 sec)
Heartbeat CPU 0 instructions: 94500509 cycles: 138282807 heartbeat IPC: 0.4156 cumulative IPC: 0.4304 (Simulation time: 00 hr 29 min 18 sec)
Heartbeat CPU 0 instructions: 95000513 cycles: 139486157 heartbeat IPC: 0.4155 cumulative IPC: 0.4302 (Simulation time: 00 hr 29 min 31 sec)
Heartbeat CPU 0 instructions: 95500515 cycles: 140689936 heartbeat IPC: 0.4154 cumulative IPC: 0.4301 (Simulation time: 00 hr 29 min 44 sec)
Heartbeat CPU 0 instructions: 96000516 cycles: 141890590 heartbeat IPC: 0.4164 cumulative IPC: 0.4299 (Simulation time: 00 hr 29 min 57 sec)
Heartbeat CPU 0 instructions: 96500522 cycles: 143093149 heartbeat IPC: 0.4158 cumulative IPC: 0.4298 (Simulation time: 00 hr 30 min 10 sec)
Heartbeat CPU 0 instructions: 97000524 cycles: 144295871 heartbeat IPC: 0.4157 cumulative IPC: 0.4296 (Simulation time: 00 hr 30 min 23 sec)
Heartbeat CPU 0 instructions: 97500527 cycles: 145499673 heartbeat IPC: 0.4154 cumulative IPC: 0.4294 (Simulation time: 00 hr 30 min 36 sec)
Heartbeat CPU 0 instructions: 98000533 cycles: 146701973 heartbeat IPC: 0.4159 cumulative IPC: 0.4293 (Simulation time: 00 hr 30 min 49 sec)
Heartbeat CPU 0 instructions: 98500533 cycles: 147904899 heartbeat IPC: 0.4157 cumulative IPC: 0.4292 (Simulation time: 00 hr 31 min 03 sec)
Heartbeat CPU 0 instructions: 99000533 cycles: 149107058 heartbeat IPC: 0.4159 cumulative IPC: 0.429 (Simulation time: 00 hr 31 min 16 sec)
Heartbeat CPU 0 instructions: 99500534 cycles: 150308392 heartbeat IPC: 0.4162 cumulative IPC: 0.4289 (Simulation time: 00 hr 31 min 29 sec)
Heartbeat CPU 0 instructions: 100000536 cycles: 151511463 heartbeat IPC: 0.4156 cumulative IPC: 0.4287 (Simulation time: 00 hr 31 min 42 sec)
Heartbeat CPU 0 instructions: 100500537 cycles: 152714440 heartbeat IPC: 0.4156 cumulative IPC: 0.4286 (Simulation time: 00 hr 31 min 55 sec)
Heartbeat CPU 0 instructions: 101000539 cycles: 153917754 heartbeat IPC: 0.4155 cumulative IPC: 0.4285 (Simulation time: 00 hr 32 min 08 sec)
Heartbeat CPU 0 instructions: 101500545 cycles: 155176701 heartbeat IPC: 0.3972 cumulative IPC: 0.4281 (Simulation time: 00 hr 32 min 20 sec)
Heartbeat CPU 0 instructions: 102000546 cycles: 155515467 heartbeat IPC: 1.476 cumulative IPC: 0.4311 (Simulation time: 00 hr 32 min 25 sec)
Heartbeat CPU 0 instructions: 102500548 cycles: 155939411 heartbeat IPC: 1.179 cumulative IPC: 0.4337 (Simulation time: 00 hr 32 min 29 sec)
Heartbeat CPU 0 instructions: 103000551 cycles: 156237936 heartbeat IPC: 1.675 cumulative IPC: 0.4368 (Simulation time: 00 hr 32 min 32 sec)
Heartbeat CPU 0 instructions: 103500552 cycles: 156491025 heartbeat IPC: 1.976 cumulative IPC: 0.44 (Simulation time: 00 hr 32 min 36 sec)
Heartbeat CPU 0 instructions: 104000552 cycles: 157010944 heartbeat IPC: 0.9617 cumulative IPC: 0.4422 (Simulation time: 00 hr 32 min 41 sec)
Heartbeat CPU 0 instructions: 104500553 cycles: 157504212 heartbeat IPC: 1.014 cumulative IPC: 0.4445 (Simulation time: 00 hr 32 min 45 sec)
Heartbeat CPU 0 instructions: 105000557 cycles: 157780394 heartbeat IPC: 1.81 cumulative IPC: 0.4476 (Simulation time: 00 hr 32 min 49 sec)
Heartbeat CPU 0 instructions: 105500561 cycles: 158035468 heartbeat IPC: 1.96 cumulative IPC: 0.4507 (Simulation time: 00 hr 32 min 52 sec)
Heartbeat CPU 0 instructions: 106000562 cycles: 158300329 heartbeat IPC: 1.888 cumulative IPC: 0.4538 (Simulation time: 00 hr 32 min 55 sec)
Heartbeat CPU 0 instructions: 106500562 cycles: 158797441 heartbeat IPC: 1.006 cumulative IPC: 0.456 (Simulation time: 00 hr 33 min 00 sec)
Heartbeat CPU 0 instructions: 107000563 cycles: 159281104 heartbeat IPC: 1.034 cumulative IPC: 0.4582 (Simulation time: 00 hr 33 min 04 sec)
Heartbeat CPU 0 instructions: 107500565 cycles: 160408335 heartbeat IPC: 0.4436 cumulative IPC: 0.4581 (Simulation time: 00 hr 33 min 15 sec)
Heartbeat CPU 0 instructions: 108000569 cycles: 161621414 heartbeat IPC: 0.4122 cumulative IPC: 0.4577 (Simulation time: 00 hr 33 min 29 sec)
Heartbeat CPU 0 instructions: 108500571 cycles: 162259323 heartbeat IPC: 0.7838 cumulative IPC: 0.4593 (Simulation time: 00 hr 33 min 37 sec)
Heartbeat CPU 0 instructions: 109000571 cycles: 163420156 heartbeat IPC: 0.4307 cumulative IPC: 0.459 (Simulation time: 00 hr 33 min 49 sec)
Heartbeat CPU 0 instructions: 109500575 cycles: 164353472 heartbeat IPC: 0.5357 cumulative IPC: 0.4596 (Simulation time: 00 hr 34 min 00 sec)
Heartbeat CPU 0 instructions: 110000575 cycles: 165518778 heartbeat IPC: 0.4291 cumulative IPC: 0.4593 (Simulation time: 00 hr 34 min 12 sec)
Heartbeat CPU 0 instructions: 110500582 cycles: 166723175 heartbeat IPC: 0.4152 cumulative IPC: 0.4589 (Simulation time: 00 hr 34 min 25 sec)
Heartbeat CPU 0 instructions: 111000582 cycles: 167930637 heartbeat IPC: 0.4141 cumulative IPC: 0.4585 (Simulation time: 00 hr 34 min 38 sec)
Heartbeat CPU 0 instructions: 111500585 cycles: 169108790 heartbeat IPC: 0.4244 cumulative IPC: 0.4582 (Simulation time: 00 hr 34 min 51 sec)
Heartbeat CPU 0 instructions: 112000587 cycles: 170417662 heartbeat IPC: 0.382 cumulative IPC: 0.4575 (Simulation time: 00 hr 35 min 06 sec)
Heartbeat CPU 0 instructions: 112500591 cycles: 171728039 heartbeat IPC: 0.3816 cumulative IPC: 0.4567 (Simulation time: 00 hr 35 min 20 sec)
Heartbeat CPU 0 instructions: 113000591 cycles: 173040594 heartbeat IPC: 0.3809 cumulative IPC: 0.456 (Simulation time: 00 hr 35 min 35 sec)
Heartbeat CPU 0 instructions: 113500592 cycles: 174224753 heartbeat IPC: 0.4222 cumulative IPC: 0.4557 (Simulation time: 00 hr 35 min 48 sec)
Heartbeat CPU 0 instructions: 114000592 cycles: 175375244 heartbeat IPC: 0.4346 cumulative IPC: 0.4556 (Simulation time: 00 hr 36 min 00 sec)
Heartbeat CPU 0 instructions: 114500598 cycles: 176090067 heartbeat IPC: 0.6995 cumulative IPC: 0.4568 (Simulation time: 00 hr 36 min 09 sec)
Heartbeat CPU 0 instructions: 115000599 cycles: 176965847 heartbeat IPC: 0.5709 cumulative IPC: 0.4575 (Simulation time: 00 hr 36 min 18 sec)
Heartbeat CPU 0 instructions: 115500601 cycles: 178135111 heartbeat IPC: 0.4276 cumulative IPC: 0.4573 (Simulation time: 00 hr 36 min 31 sec)
Heartbeat CPU 0 instructions: 116000603 cycles: 179334494 heartbeat IPC: 0.4169 cumulative IPC: 0.4569 (Simulation time: 00 hr 36 min 44 sec)
Heartbeat CPU 0 instructions: 116500603 cycles: 180539566 heartbeat IPC: 0.4149 cumulative IPC: 0.4566 (Simulation time: 00 hr 36 min 57 sec)
Heartbeat CPU 0 instructions: 117000608 cycles: 181746849 heartbeat IPC: 0.4142 cumulative IPC: 0.4562 (Simulation time: 00 hr 37 min 10 sec)
Heartbeat CPU 0 instructions: 117500613 cycles: 182813115 heartbeat IPC: 0.4689 cumulative IPC: 0.4563 (Simulation time: 00 hr 37 min 22 sec)
Heartbeat CPU 0 instructions: 118000619 cycles: 184123867 heartbeat IPC: 0.3815 cumulative IPC: 0.4557 (Simulation time: 00 hr 37 min 37 sec)
Heartbeat CPU 0 instructions: 118500621 cycles: 185434202 heartbeat IPC: 0.3816 cumulative IPC: 0.455 (Simulation time: 00 hr 37 min 51 sec)
Heartbeat CPU 0 instructions: 119000624 cycles: 186671776 heartbeat IPC: 0.404 cumulative IPC: 0.4546 (Simulation time: 00 hr 38 min 05 sec)
Heartbeat CPU 0 instructions: 119500624 cycles: 187880198 heartbeat IPC: 0.4138 cumulative IPC: 0.4543 (Simulation time: 00 hr 38 min 18 sec)
Heartbeat CPU 0 instructions: 120000629 cycles: 188618066 heartbeat IPC: 0.6776 cumulative IPC: 0.4554 (Simulation time: 00 hr 38 min 27 sec)
Heartbeat CPU 0 instructions: 120500629 cycles: 189723296 heartbeat IPC: 0.4524 cumulative IPC: 0.4553 (Simulation time: 00 hr 38 min 39 sec)
Heartbeat CPU 0 instructions: 121000630 cycles: 190612072 heartbeat IPC: 0.5626 cumulative IPC: 0.4559 (Simulation time: 00 hr 38 min 48 sec)
Heartbeat CPU 0 instructions: 121500634 cycles: 191782983 heartbeat IPC: 0.427 cumulative IPC: 0.4557 (Simulation time: 00 hr 39 min 01 sec)
Heartbeat CPU 0 instructions: 122000636 cycles: 192987789 heartbeat IPC: 0.415 cumulative IPC: 0.4554 (Simulation time: 00 hr 39 min 14 sec)
Heartbeat CPU 0 instructions: 122500643 cycles: 194194015 heartbeat IPC: 0.4145 cumulative IPC: 0.4551 (Simulation time: 00 hr 39 min 27 sec)
Heartbeat CPU 0 instructions: 123000645 cycles: 195359030 heartbeat IPC: 0.4292 cumulative IPC: 0.4549 (Simulation time: 00 hr 39 min 40 sec)
Heartbeat CPU 0 instructions: 123500645 cycles: 196669868 heartbeat IPC: 0.3814 cumulative IPC: 0.4543 (Simulation time: 00 hr 39 min 54 sec)
Heartbeat CPU 0 instructions: 124000647 cycles: 197978806 heartbeat IPC: 0.382 cumulative IPC: 0.4537 (Simulation time: 00 hr 40 min 09 sec)
Heartbeat CPU 0 instructions: 124500647 cycles: 199290947 heartbeat IPC: 0.3811 cumulative IPC: 0.4532 (Simulation time: 00 hr 40 min 24 sec)
Heartbeat CPU 0 instructions: 125000650 cycles: 200479918 heartbeat IPC: 0.4205 cumulative IPC: 0.4529 (Simulation time: 00 hr 40 min 36 sec)
Heartbeat CPU 0 instructions: 125500653 cycles: 201684663 heartbeat IPC: 0.415 cumulative IPC: 0.4527 (Simulation time: 00 hr 40 min 49 sec)
Heartbeat CPU 0 instructions: 126000660 cycles: 202319693 heartbeat IPC: 0.7874 cumulative IPC: 0.4539 (Simulation time: 00 hr 40 min 57 sec)
Heartbeat CPU 0 instructions: 126500663 cycles: 203205387 heartbeat IPC: 0.5645 cumulative IPC: 0.4545 (Simulation time: 00 hr 41 min 07 sec)
Heartbeat CPU 0 instructions: 127000663 cycles: 204369592 heartbeat IPC: 0.4295 cumulative IPC: 0.4543 (Simulation time: 00 hr 41 min 19 sec)
Heartbeat CPU 0 instructions: 127500666 cycles: 205577698 heartbeat IPC: 0.4139 cumulative IPC: 0.4541 (Simulation time: 00 hr 41 min 32 sec)
Heartbeat CPU 0 instructions: 128000672 cycles: 206787966 heartbeat IPC: 0.4131 cumulative IPC: 0.4538 (Simulation time: 00 hr 41 min 45 sec)
Heartbeat CPU 0 instructions: 128500674 cycles: 207997217 heartbeat IPC: 0.4135 cumulative IPC: 0.4535 (Simulation time: 00 hr 41 min 58 sec)
Heartbeat CPU 0 instructions: 129000675 cycles: 209207541 heartbeat IPC: 0.4131 cumulative IPC: 0.4532 (Simulation time: 00 hr 42 min 11 sec)
Heartbeat CPU 0 instructions: 129500675 cycles: 210515621 heartbeat IPC: 0.3822 cumulative IPC: 0.4527 (Simulation time: 00 hr 42 min 26 sec)
Heartbeat CPU 0 instructions: 130000675 cycles: 211827487 heartbeat IPC: 0.3811 cumulative IPC: 0.4521 (Simulation time: 00 hr 42 min 40 sec)
Heartbeat CPU 0 instructions: 130500678 cycles: 213075692 heartbeat IPC: 0.4006 cumulative IPC: 0.4518 (Simulation time: 00 hr 42 min 54 sec)
Heartbeat CPU 0 instructions: 131000680 cycles: 214285009 heartbeat IPC: 0.4135 cumulative IPC: 0.4515 (Simulation time: 00 hr 43 min 07 sec)
Heartbeat CPU 0 instructions: 131500681 cycles: 215119988 heartbeat IPC: 0.5988 cumulative IPC: 0.4522 (Simulation time: 00 hr 43 min 16 sec)
Heartbeat CPU 0 instructions: 132000686 cycles: 216138500 heartbeat IPC: 0.4909 cumulative IPC: 0.4524 (Simulation time: 00 hr 43 min 27 sec)
Heartbeat CPU 0 instructions: 132500689 cycles: 217023139 heartbeat IPC: 0.5652 cumulative IPC: 0.453 (Simulation time: 00 hr 43 min 37 sec)
Heartbeat CPU 0 instructions: 133000689 cycles: 218189067 heartbeat IPC: 0.4288 cumulative IPC: 0.4528 (Simulation time: 00 hr 43 min 49 sec)
Heartbeat CPU 0 instructions: 133500695 cycles: 219393502 heartbeat IPC: 0.4151 cumulative IPC: 0.4526 (Simulation time: 00 hr 44 min 02 sec)
Heartbeat CPU 0 instructions: 134000695 cycles: 220601825 heartbeat IPC: 0.4138 cumulative IPC: 0.4523 (Simulation time: 00 hr 44 min 14 sec)
Heartbeat CPU 0 instructions: 134500697 cycles: 221802493 heartbeat IPC: 0.4164 cumulative IPC: 0.4521 (Simulation time: 00 hr 44 min 27 sec)
Heartbeat CPU 0 instructions: 135000703 cycles: 223066309 heartbeat IPC: 0.3956 cumulative IPC: 0.4517 (Simulation time: 00 hr 44 min 41 sec)
Heartbeat CPU 0 instructions: 135500703 cycles: 224376689 heartbeat IPC: 0.3816 cumulative IPC: 0.4512 (Simulation time: 00 hr 44 min 55 sec)
Heartbeat CPU 0 instructions: 136000704 cycles: 225689119 heartbeat IPC: 0.381 cumulative IPC: 0.4507 (Simulation time: 00 hr 45 min 09 sec)
Heartbeat CPU 0 instructions: 136500708 cycles: 226893049 heartbeat IPC: 0.4153 cumulative IPC: 0.4505 (Simulation time: 00 hr 45 min 22 sec)
Heartbeat CPU 0 instructions: 137000708 cycles: 228100784 heartbeat IPC: 0.414 cumulative IPC: 0.4503 (Simulation time: 00 hr 45 min 34 sec)
Heartbeat CPU 0 instructions: 137500709 cycles: 228760083 heartbeat IPC: 0.7584 cumulative IPC: 0.4513 (Simulation time: 00 hr 45 min 42 sec)
Heartbeat CPU 0 instructions: 138000712 cycles: 229692307 heartbeat IPC: 0.5364 cumulative IPC: 0.4517 (Simulation time: 00 hr 45 min 52 sec)
Heartbeat CPU 0 instructions: 138500712 cycles: 230809237 heartbeat IPC: 0.4477 cumulative IPC: 0.4517 (Simulation time: 00 hr 46 min 03 sec)
Heartbeat CPU 0 instructions: 139000712 cycles: 232014331 heartbeat IPC: 0.4149 cumulative IPC: 0.4515 (Simulation time: 00 hr 46 min 16 sec)
Heartbeat CPU 0 instructions: 139500712 cycles: 233220615 heartbeat IPC: 0.4145 cumulative IPC: 0.4513 (Simulation time: 00 hr 46 min 28 sec)
Heartbeat CPU 0 instructions: 140000713 cycles: 234430610 heartbeat IPC: 0.4132 cumulative IPC: 0.451 (Simulation time: 00 hr 46 min 41 sec)
Heartbeat CPU 0 instructions: 140500719 cycles: 235631604 heartbeat IPC: 0.4163 cumulative IPC: 0.4508 (Simulation time: 00 hr 46 min 53 sec)
Heartbeat CPU 0 instructions: 141000719 cycles: 236941257 heartbeat IPC: 0.3818 cumulative IPC: 0.4504 (Simulation time: 00 hr 47 min 07 sec)
Heartbeat CPU 0 instructions: 141500721 cycles: 238253347 heartbeat IPC: 0.3811 cumulative IPC: 0.4499 (Simulation time: 00 hr 47 min 21 sec)
Heartbeat CPU 0 instructions: 142000723 cycles: 239510393 heartbeat IPC: 0.3978 cumulative IPC: 0.4496 (Simulation time: 00 hr 47 min 35 sec)
Heartbeat CPU 0 instructions: 142500728 cycles: 240718518 heartbeat IPC: 0.4139 cumulative IPC: 0.4494 (Simulation time: 00 hr 47 min 47 sec)
Heartbeat CPU 0 instructions: 143000730 cycles: 241643331 heartbeat IPC: 0.5407 cumulative IPC: 0.4498 (Simulation time: 00 hr 47 min 57 sec)
Heartbeat CPU 0 instructions: 143500736 cycles: 242568182 heartbeat IPC: 0.5406 cumulative IPC: 0.4502 (Simulation time: 00 hr 48 min 06 sec)
Heartbeat CPU 0 instructions: 144000737 cycles: 243450716 heartbeat IPC: 0.5666 cumulative IPC: 0.4507 (Simulation time: 00 hr 48 min 16 sec)
Heartbeat CPU 0 instructions: 144500739 cycles: 244618643 heartbeat IPC: 0.4281 cumulative IPC: 0.4506 (Simulation time: 00 hr 48 min 27 sec)
Heartbeat CPU 0 instructions: 145000746 cycles: 245823936 heartbeat IPC: 0.4148 cumulative IPC: 0.4504 (Simulation time: 00 hr 48 min 40 sec)
Heartbeat CPU 0 instructions: 145500746 cycles: 247034392 heartbeat IPC: 0.4131 cumulative IPC: 0.4502 (Simulation time: 00 hr 48 min 52 sec)
Heartbeat CPU 0 instructions: 146000746 cycles: 248245350 heartbeat IPC: 0.4129 cumulative IPC: 0.45 (Simulation time: 00 hr 49 min 04 sec)
Heartbeat CPU 0 instructions: 146500747 cycles: 249490521 heartbeat IPC: 0.4016 cumulative IPC: 0.4497 (Simulation time: 00 hr 49 min 17 sec)
Heartbeat CPU 0 instructions: 147000747 cycles: 250801928 heartbeat IPC: 0.3813 cumulative IPC: 0.4493 (Simulation time: 00 hr 49 min 31 sec)
Heartbeat CPU 0 instructions: 147500752 cycles: 252113562 heartbeat IPC: 0.3812 cumulative IPC: 0.4489 (Simulation time: 00 hr 49 min 44 sec)
Heartbeat CPU 0 instructions: 148000758 cycles: 253326042 heartbeat IPC: 0.4124 cumulative IPC: 0.4486 (Simulation time: 00 hr 49 min 56 sec)
Heartbeat CPU 0 instructions: 148500758 cycles: 254534137 heartbeat IPC: 0.4139 cumulative IPC: 0.4485 (Simulation time: 00 hr 50 min 08 sec)
Heartbeat CPU 0 instructions: 149000759 cycles: 255169175 heartbeat IPC: 0.7874 cumulative IPC: 0.4494 (Simulation time: 00 hr 50 min 15 sec)
Heartbeat CPU 0 instructions: 149500759 cycles: 256210625 heartbeat IPC: 0.4801 cumulative IPC: 0.4496 (Simulation time: 00 hr 50 min 26 sec)
Heartbeat CPU 0 instructions: 150000761 cycles: 257262815 heartbeat IPC: 0.4752 cumulative IPC: 0.4497 (Simulation time: 00 hr 50 min 36 sec)
Heartbeat CPU 0 instructions: 150500761 cycles: 258431488 heartbeat IPC: 0.4278 cumulative IPC: 0.4496 (Simulation time: 00 hr 50 min 48 sec)
Heartbeat CPU 0 instructions: 151000761 cycles: 259635660 heartbeat IPC: 0.4152 cumulative IPC: 0.4494 (Simulation time: 00 hr 51 min 00 sec)
Heartbeat CPU 0 instructions: 151500763 cycles: 260845700 heartbeat IPC: 0.4132 cumulative IPC: 0.4492 (Simulation time: 00 hr 51 min 12 sec)
Heartbeat CPU 0 instructions: 152000763 cycles: 262034991 heartbeat IPC: 0.4204 cumulative IPC: 0.4491 (Simulation time: 00 hr 51 min 24 sec)
Heartbeat CPU 0 instructions: 152500763 cycles: 263343901 heartbeat IPC: 0.382 cumulative IPC: 0.4487 (Simulation time: 00 hr 51 min 37 sec)
Heartbeat CPU 0 instructions: 153000769 cycles: 264654316 heartbeat IPC: 0.3816 cumulative IPC: 0.4483 (Simulation time: 00 hr 51 min 51 sec)
Heartbeat CPU 0 instructions: 153500770 cycles: 265920239 heartbeat IPC: 0.395 cumulative IPC: 0.448 (Simulation time: 00 hr 52 min 04 sec)
Heartbeat CPU 0 instructions: 154000770 cycles: 267130202 heartbeat IPC: 0.4132 cumulative IPC: 0.4478 (Simulation time: 00 hr 52 min 15 sec)
Heartbeat CPU 0 instructions: 154500770 cycles: 268149507 heartbeat IPC: 0.4905 cumulative IPC: 0.448 (Simulation time: 00 hr 52 min 26 sec)
Heartbeat CPU 0 instructions: 155000775 cycles: 268976016 heartbeat IPC: 0.605 cumulative IPC: 0.4486 (Simulation time: 00 hr 52 min 34 sec)
Heartbeat CPU 0 instructions: 155500777 cycles: 269858992 heartbeat IPC: 0.5663 cumulative IPC: 0.449 (Simulation time: 00 hr 52 min 43 sec)
Heartbeat CPU 0 instructions: 156000782 cycles: 271027166 heartbeat IPC: 0.428 cumulative IPC: 0.4489 (Simulation time: 00 hr 52 min 54 sec)
Heartbeat CPU 0 instructions: 156500784 cycles: 272230415 heartbeat IPC: 0.4155 cumulative IPC: 0.4487 (Simulation time: 00 hr 53 min 06 sec)
Heartbeat CPU 0 instructions: 157000787 cycles: 273436995 heartbeat IPC: 0.4144 cumulative IPC: 0.4486 (Simulation time: 00 hr 53 min 18 sec)
Heartbeat CPU 0 instructions: 157500787 cycles: 274645128 heartbeat IPC: 0.4139 cumulative IPC: 0.4484 (Simulation time: 00 hr 53 min 30 sec)
Heartbeat CPU 0 instructions: 158000791 cycles: 275884889 heartbeat IPC: 0.4033 cumulative IPC: 0.4481 (Simulation time: 00 hr 53 min 42 sec)
Heartbeat CPU 0 instructions: 158500797 cycles: 277193829 heartbeat IPC: 0.382 cumulative IPC: 0.4478 (Simulation time: 00 hr 53 min 55 sec)
Heartbeat CPU 0 instructions: 159000798 cycles: 278504199 heartbeat IPC: 0.3816 cumulative IPC: 0.4474 (Simulation time: 00 hr 54 min 08 sec)
Heartbeat CPU 0 instructions: 159500799 cycles: 279724799 heartbeat IPC: 0.4096 cumulative IPC: 0.4472 (Simulation time: 00 hr 54 min 20 sec)
Heartbeat CPU 0 instructions: 160000805 cycles: 280932788 heartbeat IPC: 0.4139 cumulative IPC: 0.4471 (Simulation time: 00 hr 54 min 32 sec)
Heartbeat CPU 0 instructions: 160500808 cycles: 281570113 heartbeat IPC: 0.7845 cumulative IPC: 0.448 (Simulation time: 00 hr 54 min 39 sec)
Heartbeat CPU 0 instructions: 161000810 cycles: 282709258 heartbeat IPC: 0.4389 cumulative IPC: 0.4479 (Simulation time: 00 hr 54 min 50 sec)
Heartbeat CPU 0 instructions: 161500811 cycles: 283655429 heartbeat IPC: 0.5284 cumulative IPC: 0.4482 (Simulation time: 00 hr 54 min 59 sec)
Heartbeat CPU 0 instructions: 162000811 cycles: 284823421 heartbeat IPC: 0.4281 cumulative IPC: 0.4481 (Simulation time: 00 hr 55 min 10 sec)
Heartbeat CPU 0 instructions: 162500812 cycles: 286027909 heartbeat IPC: 0.4151 cumulative IPC: 0.448 (Simulation time: 00 hr 55 min 21 sec)
Heartbeat CPU 0 instructions: 163000818 cycles: 287236256 heartbeat IPC: 0.4138 cumulative IPC: 0.4478 (Simulation time: 00 hr 55 min 33 sec)
Heartbeat CPU 0 instructions: 163500821 cycles: 288316535 heartbeat IPC: 0.4628 cumulative IPC: 0.4479 (Simulation time: 00 hr 55 min 43 sec)
Heartbeat CPU 0 instructions: 164000825 cycles: 289364009 heartbeat IPC: 0.4773 cumulative IPC: 0.448 (Simulation time: 00 hr 55 min 54 sec)
Heartbeat CPU 0 instructions: 164500825 cycles: 290413076 heartbeat IPC: 0.4766 cumulative IPC: 0.4481 (Simulation time: 00 hr 56 min 05 sec)
Heartbeat CPU 0 instructions: 165000826 cycles: 291462003 heartbeat IPC: 0.4767 cumulative IPC: 0.4482 (Simulation time: 00 hr 56 min 16 sec)
Heartbeat CPU 0 instructions: 165500828 cycles: 292415859 heartbeat IPC: 0.5242 cumulative IPC: 0.4485 (Simulation time: 00 hr 56 min 25 sec)
Heartbeat CPU 0 instructions: 166000828 cycles: 293302390 heartbeat IPC: 0.564 cumulative IPC: 0.4489 (Simulation time: 00 hr 56 min 34 sec)
Heartbeat CPU 0 instructions: 166500834 cycles: 293922942 heartbeat IPC: 0.8057 cumulative IPC: 0.4498 (Simulation time: 00 hr 56 min 40 sec)
Heartbeat CPU 0 instructions: 167000835 cycles: 294675433 heartbeat IPC: 0.6645 cumulative IPC: 0.4504 (Simulation time: 00 hr 56 min 48 sec)
Heartbeat CPU 0 instructions: 167500837 cycles: 295621844 heartbeat IPC: 0.5283 cumulative IPC: 0.4507 (Simulation time: 00 hr 56 min 57 sec)
Heartbeat CPU 0 instructions: 168000839 cycles: 296601672 heartbeat IPC: 0.5103 cumulative IPC: 0.4509 (Simulation time: 00 hr 57 min 07 sec)
Heartbeat CPU 0 instructions: 168500845 cycles: 297579201 heartbeat IPC: 0.5115 cumulative IPC: 0.4511 (Simulation time: 00 hr 57 min 17 sec)
Heartbeat CPU 0 instructions: 169000846 cycles: 298556950 heartbeat IPC: 0.5114 cumulative IPC: 0.4513 (Simulation time: 00 hr 57 min 26 sec)
Heartbeat CPU 0 instructions: 169500849 cycles: 299550840 heartbeat IPC: 0.5031 cumulative IPC: 0.4515 (Simulation time: 00 hr 57 min 36 sec)
Heartbeat CPU 0 instructions: 170000849 cycles: 300603615 heartbeat IPC: 0.4749 cumulative IPC: 0.4516 (Simulation time: 00 hr 57 min 47 sec)
Heartbeat CPU 0 instructions: 170500850 cycles: 301656344 heartbeat IPC: 0.475 cumulative IPC: 0.4517 (Simulation time: 00 hr 57 min 57 sec)
Heartbeat CPU 0 instructions: 171000850 cycles: 302649472 heartbeat IPC: 0.5035 cumulative IPC: 0.4519 (Simulation time: 00 hr 58 min 07 sec)
Heartbeat CPU 0 instructions: 171500853 cycles: 303625440 heartbeat IPC: 0.5123 cumulative IPC: 0.4521 (Simulation time: 00 hr 58 min 17 sec)
Heartbeat CPU 0 instructions: 172000853 cycles: 304212154 heartbeat IPC: 0.8522 cumulative IPC: 0.453 (Simulation time: 00 hr 58 min 23 sec)
Heartbeat CPU 0 instructions: 172500855 cycles: 305140383 heartbeat IPC: 0.5387 cumulative IPC: 0.4533 (Simulation time: 00 hr 58 min 32 sec)
Heartbeat CPU 0 instructions: 173000860 cycles: 305892264 heartbeat IPC: 0.665 cumulative IPC: 0.4539 (Simulation time: 00 hr 58 min 39 sec)
Heartbeat CPU 0 instructions: 173500862 cycles: 306840589 heartbeat IPC: 0.5272 cumulative IPC: 0.4541 (Simulation time: 00 hr 58 min 48 sec)
Heartbeat CPU 0 instructions: 174000868 cycles: 307818621 heartbeat IPC: 0.5112 cumulative IPC: 0.4543 (Simulation time: 00 hr 58 min 58 sec)
Heartbeat CPU 0 instructions: 174500871 cycles: 308794824 heartbeat IPC: 0.5122 cumulative IPC: 0.4545 (Simulation time: 00 hr 59 min 07 sec)
Heartbeat CPU 0 instructions: 175000873 cycles: 309754210 heartbeat IPC: 0.5212 cumulative IPC: 0.4548 (Simulation time: 00 hr 59 min 17 sec)
Heartbeat CPU 0 instructions: 175500879 cycles: 310804133 heartbeat IPC: 0.4762 cumulative IPC: 0.4549 (Simulation time: 00 hr 59 min 27 sec)
Heartbeat CPU 0 instructions: 176000881 cycles: 311854736 heartbeat IPC: 0.4759 cumulative IPC: 0.4549 (Simulation time: 00 hr 59 min 37 sec)
Heartbeat CPU 0 instructions: 176500887 cycles: 312905961 heartbeat IPC: 0.4756 cumulative IPC: 0.455 (Simulation time: 00 hr 59 min 48 sec)
Heartbeat CPU 0 instructions: 177000894 cycles: 313863813 heartbeat IPC: 0.522 cumulative IPC: 0.4552 (Simulation time: 00 hr 59 min 57 sec)
Heartbeat CPU 0 instructions: 177500897 cycles: 314843949 heartbeat IPC: 0.5101 cumulative IPC: 0.4554 (Simulation time: 01 hr 00 min 06 sec)
Heartbeat CPU 0 instructions: 178000898 cycles: 315394899 heartbeat IPC: 0.9075 cumulative IPC: 0.4563 (Simulation time: 01 hr 00 min 12 sec)
Heartbeat CPU 0 instructions: 178500901 cycles: 316144462 heartbeat IPC: 0.6671 cumulative IPC: 0.4569 (Simulation time: 01 hr 00 min 19 sec)
Heartbeat CPU 0 instructions: 179000905 cycles: 317087924 heartbeat IPC: 0.53 cumulative IPC: 0.4571 (Simulation time: 01 hr 00 min 28 sec)
Heartbeat CPU 0 instructions: 179500906 cycles: 318064888 heartbeat IPC: 0.5118 cumulative IPC: 0.4573 (Simulation time: 01 hr 00 min 37 sec)
Heartbeat CPU 0 instructions: 180000908 cycles: 319042747 heartbeat IPC: 0.5113 cumulative IPC: 0.4575 (Simulation time: 01 hr 00 min 47 sec)
Heartbeat CPU 0 instructions: 180500908 cycles: 320018904 heartbeat IPC: 0.5122 cumulative IPC: 0.4577 (Simulation time: 01 hr 00 min 56 sec)
Heartbeat CPU 0 instructions: 181000909 cycles: 321006600 heartbeat IPC: 0.5062 cumulative IPC: 0.4579 (Simulation time: 01 hr 01 min 05 sec)
Heartbeat CPU 0 instructions: 181500909 cycles: 322056843 heartbeat IPC: 0.4761 cumulative IPC: 0.4579 (Simulation time: 01 hr 01 min 15 sec)
Heartbeat CPU 0 instructions: 182000910 cycles: 323108400 heartbeat IPC: 0.4755 cumulative IPC: 0.458 (Simulation time: 01 hr 01 min 26 sec)
Heartbeat CPU 0 instructions: 182500910 cycles: 324110557 heartbeat IPC: 0.4989 cumulative IPC: 0.4581 (Simulation time: 01 hr 01 min 35 sec)
Heartbeat CPU 0 instructions: 183000910 cycles: 325085560 heartbeat IPC: 0.5128 cumulative IPC: 0.4583 (Simulation time: 01 hr 01 min 44 sec)
Heartbeat CPU 0 instructions: 183500914 cycles: 325756789 heartbeat IPC: 0.7449 cumulative IPC: 0.459 (Simulation time: 01 hr 01 min 51 sec)
Heartbeat CPU 0 instructions: 184000914 cycles: 326624168 heartbeat IPC: 0.5764 cumulative IPC: 0.4593 (Simulation time: 01 hr 01 min 59 sec)
Heartbeat CPU 0 instructions: 184500914 cycles: 327365770 heartbeat IPC: 0.6742 cumulative IPC: 0.4599 (Simulation time: 01 hr 02 min 06 sec)
Heartbeat CPU 0 instructions: 185000915 cycles: 328311427 heartbeat IPC: 0.5287 cumulative IPC: 0.4601 (Simulation time: 01 hr 02 min 15 sec)
Heartbeat CPU 0 instructions: 185500919 cycles: 329287765 heartbeat IPC: 0.5121 cumulative IPC: 0.4603 (Simulation time: 01 hr 02 min 24 sec)
Heartbeat CPU 0 instructions: 186000921 cycles: 330263196 heartbeat IPC: 0.5126 cumulative IPC: 0.4604 (Simulation time: 01 hr 02 min 33 sec)
Heartbeat CPU 0 instructions: 186500926 cycles: 331218752 heartbeat IPC: 0.5233 cumulative IPC: 0.4606 (Simulation time: 01 hr 02 min 42 sec)
Heartbeat CPU 0 instructions: 187000927 cycles: 332258080 heartbeat IPC: 0.4811 cumulative IPC: 0.4607 (Simulation time: 01 hr 02 min 52 sec)
Heartbeat CPU 0 instructions: 187500927 cycles: 333310626 heartbeat IPC: 0.475 cumulative IPC: 0.4608 (Simulation time: 01 hr 03 min 02 sec)
Heartbeat CPU 0 instructions: 188000928 cycles: 334360749 heartbeat IPC: 0.4761 cumulative IPC: 0.4608 (Simulation time: 01 hr 03 min 13 sec)
Heartbeat CPU 0 instructions: 188500932 cycles: 335323881 heartbeat IPC: 0.5191 cumulative IPC: 0.461 (Simulation time: 01 hr 03 min 22 sec)
Heartbeat CPU 0 instructions: 189000932 cycles: 336300206 heartbeat IPC: 0.5121 cumulative IPC: 0.4612 (Simulation time: 01 hr 03 min 31 sec)
Heartbeat CPU 0 instructions: 189500935 cycles: 336839815 heartbeat IPC: 0.9266 cumulative IPC: 0.462 (Simulation time: 01 hr 03 min 36 sec)
Heartbeat CPU 0 instructions: 190000935 cycles: 337597013 heartbeat IPC: 0.6603 cumulative IPC: 0.4625 (Simulation time: 01 hr 03 min 43 sec)
Heartbeat CPU 0 instructions: 190500936 cycles: 338535811 heartbeat IPC: 0.5326 cumulative IPC: 0.4627 (Simulation time: 01 hr 03 min 52 sec)
Heartbeat CPU 0 instructions: 191000942 cycles: 339514966 heartbeat IPC: 0.5107 cumulative IPC: 0.4629 (Simulation time: 01 hr 04 min 01 sec)
Heartbeat CPU 0 instructions: 191500943 cycles: 340492527 heartbeat IPC: 0.5115 cumulative IPC: 0.463 (Simulation time: 01 hr 04 min 10 sec)
Heartbeat CPU 0 instructions: 192000945 cycles: 341469112 heartbeat IPC: 0.512 cumulative IPC: 0.4632 (Simulation time: 01 hr 04 min 19 sec)
Heartbeat CPU 0 instructions: 192500945 cycles: 342448993 heartbeat IPC: 0.5103 cumulative IPC: 0.4633 (Simulation time: 01 hr 04 min 28 sec)
Heartbeat CPU 0 instructions: 193000951 cycles: 343500214 heartbeat IPC: 0.4756 cumulative IPC: 0.4634 (Simulation time: 01 hr 04 min 38 sec)
Heartbeat CPU 0 instructions: 193500954 cycles: 344551051 heartbeat IPC: 0.4758 cumulative IPC: 0.4634 (Simulation time: 01 hr 04 min 49 sec)
Heartbeat CPU 0 instructions: 194000959 cycles: 345560334 heartbeat IPC: 0.4954 cumulative IPC: 0.4635 (Simulation time: 01 hr 04 min 58 sec)
Heartbeat CPU 0 instructions: 194500964 cycles: 346536969 heartbeat IPC: 0.512 cumulative IPC: 0.4637 (Simulation time: 01 hr 05 min 07 sec)
Heartbeat CPU 0 instructions: 195000966 cycles: 347266529 heartbeat IPC: 0.6853 cumulative IPC: 0.4642 (Simulation time: 01 hr 05 min 14 sec)
Heartbeat CPU 0 instructions: 195500966 cycles: 348054340 heartbeat IPC: 0.6347 cumulative IPC: 0.4646 (Simulation time: 01 hr 05 min 21 sec)
Heartbeat CPU 0 instructions: 196000967 cycles: 348799526 heartbeat IPC: 0.671 cumulative IPC: 0.4651 (Simulation time: 01 hr 05 min 28 sec)
Heartbeat CPU 0 instructions: 196500972 cycles: 349745552 heartbeat IPC: 0.5285 cumulative IPC: 0.4653 (Simulation time: 01 hr 05 min 37 sec)
Heartbeat CPU 0 instructions: 197000974 cycles: 350725583 heartbeat IPC: 0.5102 cumulative IPC: 0.4654 (Simulation time: 01 hr 05 min 46 sec)
Heartbeat CPU 0 instructions: 197500974 cycles: 351701858 heartbeat IPC: 0.5122 cumulative IPC: 0.4656 (Simulation time: 01 hr 05 min 55 sec)
Heartbeat CPU 0 instructions: 198000980 cycles: 352677729 heartbeat IPC: 0.5124 cumulative IPC: 0.4657 (Simulation time: 01 hr 06 min 04 sec)
Heartbeat CPU 0 instructions: 198500981 cycles: 353689177 heartbeat IPC: 0.4943 cumulative IPC: 0.4658 (Simulation time: 01 hr 06 min 13 sec)
Heartbeat CPU 0 instructions: 199000985 cycles: 354740612 heartbeat IPC: 0.4755 cumulative IPC: 0.4658 (Simulation time: 01 hr 06 min 23 sec)
Heartbeat CPU 0 instructions: 199500986 cycles: 355791842 heartbeat IPC: 0.4756 cumulative IPC: 0.4659 (Simulation time: 01 hr 06 min 33 sec)
Heartbeat CPU 0 instructions: 200000992 cycles: 356765807 heartbeat IPC: 0.5134 cumulative IPC: 0.466 (Simulation time: 01 hr 06 min 42 sec)
Heartbeat CPU 0 instructions: 200500992 cycles: 357742433 heartbeat IPC: 0.512 cumulative IPC: 0.4662 (Simulation time: 01 hr 06 min 51 sec)
Heartbeat CPU 0 instructions: 201000997 cycles: 358300138 heartbeat IPC: 0.8965 cumulative IPC: 0.4669 (Simulation time: 01 hr 06 min 56 sec)
Heartbeat CPU 0 instructions: 201501001 cycles: 359140826 heartbeat IPC: 0.5948 cumulative IPC: 0.4672 (Simulation time: 01 hr 07 min 04 sec)
Heartbeat CPU 0 instructions: 202001007 cycles: 360027752 heartbeat IPC: 0.5638 cumulative IPC: 0.4675 (Simulation time: 01 hr 07 min 12 sec)
Heartbeat CPU 0 instructions: 202501009 cycles: 360973896 heartbeat IPC: 0.5285 cumulative IPC: 0.4677 (Simulation time: 01 hr 07 min 20 sec)
Heartbeat CPU 0 instructions: 203001009 cycles: 361950653 heartbeat IPC: 0.5119 cumulative IPC: 0.4678 (Simulation time: 01 hr 07 min 29 sec)
Heartbeat CPU 0 instructions: 203501011 cycles: 362927218 heartbeat IPC: 0.512 cumulative IPC: 0.4679 (Simulation time: 01 hr 07 min 38 sec)
Heartbeat CPU 0 instructions: 204001013 cycles: 363900505 heartbeat IPC: 0.5137 cumulative IPC: 0.4681 (Simulation time: 01 hr 07 min 47 sec)
Heartbeat CPU 0 instructions: 204501013 cycles: 364950752 heartbeat IPC: 0.4761 cumulative IPC: 0.4681 (Simulation time: 01 hr 07 min 57 sec)
Heartbeat CPU 0 instructions: 205001014 cycles: 366002487 heartbeat IPC: 0.4754 cumulative IPC: 0.4681 (Simulation time: 01 hr 08 min 06 sec)
Heartbeat CPU 0 instructions: 205501014 cycles: 367018103 heartbeat IPC: 0.4923 cumulative IPC: 0.4682 (Simulation time: 01 hr 08 min 16 sec)
Heartbeat CPU 0 instructions: 206001014 cycles: 367996089 heartbeat IPC: 0.5113 cumulative IPC: 0.4683 (Simulation time: 01 hr 08 min 25 sec)
Heartbeat CPU 0 instructions: 206501018 cycles: 368805951 heartbeat IPC: 0.6174 cumulative IPC: 0.4687 (Simulation time: 01 hr 08 min 32 sec)
Heartbeat CPU 0 instructions: 207001023 cycles: 369530852 heartbeat IPC: 0.6898 cumulative IPC: 0.4692 (Simulation time: 01 hr 08 min 39 sec)
Heartbeat CPU 0 instructions: 207501028 cycles: 370277487 heartbeat IPC: 0.6697 cumulative IPC: 0.4696 (Simulation time: 01 hr 08 min 45 sec)
Heartbeat CPU 0 instructions: 208001030 cycles: 371224573 heartbeat IPC: 0.5279 cumulative IPC: 0.4698 (Simulation time: 01 hr 08 min 54 sec)
Heartbeat CPU 0 instructions: 208501032 cycles: 372205295 heartbeat IPC: 0.5098 cumulative IPC: 0.4699 (Simulation time: 01 hr 09 min 02 sec)
Heartbeat CPU 0 instructions: 209001033 cycles: 373183440 heartbeat IPC: 0.5112 cumulative IPC: 0.47 (Simulation time: 01 hr 09 min 11 sec)
Heartbeat CPU 0 instructions: 209501033 cycles: 374161242 heartbeat IPC: 0.5114 cumulative IPC: 0.4701 (Simulation time: 01 hr 09 min 20 sec)
Heartbeat CPU 0 instructions: 210001035 cycles: 375162938 heartbeat IPC: 0.4992 cumulative IPC: 0.4702 (Simulation time: 01 hr 09 min 29 sec)
Heartbeat CPU 0 instructions: 210501035 cycles: 376211353 heartbeat IPC: 0.4769 cumulative IPC: 0.4702 (Simulation time: 01 hr 09 min 39 sec)
Heartbeat CPU 0 instructions: 211001042 cycles: 377260514 heartbeat IPC: 0.4766 cumulative IPC: 0.4703 (Simulation time: 01 hr 09 min 48 sec)
Heartbeat CPU 0 instructions: 211501045 cycles: 378242299 heartbeat IPC: 0.5093 cumulative IPC: 0.4704 (Simulation time: 01 hr 09 min 57 sec)
Heartbeat CPU 0 instructions: 212001045 cycles: 379218385 heartbeat IPC: 0.5122 cumulative IPC: 0.4705 (Simulation time: 01 hr 10 min 06 sec)
Heartbeat CPU 0 instructions: 212501048 cycles: 379758615 heartbeat IPC: 0.9255 cumulative IPC: 0.4712 (Simulation time: 01 hr 10 min 11 sec)
Heartbeat CPU 0 instructions: 213001049 cycles: 380675811 heartbeat IPC: 0.5451 cumulative IPC: 0.4714 (Simulation time: 01 hr 10 min 19 sec)
Heartbeat CPU 0 instructions: 213501051 cycles: 381483668 heartbeat IPC: 0.6189 cumulative IPC: 0.4717 (Simulation time: 01 hr 10 min 26 sec)
Heartbeat CPU 0 instructions: 214001055 cycles: 382432107 heartbeat IPC: 0.5272 cumulative IPC: 0.4719 (Simulation time: 01 hr 10 min 34 sec)
Heartbeat CPU 0 instructions: 214501056 cycles: 383410362 heartbeat IPC: 0.5111 cumulative IPC: 0.472 (Simulation time: 01 hr 10 min 43 sec)
Heartbeat CPU 0 instructions: 215001058 cycles: 384387890 heartbeat IPC: 0.5115 cumulative IPC: 0.4721 (Simulation time: 01 hr 10 min 52 sec)
Heartbeat CPU 0 instructions: 215501063 cycles: 385351050 heartbeat IPC: 0.5191 cumulative IPC: 0.4722 (Simulation time: 01 hr 11 min 00 sec)
Heartbeat CPU 0 instructions: 216001063 cycles: 386403189 heartbeat IPC: 0.4752 cumulative IPC: 0.4722 (Simulation time: 01 hr 11 min 10 sec)
Heartbeat CPU 0 instructions: 216501068 cycles: 387454083 heartbeat IPC: 0.4758 cumulative IPC: 0.4723 (Simulation time: 01 hr 11 min 20 sec)
Heartbeat CPU 0 instructions: 217001068 cycles: 388506770 heartbeat IPC: 0.475 cumulative IPC: 0.4723 (Simulation time: 01 hr 11 min 29 sec)
Heartbeat CPU 0 instructions: 217501068 cycles: 389454717 heartbeat IPC: 0.5275 cumulative IPC: 0.4724 (Simulation time: 01 hr 11 min 37 sec)
Heartbeat CPU 0 instructions: 218001070 cycles: 390333570 heartbeat IPC: 0.5689 cumulative IPC: 0.4727 (Simulation time: 01 hr 11 min 45 sec)
Heartbeat CPU 0 instructions: 218501075 cycles: 390974307 heartbeat IPC: 0.7804 cumulative IPC: 0.4732 (Simulation time: 01 hr 11 min 51 sec)
Heartbeat CPU 0 instructions: 219001078 cycles: 391715384 heartbeat IPC: 0.6747 cumulative IPC: 0.4736 (Simulation time: 01 hr 11 min 58 sec)
Heartbeat CPU 0 instructions: 219501080 cycles: 392661456 heartbeat IPC: 0.5285 cumulative IPC: 0.4738 (Simulation time: 01 hr 12 min 06 sec)
Heartbeat CPU 0 instructions: 220001080 cycles: 393640361 heartbeat IPC: 0.5108 cumulative IPC: 0.4739 (Simulation time: 01 hr 12 min 15 sec)
Heartbeat CPU 0 instructions: 220501081 cycles: 394616538 heartbeat IPC: 0.5122 cumulative IPC: 0.474 (Simulation time: 01 hr 12 min 23 sec)
Heartbeat CPU 0 instructions: 221001083 cycles: 395591603 heartbeat IPC: 0.5128 cumulative IPC: 0.4741 (Simulation time: 01 hr 12 min 32 sec)
Heartbeat CPU 0 instructions: 221501085 cycles: 396590577 heartbeat IPC: 0.5005 cumulative IPC: 0.4742 (Simulation time: 01 hr 12 min 41 sec)
Heartbeat CPU 0 instructions: 222001085 cycles: 397640434 heartbeat IPC: 0.4763 cumulative IPC: 0.4742 (Simulation time: 01 hr 12 min 51 sec)
Heartbeat CPU 0 instructions: 222501088 cycles: 398691055 heartbeat IPC: 0.4759 cumulative IPC: 0.4742 (Simulation time: 01 hr 13 min 01 sec)
Heartbeat CPU 0 instructions: 223001094 cycles: 399681347 heartbeat IPC: 0.5049 cumulative IPC: 0.4742 (Simulation time: 01 hr 13 min 09 sec)
Heartbeat CPU 0 instructions: 223501101 cycles: 400656567 heartbeat IPC: 0.5127 cumulative IPC: 0.4743 (Simulation time: 01 hr 13 min 18 sec)
Heartbeat CPU 0 instructions: 224001103 cycles: 401222129 heartbeat IPC: 0.8841 cumulative IPC: 0.475 (Simulation time: 01 hr 13 min 23 sec)
Heartbeat CPU 0 instructions: 224501104 cycles: 402164683 heartbeat IPC: 0.5305 cumulative IPC: 0.4751 (Simulation time: 01 hr 13 min 32 sec)
Heartbeat CPU 0 instructions: 225001108 cycles: 402920947 heartbeat IPC: 0.6612 cumulative IPC: 0.4755 (Simulation time: 01 hr 13 min 38 sec)
Heartbeat CPU 0 instructions: 225501110 cycles: 403867101 heartbeat IPC: 0.5285 cumulative IPC: 0.4756 (Simulation time: 01 hr 13 min 47 sec)
Heartbeat CPU 0 instructions: 226001110 cycles: 404847434 heartbeat IPC: 0.51 cumulative IPC: 0.4757 (Simulation time: 01 hr 13 min 55 sec)
Heartbeat CPU 0 instructions: 226501117 cycles: 405824225 heartbeat IPC: 0.5119 cumulative IPC: 0.4758 (Simulation time: 01 hr 14 min 04 sec)
Heartbeat CPU 0 instructions: 227001117 cycles: 406780814 heartbeat IPC: 0.5227 cumulative IPC: 0.4759 (Simulation time: 01 hr 14 min 13 sec)
Heartbeat CPU 0 instructions: 227501117 cycles: 407830666 heartbeat IPC: 0.4763 cumulative IPC: 0.476 (Simulation time: 01 hr 14 min 22 sec)
Heartbeat CPU 0 instructions: 228001124 cycles: 408881148 heartbeat IPC: 0.476 cumulative IPC: 0.476 (Simulation time: 01 hr 14 min 32 sec)
Heartbeat CPU 0 instructions: 228501130 cycles: 409932487 heartbeat IPC: 0.4756 cumulative IPC: 0.4759 (Simulation time: 01 hr 14 min 42 sec)
Heartbeat CPU 0 instructions: 229001130 cycles: 410887124 heartbeat IPC: 0.5238 cumulative IPC: 0.4761 (Simulation time: 01 hr 14 min 50 sec)
Heartbeat CPU 0 instructions: 229501131 cycles: 411837885 heartbeat IPC: 0.5259 cumulative IPC: 0.4762 (Simulation time: 01 hr 14 min 58 sec)
Heartbeat CPU 0 instructions: 230001132 cycles: 412400400 heartbeat IPC: 0.8889 cumulative IPC: 0.4768 (Simulation time: 01 hr 15 min 04 sec)
Heartbeat CPU 0 instructions: 230501135 cycles: 413148527 heartbeat IPC: 0.6683 cumulative IPC: 0.4772 (Simulation time: 01 hr 15 min 10 sec)
Heartbeat CPU 0 instructions: 231001141 cycles: 414094709 heartbeat IPC: 0.5284 cumulative IPC: 0.4773 (Simulation time: 01 hr 15 min 19 sec)
Heartbeat CPU 0 instructions: 231501142 cycles: 415068503 heartbeat IPC: 0.5135 cumulative IPC: 0.4774 (Simulation time: 01 hr 15 min 27 sec)
Heartbeat CPU 0 instructions: 232001145 cycles: 416042523 heartbeat IPC: 0.5133 cumulative IPC: 0.4775 (Simulation time: 01 hr 15 min 36 sec)
Heartbeat CPU 0 instructions: 232501146 cycles: 417014734 heartbeat IPC: 0.5143 cumulative IPC: 0.4776 (Simulation time: 01 hr 15 min 44 sec)
Heartbeat CPU 0 instructions: 233001147 cycles: 418004323 heartbeat IPC: 0.5053 cumulative IPC: 0.4777 (Simulation time: 01 hr 15 min 53 sec)
Heartbeat CPU 0 instructions: 233501147 cycles: 419052775 heartbeat IPC: 0.4769 cumulative IPC: 0.4777 (Simulation time: 01 hr 16 min 03 sec)
Heartbeat CPU 0 instructions: 234001148 cycles: 420101445 heartbeat IPC: 0.4768 cumulative IPC: 0.4777 (Simulation time: 01 hr 16 min 13 sec)
Heartbeat CPU 0 instructions: 234501148 cycles: 421100250 heartbeat IPC: 0.5006 cumulative IPC: 0.4777 (Simulation time: 01 hr 16 min 22 sec)
Heartbeat CPU 0 instructions: 235001152 cycles: 422073731 heartbeat IPC: 0.5136 cumulative IPC: 0.4778 (Simulation time: 01 hr 16 min 30 sec)
Heartbeat CPU 0 instructions: 235501155 cycles: 422707915 heartbeat IPC: 0.7884 cumulative IPC: 0.4783 (Simulation time: 01 hr 16 min 36 sec)
Heartbeat CPU 0 instructions: 236001160 cycles: 423600364 heartbeat IPC: 0.5603 cumulative IPC: 0.4785 (Simulation time: 01 hr 16 min 44 sec)
Heartbeat CPU 0 instructions: 236501162 cycles: 424345768 heartbeat IPC: 0.6708 cumulative IPC: 0.4789 (Simulation time: 01 hr 16 min 50 sec)
Heartbeat CPU 0 instructions: 237001163 cycles: 425291421 heartbeat IPC: 0.5287 cumulative IPC: 0.479 (Simulation time: 01 hr 16 min 59 sec)
Heartbeat CPU 0 instructions: 237501167 cycles: 426271964 heartbeat IPC: 0.5099 cumulative IPC: 0.4791 (Simulation time: 01 hr 17 min 07 sec)
Heartbeat CPU 0 instructions: 238001167 cycles: 427248173 heartbeat IPC: 0.5122 cumulative IPC: 0.4792 (Simulation time: 01 hr 17 min 16 sec)
Heartbeat CPU 0 instructions: 238501169 cycles: 428198824 heartbeat IPC: 0.526 cumulative IPC: 0.4793 (Simulation time: 01 hr 17 min 24 sec)
Heartbeat CPU 0 instructions: 239001169 cycles: 429249976 heartbeat IPC: 0.4757 cumulative IPC: 0.4793 (Simulation time: 01 hr 17 min 34 sec)
Heartbeat CPU 0 instructions: 239501176 cycles: 430302501 heartbeat IPC: 0.4751 cumulative IPC: 0.4792 (Simulation time: 01 hr 17 min 44 sec)
Heartbeat CPU 0 instructions: 240001176 cycles: 431352718 heartbeat IPC: 0.4761 cumulative IPC: 0.4792 (Simulation time: 01 hr 17 min 53 sec)
Heartbeat CPU 0 instructions: 240501180 cycles: 432317857 heartbeat IPC: 0.5181 cumulative IPC: 0.4793 (Simulation time: 01 hr 18 min 02 sec)
Heartbeat CPU 0 instructions: 241001183 cycles: 433292694 heartbeat IPC: 0.5129 cumulative IPC: 0.4794 (Simulation time: 01 hr 18 min 10 sec)
Heartbeat CPU 0 instructions: 241501184 cycles: 433834979 heartbeat IPC: 0.922 cumulative IPC: 0.48 (Simulation time: 01 hr 18 min 15 sec)
Heartbeat CPU 0 instructions: 242001187 cycles: 434581722 heartbeat IPC: 0.6696 cumulative IPC: 0.4804 (Simulation time: 01 hr 18 min 22 sec)
Heartbeat CPU 0 instructions: 242501187 cycles: 435528042 heartbeat IPC: 0.5284 cumulative IPC: 0.4805 (Simulation time: 01 hr 18 min 30 sec)
Heartbeat CPU 0 instructions: 243001190 cycles: 436506301 heartbeat IPC: 0.5111 cumulative IPC: 0.4806 (Simulation time: 01 hr 18 min 39 sec)
Heartbeat CPU 0 instructions: 243501190 cycles: 437484112 heartbeat IPC: 0.5113 cumulative IPC: 0.4806 (Simulation time: 01 hr 18 min 47 sec)
Heartbeat CPU 0 instructions: 244001190 cycles: 438462255 heartbeat IPC: 0.5112 cumulative IPC: 0.4807 (Simulation time: 01 hr 18 min 56 sec)
Heartbeat CPU 0 instructions: 244501190 cycles: 439447981 heartbeat IPC: 0.5072 cumulative IPC: 0.4808 (Simulation time: 01 hr 19 min 05 sec)
Heartbeat CPU 0 instructions: 245001192 cycles: 440497053 heartbeat IPC: 0.4766 cumulative IPC: 0.4808 (Simulation time: 01 hr 19 min 14 sec)
Heartbeat CPU 0 instructions: 245501193 cycles: 441546657 heartbeat IPC: 0.4764 cumulative IPC: 0.4808 (Simulation time: 01 hr 19 min 24 sec)
Heartbeat CPU 0 instructions: 246001200 cycles: 442553605 heartbeat IPC: 0.4966 cumulative IPC: 0.4808 (Simulation time: 01 hr 19 min 33 sec)
Heartbeat CPU 0 instructions: 246501200 cycles: 443527249 heartbeat IPC: 0.5135 cumulative IPC: 0.4809 (Simulation time: 01 hr 19 min 42 sec)
Heartbeat CPU 0 instructions: 247001203 cycles: 444501318 heartbeat IPC: 0.5133 cumulative IPC: 0.4809 (Simulation time: 01 hr 19 min 50 sec)
Heartbeat CPU 0 instructions: 247501205 cycles: 445475965 heartbeat IPC: 0.513 cumulative IPC: 0.481 (Simulation time: 01 hr 19 min 59 sec)
Heartbeat CPU 0 instructions: 248001211 cycles: 446450895 heartbeat IPC: 0.5129 cumulative IPC: 0.4811 (Simulation time: 01 hr 20 min 07 sec)
Heartbeat CPU 0 instructions: 248501212 cycles: 447428240 heartbeat IPC: 0.5116 cumulative IPC: 0.4812 (Simulation time: 01 hr 20 min 16 sec)
Heartbeat CPU 0 instructions: 249001212 cycles: 448405429 heartbeat IPC: 0.5117 cumulative IPC: 0.4812 (Simulation time: 01 hr 20 min 24 sec)
Heartbeat CPU 0 instructions: 249501212 cycles: 449383580 heartbeat IPC: 0.5112 cumulative IPC: 0.4813 (Simulation time: 01 hr 20 min 33 sec)
Simulation finished CPU 0 instructions: 200000005 cycles: 415466290 cumulative IPC: 0.4814 (Simulation time: 01 hr 20 min 42 sec)
Simulation complete CPU 0 instructions: 200000005 cycles: 415466290 cumulative IPC: 0.4814 (Simulation time: 01 hr 20 min 42 sec)

ChampSim completed all CPUs

=== Simulation ===
CPU 0 runs /local-ssd/ben/dpc4-traces/ai-ml/biogpt.cpp-ggml-model-tocilizumab.3.champsimtrace.gz

Region of Interest Statistics

CPU 0 cumulative IPC: 0.4814 instructions: 200000005 cycles: 415466290
CPU 0 Branch Prediction Accuracy: 97.81% MPKI: 2.078 Average ROB Occupancy at Mispredict: 356.3
Branch type MPKI
BRANCH_DIRECT_JUMP: 0.00233
BRANCH_INDIRECT: 0.006125
BRANCH_CONDITIONAL: 2.057
BRANCH_DIRECT_CALL: 0.00287
BRANCH_INDIRECT_CALL: 0.00153
BRANCH_RETURN: 0.007845

cpu0->cpu0_STLB TOTAL        ACCESS:     454489 HIT:      26989 MISS:     427500 MSHR_MERGE:          0
cpu0->cpu0_STLB LOAD         ACCESS:     454489 HIT:      26989 MISS:     427500 MSHR_MERGE:          0
cpu0->cpu0_STLB RFO          ACCESS:          0 HIT:          0 MISS:          0 MSHR_MERGE:          0
cpu0->cpu0_STLB PREFETCH     ACCESS:          0 HIT:          0 MISS:          0 MSHR_MERGE:          0
cpu0->cpu0_STLB WRITE        ACCESS:          0 HIT:          0 MISS:          0 MSHR_MERGE:          0
cpu0->cpu0_STLB TRANSLATION  ACCESS:          0 HIT:          0 MISS:          0 MSHR_MERGE:          0
cpu0->cpu0_STLB PREFETCH REQUESTED:          0 ISSUED:          0 USEFUL:          0 USELESS:          0
cpu0->cpu0_STLB AVERAGE MISS LATENCY: 157 cycles
cpu0->cpu0_L2C TOTAL        ACCESS:   29331880 HIT:    1983194 MISS:   27348686 MSHR_MERGE:          0
cpu0->cpu0_L2C LOAD         ACCESS:   23779644 HIT:    1523065 MISS:   22256579 MSHR_MERGE:          0
cpu0->cpu0_L2C RFO          ACCESS:     206497 HIT:      44552 MISS:     161945 MSHR_MERGE:          0
cpu0->cpu0_L2C PREFETCH     ACCESS:    4974983 HIT:     108649 MISS:    4866334 MSHR_MERGE:          0
cpu0->cpu0_L2C WRITE        ACCESS:     314137 HIT:     306076 MISS:       8061 MSHR_MERGE:          0
cpu0->cpu0_L2C TRANSLATION  ACCESS:      56619 HIT:        852 MISS:      55767 MSHR_MERGE:          0
cpu0->cpu0_L2C PREFETCH REQUESTED:          0 ISSUED:          0 USEFUL:          0 USELESS:          0
cpu0->cpu0_L2C AVERAGE MISS LATENCY: 197.4 cycles
cpu0->cpu0_L1I TOTAL        ACCESS:   30557342 HIT:   30555486 MISS:       1856 MSHR_MERGE:        236
cpu0->cpu0_L1I LOAD         ACCESS:   30557342 HIT:   30555486 MISS:       1856 MSHR_MERGE:        236
cpu0->cpu0_L1I RFO          ACCESS:          0 HIT:          0 MISS:          0 MSHR_MERGE:          0
cpu0->cpu0_L1I PREFETCH     ACCESS:          0 HIT:          0 MISS:          0 MSHR_MERGE:          0
cpu0->cpu0_L1I WRITE        ACCESS:          0 HIT:          0 MISS:          0 MSHR_MERGE:          0
cpu0->cpu0_L1I TRANSLATION  ACCESS:          0 HIT:          0 MISS:          0 MSHR_MERGE:          0
cpu0->cpu0_L1I PREFETCH REQUESTED:          0 ISSUED:          0 USEFUL:          0 USELESS:          0
cpu0->cpu0_L1I AVERAGE MISS LATENCY: 230 cycles
cpu0->cpu0_L1D TOTAL        ACCESS:   79308268 HIT:   34823414 MISS:   44484854 MSHR_MERGE:   15468707
cpu0->cpu0_L1D LOAD         ACCESS:   61856573 HIT:   30838883 MISS:   31017690 MSHR_MERGE:    7239665
cpu0->cpu0_L1D RFO          ACCESS:          0 HIT:          0 MISS:          0 MSHR_MERGE:          0
cpu0->cpu0_L1D PREFETCH     ACCESS:   11310736 HIT:     849649 MISS:   10461087 MSHR_MERGE:    5486101
cpu0->cpu0_L1D WRITE        ACCESS:    5286770 HIT:    2338305 MISS:    2948465 MSHR_MERGE:    2741948
cpu0->cpu0_L1D TRANSLATION  ACCESS:     854189 HIT:     796577 MISS:      57612 MSHR_MERGE:        993
cpu0->cpu0_L1D PREFETCH REQUESTED:   26683624 ISSUED:   11310741 USEFUL:    4901387 USELESS:      73594
cpu0->cpu0_L1D AVERAGE MISS LATENCY: 186.4 cycles
cpu0->cpu0_ITLB TOTAL        ACCESS:   20169405 HIT:   20169118 MISS:        287 MSHR_MERGE:         98
cpu0->cpu0_ITLB LOAD         ACCESS:   20169405 HIT:   20169118 MISS:        287 MSHR_MERGE:         98
cpu0->cpu0_ITLB RFO          ACCESS:          0 HIT:          0 MISS:          0 MSHR_MERGE:          0
cpu0->cpu0_ITLB PREFETCH     ACCESS:          0 HIT:          0 MISS:          0 MSHR_MERGE:          0
cpu0->cpu0_ITLB WRITE        ACCESS:          0 HIT:          0 MISS:          0 MSHR_MERGE:          0
cpu0->cpu0_ITLB TRANSLATION  ACCESS:          0 HIT:          0 MISS:          0 MSHR_MERGE:          0
cpu0->cpu0_ITLB PREFETCH REQUESTED:          0 ISSUED:          0 USEFUL:          0 USELESS:          0
cpu0->cpu0_ITLB AVERAGE MISS LATENCY: 225.9 cycles
cpu0->cpu0_DTLB TOTAL        ACCESS:   75561343 HIT:   71096465 MISS:    4464878 MSHR_MERGE:    4010578
cpu0->cpu0_DTLB LOAD         ACCESS:   75561343 HIT:   71096465 MISS:    4464878 MSHR_MERGE:    4010578
cpu0->cpu0_DTLB RFO          ACCESS:          0 HIT:          0 MISS:          0 MSHR_MERGE:          0
cpu0->cpu0_DTLB PREFETCH     ACCESS:          0 HIT:          0 MISS:          0 MSHR_MERGE:          0
cpu0->cpu0_DTLB WRITE        ACCESS:          0 HIT:          0 MISS:          0 MSHR_MERGE:          0
cpu0->cpu0_DTLB TRANSLATION  ACCESS:          0 HIT:          0 MISS:          0 MSHR_MERGE:          0
cpu0->cpu0_DTLB PREFETCH REQUESTED:          0 ISSUED:          0 USEFUL:          0 USELESS:          0
cpu0->cpu0_DTLB AVERAGE MISS LATENCY: 153.6 cycles
cpu0->LLC TOTAL        ACCESS:   27536864 HIT:     412979 MISS:   27123885 MSHR_MERGE:          0
cpu0->LLC LOAD         ACCESS:   22256578 HIT:      49391 MISS:   22207187 MSHR_MERGE:          0
cpu0->LLC RFO          ACCESS:     161945 HIT:     105122 MISS:      56823 MSHR_MERGE:          0
cpu0->LLC PREFETCH     ACCESS:    4866334 HIT:     105476 MISS:    4760858 MSHR_MERGE:          0
cpu0->LLC WRITE        ACCESS:     196240 HIT:     152718 MISS:      43522 MSHR_MERGE:          0
cpu0->LLC TRANSLATION  ACCESS:      55767 HIT:        272 MISS:      55495 MSHR_MERGE:          0
cpu0->LLC PREFETCH REQUESTED:          0 ISSUED:          0 USEFUL:          0 USELESS:          0
cpu0->LLC AVERAGE MISS LATENCY: 175.4 cycles

DRAM Statistics

Channel 0 RQ ROW_BUFFER_HIT:   12832449
  ROW_BUFFER_MISS:   14247509
  AVG DBUS CONGESTED CYCLE: 4.011
Channel 0 WQ ROW_BUFFER_HIT:       1655
  ROW_BUFFER_MISS:      30116
  FULL:         47
Channel 0 REFRESHES ISSUED:      34620
