[VMEM] WARNING: physical memory size is smaller than virtual memory size.

*** ChampSim Multicore Out-of-Order Simulator ***
Warmup Instructions: 50000000
Simulation Instructions: 200000000
Number of CPUs: 1
Page size: 4096
Core 0: /local-ssd/ben/dpc4-traces/Graph/Ligra/ligra_Components.com-lj.ungraph.gcc_6.3.0_O3.drop_15750M.length_250M.champsimtrace.xz
 L1D Berti prefetcher
Off-chip DRAM Size: 64 GiB Channels: 1 Width: 64-bit Data Rate: 4807 MT/s
Heartbeat CPU 0 instructions: 500002 cycles: 138995 heartbeat IPC: 3.597 cumulative IPC: 3.597 (Simulation time: 00 hr 00 min 03 sec)
Heartbeat CPU 0 instructions: 1000007 cycles: 276531 heartbeat IPC: 3.635 cumulative IPC: 3.616 (Simulation time: 00 hr 00 min 05 sec)
Heartbeat CPU 0 instructions: 1500014 cycles: 413283 heartbeat IPC: 3.656 cumulative IPC: 3.63 (Simulation time: 00 hr 00 min 08 sec)
Heartbeat CPU 0 instructions: 2000014 cycles: 549509 heartbeat IPC: 3.67 cumulative IPC: 3.64 (Simulation time: 00 hr 00 min 10 sec)
Heartbeat CPU 0 instructions: 2500016 cycles: 687076 heartbeat IPC: 3.635 cumulative IPC: 3.639 (Simulation time: 00 hr 00 min 13 sec)
Heartbeat CPU 0 instructions: 3000018 cycles: 825814 heartbeat IPC: 3.604 cumulative IPC: 3.633 (Simulation time: 00 hr 00 min 15 sec)
Heartbeat CPU 0 instructions: 3500024 cycles: 963543 heartbeat IPC: 3.63 cumulative IPC: 3.632 (Simulation time: 00 hr 00 min 18 sec)
Heartbeat CPU 0 instructions: 4000030 cycles: 1100795 heartbeat IPC: 3.643 cumulative IPC: 3.634 (Simulation time: 00 hr 00 min 20 sec)
Heartbeat CPU 0 instructions: 4500030 cycles: 1237706 heartbeat IPC: 3.652 cumulative IPC: 3.636 (Simulation time: 00 hr 00 min 22 sec)
Heartbeat CPU 0 instructions: 5000035 cycles: 1374981 heartbeat IPC: 3.642 cumulative IPC: 3.636 (Simulation time: 00 hr 00 min 25 sec)
Heartbeat CPU 0 instructions: 5500041 cycles: 1512396 heartbeat IPC: 3.639 cumulative IPC: 3.637 (Simulation time: 00 hr 00 min 27 sec)
Heartbeat CPU 0 instructions: 6000046 cycles: 1649823 heartbeat IPC: 3.638 cumulative IPC: 3.637 (Simulation time: 00 hr 00 min 30 sec)
Heartbeat CPU 0 instructions: 6500051 cycles: 1787600 heartbeat IPC: 3.629 cumulative IPC: 3.636 (Simulation time: 00 hr 00 min 32 sec)
Heartbeat CPU 0 instructions: 7000058 cycles: 1926170 heartbeat IPC: 3.608 cumulative IPC: 3.634 (Simulation time: 00 hr 00 min 35 sec)
Heartbeat CPU 0 instructions: 7500058 cycles: 2063752 heartbeat IPC: 3.634 cumulative IPC: 3.634 (Simulation time: 00 hr 00 min 37 sec)
Heartbeat CPU 0 instructions: 8000062 cycles: 2200430 heartbeat IPC: 3.658 cumulative IPC: 3.636 (Simulation time: 00 hr 00 min 40 sec)
Heartbeat CPU 0 instructions: 8500062 cycles: 2337842 heartbeat IPC: 3.639 cumulative IPC: 3.636 (Simulation time: 00 hr 00 min 42 sec)
Heartbeat CPU 0 instructions: 9000067 cycles: 2475155 heartbeat IPC: 3.641 cumulative IPC: 3.636 (Simulation time: 00 hr 00 min 45 sec)
Heartbeat CPU 0 instructions: 9500070 cycles: 2615107 heartbeat IPC: 3.573 cumulative IPC: 3.633 (Simulation time: 00 hr 00 min 47 sec)
Heartbeat CPU 0 instructions: 10000074 cycles: 2752740 heartbeat IPC: 3.633 cumulative IPC: 3.633 (Simulation time: 00 hr 00 min 50 sec)
Heartbeat CPU 0 instructions: 10500075 cycles: 2888800 heartbeat IPC: 3.675 cumulative IPC: 3.635 (Simulation time: 00 hr 00 min 52 sec)
Heartbeat CPU 0 instructions: 11000078 cycles: 3025037 heartbeat IPC: 3.67 cumulative IPC: 3.636 (Simulation time: 00 hr 00 min 55 sec)
Heartbeat CPU 0 instructions: 11500078 cycles: 3161549 heartbeat IPC: 3.663 cumulative IPC: 3.637 (Simulation time: 00 hr 00 min 57 sec)
Heartbeat CPU 0 instructions: 12000079 cycles: 3298218 heartbeat IPC: 3.658 cumulative IPC: 3.638 (Simulation time: 00 hr 01 min 00 sec)
Heartbeat CPU 0 instructions: 12500080 cycles: 3435726 heartbeat IPC: 3.636 cumulative IPC: 3.638 (Simulation time: 00 hr 01 min 02 sec)
Heartbeat CPU 0 instructions: 13000085 cycles: 3572786 heartbeat IPC: 3.648 cumulative IPC: 3.639 (Simulation time: 00 hr 01 min 05 sec)
Heartbeat CPU 0 instructions: 13500090 cycles: 3709995 heartbeat IPC: 3.644 cumulative IPC: 3.639 (Simulation time: 00 hr 01 min 07 sec)
Heartbeat CPU 0 instructions: 14000093 cycles: 3846984 heartbeat IPC: 3.65 cumulative IPC: 3.639 (Simulation time: 00 hr 01 min 10 sec)
Heartbeat CPU 0 instructions: 14500094 cycles: 3983839 heartbeat IPC: 3.654 cumulative IPC: 3.64 (Simulation time: 00 hr 01 min 12 sec)
Heartbeat CPU 0 instructions: 15000098 cycles: 4122030 heartbeat IPC: 3.618 cumulative IPC: 3.639 (Simulation time: 00 hr 01 min 15 sec)
Heartbeat CPU 0 instructions: 15500104 cycles: 4259106 heartbeat IPC: 3.648 cumulative IPC: 3.639 (Simulation time: 00 hr 01 min 17 sec)
Heartbeat CPU 0 instructions: 16000105 cycles: 4396366 heartbeat IPC: 3.643 cumulative IPC: 3.639 (Simulation time: 00 hr 01 min 20 sec)
Heartbeat CPU 0 instructions: 16500105 cycles: 4533953 heartbeat IPC: 3.634 cumulative IPC: 3.639 (Simulation time: 00 hr 01 min 22 sec)
Heartbeat CPU 0 instructions: 17000109 cycles: 4671210 heartbeat IPC: 3.643 cumulative IPC: 3.639 (Simulation time: 00 hr 01 min 24 sec)
Heartbeat CPU 0 instructions: 17500110 cycles: 4808242 heartbeat IPC: 3.649 cumulative IPC: 3.64 (Simulation time: 00 hr 01 min 27 sec)
Heartbeat CPU 0 instructions: 18000112 cycles: 4944509 heartbeat IPC: 3.669 cumulative IPC: 3.64 (Simulation time: 00 hr 01 min 29 sec)
Heartbeat CPU 0 instructions: 18500116 cycles: 5081254 heartbeat IPC: 3.656 cumulative IPC: 3.641 (Simulation time: 00 hr 01 min 32 sec)
Heartbeat CPU 0 instructions: 19000122 cycles: 5217159 heartbeat IPC: 3.679 cumulative IPC: 3.642 (Simulation time: 00 hr 01 min 34 sec)
Heartbeat CPU 0 instructions: 19500126 cycles: 5354138 heartbeat IPC: 3.65 cumulative IPC: 3.642 (Simulation time: 00 hr 01 min 37 sec)
Heartbeat CPU 0 instructions: 20000130 cycles: 5491110 heartbeat IPC: 3.65 cumulative IPC: 3.642 (Simulation time: 00 hr 01 min 39 sec)
Heartbeat CPU 0 instructions: 20500137 cycles: 5627218 heartbeat IPC: 3.674 cumulative IPC: 3.643 (Simulation time: 00 hr 01 min 42 sec)
Heartbeat CPU 0 instructions: 21000144 cycles: 5764225 heartbeat IPC: 3.649 cumulative IPC: 3.643 (Simulation time: 00 hr 01 min 44 sec)
Heartbeat CPU 0 instructions: 21500146 cycles: 5899981 heartbeat IPC: 3.683 cumulative IPC: 3.644 (Simulation time: 00 hr 01 min 47 sec)
Heartbeat CPU 0 instructions: 22000152 cycles: 6036200 heartbeat IPC: 3.671 cumulative IPC: 3.645 (Simulation time: 00 hr 01 min 49 sec)
Heartbeat CPU 0 instructions: 22500152 cycles: 6172732 heartbeat IPC: 3.662 cumulative IPC: 3.645 (Simulation time: 00 hr 01 min 52 sec)
Heartbeat CPU 0 instructions: 23000154 cycles: 6308865 heartbeat IPC: 3.673 cumulative IPC: 3.646 (Simulation time: 00 hr 01 min 54 sec)
Heartbeat CPU 0 instructions: 23500156 cycles: 6450174 heartbeat IPC: 3.538 cumulative IPC: 3.643 (Simulation time: 00 hr 01 min 57 sec)
Heartbeat CPU 0 instructions: 24000160 cycles: 6587549 heartbeat IPC: 3.64 cumulative IPC: 3.643 (Simulation time: 00 hr 01 min 59 sec)
Heartbeat CPU 0 instructions: 24500166 cycles: 6722989 heartbeat IPC: 3.692 cumulative IPC: 3.644 (Simulation time: 00 hr 02 min 02 sec)
Heartbeat CPU 0 instructions: 25000172 cycles: 6859969 heartbeat IPC: 3.65 cumulative IPC: 3.644 (Simulation time: 00 hr 02 min 04 sec)
Heartbeat CPU 0 instructions: 25500174 cycles: 6996556 heartbeat IPC: 3.661 cumulative IPC: 3.645 (Simulation time: 00 hr 02 min 07 sec)
Heartbeat CPU 0 instructions: 26000176 cycles: 7132238 heartbeat IPC: 3.685 cumulative IPC: 3.645 (Simulation time: 00 hr 02 min 09 sec)
Heartbeat CPU 0 instructions: 26500183 cycles: 7267726 heartbeat IPC: 3.69 cumulative IPC: 3.646 (Simulation time: 00 hr 02 min 11 sec)
Heartbeat CPU 0 instructions: 27000186 cycles: 7401481 heartbeat IPC: 3.738 cumulative IPC: 3.648 (Simulation time: 00 hr 02 min 14 sec)
Heartbeat CPU 0 instructions: 27500190 cycles: 7536485 heartbeat IPC: 3.704 cumulative IPC: 3.649 (Simulation time: 00 hr 02 min 16 sec)
Heartbeat CPU 0 instructions: 28000190 cycles: 7671925 heartbeat IPC: 3.692 cumulative IPC: 3.65 (Simulation time: 00 hr 02 min 19 sec)
Heartbeat CPU 0 instructions: 28500196 cycles: 7806928 heartbeat IPC: 3.704 cumulative IPC: 3.651 (Simulation time: 00 hr 02 min 21 sec)
Heartbeat CPU 0 instructions: 29000200 cycles: 7940700 heartbeat IPC: 3.738 cumulative IPC: 3.652 (Simulation time: 00 hr 02 min 24 sec)
Heartbeat CPU 0 instructions: 29500202 cycles: 8075379 heartbeat IPC: 3.713 cumulative IPC: 3.653 (Simulation time: 00 hr 02 min 26 sec)
Heartbeat CPU 0 instructions: 30000204 cycles: 8207760 heartbeat IPC: 3.777 cumulative IPC: 3.655 (Simulation time: 00 hr 02 min 29 sec)
Heartbeat CPU 0 instructions: 30500210 cycles: 8339925 heartbeat IPC: 3.783 cumulative IPC: 3.657 (Simulation time: 00 hr 02 min 31 sec)
Heartbeat CPU 0 instructions: 31000210 cycles: 8476560 heartbeat IPC: 3.659 cumulative IPC: 3.657 (Simulation time: 00 hr 02 min 34 sec)
Heartbeat CPU 0 instructions: 31500211 cycles: 8614239 heartbeat IPC: 3.632 cumulative IPC: 3.657 (Simulation time: 00 hr 02 min 36 sec)
Heartbeat CPU 0 instructions: 32000212 cycles: 8751332 heartbeat IPC: 3.647 cumulative IPC: 3.657 (Simulation time: 00 hr 02 min 39 sec)
Heartbeat CPU 0 instructions: 32500214 cycles: 8885203 heartbeat IPC: 3.735 cumulative IPC: 3.658 (Simulation time: 00 hr 02 min 41 sec)
Heartbeat CPU 0 instructions: 33000218 cycles: 9020139 heartbeat IPC: 3.705 cumulative IPC: 3.659 (Simulation time: 00 hr 02 min 44 sec)
Heartbeat CPU 0 instructions: 33500221 cycles: 9156035 heartbeat IPC: 3.679 cumulative IPC: 3.659 (Simulation time: 00 hr 02 min 46 sec)
Heartbeat CPU 0 instructions: 34000224 cycles: 9292394 heartbeat IPC: 3.667 cumulative IPC: 3.659 (Simulation time: 00 hr 02 min 49 sec)
Heartbeat CPU 0 instructions: 34500230 cycles: 9428252 heartbeat IPC: 3.68 cumulative IPC: 3.659 (Simulation time: 00 hr 02 min 51 sec)
Heartbeat CPU 0 instructions: 35000230 cycles: 9563494 heartbeat IPC: 3.697 cumulative IPC: 3.66 (Simulation time: 00 hr 02 min 53 sec)
Heartbeat CPU 0 instructions: 35500232 cycles: 9701122 heartbeat IPC: 3.633 cumulative IPC: 3.659 (Simulation time: 00 hr 02 min 56 sec)
Heartbeat CPU 0 instructions: 36000234 cycles: 9836912 heartbeat IPC: 3.682 cumulative IPC: 3.66 (Simulation time: 00 hr 02 min 58 sec)
Heartbeat CPU 0 instructions: 36500234 cycles: 9972539 heartbeat IPC: 3.687 cumulative IPC: 3.66 (Simulation time: 00 hr 03 min 01 sec)
Heartbeat CPU 0 instructions: 37000236 cycles: 10107293 heartbeat IPC: 3.71 cumulative IPC: 3.661 (Simulation time: 00 hr 03 min 03 sec)
Heartbeat CPU 0 instructions: 37500238 cycles: 10242878 heartbeat IPC: 3.688 cumulative IPC: 3.661 (Simulation time: 00 hr 03 min 06 sec)
Heartbeat CPU 0 instructions: 38000241 cycles: 10379858 heartbeat IPC: 3.65 cumulative IPC: 3.661 (Simulation time: 00 hr 03 min 08 sec)
Heartbeat CPU 0 instructions: 38500244 cycles: 10515149 heartbeat IPC: 3.696 cumulative IPC: 3.661 (Simulation time: 00 hr 03 min 11 sec)
Heartbeat CPU 0 instructions: 39000248 cycles: 10648366 heartbeat IPC: 3.753 cumulative IPC: 3.663 (Simulation time: 00 hr 03 min 13 sec)
Heartbeat CPU 0 instructions: 39500250 cycles: 10782644 heartbeat IPC: 3.724 cumulative IPC: 3.663 (Simulation time: 00 hr 03 min 16 sec)
Heartbeat CPU 0 instructions: 40000250 cycles: 10918453 heartbeat IPC: 3.682 cumulative IPC: 3.664 (Simulation time: 00 hr 03 min 18 sec)
Heartbeat CPU 0 instructions: 40500250 cycles: 11055753 heartbeat IPC: 3.642 cumulative IPC: 3.663 (Simulation time: 00 hr 03 min 21 sec)
Heartbeat CPU 0 instructions: 41000255 cycles: 11190894 heartbeat IPC: 3.7 cumulative IPC: 3.664 (Simulation time: 00 hr 03 min 23 sec)
Heartbeat CPU 0 instructions: 41500255 cycles: 11327950 heartbeat IPC: 3.648 cumulative IPC: 3.664 (Simulation time: 00 hr 03 min 26 sec)
Heartbeat CPU 0 instructions: 42000255 cycles: 11463385 heartbeat IPC: 3.692 cumulative IPC: 3.664 (Simulation time: 00 hr 03 min 28 sec)
Heartbeat CPU 0 instructions: 42500262 cycles: 11598555 heartbeat IPC: 3.699 cumulative IPC: 3.664 (Simulation time: 00 hr 03 min 31 sec)
Heartbeat CPU 0 instructions: 43000266 cycles: 11732953 heartbeat IPC: 3.72 cumulative IPC: 3.665 (Simulation time: 00 hr 03 min 33 sec)
Heartbeat CPU 0 instructions: 43500272 cycles: 11867702 heartbeat IPC: 3.711 cumulative IPC: 3.665 (Simulation time: 00 hr 03 min 36 sec)
Heartbeat CPU 0 instructions: 44000274 cycles: 12002985 heartbeat IPC: 3.696 cumulative IPC: 3.666 (Simulation time: 00 hr 03 min 38 sec)
Heartbeat CPU 0 instructions: 44500280 cycles: 12137724 heartbeat IPC: 3.711 cumulative IPC: 3.666 (Simulation time: 00 hr 03 min 40 sec)
Heartbeat CPU 0 instructions: 45000286 cycles: 12273395 heartbeat IPC: 3.685 cumulative IPC: 3.666 (Simulation time: 00 hr 03 min 43 sec)
Heartbeat CPU 0 instructions: 45500292 cycles: 12405721 heartbeat IPC: 3.779 cumulative IPC: 3.668 (Simulation time: 00 hr 03 min 45 sec)
Heartbeat CPU 0 instructions: 46000296 cycles: 12540361 heartbeat IPC: 3.714 cumulative IPC: 3.668 (Simulation time: 00 hr 03 min 48 sec)
Heartbeat CPU 0 instructions: 46500298 cycles: 12673552 heartbeat IPC: 3.754 cumulative IPC: 3.669 (Simulation time: 00 hr 03 min 50 sec)
Heartbeat CPU 0 instructions: 47000300 cycles: 12807664 heartbeat IPC: 3.728 cumulative IPC: 3.67 (Simulation time: 00 hr 03 min 53 sec)
Heartbeat CPU 0 instructions: 47500302 cycles: 12943335 heartbeat IPC: 3.685 cumulative IPC: 3.67 (Simulation time: 00 hr 03 min 55 sec)
Heartbeat CPU 0 instructions: 48000302 cycles: 13077550 heartbeat IPC: 3.725 cumulative IPC: 3.67 (Simulation time: 00 hr 03 min 58 sec)
Heartbeat CPU 0 instructions: 48500306 cycles: 13211685 heartbeat IPC: 3.728 cumulative IPC: 3.671 (Simulation time: 00 hr 04 min 00 sec)
Heartbeat CPU 0 instructions: 49000310 cycles: 13346246 heartbeat IPC: 3.716 cumulative IPC: 3.671 (Simulation time: 00 hr 04 min 03 sec)
Heartbeat CPU 0 instructions: 49500311 cycles: 13480367 heartbeat IPC: 3.728 cumulative IPC: 3.672 (Simulation time: 00 hr 04 min 05 sec)
Warmup halting CPU 0 at instruction 50000006 cycle 13615069 for remainder of phase
Warmup finished CPU 0 instructions: 50000006 cycles: 13615069 cumulative IPC: 3.672 (Simulation time: 00 hr 04 min 08 sec)
Warmup complete CPU 0 instructions: 50000006 cycles: 13615069 cumulative IPC: 3.672 (Simulation time: 00 hr 04 min 08 sec)
Heartbeat CPU 0 instructions: 50000318 cycles: 13615108 heartbeat IPC: 3.711 cumulative IPC: 8 (Simulation time: 00 hr 04 min 08 sec)
Heartbeat CPU 0 instructions: 50500320 cycles: 14022754 heartbeat IPC: 1.227 cumulative IPC: 1.227 (Simulation time: 00 hr 04 min 13 sec)
Heartbeat CPU 0 instructions: 51000323 cycles: 14424476 heartbeat IPC: 1.245 cumulative IPC: 1.236 (Simulation time: 00 hr 04 min 17 sec)
Heartbeat CPU 0 instructions: 51500326 cycles: 14830027 heartbeat IPC: 1.233 cumulative IPC: 1.235 (Simulation time: 00 hr 04 min 22 sec)
Heartbeat CPU 0 instructions: 52000331 cycles: 15212867 heartbeat IPC: 1.306 cumulative IPC: 1.252 (Simulation time: 00 hr 04 min 27 sec)
Heartbeat CPU 0 instructions: 52500336 cycles: 15615123 heartbeat IPC: 1.243 cumulative IPC: 1.25 (Simulation time: 00 hr 04 min 32 sec)
Heartbeat CPU 0 instructions: 53000343 cycles: 15996367 heartbeat IPC: 1.312 cumulative IPC: 1.26 (Simulation time: 00 hr 04 min 37 sec)
Heartbeat CPU 0 instructions: 53500344 cycles: 16400839 heartbeat IPC: 1.236 cumulative IPC: 1.257 (Simulation time: 00 hr 04 min 42 sec)
Heartbeat CPU 0 instructions: 54000348 cycles: 16792806 heartbeat IPC: 1.276 cumulative IPC: 1.259 (Simulation time: 00 hr 04 min 46 sec)
Heartbeat CPU 0 instructions: 54500355 cycles: 17174535 heartbeat IPC: 1.31 cumulative IPC: 1.264 (Simulation time: 00 hr 04 min 51 sec)
Heartbeat CPU 0 instructions: 55000355 cycles: 17578060 heartbeat IPC: 1.239 cumulative IPC: 1.262 (Simulation time: 00 hr 04 min 56 sec)
Heartbeat CPU 0 instructions: 55500355 cycles: 17968700 heartbeat IPC: 1.28 cumulative IPC: 1.263 (Simulation time: 00 hr 05 min 01 sec)
Heartbeat CPU 0 instructions: 56000356 cycles: 18356095 heartbeat IPC: 1.291 cumulative IPC: 1.266 (Simulation time: 00 hr 05 min 06 sec)
Heartbeat CPU 0 instructions: 56500356 cycles: 18749431 heartbeat IPC: 1.271 cumulative IPC: 1.266 (Simulation time: 00 hr 05 min 10 sec)
Heartbeat CPU 0 instructions: 57000360 cycles: 19134989 heartbeat IPC: 1.297 cumulative IPC: 1.268 (Simulation time: 00 hr 05 min 15 sec)
Heartbeat CPU 0 instructions: 57500365 cycles: 19534990 heartbeat IPC: 1.25 cumulative IPC: 1.267 (Simulation time: 00 hr 05 min 20 sec)
Heartbeat CPU 0 instructions: 58000371 cycles: 19935834 heartbeat IPC: 1.247 cumulative IPC: 1.266 (Simulation time: 00 hr 05 min 25 sec)
Heartbeat CPU 0 instructions: 58500371 cycles: 20326530 heartbeat IPC: 1.28 cumulative IPC: 1.267 (Simulation time: 00 hr 05 min 30 sec)
Heartbeat CPU 0 instructions: 59000371 cycles: 20732944 heartbeat IPC: 1.23 cumulative IPC: 1.264 (Simulation time: 00 hr 05 min 35 sec)
Heartbeat CPU 0 instructions: 59500377 cycles: 21113194 heartbeat IPC: 1.315 cumulative IPC: 1.267 (Simulation time: 00 hr 05 min 39 sec)
Heartbeat CPU 0 instructions: 60000380 cycles: 21525960 heartbeat IPC: 1.211 cumulative IPC: 1.264 (Simulation time: 00 hr 05 min 44 sec)
Heartbeat CPU 0 instructions: 60500380 cycles: 21909703 heartbeat IPC: 1.303 cumulative IPC: 1.266 (Simulation time: 00 hr 05 min 49 sec)
Heartbeat CPU 0 instructions: 61000380 cycles: 22329479 heartbeat IPC: 1.191 cumulative IPC: 1.262 (Simulation time: 00 hr 05 min 54 sec)
Heartbeat CPU 0 instructions: 61500384 cycles: 22729456 heartbeat IPC: 1.25 cumulative IPC: 1.262 (Simulation time: 00 hr 05 min 59 sec)
Heartbeat CPU 0 instructions: 62000388 cycles: 23109503 heartbeat IPC: 1.316 cumulative IPC: 1.264 (Simulation time: 00 hr 06 min 04 sec)
Heartbeat CPU 0 instructions: 62500392 cycles: 23485457 heartbeat IPC: 1.33 cumulative IPC: 1.266 (Simulation time: 00 hr 06 min 08 sec)
Heartbeat CPU 0 instructions: 63000392 cycles: 23859350 heartbeat IPC: 1.337 cumulative IPC: 1.269 (Simulation time: 00 hr 06 min 13 sec)
Heartbeat CPU 0 instructions: 63500395 cycles: 24243744 heartbeat IPC: 1.301 cumulative IPC: 1.27 (Simulation time: 00 hr 06 min 18 sec)
Heartbeat CPU 0 instructions: 64000396 cycles: 24645764 heartbeat IPC: 1.244 cumulative IPC: 1.269 (Simulation time: 00 hr 06 min 23 sec)
Heartbeat CPU 0 instructions: 64500400 cycles: 25043000 heartbeat IPC: 1.259 cumulative IPC: 1.269 (Simulation time: 00 hr 06 min 28 sec)
Heartbeat CPU 0 instructions: 65000400 cycles: 25459536 heartbeat IPC: 1.2 cumulative IPC: 1.266 (Simulation time: 00 hr 06 min 33 sec)
Heartbeat CPU 0 instructions: 65500404 cycles: 25839040 heartbeat IPC: 1.318 cumulative IPC: 1.268 (Simulation time: 00 hr 06 min 38 sec)
Heartbeat CPU 0 instructions: 66000405 cycles: 26233653 heartbeat IPC: 1.267 cumulative IPC: 1.268 (Simulation time: 00 hr 06 min 42 sec)
Heartbeat CPU 0 instructions: 66500411 cycles: 26638513 heartbeat IPC: 1.235 cumulative IPC: 1.267 (Simulation time: 00 hr 06 min 47 sec)
Heartbeat CPU 0 instructions: 67000416 cycles: 27030523 heartbeat IPC: 1.275 cumulative IPC: 1.267 (Simulation time: 00 hr 06 min 52 sec)
Heartbeat CPU 0 instructions: 67500416 cycles: 27457160 heartbeat IPC: 1.172 cumulative IPC: 1.264 (Simulation time: 00 hr 06 min 57 sec)
Heartbeat CPU 0 instructions: 68000419 cycles: 27841271 heartbeat IPC: 1.302 cumulative IPC: 1.265 (Simulation time: 00 hr 07 min 02 sec)
Heartbeat CPU 0 instructions: 68500426 cycles: 28256979 heartbeat IPC: 1.203 cumulative IPC: 1.264 (Simulation time: 00 hr 07 min 07 sec)
Heartbeat CPU 0 instructions: 69000429 cycles: 28689126 heartbeat IPC: 1.157 cumulative IPC: 1.26 (Simulation time: 00 hr 07 min 12 sec)
Heartbeat CPU 0 instructions: 69500434 cycles: 29111420 heartbeat IPC: 1.184 cumulative IPC: 1.258 (Simulation time: 00 hr 07 min 17 sec)
Heartbeat CPU 0 instructions: 70000436 cycles: 29590340 heartbeat IPC: 1.044 cumulative IPC: 1.252 (Simulation time: 00 hr 07 min 22 sec)
Heartbeat CPU 0 instructions: 70500437 cycles: 29993509 heartbeat IPC: 1.24 cumulative IPC: 1.252 (Simulation time: 00 hr 07 min 27 sec)
Heartbeat CPU 0 instructions: 71000440 cycles: 30404626 heartbeat IPC: 1.216 cumulative IPC: 1.251 (Simulation time: 00 hr 07 min 31 sec)
Heartbeat CPU 0 instructions: 71500447 cycles: 30809063 heartbeat IPC: 1.236 cumulative IPC: 1.25 (Simulation time: 00 hr 07 min 36 sec)
Heartbeat CPU 0 instructions: 72000448 cycles: 31194701 heartbeat IPC: 1.297 cumulative IPC: 1.251 (Simulation time: 00 hr 07 min 41 sec)
Heartbeat CPU 0 instructions: 72500452 cycles: 31594839 heartbeat IPC: 1.25 cumulative IPC: 1.251 (Simulation time: 00 hr 07 min 46 sec)
Heartbeat CPU 0 instructions: 73000459 cycles: 32012391 heartbeat IPC: 1.197 cumulative IPC: 1.25 (Simulation time: 00 hr 07 min 50 sec)
Heartbeat CPU 0 instructions: 73500465 cycles: 32451512 heartbeat IPC: 1.139 cumulative IPC: 1.248 (Simulation time: 00 hr 07 min 55 sec)
Heartbeat CPU 0 instructions: 74000468 cycles: 32900269 heartbeat IPC: 1.114 cumulative IPC: 1.245 (Simulation time: 00 hr 08 min 01 sec)
Heartbeat CPU 0 instructions: 74500472 cycles: 33286852 heartbeat IPC: 1.293 cumulative IPC: 1.245 (Simulation time: 00 hr 08 min 05 sec)
Heartbeat CPU 0 instructions: 75000474 cycles: 33676096 heartbeat IPC: 1.285 cumulative IPC: 1.246 (Simulation time: 00 hr 08 min 10 sec)
Heartbeat CPU 0 instructions: 75500475 cycles: 34081415 heartbeat IPC: 1.234 cumulative IPC: 1.246 (Simulation time: 00 hr 08 min 15 sec)
Heartbeat CPU 0 instructions: 76000480 cycles: 34504238 heartbeat IPC: 1.183 cumulative IPC: 1.245 (Simulation time: 00 hr 08 min 20 sec)
Heartbeat CPU 0 instructions: 76500484 cycles: 34917288 heartbeat IPC: 1.211 cumulative IPC: 1.244 (Simulation time: 00 hr 08 min 24 sec)
Heartbeat CPU 0 instructions: 77000487 cycles: 35324207 heartbeat IPC: 1.229 cumulative IPC: 1.244 (Simulation time: 00 hr 08 min 29 sec)
Heartbeat CPU 0 instructions: 77500487 cycles: 35735034 heartbeat IPC: 1.217 cumulative IPC: 1.243 (Simulation time: 00 hr 08 min 34 sec)
Heartbeat CPU 0 instructions: 78000492 cycles: 36169237 heartbeat IPC: 1.152 cumulative IPC: 1.241 (Simulation time: 00 hr 08 min 39 sec)
Heartbeat CPU 0 instructions: 78500498 cycles: 36569375 heartbeat IPC: 1.25 cumulative IPC: 1.242 (Simulation time: 00 hr 08 min 44 sec)
Heartbeat CPU 0 instructions: 79000498 cycles: 36983202 heartbeat IPC: 1.208 cumulative IPC: 1.241 (Simulation time: 00 hr 08 min 48 sec)
Heartbeat CPU 0 instructions: 79500498 cycles: 37393376 heartbeat IPC: 1.219 cumulative IPC: 1.241 (Simulation time: 00 hr 08 min 53 sec)
Heartbeat CPU 0 instructions: 80000504 cycles: 37816291 heartbeat IPC: 1.182 cumulative IPC: 1.24 (Simulation time: 00 hr 08 min 58 sec)
Heartbeat CPU 0 instructions: 80500506 cycles: 38238551 heartbeat IPC: 1.184 cumulative IPC: 1.239 (Simulation time: 00 hr 09 min 03 sec)
Heartbeat CPU 0 instructions: 81000510 cycles: 38675284 heartbeat IPC: 1.145 cumulative IPC: 1.237 (Simulation time: 00 hr 09 min 08 sec)
Heartbeat CPU 0 instructions: 81500513 cycles: 39104420 heartbeat IPC: 1.165 cumulative IPC: 1.236 (Simulation time: 00 hr 09 min 13 sec)
Heartbeat CPU 0 instructions: 82000514 cycles: 39496888 heartbeat IPC: 1.274 cumulative IPC: 1.236 (Simulation time: 00 hr 09 min 17 sec)
Heartbeat CPU 0 instructions: 82500517 cycles: 39899464 heartbeat IPC: 1.242 cumulative IPC: 1.236 (Simulation time: 00 hr 09 min 22 sec)
Heartbeat CPU 0 instructions: 83000522 cycles: 40292443 heartbeat IPC: 1.272 cumulative IPC: 1.237 (Simulation time: 00 hr 09 min 27 sec)
Heartbeat CPU 0 instructions: 83500528 cycles: 40726096 heartbeat IPC: 1.153 cumulative IPC: 1.236 (Simulation time: 00 hr 09 min 32 sec)
Heartbeat CPU 0 instructions: 84000528 cycles: 41129872 heartbeat IPC: 1.238 cumulative IPC: 1.236 (Simulation time: 00 hr 09 min 36 sec)
Heartbeat CPU 0 instructions: 84500533 cycles: 41534223 heartbeat IPC: 1.237 cumulative IPC: 1.236 (Simulation time: 00 hr 09 min 41 sec)
Heartbeat CPU 0 instructions: 85000533 cycles: 41950076 heartbeat IPC: 1.202 cumulative IPC: 1.235 (Simulation time: 00 hr 09 min 46 sec)
Heartbeat CPU 0 instructions: 85500537 cycles: 42373223 heartbeat IPC: 1.182 cumulative IPC: 1.234 (Simulation time: 00 hr 09 min 51 sec)
Heartbeat CPU 0 instructions: 86000538 cycles: 42794229 heartbeat IPC: 1.188 cumulative IPC: 1.234 (Simulation time: 00 hr 09 min 56 sec)
Heartbeat CPU 0 instructions: 86500541 cycles: 43228270 heartbeat IPC: 1.152 cumulative IPC: 1.233 (Simulation time: 00 hr 10 min 01 sec)
Heartbeat CPU 0 instructions: 87000544 cycles: 43643244 heartbeat IPC: 1.205 cumulative IPC: 1.232 (Simulation time: 00 hr 10 min 05 sec)
Heartbeat CPU 0 instructions: 87500544 cycles: 44070594 heartbeat IPC: 1.17 cumulative IPC: 1.231 (Simulation time: 00 hr 10 min 10 sec)
Heartbeat CPU 0 instructions: 88000545 cycles: 44497413 heartbeat IPC: 1.171 cumulative IPC: 1.23 (Simulation time: 00 hr 10 min 15 sec)
Heartbeat CPU 0 instructions: 88500551 cycles: 44985976 heartbeat IPC: 1.023 cumulative IPC: 1.227 (Simulation time: 00 hr 10 min 20 sec)
Heartbeat CPU 0 instructions: 89000553 cycles: 45410221 heartbeat IPC: 1.179 cumulative IPC: 1.227 (Simulation time: 00 hr 10 min 25 sec)
Heartbeat CPU 0 instructions: 89500555 cycles: 45826950 heartbeat IPC: 1.2 cumulative IPC: 1.226 (Simulation time: 00 hr 10 min 30 sec)
Heartbeat CPU 0 instructions: 90000560 cycles: 46254680 heartbeat IPC: 1.169 cumulative IPC: 1.226 (Simulation time: 00 hr 10 min 35 sec)
Heartbeat CPU 0 instructions: 90500561 cycles: 46681916 heartbeat IPC: 1.17 cumulative IPC: 1.225 (Simulation time: 00 hr 10 min 39 sec)
Heartbeat CPU 0 instructions: 91000561 cycles: 47124673 heartbeat IPC: 1.129 cumulative IPC: 1.224 (Simulation time: 00 hr 10 min 44 sec)
Heartbeat CPU 0 instructions: 91500563 cycles: 47577635 heartbeat IPC: 1.104 cumulative IPC: 1.222 (Simulation time: 00 hr 10 min 49 sec)
Heartbeat CPU 0 instructions: 92000566 cycles: 48022773 heartbeat IPC: 1.123 cumulative IPC: 1.221 (Simulation time: 00 hr 10 min 54 sec)
Heartbeat CPU 0 instructions: 92500568 cycles: 48545059 heartbeat IPC: 0.9573 cumulative IPC: 1.217 (Simulation time: 00 hr 11 min 00 sec)
Heartbeat CPU 0 instructions: 93000569 cycles: 48949612 heartbeat IPC: 1.236 cumulative IPC: 1.217 (Simulation time: 00 hr 11 min 04 sec)
Heartbeat CPU 0 instructions: 93500572 cycles: 49416636 heartbeat IPC: 1.071 cumulative IPC: 1.215 (Simulation time: 00 hr 11 min 09 sec)
Heartbeat CPU 0 instructions: 94000572 cycles: 49853004 heartbeat IPC: 1.146 cumulative IPC: 1.214 (Simulation time: 00 hr 11 min 14 sec)
Heartbeat CPU 0 instructions: 94500576 cycles: 50256386 heartbeat IPC: 1.24 cumulative IPC: 1.214 (Simulation time: 00 hr 11 min 19 sec)
Heartbeat CPU 0 instructions: 95000579 cycles: 50719654 heartbeat IPC: 1.079 cumulative IPC: 1.213 (Simulation time: 00 hr 11 min 24 sec)
Heartbeat CPU 0 instructions: 95500582 cycles: 51173997 heartbeat IPC: 1.1 cumulative IPC: 1.211 (Simulation time: 00 hr 11 min 29 sec)
Heartbeat CPU 0 instructions: 96000584 cycles: 51709169 heartbeat IPC: 0.9343 cumulative IPC: 1.208 (Simulation time: 00 hr 11 min 34 sec)
Heartbeat CPU 0 instructions: 96500584 cycles: 52175526 heartbeat IPC: 1.072 cumulative IPC: 1.206 (Simulation time: 00 hr 11 min 39 sec)
Heartbeat CPU 0 instructions: 97000585 cycles: 52617024 heartbeat IPC: 1.133 cumulative IPC: 1.205 (Simulation time: 00 hr 11 min 44 sec)
Heartbeat CPU 0 instructions: 97500589 cycles: 52967850 heartbeat IPC: 1.425 cumulative IPC: 1.207 (Simulation time: 00 hr 11 min 48 sec)
Heartbeat CPU 0 instructions: 98000589 cycles: 53406427 heartbeat IPC: 1.14 cumulative IPC: 1.206 (Simulation time: 00 hr 11 min 53 sec)
Heartbeat CPU 0 instructions: 98500589 cycles: 53855614 heartbeat IPC: 1.113 cumulative IPC: 1.205 (Simulation time: 00 hr 11 min 58 sec)
Heartbeat CPU 0 instructions: 99000592 cycles: 54306079 heartbeat IPC: 1.11 cumulative IPC: 1.204 (Simulation time: 00 hr 12 min 03 sec)
Heartbeat CPU 0 instructions: 99500592 cycles: 54762125 heartbeat IPC: 1.096 cumulative IPC: 1.203 (Simulation time: 00 hr 12 min 08 sec)
Heartbeat CPU 0 instructions: 100000595 cycles: 55203413 heartbeat IPC: 1.133 cumulative IPC: 1.202 (Simulation time: 00 hr 12 min 13 sec)
Heartbeat CPU 0 instructions: 100500600 cycles: 55674151 heartbeat IPC: 1.062 cumulative IPC: 1.201 (Simulation time: 00 hr 12 min 18 sec)
Heartbeat CPU 0 instructions: 101000600 cycles: 56118096 heartbeat IPC: 1.126 cumulative IPC: 1.2 (Simulation time: 00 hr 12 min 23 sec)
Heartbeat CPU 0 instructions: 101500604 cycles: 56607146 heartbeat IPC: 1.022 cumulative IPC: 1.198 (Simulation time: 00 hr 12 min 28 sec)
Heartbeat CPU 0 instructions: 102000606 cycles: 57048356 heartbeat IPC: 1.133 cumulative IPC: 1.197 (Simulation time: 00 hr 12 min 33 sec)
Heartbeat CPU 0 instructions: 102500610 cycles: 57535216 heartbeat IPC: 1.027 cumulative IPC: 1.195 (Simulation time: 00 hr 12 min 38 sec)
Heartbeat CPU 0 instructions: 103000610 cycles: 57979333 heartbeat IPC: 1.126 cumulative IPC: 1.195 (Simulation time: 00 hr 12 min 43 sec)
Heartbeat CPU 0 instructions: 103500615 cycles: 58435152 heartbeat IPC: 1.097 cumulative IPC: 1.194 (Simulation time: 00 hr 12 min 48 sec)
Heartbeat CPU 0 instructions: 104000619 cycles: 58937747 heartbeat IPC: 0.9948 cumulative IPC: 1.191 (Simulation time: 00 hr 12 min 53 sec)
Heartbeat CPU 0 instructions: 104500623 cycles: 59401386 heartbeat IPC: 1.078 cumulative IPC: 1.19 (Simulation time: 00 hr 12 min 58 sec)
Heartbeat CPU 0 instructions: 105000626 cycles: 59866955 heartbeat IPC: 1.074 cumulative IPC: 1.189 (Simulation time: 00 hr 13 min 03 sec)
Heartbeat CPU 0 instructions: 105500626 cycles: 60320989 heartbeat IPC: 1.101 cumulative IPC: 1.188 (Simulation time: 00 hr 13 min 08 sec)
Heartbeat CPU 0 instructions: 106000632 cycles: 60779103 heartbeat IPC: 1.091 cumulative IPC: 1.187 (Simulation time: 00 hr 13 min 13 sec)
Heartbeat CPU 0 instructions: 106500632 cycles: 61249841 heartbeat IPC: 1.062 cumulative IPC: 1.186 (Simulation time: 00 hr 13 min 18 sec)
Heartbeat CPU 0 instructions: 107000632 cycles: 61737192 heartbeat IPC: 1.026 cumulative IPC: 1.184 (Simulation time: 00 hr 13 min 23 sec)
Heartbeat CPU 0 instructions: 107500636 cycles: 62205611 heartbeat IPC: 1.067 cumulative IPC: 1.183 (Simulation time: 00 hr 13 min 28 sec)
Heartbeat CPU 0 instructions: 108000636 cycles: 62684041 heartbeat IPC: 1.045 cumulative IPC: 1.182 (Simulation time: 00 hr 13 min 33 sec)
Heartbeat CPU 0 instructions: 108500636 cycles: 63152319 heartbeat IPC: 1.068 cumulative IPC: 1.181 (Simulation time: 00 hr 13 min 38 sec)
Heartbeat CPU 0 instructions: 109000641 cycles: 63559037 heartbeat IPC: 1.229 cumulative IPC: 1.181 (Simulation time: 00 hr 13 min 42 sec)
Heartbeat CPU 0 instructions: 109500646 cycles: 64009697 heartbeat IPC: 1.109 cumulative IPC: 1.181 (Simulation time: 00 hr 13 min 47 sec)
Heartbeat CPU 0 instructions: 110000647 cycles: 64480235 heartbeat IPC: 1.063 cumulative IPC: 1.18 (Simulation time: 00 hr 13 min 52 sec)
Heartbeat CPU 0 instructions: 110500654 cycles: 64975327 heartbeat IPC: 1.01 cumulative IPC: 1.178 (Simulation time: 00 hr 13 min 57 sec)
Heartbeat CPU 0 instructions: 111000656 cycles: 65462200 heartbeat IPC: 1.027 cumulative IPC: 1.177 (Simulation time: 00 hr 14 min 03 sec)
Heartbeat CPU 0 instructions: 111500658 cycles: 65953620 heartbeat IPC: 1.017 cumulative IPC: 1.175 (Simulation time: 00 hr 14 min 08 sec)
Heartbeat CPU 0 instructions: 112000658 cycles: 66413538 heartbeat IPC: 1.087 cumulative IPC: 1.174 (Simulation time: 00 hr 14 min 13 sec)
Heartbeat CPU 0 instructions: 112500664 cycles: 66817722 heartbeat IPC: 1.237 cumulative IPC: 1.175 (Simulation time: 00 hr 14 min 17 sec)
Heartbeat CPU 0 instructions: 113000670 cycles: 67272642 heartbeat IPC: 1.099 cumulative IPC: 1.174 (Simulation time: 00 hr 14 min 22 sec)
Heartbeat CPU 0 instructions: 113500670 cycles: 67740115 heartbeat IPC: 1.07 cumulative IPC: 1.173 (Simulation time: 00 hr 14 min 27 sec)
Heartbeat CPU 0 instructions: 114000670 cycles: 68261947 heartbeat IPC: 0.9582 cumulative IPC: 1.171 (Simulation time: 00 hr 14 min 33 sec)
Heartbeat CPU 0 instructions: 114500671 cycles: 68773888 heartbeat IPC: 0.9767 cumulative IPC: 1.169 (Simulation time: 00 hr 14 min 38 sec)
Heartbeat CPU 0 instructions: 115000677 cycles: 69246048 heartbeat IPC: 1.059 cumulative IPC: 1.168 (Simulation time: 00 hr 14 min 43 sec)
Heartbeat CPU 0 instructions: 115500681 cycles: 69733850 heartbeat IPC: 1.025 cumulative IPC: 1.167 (Simulation time: 00 hr 14 min 48 sec)
Heartbeat CPU 0 instructions: 116000683 cycles: 70191367 heartbeat IPC: 1.093 cumulative IPC: 1.167 (Simulation time: 00 hr 14 min 53 sec)
Heartbeat CPU 0 instructions: 116500683 cycles: 70692888 heartbeat IPC: 0.997 cumulative IPC: 1.165 (Simulation time: 00 hr 14 min 58 sec)
Heartbeat CPU 0 instructions: 117000688 cycles: 71073826 heartbeat IPC: 1.313 cumulative IPC: 1.166 (Simulation time: 00 hr 15 min 03 sec)
Heartbeat CPU 0 instructions: 117500688 cycles: 71542558 heartbeat IPC: 1.067 cumulative IPC: 1.165 (Simulation time: 00 hr 15 min 08 sec)
Heartbeat CPU 0 instructions: 118000695 cycles: 72035180 heartbeat IPC: 1.015 cumulative IPC: 1.164 (Simulation time: 00 hr 15 min 13 sec)
Heartbeat CPU 0 instructions: 118500700 cycles: 72544481 heartbeat IPC: 0.9817 cumulative IPC: 1.162 (Simulation time: 00 hr 15 min 18 sec)
Heartbeat CPU 0 instructions: 119000702 cycles: 73056111 heartbeat IPC: 0.9773 cumulative IPC: 1.161 (Simulation time: 00 hr 15 min 23 sec)
Heartbeat CPU 0 instructions: 119500702 cycles: 73562810 heartbeat IPC: 0.9868 cumulative IPC: 1.159 (Simulation time: 00 hr 15 min 29 sec)
Heartbeat CPU 0 instructions: 120000702 cycles: 74077284 heartbeat IPC: 0.9719 cumulative IPC: 1.158 (Simulation time: 00 hr 15 min 34 sec)
Heartbeat CPU 0 instructions: 120500705 cycles: 74581896 heartbeat IPC: 0.9909 cumulative IPC: 1.156 (Simulation time: 00 hr 15 min 39 sec)
Heartbeat CPU 0 instructions: 121000708 cycles: 75083638 heartbeat IPC: 0.9965 cumulative IPC: 1.155 (Simulation time: 00 hr 15 min 44 sec)
Heartbeat CPU 0 instructions: 121500709 cycles: 75458169 heartbeat IPC: 1.335 cumulative IPC: 1.156 (Simulation time: 00 hr 15 min 48 sec)
Heartbeat CPU 0 instructions: 122000716 cycles: 75875726 heartbeat IPC: 1.197 cumulative IPC: 1.156 (Simulation time: 00 hr 15 min 53 sec)
Heartbeat CPU 0 instructions: 122500723 cycles: 76268482 heartbeat IPC: 1.273 cumulative IPC: 1.157 (Simulation time: 00 hr 15 min 58 sec)
Heartbeat CPU 0 instructions: 123000728 cycles: 76795022 heartbeat IPC: 0.9496 cumulative IPC: 1.155 (Simulation time: 00 hr 16 min 03 sec)
Heartbeat CPU 0 instructions: 123500728 cycles: 77331700 heartbeat IPC: 0.9317 cumulative IPC: 1.154 (Simulation time: 00 hr 16 min 09 sec)
Heartbeat CPU 0 instructions: 124000733 cycles: 77879880 heartbeat IPC: 0.9121 cumulative IPC: 1.151 (Simulation time: 00 hr 16 min 14 sec)
Heartbeat CPU 0 instructions: 124500737 cycles: 78399150 heartbeat IPC: 0.9629 cumulative IPC: 1.15 (Simulation time: 00 hr 16 min 19 sec)
Heartbeat CPU 0 instructions: 125000738 cycles: 78915804 heartbeat IPC: 0.9678 cumulative IPC: 1.149 (Simulation time: 00 hr 16 min 25 sec)
Heartbeat CPU 0 instructions: 125500740 cycles: 79447636 heartbeat IPC: 0.9402 cumulative IPC: 1.147 (Simulation time: 00 hr 16 min 30 sec)
Heartbeat CPU 0 instructions: 126000742 cycles: 79965953 heartbeat IPC: 0.9647 cumulative IPC: 1.145 (Simulation time: 00 hr 16 min 35 sec)
Heartbeat CPU 0 instructions: 126500746 cycles: 80508983 heartbeat IPC: 0.9208 cumulative IPC: 1.144 (Simulation time: 00 hr 16 min 40 sec)
Heartbeat CPU 0 instructions: 127000747 cycles: 81067668 heartbeat IPC: 0.895 cumulative IPC: 1.142 (Simulation time: 00 hr 16 min 46 sec)
Heartbeat CPU 0 instructions: 127500748 cycles: 81590797 heartbeat IPC: 0.9558 cumulative IPC: 1.14 (Simulation time: 00 hr 16 min 51 sec)
Heartbeat CPU 0 instructions: 128000755 cycles: 82111562 heartbeat IPC: 0.9601 cumulative IPC: 1.139 (Simulation time: 00 hr 16 min 56 sec)
Heartbeat CPU 0 instructions: 128500755 cycles: 82657403 heartbeat IPC: 0.916 cumulative IPC: 1.137 (Simulation time: 00 hr 17 min 01 sec)
Heartbeat CPU 0 instructions: 129000762 cycles: 83180238 heartbeat IPC: 0.9563 cumulative IPC: 1.136 (Simulation time: 00 hr 17 min 06 sec)
Heartbeat CPU 0 instructions: 129500762 cycles: 83656904 heartbeat IPC: 1.049 cumulative IPC: 1.135 (Simulation time: 00 hr 17 min 11 sec)
Heartbeat CPU 0 instructions: 130000762 cycles: 84200691 heartbeat IPC: 0.9195 cumulative IPC: 1.133 (Simulation time: 00 hr 17 min 17 sec)
Heartbeat CPU 0 instructions: 130500763 cycles: 84698279 heartbeat IPC: 1.005 cumulative IPC: 1.132 (Simulation time: 00 hr 17 min 22 sec)
Heartbeat CPU 0 instructions: 131000770 cycles: 85206780 heartbeat IPC: 0.9833 cumulative IPC: 1.131 (Simulation time: 00 hr 17 min 27 sec)
Heartbeat CPU 0 instructions: 131500772 cycles: 85613513 heartbeat IPC: 1.229 cumulative IPC: 1.132 (Simulation time: 00 hr 17 min 32 sec)
Heartbeat CPU 0 instructions: 132000772 cycles: 86085021 heartbeat IPC: 1.06 cumulative IPC: 1.132 (Simulation time: 00 hr 17 min 37 sec)
Heartbeat CPU 0 instructions: 132500772 cycles: 86641328 heartbeat IPC: 0.8988 cumulative IPC: 1.13 (Simulation time: 00 hr 17 min 42 sec)
Heartbeat CPU 0 instructions: 133000776 cycles: 87168050 heartbeat IPC: 0.9493 cumulative IPC: 1.128 (Simulation time: 00 hr 17 min 47 sec)
Heartbeat CPU 0 instructions: 133500776 cycles: 87769087 heartbeat IPC: 0.8319 cumulative IPC: 1.126 (Simulation time: 00 hr 17 min 53 sec)
Heartbeat CPU 0 instructions: 134000782 cycles: 88284555 heartbeat IPC: 0.97 cumulative IPC: 1.125 (Simulation time: 00 hr 17 min 58 sec)
Heartbeat CPU 0 instructions: 134500782 cycles: 88852313 heartbeat IPC: 0.8807 cumulative IPC: 1.123 (Simulation time: 00 hr 18 min 04 sec)
Heartbeat CPU 0 instructions: 135000783 cycles: 89257755 heartbeat IPC: 1.233 cumulative IPC: 1.124 (Simulation time: 00 hr 18 min 08 sec)
Heartbeat CPU 0 instructions: 135500786 cycles: 89830251 heartbeat IPC: 0.8734 cumulative IPC: 1.122 (Simulation time: 00 hr 18 min 14 sec)
Heartbeat CPU 0 instructions: 136000787 cycles: 90404087 heartbeat IPC: 0.8713 cumulative IPC: 1.12 (Simulation time: 00 hr 18 min 19 sec)
Heartbeat CPU 0 instructions: 136500789 cycles: 90995251 heartbeat IPC: 0.8458 cumulative IPC: 1.118 (Simulation time: 00 hr 18 min 25 sec)
Heartbeat CPU 0 instructions: 137000793 cycles: 91596662 heartbeat IPC: 0.8314 cumulative IPC: 1.116 (Simulation time: 00 hr 18 min 30 sec)
Heartbeat CPU 0 instructions: 137500800 cycles: 92172926 heartbeat IPC: 0.8677 cumulative IPC: 1.114 (Simulation time: 00 hr 18 min 36 sec)
Heartbeat CPU 0 instructions: 138000801 cycles: 92775153 heartbeat IPC: 0.8303 cumulative IPC: 1.112 (Simulation time: 00 hr 18 min 41 sec)
Heartbeat CPU 0 instructions: 138500808 cycles: 93350422 heartbeat IPC: 0.8692 cumulative IPC: 1.11 (Simulation time: 00 hr 18 min 47 sec)
Heartbeat CPU 0 instructions: 139000810 cycles: 93932632 heartbeat IPC: 0.8588 cumulative IPC: 1.108 (Simulation time: 00 hr 18 min 52 sec)
Heartbeat CPU 0 instructions: 139500812 cycles: 94340945 heartbeat IPC: 1.225 cumulative IPC: 1.109 (Simulation time: 00 hr 18 min 56 sec)
Heartbeat CPU 0 instructions: 140000813 cycles: 94664263 heartbeat IPC: 1.546 cumulative IPC: 1.11 (Simulation time: 00 hr 19 min 00 sec)
Heartbeat CPU 0 instructions: 140500813 cycles: 95260407 heartbeat IPC: 0.8387 cumulative IPC: 1.108 (Simulation time: 00 hr 19 min 06 sec)
Heartbeat CPU 0 instructions: 141000813 cycles: 95687435 heartbeat IPC: 1.171 cumulative IPC: 1.109 (Simulation time: 00 hr 19 min 10 sec)
Heartbeat CPU 0 instructions: 141500813 cycles: 96306011 heartbeat IPC: 0.8083 cumulative IPC: 1.107 (Simulation time: 00 hr 19 min 16 sec)
Heartbeat CPU 0 instructions: 142000818 cycles: 96801664 heartbeat IPC: 1.009 cumulative IPC: 1.106 (Simulation time: 00 hr 19 min 21 sec)
Heartbeat CPU 0 instructions: 142500821 cycles: 97408818 heartbeat IPC: 0.8235 cumulative IPC: 1.104 (Simulation time: 00 hr 19 min 27 sec)
Heartbeat CPU 0 instructions: 143000825 cycles: 98060584 heartbeat IPC: 0.7672 cumulative IPC: 1.101 (Simulation time: 00 hr 19 min 33 sec)
Heartbeat CPU 0 instructions: 143500825 cycles: 98698704 heartbeat IPC: 0.7836 cumulative IPC: 1.099 (Simulation time: 00 hr 19 min 39 sec)
Heartbeat CPU 0 instructions: 144000829 cycles: 99310629 heartbeat IPC: 0.8171 cumulative IPC: 1.097 (Simulation time: 00 hr 19 min 44 sec)
Heartbeat CPU 0 instructions: 144500830 cycles: 99945878 heartbeat IPC: 0.7871 cumulative IPC: 1.095 (Simulation time: 00 hr 19 min 50 sec)
Heartbeat CPU 0 instructions: 145000830 cycles: 100515975 heartbeat IPC: 0.877 cumulative IPC: 1.093 (Simulation time: 00 hr 19 min 55 sec)
Heartbeat CPU 0 instructions: 145500830 cycles: 101108724 heartbeat IPC: 0.8435 cumulative IPC: 1.092 (Simulation time: 00 hr 20 min 01 sec)
Heartbeat CPU 0 instructions: 146000834 cycles: 101725355 heartbeat IPC: 0.8109 cumulative IPC: 1.09 (Simulation time: 00 hr 20 min 06 sec)
Heartbeat CPU 0 instructions: 146500836 cycles: 102312844 heartbeat IPC: 0.8511 cumulative IPC: 1.088 (Simulation time: 00 hr 20 min 12 sec)
Heartbeat CPU 0 instructions: 147000843 cycles: 102864229 heartbeat IPC: 0.9068 cumulative IPC: 1.087 (Simulation time: 00 hr 20 min 17 sec)
Heartbeat CPU 0 instructions: 147500848 cycles: 103476718 heartbeat IPC: 0.8163 cumulative IPC: 1.085 (Simulation time: 00 hr 20 min 23 sec)
Heartbeat CPU 0 instructions: 148000850 cycles: 104083947 heartbeat IPC: 0.8234 cumulative IPC: 1.083 (Simulation time: 00 hr 20 min 28 sec)
Heartbeat CPU 0 instructions: 148500850 cycles: 104722891 heartbeat IPC: 0.7825 cumulative IPC: 1.081 (Simulation time: 00 hr 20 min 34 sec)
Heartbeat CPU 0 instructions: 149000850 cycles: 105317144 heartbeat IPC: 0.8414 cumulative IPC: 1.08 (Simulation time: 00 hr 20 min 39 sec)
Heartbeat CPU 0 instructions: 149500851 cycles: 105905735 heartbeat IPC: 0.8495 cumulative IPC: 1.078 (Simulation time: 00 hr 20 min 45 sec)
Heartbeat CPU 0 instructions: 150000852 cycles: 106536083 heartbeat IPC: 0.7932 cumulative IPC: 1.076 (Simulation time: 00 hr 20 min 50 sec)
Heartbeat CPU 0 instructions: 150500852 cycles: 107187455 heartbeat IPC: 0.7676 cumulative IPC: 1.074 (Simulation time: 00 hr 20 min 56 sec)
Heartbeat CPU 0 instructions: 151000852 cycles: 107827071 heartbeat IPC: 0.7817 cumulative IPC: 1.072 (Simulation time: 00 hr 21 min 02 sec)
Heartbeat CPU 0 instructions: 151500854 cycles: 108395431 heartbeat IPC: 0.8797 cumulative IPC: 1.071 (Simulation time: 00 hr 21 min 07 sec)
Heartbeat CPU 0 instructions: 152000855 cycles: 109048022 heartbeat IPC: 0.7662 cumulative IPC: 1.069 (Simulation time: 00 hr 21 min 13 sec)
Heartbeat CPU 0 instructions: 152500856 cycles: 109687276 heartbeat IPC: 0.7822 cumulative IPC: 1.067 (Simulation time: 00 hr 21 min 19 sec)
Heartbeat CPU 0 instructions: 153000859 cycles: 110326607 heartbeat IPC: 0.7821 cumulative IPC: 1.065 (Simulation time: 00 hr 21 min 25 sec)
Heartbeat CPU 0 instructions: 153500859 cycles: 110980326 heartbeat IPC: 0.7649 cumulative IPC: 1.063 (Simulation time: 00 hr 21 min 30 sec)
Heartbeat CPU 0 instructions: 154000860 cycles: 111576788 heartbeat IPC: 0.8383 cumulative IPC: 1.062 (Simulation time: 00 hr 21 min 36 sec)
Heartbeat CPU 0 instructions: 154500862 cycles: 112187200 heartbeat IPC: 0.8191 cumulative IPC: 1.06 (Simulation time: 00 hr 21 min 42 sec)
Heartbeat CPU 0 instructions: 155000867 cycles: 112695674 heartbeat IPC: 0.9833 cumulative IPC: 1.06 (Simulation time: 00 hr 21 min 47 sec)
Heartbeat CPU 0 instructions: 155500870 cycles: 113241172 heartbeat IPC: 0.9166 cumulative IPC: 1.059 (Simulation time: 00 hr 21 min 52 sec)
Heartbeat CPU 0 instructions: 156000870 cycles: 113908619 heartbeat IPC: 0.7491 cumulative IPC: 1.057 (Simulation time: 00 hr 21 min 58 sec)
Heartbeat CPU 0 instructions: 156500873 cycles: 114533149 heartbeat IPC: 0.8006 cumulative IPC: 1.055 (Simulation time: 00 hr 22 min 04 sec)
Heartbeat CPU 0 instructions: 157000873 cycles: 115227932 heartbeat IPC: 0.7196 cumulative IPC: 1.053 (Simulation time: 00 hr 22 min 10 sec)
Heartbeat CPU 0 instructions: 157500876 cycles: 115917533 heartbeat IPC: 0.7251 cumulative IPC: 1.051 (Simulation time: 00 hr 22 min 16 sec)
Heartbeat CPU 0 instructions: 158000881 cycles: 116559128 heartbeat IPC: 0.7793 cumulative IPC: 1.049 (Simulation time: 00 hr 22 min 22 sec)
Heartbeat CPU 0 instructions: 158500881 cycles: 117161862 heartbeat IPC: 0.8296 cumulative IPC: 1.048 (Simulation time: 00 hr 22 min 28 sec)
Heartbeat CPU 0 instructions: 159000881 cycles: 117793145 heartbeat IPC: 0.792 cumulative IPC: 1.046 (Simulation time: 00 hr 22 min 34 sec)
Heartbeat CPU 0 instructions: 159500884 cycles: 118488546 heartbeat IPC: 0.719 cumulative IPC: 1.044 (Simulation time: 00 hr 22 min 40 sec)
Heartbeat CPU 0 instructions: 160000884 cycles: 119021293 heartbeat IPC: 0.9385 cumulative IPC: 1.044 (Simulation time: 00 hr 22 min 45 sec)
Heartbeat CPU 0 instructions: 160500886 cycles: 119694755 heartbeat IPC: 0.7424 cumulative IPC: 1.042 (Simulation time: 00 hr 22 min 51 sec)
Heartbeat CPU 0 instructions: 161000891 cycles: 120353092 heartbeat IPC: 0.7595 cumulative IPC: 1.04 (Simulation time: 00 hr 22 min 57 sec)
Heartbeat CPU 0 instructions: 161500896 cycles: 121023319 heartbeat IPC: 0.746 cumulative IPC: 1.038 (Simulation time: 00 hr 23 min 04 sec)
Heartbeat CPU 0 instructions: 162000898 cycles: 121683259 heartbeat IPC: 0.7576 cumulative IPC: 1.036 (Simulation time: 00 hr 23 min 10 sec)
Heartbeat CPU 0 instructions: 162500898 cycles: 122273568 heartbeat IPC: 0.847 cumulative IPC: 1.035 (Simulation time: 00 hr 23 min 15 sec)
Heartbeat CPU 0 instructions: 163000898 cycles: 122932896 heartbeat IPC: 0.7583 cumulative IPC: 1.034 (Simulation time: 00 hr 23 min 21 sec)
Heartbeat CPU 0 instructions: 163500904 cycles: 123623517 heartbeat IPC: 0.724 cumulative IPC: 1.032 (Simulation time: 00 hr 23 min 28 sec)
Heartbeat CPU 0 instructions: 164000908 cycles: 124320143 heartbeat IPC: 0.7178 cumulative IPC: 1.03 (Simulation time: 00 hr 23 min 34 sec)
Heartbeat CPU 0 instructions: 164500909 cycles: 125017660 heartbeat IPC: 0.7168 cumulative IPC: 1.028 (Simulation time: 00 hr 23 min 40 sec)
Heartbeat CPU 0 instructions: 165000909 cycles: 125692906 heartbeat IPC: 0.7405 cumulative IPC: 1.026 (Simulation time: 00 hr 23 min 47 sec)
Heartbeat CPU 0 instructions: 165500910 cycles: 126335323 heartbeat IPC: 0.7783 cumulative IPC: 1.025 (Simulation time: 00 hr 23 min 52 sec)
Heartbeat CPU 0 instructions: 166000916 cycles: 126991396 heartbeat IPC: 0.7621 cumulative IPC: 1.023 (Simulation time: 00 hr 23 min 59 sec)
Heartbeat CPU 0 instructions: 166500916 cycles: 127693673 heartbeat IPC: 0.712 cumulative IPC: 1.021 (Simulation time: 00 hr 24 min 05 sec)
Heartbeat CPU 0 instructions: 167000916 cycles: 128385899 heartbeat IPC: 0.7223 cumulative IPC: 1.019 (Simulation time: 00 hr 24 min 11 sec)
Heartbeat CPU 0 instructions: 167500918 cycles: 129075180 heartbeat IPC: 0.7254 cumulative IPC: 1.018 (Simulation time: 00 hr 24 min 18 sec)
Heartbeat CPU 0 instructions: 168000924 cycles: 129683054 heartbeat IPC: 0.8225 cumulative IPC: 1.017 (Simulation time: 00 hr 24 min 23 sec)
Heartbeat CPU 0 instructions: 168500924 cycles: 130331261 heartbeat IPC: 0.7714 cumulative IPC: 1.015 (Simulation time: 00 hr 24 min 29 sec)
Heartbeat CPU 0 instructions: 169000927 cycles: 130980064 heartbeat IPC: 0.7707 cumulative IPC: 1.014 (Simulation time: 00 hr 24 min 35 sec)
Heartbeat CPU 0 instructions: 169500932 cycles: 131572026 heartbeat IPC: 0.8447 cumulative IPC: 1.013 (Simulation time: 00 hr 24 min 41 sec)
Heartbeat CPU 0 instructions: 170000935 cycles: 131791707 heartbeat IPC: 2.276 cumulative IPC: 1.015 (Simulation time: 00 hr 24 min 45 sec)
Heartbeat CPU 0 instructions: 170500938 cycles: 132011998 heartbeat IPC: 2.27 cumulative IPC: 1.018 (Simulation time: 00 hr 24 min 48 sec)
Heartbeat CPU 0 instructions: 171000944 cycles: 132211405 heartbeat IPC: 2.507 cumulative IPC: 1.02 (Simulation time: 00 hr 24 min 51 sec)
Heartbeat CPU 0 instructions: 171500946 cycles: 132423671 heartbeat IPC: 2.356 cumulative IPC: 1.023 (Simulation time: 00 hr 24 min 54 sec)
Heartbeat CPU 0 instructions: 172000947 cycles: 132647036 heartbeat IPC: 2.238 cumulative IPC: 1.025 (Simulation time: 00 hr 24 min 57 sec)
Heartbeat CPU 0 instructions: 172500952 cycles: 132875970 heartbeat IPC: 2.184 cumulative IPC: 1.027 (Simulation time: 00 hr 25 min 01 sec)
Heartbeat CPU 0 instructions: 173000953 cycles: 133096653 heartbeat IPC: 2.266 cumulative IPC: 1.029 (Simulation time: 00 hr 25 min 04 sec)
Heartbeat CPU 0 instructions: 173500958 cycles: 133324381 heartbeat IPC: 2.196 cumulative IPC: 1.032 (Simulation time: 00 hr 25 min 07 sec)
Heartbeat CPU 0 instructions: 174000958 cycles: 133554868 heartbeat IPC: 2.169 cumulative IPC: 1.034 (Simulation time: 00 hr 25 min 11 sec)
Heartbeat CPU 0 instructions: 174500961 cycles: 133782319 heartbeat IPC: 2.198 cumulative IPC: 1.036 (Simulation time: 00 hr 25 min 14 sec)
Heartbeat CPU 0 instructions: 175000962 cycles: 134009994 heartbeat IPC: 2.196 cumulative IPC: 1.038 (Simulation time: 00 hr 25 min 18 sec)
Heartbeat CPU 0 instructions: 175500967 cycles: 134239305 heartbeat IPC: 2.18 cumulative IPC: 1.04 (Simulation time: 00 hr 25 min 21 sec)
Heartbeat CPU 0 instructions: 176000970 cycles: 134495349 heartbeat IPC: 1.953 cumulative IPC: 1.042 (Simulation time: 00 hr 25 min 25 sec)
Heartbeat CPU 0 instructions: 176500971 cycles: 134738324 heartbeat IPC: 2.058 cumulative IPC: 1.044 (Simulation time: 00 hr 25 min 29 sec)
Heartbeat CPU 0 instructions: 177000971 cycles: 134977711 heartbeat IPC: 2.089 cumulative IPC: 1.046 (Simulation time: 00 hr 25 min 32 sec)
Heartbeat CPU 0 instructions: 177500977 cycles: 135212073 heartbeat IPC: 2.133 cumulative IPC: 1.049 (Simulation time: 00 hr 25 min 36 sec)
Heartbeat CPU 0 instructions: 178000982 cycles: 135462304 heartbeat IPC: 1.998 cumulative IPC: 1.051 (Simulation time: 00 hr 25 min 40 sec)
Heartbeat CPU 0 instructions: 178500984 cycles: 135712855 heartbeat IPC: 1.996 cumulative IPC: 1.052 (Simulation time: 00 hr 25 min 43 sec)
Heartbeat CPU 0 instructions: 179000988 cycles: 135954028 heartbeat IPC: 2.073 cumulative IPC: 1.054 (Simulation time: 00 hr 25 min 47 sec)
Heartbeat CPU 0 instructions: 179500993 cycles: 136190597 heartbeat IPC: 2.114 cumulative IPC: 1.056 (Simulation time: 00 hr 25 min 51 sec)
Heartbeat CPU 0 instructions: 180000998 cycles: 136443391 heartbeat IPC: 1.978 cumulative IPC: 1.058 (Simulation time: 00 hr 25 min 54 sec)
Heartbeat CPU 0 instructions: 180501003 cycles: 136698454 heartbeat IPC: 1.96 cumulative IPC: 1.06 (Simulation time: 00 hr 25 min 58 sec)
Heartbeat CPU 0 instructions: 181001005 cycles: 136947738 heartbeat IPC: 2.006 cumulative IPC: 1.062 (Simulation time: 00 hr 26 min 02 sec)
Heartbeat CPU 0 instructions: 181501006 cycles: 137175193 heartbeat IPC: 2.198 cumulative IPC: 1.064 (Simulation time: 00 hr 26 min 06 sec)
Heartbeat CPU 0 instructions: 182001007 cycles: 137425534 heartbeat IPC: 1.997 cumulative IPC: 1.066 (Simulation time: 00 hr 26 min 09 sec)
Heartbeat CPU 0 instructions: 182501008 cycles: 137680452 heartbeat IPC: 1.961 cumulative IPC: 1.068 (Simulation time: 00 hr 26 min 13 sec)
Heartbeat CPU 0 instructions: 183001014 cycles: 137916960 heartbeat IPC: 2.114 cumulative IPC: 1.07 (Simulation time: 00 hr 26 min 17 sec)
Heartbeat CPU 0 instructions: 183501015 cycles: 138151400 heartbeat IPC: 2.133 cumulative IPC: 1.072 (Simulation time: 00 hr 26 min 20 sec)
Heartbeat CPU 0 instructions: 184001017 cycles: 138404877 heartbeat IPC: 1.973 cumulative IPC: 1.074 (Simulation time: 00 hr 26 min 24 sec)
Heartbeat CPU 0 instructions: 184501019 cycles: 138652495 heartbeat IPC: 2.019 cumulative IPC: 1.076 (Simulation time: 00 hr 26 min 28 sec)
Heartbeat CPU 0 instructions: 185001023 cycles: 138898408 heartbeat IPC: 2.033 cumulative IPC: 1.078 (Simulation time: 00 hr 26 min 31 sec)
Heartbeat CPU 0 instructions: 185501024 cycles: 139141996 heartbeat IPC: 2.053 cumulative IPC: 1.079 (Simulation time: 00 hr 26 min 35 sec)
Heartbeat CPU 0 instructions: 186001026 cycles: 139389146 heartbeat IPC: 2.023 cumulative IPC: 1.081 (Simulation time: 00 hr 26 min 39 sec)
Heartbeat CPU 0 instructions: 186501027 cycles: 139646440 heartbeat IPC: 1.943 cumulative IPC: 1.083 (Simulation time: 00 hr 26 min 43 sec)
Heartbeat CPU 0 instructions: 187001032 cycles: 139887370 heartbeat IPC: 2.075 cumulative IPC: 1.085 (Simulation time: 00 hr 26 min 46 sec)
Heartbeat CPU 0 instructions: 187501033 cycles: 140120778 heartbeat IPC: 2.142 cumulative IPC: 1.087 (Simulation time: 00 hr 26 min 50 sec)
Heartbeat CPU 0 instructions: 188001040 cycles: 140372669 heartbeat IPC: 1.985 cumulative IPC: 1.089 (Simulation time: 00 hr 26 min 54 sec)
Heartbeat CPU 0 instructions: 188501044 cycles: 140633227 heartbeat IPC: 1.919 cumulative IPC: 1.09 (Simulation time: 00 hr 26 min 58 sec)
Heartbeat CPU 0 instructions: 189001049 cycles: 140874557 heartbeat IPC: 2.072 cumulative IPC: 1.092 (Simulation time: 00 hr 27 min 01 sec)
Heartbeat CPU 0 instructions: 189501056 cycles: 141104464 heartbeat IPC: 2.175 cumulative IPC: 1.094 (Simulation time: 00 hr 27 min 05 sec)
Heartbeat CPU 0 instructions: 190001060 cycles: 141352225 heartbeat IPC: 2.018 cumulative IPC: 1.096 (Simulation time: 00 hr 27 min 09 sec)
Heartbeat CPU 0 instructions: 190501061 cycles: 141614587 heartbeat IPC: 1.906 cumulative IPC: 1.098 (Simulation time: 00 hr 27 min 13 sec)
Heartbeat CPU 0 instructions: 191001066 cycles: 141863276 heartbeat IPC: 2.011 cumulative IPC: 1.099 (Simulation time: 00 hr 27 min 16 sec)
Heartbeat CPU 0 instructions: 191501067 cycles: 142096324 heartbeat IPC: 2.145 cumulative IPC: 1.101 (Simulation time: 00 hr 27 min 20 sec)
Heartbeat CPU 0 instructions: 192001073 cycles: 142352916 heartbeat IPC: 1.949 cumulative IPC: 1.103 (Simulation time: 00 hr 27 min 24 sec)
Heartbeat CPU 0 instructions: 192501073 cycles: 142611056 heartbeat IPC: 1.937 cumulative IPC: 1.105 (Simulation time: 00 hr 27 min 28 sec)
Heartbeat CPU 0 instructions: 193001073 cycles: 142850385 heartbeat IPC: 2.089 cumulative IPC: 1.107 (Simulation time: 00 hr 27 min 31 sec)
Heartbeat CPU 0 instructions: 193501076 cycles: 143089567 heartbeat IPC: 2.09 cumulative IPC: 1.108 (Simulation time: 00 hr 27 min 35 sec)
Heartbeat CPU 0 instructions: 194001083 cycles: 143341097 heartbeat IPC: 1.988 cumulative IPC: 1.11 (Simulation time: 00 hr 27 min 39 sec)
Heartbeat CPU 0 instructions: 194501089 cycles: 143592492 heartbeat IPC: 1.989 cumulative IPC: 1.112 (Simulation time: 00 hr 27 min 42 sec)
Heartbeat CPU 0 instructions: 195001092 cycles: 143838016 heartbeat IPC: 2.036 cumulative IPC: 1.113 (Simulation time: 00 hr 27 min 46 sec)
Heartbeat CPU 0 instructions: 195501093 cycles: 144075312 heartbeat IPC: 2.107 cumulative IPC: 1.115 (Simulation time: 00 hr 27 min 50 sec)
Heartbeat CPU 0 instructions: 196001098 cycles: 144332073 heartbeat IPC: 1.947 cumulative IPC: 1.117 (Simulation time: 00 hr 27 min 54 sec)
Heartbeat CPU 0 instructions: 196501099 cycles: 144592342 heartbeat IPC: 1.921 cumulative IPC: 1.119 (Simulation time: 00 hr 27 min 58 sec)
Heartbeat CPU 0 instructions: 197001101 cycles: 144832775 heartbeat IPC: 2.08 cumulative IPC: 1.12 (Simulation time: 00 hr 28 min 01 sec)
Heartbeat CPU 0 instructions: 197501102 cycles: 145067805 heartbeat IPC: 2.127 cumulative IPC: 1.122 (Simulation time: 00 hr 28 min 05 sec)
Heartbeat CPU 0 instructions: 198001103 cycles: 145307731 heartbeat IPC: 2.084 cumulative IPC: 1.124 (Simulation time: 00 hr 28 min 09 sec)
Heartbeat CPU 0 instructions: 198501108 cycles: 145556223 heartbeat IPC: 2.012 cumulative IPC: 1.126 (Simulation time: 00 hr 28 min 12 sec)
Heartbeat CPU 0 instructions: 199001110 cycles: 145800545 heartbeat IPC: 2.046 cumulative IPC: 1.127 (Simulation time: 00 hr 28 min 16 sec)
Heartbeat CPU 0 instructions: 199501111 cycles: 146042570 heartbeat IPC: 2.066 cumulative IPC: 1.129 (Simulation time: 00 hr 28 min 20 sec)
Heartbeat CPU 0 instructions: 200001118 cycles: 146295136 heartbeat IPC: 1.98 cumulative IPC: 1.131 (Simulation time: 00 hr 28 min 24 sec)
Heartbeat CPU 0 instructions: 200501124 cycles: 146549090 heartbeat IPC: 1.969 cumulative IPC: 1.132 (Simulation time: 00 hr 28 min 27 sec)
Heartbeat CPU 0 instructions: 201001127 cycles: 146796559 heartbeat IPC: 2.02 cumulative IPC: 1.134 (Simulation time: 00 hr 28 min 31 sec)
Heartbeat CPU 0 instructions: 201501128 cycles: 147038832 heartbeat IPC: 2.064 cumulative IPC: 1.135 (Simulation time: 00 hr 28 min 35 sec)
Heartbeat CPU 0 instructions: 202001135 cycles: 147283811 heartbeat IPC: 2.041 cumulative IPC: 1.137 (Simulation time: 00 hr 28 min 39 sec)
Heartbeat CPU 0 instructions: 202501136 cycles: 147537631 heartbeat IPC: 1.97 cumulative IPC: 1.139 (Simulation time: 00 hr 28 min 42 sec)
Heartbeat CPU 0 instructions: 203001136 cycles: 147785314 heartbeat IPC: 2.019 cumulative IPC: 1.14 (Simulation time: 00 hr 28 min 46 sec)
Heartbeat CPU 0 instructions: 203501137 cycles: 148019759 heartbeat IPC: 2.133 cumulative IPC: 1.142 (Simulation time: 00 hr 28 min 50 sec)
Heartbeat CPU 0 instructions: 204001138 cycles: 148265818 heartbeat IPC: 2.032 cumulative IPC: 1.144 (Simulation time: 00 hr 28 min 54 sec)
Heartbeat CPU 0 instructions: 204501145 cycles: 148511787 heartbeat IPC: 2.033 cumulative IPC: 1.145 (Simulation time: 00 hr 28 min 57 sec)
Heartbeat CPU 0 instructions: 205001145 cycles: 148757255 heartbeat IPC: 2.037 cumulative IPC: 1.147 (Simulation time: 00 hr 29 min 01 sec)
Heartbeat CPU 0 instructions: 205501152 cycles: 148998095 heartbeat IPC: 2.076 cumulative IPC: 1.149 (Simulation time: 00 hr 29 min 05 sec)
Heartbeat CPU 0 instructions: 206001153 cycles: 149251424 heartbeat IPC: 1.974 cumulative IPC: 1.15 (Simulation time: 00 hr 29 min 09 sec)
Heartbeat CPU 0 instructions: 206501154 cycles: 149509486 heartbeat IPC: 1.938 cumulative IPC: 1.152 (Simulation time: 00 hr 29 min 12 sec)
Heartbeat CPU 0 instructions: 207001157 cycles: 149755443 heartbeat IPC: 2.033 cumulative IPC: 1.153 (Simulation time: 00 hr 29 min 16 sec)
Heartbeat CPU 0 instructions: 207501163 cycles: 150000701 heartbeat IPC: 2.039 cumulative IPC: 1.155 (Simulation time: 00 hr 29 min 20 sec)
Heartbeat CPU 0 instructions: 208001164 cycles: 150242367 heartbeat IPC: 2.069 cumulative IPC: 1.156 (Simulation time: 00 hr 29 min 23 sec)
Heartbeat CPU 0 instructions: 208501164 cycles: 150492159 heartbeat IPC: 2.002 cumulative IPC: 1.158 (Simulation time: 00 hr 29 min 27 sec)
Heartbeat CPU 0 instructions: 209001170 cycles: 150740867 heartbeat IPC: 2.01 cumulative IPC: 1.16 (Simulation time: 00 hr 29 min 31 sec)
Heartbeat CPU 0 instructions: 209501172 cycles: 150985833 heartbeat IPC: 2.041 cumulative IPC: 1.161 (Simulation time: 00 hr 29 min 35 sec)
Heartbeat CPU 0 instructions: 210001173 cycles: 151228245 heartbeat IPC: 2.063 cumulative IPC: 1.163 (Simulation time: 00 hr 29 min 38 sec)
Heartbeat CPU 0 instructions: 210501178 cycles: 151481444 heartbeat IPC: 1.975 cumulative IPC: 1.164 (Simulation time: 00 hr 29 min 42 sec)
Heartbeat CPU 0 instructions: 211001183 cycles: 151734069 heartbeat IPC: 1.979 cumulative IPC: 1.166 (Simulation time: 00 hr 29 min 46 sec)
Heartbeat CPU 0 instructions: 211501189 cycles: 151979139 heartbeat IPC: 2.04 cumulative IPC: 1.167 (Simulation time: 00 hr 29 min 50 sec)
Heartbeat CPU 0 instructions: 212001191 cycles: 152228810 heartbeat IPC: 2.003 cumulative IPC: 1.169 (Simulation time: 00 hr 29 min 54 sec)
Heartbeat CPU 0 instructions: 212501192 cycles: 152486028 heartbeat IPC: 1.944 cumulative IPC: 1.17 (Simulation time: 00 hr 29 min 57 sec)
Heartbeat CPU 0 instructions: 213001198 cycles: 152739188 heartbeat IPC: 1.975 cumulative IPC: 1.172 (Simulation time: 00 hr 30 min 01 sec)
Heartbeat CPU 0 instructions: 213501198 cycles: 152975151 heartbeat IPC: 2.119 cumulative IPC: 1.173 (Simulation time: 00 hr 30 min 05 sec)
Heartbeat CPU 0 instructions: 214001205 cycles: 153218610 heartbeat IPC: 2.054 cumulative IPC: 1.175 (Simulation time: 00 hr 30 min 08 sec)
Heartbeat CPU 0 instructions: 214501206 cycles: 153477879 heartbeat IPC: 1.929 cumulative IPC: 1.176 (Simulation time: 00 hr 30 min 12 sec)
Heartbeat CPU 0 instructions: 215001206 cycles: 153734334 heartbeat IPC: 1.95 cumulative IPC: 1.178 (Simulation time: 00 hr 30 min 16 sec)
Heartbeat CPU 0 instructions: 215501207 cycles: 153967400 heartbeat IPC: 2.145 cumulative IPC: 1.179 (Simulation time: 00 hr 30 min 20 sec)
Heartbeat CPU 0 instructions: 216001209 cycles: 154213338 heartbeat IPC: 2.033 cumulative IPC: 1.181 (Simulation time: 00 hr 30 min 24 sec)
Heartbeat CPU 0 instructions: 216501215 cycles: 154464736 heartbeat IPC: 1.989 cumulative IPC: 1.182 (Simulation time: 00 hr 30 min 27 sec)
Heartbeat CPU 0 instructions: 217001222 cycles: 154724025 heartbeat IPC: 1.928 cumulative IPC: 1.183 (Simulation time: 00 hr 30 min 31 sec)
Heartbeat CPU 0 instructions: 217501224 cycles: 154969253 heartbeat IPC: 2.039 cumulative IPC: 1.185 (Simulation time: 00 hr 30 min 35 sec)
Heartbeat CPU 0 instructions: 218001230 cycles: 155216620 heartbeat IPC: 2.021 cumulative IPC: 1.186 (Simulation time: 00 hr 30 min 39 sec)
Heartbeat CPU 0 instructions: 218501232 cycles: 155476299 heartbeat IPC: 1.925 cumulative IPC: 1.188 (Simulation time: 00 hr 30 min 43 sec)
Heartbeat CPU 0 instructions: 219001233 cycles: 155732522 heartbeat IPC: 1.951 cumulative IPC: 1.189 (Simulation time: 00 hr 30 min 47 sec)
Heartbeat CPU 0 instructions: 219501233 cycles: 155973079 heartbeat IPC: 2.079 cumulative IPC: 1.191 (Simulation time: 00 hr 30 min 50 sec)
Heartbeat CPU 0 instructions: 220001233 cycles: 156212640 heartbeat IPC: 2.087 cumulative IPC: 1.192 (Simulation time: 00 hr 30 min 54 sec)
Heartbeat CPU 0 instructions: 220501235 cycles: 156470530 heartbeat IPC: 1.939 cumulative IPC: 1.194 (Simulation time: 00 hr 30 min 58 sec)
Heartbeat CPU 0 instructions: 221001239 cycles: 156721911 heartbeat IPC: 1.989 cumulative IPC: 1.195 (Simulation time: 00 hr 31 min 02 sec)
Heartbeat CPU 0 instructions: 221501242 cycles: 156957922 heartbeat IPC: 2.119 cumulative IPC: 1.196 (Simulation time: 00 hr 31 min 05 sec)
Heartbeat CPU 0 instructions: 222001243 cycles: 157186002 heartbeat IPC: 2.192 cumulative IPC: 1.198 (Simulation time: 00 hr 31 min 09 sec)
Heartbeat CPU 0 instructions: 222501248 cycles: 157435904 heartbeat IPC: 2.001 cumulative IPC: 1.199 (Simulation time: 00 hr 31 min 12 sec)
Heartbeat CPU 0 instructions: 223001251 cycles: 157684241 heartbeat IPC: 2.013 cumulative IPC: 1.201 (Simulation time: 00 hr 31 min 16 sec)
Heartbeat CPU 0 instructions: 223501251 cycles: 157923775 heartbeat IPC: 2.087 cumulative IPC: 1.202 (Simulation time: 00 hr 31 min 20 sec)
Heartbeat CPU 0 instructions: 224001252 cycles: 158159971 heartbeat IPC: 2.117 cumulative IPC: 1.204 (Simulation time: 00 hr 31 min 23 sec)
Heartbeat CPU 0 instructions: 224501257 cycles: 158415963 heartbeat IPC: 1.953 cumulative IPC: 1.205 (Simulation time: 00 hr 31 min 27 sec)
Heartbeat CPU 0 instructions: 225001260 cycles: 158672661 heartbeat IPC: 1.948 cumulative IPC: 1.206 (Simulation time: 00 hr 31 min 31 sec)
Heartbeat CPU 0 instructions: 225501260 cycles: 158920497 heartbeat IPC: 2.017 cumulative IPC: 1.208 (Simulation time: 00 hr 31 min 35 sec)
Heartbeat CPU 0 instructions: 226001261 cycles: 159156771 heartbeat IPC: 2.116 cumulative IPC: 1.209 (Simulation time: 00 hr 31 min 38 sec)
Heartbeat CPU 0 instructions: 226501267 cycles: 159403498 heartbeat IPC: 2.027 cumulative IPC: 1.211 (Simulation time: 00 hr 31 min 42 sec)
Heartbeat CPU 0 instructions: 227001267 cycles: 159665370 heartbeat IPC: 1.909 cumulative IPC: 1.212 (Simulation time: 00 hr 31 min 46 sec)
Heartbeat CPU 0 instructions: 227501269 cycles: 159907910 heartbeat IPC: 2.062 cumulative IPC: 1.213 (Simulation time: 00 hr 31 min 50 sec)
Heartbeat CPU 0 instructions: 228001270 cycles: 160143744 heartbeat IPC: 2.12 cumulative IPC: 1.215 (Simulation time: 00 hr 31 min 53 sec)
Heartbeat CPU 0 instructions: 228501270 cycles: 160395896 heartbeat IPC: 1.983 cumulative IPC: 1.216 (Simulation time: 00 hr 31 min 57 sec)
Heartbeat CPU 0 instructions: 229001272 cycles: 160648328 heartbeat IPC: 1.981 cumulative IPC: 1.217 (Simulation time: 00 hr 32 min 01 sec)
Heartbeat CPU 0 instructions: 229501278 cycles: 160888629 heartbeat IPC: 2.081 cumulative IPC: 1.219 (Simulation time: 00 hr 32 min 05 sec)
Heartbeat CPU 0 instructions: 230001279 cycles: 161129962 heartbeat IPC: 2.072 cumulative IPC: 1.22 (Simulation time: 00 hr 32 min 08 sec)
Heartbeat CPU 0 instructions: 230501279 cycles: 161380313 heartbeat IPC: 1.997 cumulative IPC: 1.222 (Simulation time: 00 hr 32 min 12 sec)
Heartbeat CPU 0 instructions: 231001284 cycles: 161634574 heartbeat IPC: 1.967 cumulative IPC: 1.223 (Simulation time: 00 hr 32 min 16 sec)
Heartbeat CPU 0 instructions: 231501287 cycles: 161873494 heartbeat IPC: 2.093 cumulative IPC: 1.224 (Simulation time: 00 hr 32 min 19 sec)
Heartbeat CPU 0 instructions: 232001288 cycles: 162113816 heartbeat IPC: 2.081 cumulative IPC: 1.226 (Simulation time: 00 hr 32 min 23 sec)
Heartbeat CPU 0 instructions: 232501292 cycles: 162362033 heartbeat IPC: 2.014 cumulative IPC: 1.227 (Simulation time: 00 hr 32 min 27 sec)
Heartbeat CPU 0 instructions: 233001294 cycles: 162615141 heartbeat IPC: 1.975 cumulative IPC: 1.228 (Simulation time: 00 hr 32 min 31 sec)
Heartbeat CPU 0 instructions: 233501296 cycles: 162864703 heartbeat IPC: 2.004 cumulative IPC: 1.229 (Simulation time: 00 hr 32 min 34 sec)
Heartbeat CPU 0 instructions: 234001297 cycles: 163098809 heartbeat IPC: 2.136 cumulative IPC: 1.231 (Simulation time: 00 hr 32 min 38 sec)
Heartbeat CPU 0 instructions: 234501304 cycles: 163346269 heartbeat IPC: 2.021 cumulative IPC: 1.232 (Simulation time: 00 hr 32 min 42 sec)
Heartbeat CPU 0 instructions: 235001307 cycles: 163602782 heartbeat IPC: 1.949 cumulative IPC: 1.233 (Simulation time: 00 hr 32 min 46 sec)
Heartbeat CPU 0 instructions: 235501313 cycles: 163854241 heartbeat IPC: 1.988 cumulative IPC: 1.235 (Simulation time: 00 hr 32 min 49 sec)
Heartbeat CPU 0 instructions: 236001314 cycles: 164082808 heartbeat IPC: 2.188 cumulative IPC: 1.236 (Simulation time: 00 hr 32 min 53 sec)
Heartbeat CPU 0 instructions: 236501314 cycles: 164341092 heartbeat IPC: 1.936 cumulative IPC: 1.237 (Simulation time: 00 hr 32 min 57 sec)
Heartbeat CPU 0 instructions: 237001319 cycles: 164594748 heartbeat IPC: 1.971 cumulative IPC: 1.239 (Simulation time: 00 hr 33 min 00 sec)
Heartbeat CPU 0 instructions: 237501322 cycles: 164845617 heartbeat IPC: 1.993 cumulative IPC: 1.24 (Simulation time: 00 hr 33 min 04 sec)
Heartbeat CPU 0 instructions: 238001323 cycles: 165081802 heartbeat IPC: 2.117 cumulative IPC: 1.241 (Simulation time: 00 hr 33 min 08 sec)
Heartbeat CPU 0 instructions: 238501324 cycles: 165334316 heartbeat IPC: 1.98 cumulative IPC: 1.242 (Simulation time: 00 hr 33 min 12 sec)
Heartbeat CPU 0 instructions: 239001329 cycles: 165589897 heartbeat IPC: 1.956 cumulative IPC: 1.244 (Simulation time: 00 hr 33 min 15 sec)
Heartbeat CPU 0 instructions: 239501331 cycles: 165849179 heartbeat IPC: 1.928 cumulative IPC: 1.245 (Simulation time: 00 hr 33 min 19 sec)
Heartbeat CPU 0 instructions: 240001332 cycles: 166092589 heartbeat IPC: 2.054 cumulative IPC: 1.246 (Simulation time: 00 hr 33 min 23 sec)
Heartbeat CPU 0 instructions: 240501332 cycles: 166347765 heartbeat IPC: 1.959 cumulative IPC: 1.247 (Simulation time: 00 hr 33 min 27 sec)
Heartbeat CPU 0 instructions: 241001338 cycles: 166603787 heartbeat IPC: 1.953 cumulative IPC: 1.248 (Simulation time: 00 hr 33 min 31 sec)
Heartbeat CPU 0 instructions: 241501340 cycles: 166844441 heartbeat IPC: 2.078 cumulative IPC: 1.25 (Simulation time: 00 hr 33 min 34 sec)
Heartbeat CPU 0 instructions: 242001340 cycles: 167085846 heartbeat IPC: 2.071 cumulative IPC: 1.251 (Simulation time: 00 hr 33 min 38 sec)
Heartbeat CPU 0 instructions: 242501340 cycles: 167334461 heartbeat IPC: 2.011 cumulative IPC: 1.252 (Simulation time: 00 hr 33 min 42 sec)
Heartbeat CPU 0 instructions: 243001341 cycles: 167599342 heartbeat IPC: 1.888 cumulative IPC: 1.253 (Simulation time: 00 hr 33 min 46 sec)
Heartbeat CPU 0 instructions: 243501341 cycles: 167848965 heartbeat IPC: 2.003 cumulative IPC: 1.255 (Simulation time: 00 hr 33 min 49 sec)
Heartbeat CPU 0 instructions: 244001342 cycles: 168084100 heartbeat IPC: 2.126 cumulative IPC: 1.256 (Simulation time: 00 hr 33 min 53 sec)
Heartbeat CPU 0 instructions: 244501349 cycles: 168333916 heartbeat IPC: 2.002 cumulative IPC: 1.257 (Simulation time: 00 hr 33 min 57 sec)
Heartbeat CPU 0 instructions: 245001350 cycles: 168590273 heartbeat IPC: 1.95 cumulative IPC: 1.258 (Simulation time: 00 hr 34 min 01 sec)
Heartbeat CPU 0 instructions: 245501350 cycles: 168833464 heartbeat IPC: 2.056 cumulative IPC: 1.26 (Simulation time: 00 hr 34 min 04 sec)
Heartbeat CPU 0 instructions: 246001351 cycles: 169061696 heartbeat IPC: 2.191 cumulative IPC: 1.261 (Simulation time: 00 hr 34 min 08 sec)
Heartbeat CPU 0 instructions: 246501355 cycles: 169298164 heartbeat IPC: 2.114 cumulative IPC: 1.262 (Simulation time: 00 hr 34 min 12 sec)
Heartbeat CPU 0 instructions: 247001360 cycles: 169546719 heartbeat IPC: 2.012 cumulative IPC: 1.263 (Simulation time: 00 hr 34 min 15 sec)
Heartbeat CPU 0 instructions: 247501367 cycles: 169788093 heartbeat IPC: 2.072 cumulative IPC: 1.265 (Simulation time: 00 hr 34 min 19 sec)
Heartbeat CPU 0 instructions: 248001368 cycles: 170024491 heartbeat IPC: 2.115 cumulative IPC: 1.266 (Simulation time: 00 hr 34 min 23 sec)
Heartbeat CPU 0 instructions: 248501375 cycles: 170269765 heartbeat IPC: 2.039 cumulative IPC: 1.267 (Simulation time: 00 hr 34 min 26 sec)
Heartbeat CPU 0 instructions: 249001376 cycles: 170516288 heartbeat IPC: 2.028 cumulative IPC: 1.268 (Simulation time: 00 hr 34 min 30 sec)
Heartbeat CPU 0 instructions: 249501376 cycles: 170767333 heartbeat IPC: 1.992 cumulative IPC: 1.269 (Simulation time: 00 hr 34 min 34 sec)
*** Reached end of trace: (0, "/local-ssd/ben/dpc4-traces/Graph/Ligra/ligra_Components.com-lj.ungraph.gcc_6.3.0_O3.drop_15750M.length_250M.champsimtrace.xz")
Simulation finished CPU 0 instructions: 200000000 cycles: 157388022 cumulative IPC: 1.271 (Simulation time: 00 hr 34 min 37 sec)
Simulation complete CPU 0 instructions: 200000000 cycles: 157388022 cumulative IPC: 1.271 (Simulation time: 00 hr 34 min 37 sec)

ChampSim completed all CPUs

=== Simulation ===
CPU 0 runs /local-ssd/ben/dpc4-traces/Graph/Ligra/ligra_Components.com-lj.ungraph.gcc_6.3.0_O3.drop_15750M.length_250M.champsimtrace.xz

Region of Interest Statistics

CPU 0 cumulative IPC: 1.271 instructions: 200000000 cycles: 157388022
CPU 0 Branch Prediction Accuracy: 89.85% MPKI: 11.89 Average ROB Occupancy at Mispredict: 31.33
Branch type MPKI
BRANCH_DIRECT_JUMP: 0.000125
BRANCH_INDIRECT: 1e-05
BRANCH_CONDITIONAL: 11.89
BRANCH_DIRECT_CALL: 9.5e-05
BRANCH_INDIRECT_CALL: 1e-05
BRANCH_RETURN: 9e-05

cpu0->cpu0_STLB TOTAL        ACCESS:      65971 HIT:        583 MISS:      65388 MSHR_MERGE:          0
cpu0->cpu0_STLB LOAD         ACCESS:      65971 HIT:        583 MISS:      65388 MSHR_MERGE:          0
cpu0->cpu0_STLB RFO          ACCESS:          0 HIT:          0 MISS:          0 MSHR_MERGE:          0
cpu0->cpu0_STLB PREFETCH     ACCESS:          0 HIT:          0 MISS:          0 MSHR_MERGE:          0
cpu0->cpu0_STLB WRITE        ACCESS:          0 HIT:          0 MISS:          0 MSHR_MERGE:          0
cpu0->cpu0_STLB TRANSLATION  ACCESS:          0 HIT:          0 MISS:          0 MSHR_MERGE:          0
cpu0->cpu0_STLB PREFETCH REQUESTED:          0 ISSUED:          0 USEFUL:          0 USELESS:          0
cpu0->cpu0_STLB AVERAGE MISS LATENCY: 261.3 cycles
cpu0->cpu0_L2C TOTAL        ACCESS:    6491100 HIT:    2301998 MISS:    4189102 MSHR_MERGE:          0
cpu0->cpu0_L2C LOAD         ACCESS:     515130 HIT:     367674 MISS:     147456 MSHR_MERGE:          0
cpu0->cpu0_L2C RFO          ACCESS:    1837380 HIT:      84660 MISS:    1752720 MSHR_MERGE:          0
cpu0->cpu0_L2C PREFETCH     ACCESS:    2284922 HIT:       4352 MISS:    2280570 MSHR_MERGE:          0
cpu0->cpu0_L2C WRITE        ACCESS:    1841505 HIT:    1841505 MISS:          0 MSHR_MERGE:          0
cpu0->cpu0_L2C TRANSLATION  ACCESS:      12163 HIT:       3807 MISS:       8356 MSHR_MERGE:          0
cpu0->cpu0_L2C PREFETCH REQUESTED:          0 ISSUED:          0 USEFUL:          0 USELESS:          0
cpu0->cpu0_L2C AVERAGE MISS LATENCY: 367.1 cycles
cpu0->cpu0_L1I TOTAL        ACCESS:   10092879 HIT:   10092721 MISS:        158 MSHR_MERGE:         12
cpu0->cpu0_L1I LOAD         ACCESS:   10092879 HIT:   10092721 MISS:        158 MSHR_MERGE:         12
cpu0->cpu0_L1I RFO          ACCESS:          0 HIT:          0 MISS:          0 MSHR_MERGE:          0
cpu0->cpu0_L1I PREFETCH     ACCESS:          0 HIT:          0 MISS:          0 MSHR_MERGE:          0
cpu0->cpu0_L1I WRITE        ACCESS:          0 HIT:          0 MISS:          0 MSHR_MERGE:          0
cpu0->cpu0_L1I TRANSLATION  ACCESS:          0 HIT:          0 MISS:          0 MSHR_MERGE:          0
cpu0->cpu0_L1I PREFETCH REQUESTED:          0 ISSUED:          0 USEFUL:          0 USELESS:          0
cpu0->cpu0_L1I AVERAGE MISS LATENCY: 230.6 cycles
cpu0->cpu0_L1D TOTAL        ACCESS:   57007641 HIT:   25564820 MISS:   31442821 MSHR_MERGE:   26793328
cpu0->cpu0_L1D LOAD         ACCESS:   20641304 HIT:   18289078 MISS:    2352226 MSHR_MERGE:    1837240
cpu0->cpu0_L1D RFO          ACCESS:          0 HIT:          0 MISS:          0 MSHR_MERGE:          0
cpu0->cpu0_L1D PREFETCH     ACCESS:    2475298 HIT:     122135 MISS:    2353163 MSHR_MERGE:      68241
cpu0->cpu0_L1D WRITE        ACCESS:   33760924 HIT:    7036366 MISS:   26724558 MSHR_MERGE:   24887136
cpu0->cpu0_L1D TRANSLATION  ACCESS:     130115 HIT:     117241 MISS:      12874 MSHR_MERGE:        711
cpu0->cpu0_L1D PREFETCH REQUESTED:    2850419 ISSUED:    2475290 USEFUL:    2277636 USELESS:       7273
cpu0->cpu0_L1D AVERAGE MISS LATENCY: 285.7 cycles
cpu0->cpu0_ITLB TOTAL        ACCESS:   10092851 HIT:   10092820 MISS:         31 MSHR_MERGE:         11
cpu0->cpu0_ITLB LOAD         ACCESS:   10092851 HIT:   10092820 MISS:         31 MSHR_MERGE:         11
cpu0->cpu0_ITLB RFO          ACCESS:          0 HIT:          0 MISS:          0 MSHR_MERGE:          0
cpu0->cpu0_ITLB PREFETCH     ACCESS:          0 HIT:          0 MISS:          0 MSHR_MERGE:          0
cpu0->cpu0_ITLB WRITE        ACCESS:          0 HIT:          0 MISS:          0 MSHR_MERGE:          0
cpu0->cpu0_ITLB TRANSLATION  ACCESS:          0 HIT:          0 MISS:          0 MSHR_MERGE:          0
cpu0->cpu0_ITLB PREFETCH REQUESTED:          0 ISSUED:          0 USEFUL:          0 USELESS:          0
cpu0->cpu0_ITLB AVERAGE MISS LATENCY: 402.1 cycles
cpu0->cpu0_DTLB TOTAL        ACCESS:   52467034 HIT:   51799698 MISS:     667336 MSHR_MERGE:     601385
cpu0->cpu0_DTLB LOAD         ACCESS:   52467034 HIT:   51799698 MISS:     667336 MSHR_MERGE:     601385
cpu0->cpu0_DTLB RFO          ACCESS:          0 HIT:          0 MISS:          0 MSHR_MERGE:          0
cpu0->cpu0_DTLB PREFETCH     ACCESS:          0 HIT:          0 MISS:          0 MSHR_MERGE:          0
cpu0->cpu0_DTLB WRITE        ACCESS:          0 HIT:          0 MISS:          0 MSHR_MERGE:          0
cpu0->cpu0_DTLB TRANSLATION  ACCESS:          0 HIT:          0 MISS:          0 MSHR_MERGE:          0
cpu0->cpu0_DTLB PREFETCH REQUESTED:          0 ISSUED:          0 USEFUL:          0 USELESS:          0
cpu0->cpu0_DTLB AVERAGE MISS LATENCY: 264.9 cycles
cpu0->LLC TOTAL        ACCESS:    5945580 HIT:     778098 MISS:    5167482 MSHR_MERGE:          0
cpu0->LLC LOAD         ACCESS:     147456 HIT:          0 MISS:     147456 MSHR_MERGE:          0
cpu0->LLC RFO          ACCESS:    1752720 HIT:          0 MISS:    1752720 MSHR_MERGE:          0
cpu0->LLC PREFETCH     ACCESS:    2280570 HIT:          0 MISS:    2280570 MSHR_MERGE:          0
cpu0->LLC WRITE        ACCESS:    1756478 HIT:     778084 MISS:     978394 MSHR_MERGE:          0
cpu0->LLC TRANSLATION  ACCESS:       8356 HIT:         14 MISS:       8342 MSHR_MERGE:          0
cpu0->LLC PREFETCH REQUESTED:          0 ISSUED:          0 USEFUL:          0 USELESS:          0
cpu0->LLC AVERAGE MISS LATENCY: 233.3 cycles

DRAM Statistics

Channel 0 RQ ROW_BUFFER_HIT:     206062
  ROW_BUFFER_MISS:    3983024
  AVG DBUS CONGESTED CYCLE: 13.13
Channel 0 WQ ROW_BUFFER_HIT:     249158
  ROW_BUFFER_MISS:    1508292
  FULL:      59933
Channel 0 REFRESHES ISSUED:      13115
