[VMEM] WARNING: physical memory size is smaller than virtual memory size.

*** ChampSim Multicore Out-of-Order Simulator ***
Warmup Instructions: 50000000
Simulation Instructions: 200000000
Number of CPUs: 1
Page size: 4096
Core 0: /local-ssd/ben/dpc4-traces/Graph/GAP/bc-12.trace.gz
 L1D Berti prefetcher
Off-chip DRAM Size: 64 GiB Channels: 1 Width: 64-bit Data Rate: 4807 MT/s
Heartbeat CPU 0 instructions: 500001 cycles: 508655 heartbeat IPC: 0.983 cumulative IPC: 0.983 (Simulation time: 00 hr 00 min 05 sec)
Heartbeat CPU 0 instructions: 1000001 cycles: 1014862 heartbeat IPC: 0.9877 cumulative IPC: 0.9854 (Simulation time: 00 hr 00 min 09 sec)
Heartbeat CPU 0 instructions: 1500001 cycles: 1520845 heartbeat IPC: 0.9882 cumulative IPC: 0.9863 (Simulation time: 00 hr 00 min 14 sec)
Heartbeat CPU 0 instructions: 2000001 cycles: 1874042 heartbeat IPC: 1.416 cumulative IPC: 1.067 (Simulation time: 00 hr 00 min 17 sec)
Heartbeat CPU 0 instructions: 2500004 cycles: 1986860 heartbeat IPC: 4.432 cumulative IPC: 1.258 (Simulation time: 00 hr 00 min 19 sec)
Heartbeat CPU 0 instructions: 3000005 cycles: 2090277 heartbeat IPC: 4.835 cumulative IPC: 1.435 (Simulation time: 00 hr 00 min 22 sec)
Heartbeat CPU 0 instructions: 3500007 cycles: 2204309 heartbeat IPC: 4.385 cumulative IPC: 1.588 (Simulation time: 00 hr 00 min 24 sec)
Heartbeat CPU 0 instructions: 4000011 cycles: 2308579 heartbeat IPC: 4.795 cumulative IPC: 1.733 (Simulation time: 00 hr 00 min 26 sec)
Heartbeat CPU 0 instructions: 4500014 cycles: 2420098 heartbeat IPC: 4.484 cumulative IPC: 1.859 (Simulation time: 00 hr 00 min 29 sec)
Heartbeat CPU 0 instructions: 5000019 cycles: 2524726 heartbeat IPC: 4.779 cumulative IPC: 1.98 (Simulation time: 00 hr 00 min 31 sec)
Heartbeat CPU 0 instructions: 5500025 cycles: 2635214 heartbeat IPC: 4.525 cumulative IPC: 2.087 (Simulation time: 00 hr 00 min 34 sec)
Heartbeat CPU 0 instructions: 6000030 cycles: 2742149 heartbeat IPC: 4.676 cumulative IPC: 2.188 (Simulation time: 00 hr 00 min 36 sec)
Heartbeat CPU 0 instructions: 6500031 cycles: 2853953 heartbeat IPC: 4.472 cumulative IPC: 2.278 (Simulation time: 00 hr 00 min 39 sec)
Heartbeat CPU 0 instructions: 7000034 cycles: 2961177 heartbeat IPC: 4.663 cumulative IPC: 2.364 (Simulation time: 00 hr 00 min 41 sec)
Heartbeat CPU 0 instructions: 7500034 cycles: 3067753 heartbeat IPC: 4.691 cumulative IPC: 2.445 (Simulation time: 00 hr 00 min 43 sec)
Heartbeat CPU 0 instructions: 8000035 cycles: 3179026 heartbeat IPC: 4.493 cumulative IPC: 2.517 (Simulation time: 00 hr 00 min 46 sec)
Heartbeat CPU 0 instructions: 8500037 cycles: 3284819 heartbeat IPC: 4.726 cumulative IPC: 2.588 (Simulation time: 00 hr 00 min 48 sec)
Heartbeat CPU 0 instructions: 9000043 cycles: 3392399 heartbeat IPC: 4.648 cumulative IPC: 2.653 (Simulation time: 00 hr 00 min 51 sec)
Heartbeat CPU 0 instructions: 9500050 cycles: 3503330 heartbeat IPC: 4.507 cumulative IPC: 2.712 (Simulation time: 00 hr 00 min 53 sec)
Heartbeat CPU 0 instructions: 10000056 cycles: 3608770 heartbeat IPC: 4.742 cumulative IPC: 2.771 (Simulation time: 00 hr 00 min 56 sec)
Heartbeat CPU 0 instructions: 10500063 cycles: 3713421 heartbeat IPC: 4.778 cumulative IPC: 2.828 (Simulation time: 00 hr 00 min 58 sec)
Heartbeat CPU 0 instructions: 11000070 cycles: 3819127 heartbeat IPC: 4.73 cumulative IPC: 2.88 (Simulation time: 00 hr 01 min 00 sec)
Heartbeat CPU 0 instructions: 11500070 cycles: 3932244 heartbeat IPC: 4.42 cumulative IPC: 2.925 (Simulation time: 00 hr 01 min 03 sec)
Heartbeat CPU 0 instructions: 12000072 cycles: 4039415 heartbeat IPC: 4.665 cumulative IPC: 2.971 (Simulation time: 00 hr 01 min 06 sec)
Heartbeat CPU 0 instructions: 12500079 cycles: 4147097 heartbeat IPC: 4.643 cumulative IPC: 3.014 (Simulation time: 00 hr 01 min 08 sec)
Heartbeat CPU 0 instructions: 13000085 cycles: 4253009 heartbeat IPC: 4.721 cumulative IPC: 3.057 (Simulation time: 00 hr 01 min 11 sec)
Heartbeat CPU 0 instructions: 13500086 cycles: 4365325 heartbeat IPC: 4.452 cumulative IPC: 3.093 (Simulation time: 00 hr 01 min 13 sec)
Heartbeat CPU 0 instructions: 14000093 cycles: 4472934 heartbeat IPC: 4.647 cumulative IPC: 3.13 (Simulation time: 00 hr 01 min 16 sec)
Heartbeat CPU 0 instructions: 14500095 cycles: 4578930 heartbeat IPC: 4.717 cumulative IPC: 3.167 (Simulation time: 00 hr 01 min 18 sec)
Heartbeat CPU 0 instructions: 15000101 cycles: 4685182 heartbeat IPC: 4.706 cumulative IPC: 3.202 (Simulation time: 00 hr 01 min 21 sec)
Heartbeat CPU 0 instructions: 15500105 cycles: 4796528 heartbeat IPC: 4.491 cumulative IPC: 3.232 (Simulation time: 00 hr 01 min 23 sec)
Heartbeat CPU 0 instructions: 16000109 cycles: 4901096 heartbeat IPC: 4.782 cumulative IPC: 3.265 (Simulation time: 00 hr 01 min 26 sec)
Heartbeat CPU 0 instructions: 16500110 cycles: 5009865 heartbeat IPC: 4.597 cumulative IPC: 3.294 (Simulation time: 00 hr 01 min 28 sec)
Heartbeat CPU 0 instructions: 17000110 cycles: 5115039 heartbeat IPC: 4.754 cumulative IPC: 3.324 (Simulation time: 00 hr 01 min 31 sec)
Heartbeat CPU 0 instructions: 17500115 cycles: 5219989 heartbeat IPC: 4.764 cumulative IPC: 3.353 (Simulation time: 00 hr 01 min 33 sec)
Heartbeat CPU 0 instructions: 18000121 cycles: 5332807 heartbeat IPC: 4.432 cumulative IPC: 3.375 (Simulation time: 00 hr 01 min 36 sec)
Heartbeat CPU 0 instructions: 18500123 cycles: 5441122 heartbeat IPC: 4.616 cumulative IPC: 3.4 (Simulation time: 00 hr 01 min 38 sec)
Heartbeat CPU 0 instructions: 19000123 cycles: 5545528 heartbeat IPC: 4.789 cumulative IPC: 3.426 (Simulation time: 00 hr 01 min 41 sec)
Heartbeat CPU 0 instructions: 19500125 cycles: 5651737 heartbeat IPC: 4.708 cumulative IPC: 3.45 (Simulation time: 00 hr 01 min 43 sec)
Heartbeat CPU 0 instructions: 20000126 cycles: 5757881 heartbeat IPC: 4.711 cumulative IPC: 3.474 (Simulation time: 00 hr 01 min 46 sec)
Heartbeat CPU 0 instructions: 20500130 cycles: 5871518 heartbeat IPC: 4.4 cumulative IPC: 3.491 (Simulation time: 00 hr 01 min 48 sec)
Heartbeat CPU 0 instructions: 21000135 cycles: 5978889 heartbeat IPC: 4.657 cumulative IPC: 3.512 (Simulation time: 00 hr 01 min 51 sec)
Heartbeat CPU 0 instructions: 21500138 cycles: 6085491 heartbeat IPC: 4.69 cumulative IPC: 3.533 (Simulation time: 00 hr 01 min 53 sec)
Heartbeat CPU 0 instructions: 22000143 cycles: 6191308 heartbeat IPC: 4.725 cumulative IPC: 3.553 (Simulation time: 00 hr 01 min 56 sec)
Heartbeat CPU 0 instructions: 22500147 cycles: 6298500 heartbeat IPC: 4.665 cumulative IPC: 3.572 (Simulation time: 00 hr 01 min 59 sec)
Heartbeat CPU 0 instructions: 23000151 cycles: 6405343 heartbeat IPC: 4.68 cumulative IPC: 3.591 (Simulation time: 00 hr 02 min 01 sec)
Heartbeat CPU 0 instructions: 23500157 cycles: 6517232 heartbeat IPC: 4.469 cumulative IPC: 3.606 (Simulation time: 00 hr 02 min 04 sec)
Heartbeat CPU 0 instructions: 24000160 cycles: 6623754 heartbeat IPC: 4.694 cumulative IPC: 3.623 (Simulation time: 00 hr 02 min 06 sec)
Heartbeat CPU 0 instructions: 24500163 cycles: 6731871 heartbeat IPC: 4.625 cumulative IPC: 3.639 (Simulation time: 00 hr 02 min 09 sec)
Heartbeat CPU 0 instructions: 25000167 cycles: 6837652 heartbeat IPC: 4.727 cumulative IPC: 3.656 (Simulation time: 00 hr 02 min 11 sec)
Heartbeat CPU 0 instructions: 25500173 cycles: 6943315 heartbeat IPC: 4.732 cumulative IPC: 3.673 (Simulation time: 00 hr 02 min 14 sec)
Heartbeat CPU 0 instructions: 26000178 cycles: 7047738 heartbeat IPC: 4.788 cumulative IPC: 3.689 (Simulation time: 00 hr 02 min 16 sec)
Heartbeat CPU 0 instructions: 26500178 cycles: 7154343 heartbeat IPC: 4.69 cumulative IPC: 3.704 (Simulation time: 00 hr 02 min 19 sec)
Heartbeat CPU 0 instructions: 27000183 cycles: 7265167 heartbeat IPC: 4.512 cumulative IPC: 3.716 (Simulation time: 00 hr 02 min 21 sec)
Heartbeat CPU 0 instructions: 27500187 cycles: 7373208 heartbeat IPC: 4.628 cumulative IPC: 3.73 (Simulation time: 00 hr 02 min 24 sec)
Heartbeat CPU 0 instructions: 28000190 cycles: 7480670 heartbeat IPC: 4.653 cumulative IPC: 3.743 (Simulation time: 00 hr 02 min 26 sec)
Heartbeat CPU 0 instructions: 28500192 cycles: 7587235 heartbeat IPC: 4.692 cumulative IPC: 3.756 (Simulation time: 00 hr 02 min 29 sec)
Heartbeat CPU 0 instructions: 29000192 cycles: 7695172 heartbeat IPC: 4.632 cumulative IPC: 3.769 (Simulation time: 00 hr 02 min 32 sec)
Heartbeat CPU 0 instructions: 29500192 cycles: 7801918 heartbeat IPC: 4.684 cumulative IPC: 3.781 (Simulation time: 00 hr 02 min 34 sec)
Heartbeat CPU 0 instructions: 30000199 cycles: 7909955 heartbeat IPC: 4.628 cumulative IPC: 3.793 (Simulation time: 00 hr 02 min 37 sec)
Heartbeat CPU 0 instructions: 30500200 cycles: 8018584 heartbeat IPC: 4.603 cumulative IPC: 3.804 (Simulation time: 00 hr 02 min 39 sec)
Heartbeat CPU 0 instructions: 31000201 cycles: 8131022 heartbeat IPC: 4.447 cumulative IPC: 3.813 (Simulation time: 00 hr 02 min 42 sec)
Heartbeat CPU 0 instructions: 31500203 cycles: 8238265 heartbeat IPC: 4.662 cumulative IPC: 3.824 (Simulation time: 00 hr 02 min 45 sec)
Heartbeat CPU 0 instructions: 32000208 cycles: 8344523 heartbeat IPC: 4.706 cumulative IPC: 3.835 (Simulation time: 00 hr 02 min 47 sec)
Heartbeat CPU 0 instructions: 32500213 cycles: 8451266 heartbeat IPC: 4.684 cumulative IPC: 3.846 (Simulation time: 00 hr 02 min 50 sec)
Heartbeat CPU 0 instructions: 33000213 cycles: 8556447 heartbeat IPC: 4.754 cumulative IPC: 3.857 (Simulation time: 00 hr 02 min 52 sec)
Heartbeat CPU 0 instructions: 33500216 cycles: 8663697 heartbeat IPC: 4.662 cumulative IPC: 3.867 (Simulation time: 00 hr 02 min 55 sec)
Heartbeat CPU 0 instructions: 34000221 cycles: 8769005 heartbeat IPC: 4.748 cumulative IPC: 3.877 (Simulation time: 00 hr 02 min 57 sec)
Heartbeat CPU 0 instructions: 34500222 cycles: 8875250 heartbeat IPC: 4.706 cumulative IPC: 3.887 (Simulation time: 00 hr 03 min 00 sec)
Heartbeat CPU 0 instructions: 35000225 cycles: 8988232 heartbeat IPC: 4.426 cumulative IPC: 3.894 (Simulation time: 00 hr 03 min 02 sec)
Heartbeat CPU 0 instructions: 35500230 cycles: 9094419 heartbeat IPC: 4.709 cumulative IPC: 3.904 (Simulation time: 00 hr 03 min 05 sec)
Heartbeat CPU 0 instructions: 36000235 cycles: 9201485 heartbeat IPC: 4.67 cumulative IPC: 3.912 (Simulation time: 00 hr 03 min 07 sec)
Heartbeat CPU 0 instructions: 36500235 cycles: 9308622 heartbeat IPC: 4.667 cumulative IPC: 3.921 (Simulation time: 00 hr 03 min 10 sec)
Heartbeat CPU 0 instructions: 37000239 cycles: 9415626 heartbeat IPC: 4.673 cumulative IPC: 3.93 (Simulation time: 00 hr 03 min 12 sec)
Heartbeat CPU 0 instructions: 37500239 cycles: 9523533 heartbeat IPC: 4.634 cumulative IPC: 3.938 (Simulation time: 00 hr 03 min 15 sec)
Heartbeat CPU 0 instructions: 38000241 cycles: 9629250 heartbeat IPC: 4.73 cumulative IPC: 3.946 (Simulation time: 00 hr 03 min 17 sec)
Heartbeat CPU 0 instructions: 38500245 cycles: 9735122 heartbeat IPC: 4.723 cumulative IPC: 3.955 (Simulation time: 00 hr 03 min 20 sec)
Heartbeat CPU 0 instructions: 39000250 cycles: 9840703 heartbeat IPC: 4.736 cumulative IPC: 3.963 (Simulation time: 00 hr 03 min 22 sec)
Heartbeat CPU 0 instructions: 39500250 cycles: 9953468 heartbeat IPC: 4.434 cumulative IPC: 3.968 (Simulation time: 00 hr 03 min 25 sec)
Heartbeat CPU 0 instructions: 40000252 cycles: 10059306 heartbeat IPC: 4.724 cumulative IPC: 3.976 (Simulation time: 00 hr 03 min 28 sec)
Heartbeat CPU 0 instructions: 40500252 cycles: 10163008 heartbeat IPC: 4.822 cumulative IPC: 3.985 (Simulation time: 00 hr 03 min 30 sec)
Heartbeat CPU 0 instructions: 41000259 cycles: 10268996 heartbeat IPC: 4.718 cumulative IPC: 3.993 (Simulation time: 00 hr 03 min 32 sec)
Heartbeat CPU 0 instructions: 41500260 cycles: 10375104 heartbeat IPC: 4.712 cumulative IPC: 4 (Simulation time: 00 hr 03 min 35 sec)
Heartbeat CPU 0 instructions: 42000267 cycles: 10479695 heartbeat IPC: 4.781 cumulative IPC: 4.008 (Simulation time: 00 hr 03 min 37 sec)
Heartbeat CPU 0 instructions: 42500274 cycles: 10586594 heartbeat IPC: 4.677 cumulative IPC: 4.015 (Simulation time: 00 hr 03 min 40 sec)
Heartbeat CPU 0 instructions: 43000281 cycles: 10691897 heartbeat IPC: 4.748 cumulative IPC: 4.022 (Simulation time: 00 hr 03 min 42 sec)
Heartbeat CPU 0 instructions: 43500285 cycles: 10799206 heartbeat IPC: 4.659 cumulative IPC: 4.028 (Simulation time: 00 hr 03 min 45 sec)
Heartbeat CPU 0 instructions: 44000287 cycles: 10911589 heartbeat IPC: 4.449 cumulative IPC: 4.032 (Simulation time: 00 hr 03 min 47 sec)
Heartbeat CPU 0 instructions: 44500292 cycles: 11018099 heartbeat IPC: 4.694 cumulative IPC: 4.039 (Simulation time: 00 hr 03 min 50 sec)
Heartbeat CPU 0 instructions: 45000298 cycles: 11124637 heartbeat IPC: 4.693 cumulative IPC: 4.045 (Simulation time: 00 hr 03 min 52 sec)
Heartbeat CPU 0 instructions: 45500298 cycles: 11233109 heartbeat IPC: 4.609 cumulative IPC: 4.051 (Simulation time: 00 hr 03 min 55 sec)
Heartbeat CPU 0 instructions: 46000299 cycles: 11338901 heartbeat IPC: 4.726 cumulative IPC: 4.057 (Simulation time: 00 hr 03 min 57 sec)
Heartbeat CPU 0 instructions: 46500300 cycles: 11446958 heartbeat IPC: 4.627 cumulative IPC: 4.062 (Simulation time: 00 hr 04 min 00 sec)
Heartbeat CPU 0 instructions: 47000307 cycles: 11551722 heartbeat IPC: 4.773 cumulative IPC: 4.069 (Simulation time: 00 hr 04 min 02 sec)
Heartbeat CPU 0 instructions: 47500309 cycles: 11657268 heartbeat IPC: 4.737 cumulative IPC: 4.075 (Simulation time: 00 hr 04 min 05 sec)
Heartbeat CPU 0 instructions: 48000310 cycles: 11763146 heartbeat IPC: 4.722 cumulative IPC: 4.081 (Simulation time: 00 hr 04 min 07 sec)
Heartbeat CPU 0 instructions: 48500312 cycles: 11869542 heartbeat IPC: 4.699 cumulative IPC: 4.086 (Simulation time: 00 hr 04 min 10 sec)
Heartbeat CPU 0 instructions: 49000316 cycles: 11974917 heartbeat IPC: 4.745 cumulative IPC: 4.092 (Simulation time: 00 hr 04 min 12 sec)
Heartbeat CPU 0 instructions: 49500321 cycles: 12087368 heartbeat IPC: 4.446 cumulative IPC: 4.095 (Simulation time: 00 hr 04 min 15 sec)
Warmup halting CPU 0 at instruction 50000006 cycle 12193302 for remainder of phase
Warmup finished CPU 0 instructions: 50000006 cycles: 12193302 cumulative IPC: 4.101 (Simulation time: 00 hr 04 min 17 sec)
Warmup complete CPU 0 instructions: 50000006 cycles: 12193302 cumulative IPC: 4.101 (Simulation time: 00 hr 04 min 17 sec)
Heartbeat CPU 0 instructions: 50000326 cycles: 12194049 heartbeat IPC: 4.687 cumulative IPC: 0.4284 (Simulation time: 00 hr 04 min 17 sec)
Heartbeat CPU 0 instructions: 50500328 cycles: 14651528 heartbeat IPC: 0.2035 cumulative IPC: 0.2035 (Simulation time: 00 hr 04 min 37 sec)
Heartbeat CPU 0 instructions: 51000330 cycles: 16889803 heartbeat IPC: 0.2234 cumulative IPC: 0.213 (Simulation time: 00 hr 04 min 55 sec)
Heartbeat CPU 0 instructions: 51500330 cycles: 19383362 heartbeat IPC: 0.2005 cumulative IPC: 0.2087 (Simulation time: 00 hr 05 min 16 sec)
Heartbeat CPU 0 instructions: 52000336 cycles: 21872074 heartbeat IPC: 0.2009 cumulative IPC: 0.2067 (Simulation time: 00 hr 05 min 35 sec)
Heartbeat CPU 0 instructions: 52500336 cycles: 24057045 heartbeat IPC: 0.2288 cumulative IPC: 0.2108 (Simulation time: 00 hr 05 min 52 sec)
Heartbeat CPU 0 instructions: 53000339 cycles: 26475116 heartbeat IPC: 0.2068 cumulative IPC: 0.2101 (Simulation time: 00 hr 06 min 11 sec)
Heartbeat CPU 0 instructions: 53500340 cycles: 28863081 heartbeat IPC: 0.2094 cumulative IPC: 0.21 (Simulation time: 00 hr 06 min 29 sec)
Heartbeat CPU 0 instructions: 54000341 cycles: 31210140 heartbeat IPC: 0.213 cumulative IPC: 0.2104 (Simulation time: 00 hr 06 min 47 sec)
Heartbeat CPU 0 instructions: 54500341 cycles: 33536450 heartbeat IPC: 0.2149 cumulative IPC: 0.2109 (Simulation time: 00 hr 07 min 05 sec)
Heartbeat CPU 0 instructions: 55000343 cycles: 36046700 heartbeat IPC: 0.1992 cumulative IPC: 0.2096 (Simulation time: 00 hr 07 min 24 sec)
Heartbeat CPU 0 instructions: 55500344 cycles: 38437671 heartbeat IPC: 0.2091 cumulative IPC: 0.2096 (Simulation time: 00 hr 07 min 43 sec)
Heartbeat CPU 0 instructions: 56000346 cycles: 40845121 heartbeat IPC: 0.2077 cumulative IPC: 0.2094 (Simulation time: 00 hr 08 min 01 sec)
Heartbeat CPU 0 instructions: 56500349 cycles: 43196126 heartbeat IPC: 0.2127 cumulative IPC: 0.2097 (Simulation time: 00 hr 08 min 20 sec)
Heartbeat CPU 0 instructions: 57000351 cycles: 45678947 heartbeat IPC: 0.2014 cumulative IPC: 0.2091 (Simulation time: 00 hr 08 min 39 sec)
Heartbeat CPU 0 instructions: 57500357 cycles: 48118104 heartbeat IPC: 0.205 cumulative IPC: 0.2088 (Simulation time: 00 hr 08 min 58 sec)
Heartbeat CPU 0 instructions: 58000357 cycles: 50444476 heartbeat IPC: 0.2149 cumulative IPC: 0.2092 (Simulation time: 00 hr 09 min 18 sec)
Heartbeat CPU 0 instructions: 58500359 cycles: 52920086 heartbeat IPC: 0.202 cumulative IPC: 0.2087 (Simulation time: 00 hr 09 min 37 sec)
Heartbeat CPU 0 instructions: 59000365 cycles: 55281077 heartbeat IPC: 0.2118 cumulative IPC: 0.2089 (Simulation time: 00 hr 09 min 54 sec)
Heartbeat CPU 0 instructions: 59500365 cycles: 57623180 heartbeat IPC: 0.2135 cumulative IPC: 0.2091 (Simulation time: 00 hr 10 min 12 sec)
Heartbeat CPU 0 instructions: 60000370 cycles: 59970261 heartbeat IPC: 0.213 cumulative IPC: 0.2093 (Simulation time: 00 hr 10 min 30 sec)
Heartbeat CPU 0 instructions: 60500370 cycles: 62417202 heartbeat IPC: 0.2043 cumulative IPC: 0.2091 (Simulation time: 00 hr 10 min 50 sec)
Heartbeat CPU 0 instructions: 61000371 cycles: 64799873 heartbeat IPC: 0.2098 cumulative IPC: 0.2091 (Simulation time: 00 hr 11 min 08 sec)
Heartbeat CPU 0 instructions: 61500371 cycles: 67103101 heartbeat IPC: 0.2171 cumulative IPC: 0.2094 (Simulation time: 00 hr 11 min 25 sec)
Heartbeat CPU 0 instructions: 62000375 cycles: 69464940 heartbeat IPC: 0.2117 cumulative IPC: 0.2095 (Simulation time: 00 hr 11 min 43 sec)
Heartbeat CPU 0 instructions: 62500375 cycles: 71943213 heartbeat IPC: 0.2018 cumulative IPC: 0.2092 (Simulation time: 00 hr 12 min 03 sec)
Heartbeat CPU 0 instructions: 63000375 cycles: 74342780 heartbeat IPC: 0.2084 cumulative IPC: 0.2092 (Simulation time: 00 hr 12 min 22 sec)
Heartbeat CPU 0 instructions: 63500375 cycles: 76677226 heartbeat IPC: 0.2142 cumulative IPC: 0.2094 (Simulation time: 00 hr 12 min 39 sec)
Heartbeat CPU 0 instructions: 64000375 cycles: 79165492 heartbeat IPC: 0.2009 cumulative IPC: 0.209 (Simulation time: 00 hr 12 min 59 sec)
Heartbeat CPU 0 instructions: 64500375 cycles: 81627339 heartbeat IPC: 0.2031 cumulative IPC: 0.2088 (Simulation time: 00 hr 13 min 18 sec)
Heartbeat CPU 0 instructions: 65000379 cycles: 84131225 heartbeat IPC: 0.1997 cumulative IPC: 0.2085 (Simulation time: 00 hr 13 min 38 sec)
Heartbeat CPU 0 instructions: 65500379 cycles: 86631452 heartbeat IPC: 0.2 cumulative IPC: 0.2082 (Simulation time: 00 hr 13 min 57 sec)
Heartbeat CPU 0 instructions: 66000383 cycles: 88979387 heartbeat IPC: 0.213 cumulative IPC: 0.2084 (Simulation time: 00 hr 14 min 15 sec)
Heartbeat CPU 0 instructions: 66500383 cycles: 91349253 heartbeat IPC: 0.211 cumulative IPC: 0.2085 (Simulation time: 00 hr 14 min 33 sec)
Heartbeat CPU 0 instructions: 67000388 cycles: 93817748 heartbeat IPC: 0.2026 cumulative IPC: 0.2083 (Simulation time: 00 hr 14 min 52 sec)
Heartbeat CPU 0 instructions: 67500394 cycles: 96194473 heartbeat IPC: 0.2104 cumulative IPC: 0.2083 (Simulation time: 00 hr 15 min 10 sec)
Heartbeat CPU 0 instructions: 68000394 cycles: 98544733 heartbeat IPC: 0.2127 cumulative IPC: 0.2085 (Simulation time: 00 hr 15 min 28 sec)
Heartbeat CPU 0 instructions: 68500400 cycles: 100740321 heartbeat IPC: 0.2277 cumulative IPC: 0.2089 (Simulation time: 00 hr 15 min 47 sec)
Heartbeat CPU 0 instructions: 69000400 cycles: 103250103 heartbeat IPC: 0.1992 cumulative IPC: 0.2087 (Simulation time: 00 hr 16 min 06 sec)
Heartbeat CPU 0 instructions: 69500401 cycles: 105645769 heartbeat IPC: 0.2087 cumulative IPC: 0.2087 (Simulation time: 00 hr 16 min 25 sec)
Heartbeat CPU 0 instructions: 70000402 cycles: 108133174 heartbeat IPC: 0.201 cumulative IPC: 0.2085 (Simulation time: 00 hr 16 min 44 sec)
Heartbeat CPU 0 instructions: 70500409 cycles: 110554481 heartbeat IPC: 0.2065 cumulative IPC: 0.2084 (Simulation time: 00 hr 17 min 03 sec)
Heartbeat CPU 0 instructions: 71000414 cycles: 112942038 heartbeat IPC: 0.2094 cumulative IPC: 0.2084 (Simulation time: 00 hr 17 min 22 sec)
Heartbeat CPU 0 instructions: 71500414 cycles: 115377193 heartbeat IPC: 0.2053 cumulative IPC: 0.2084 (Simulation time: 00 hr 17 min 41 sec)
Heartbeat CPU 0 instructions: 72000417 cycles: 117761914 heartbeat IPC: 0.2097 cumulative IPC: 0.2084 (Simulation time: 00 hr 17 min 59 sec)
Heartbeat CPU 0 instructions: 72500417 cycles: 120222142 heartbeat IPC: 0.2032 cumulative IPC: 0.2083 (Simulation time: 00 hr 18 min 18 sec)
Heartbeat CPU 0 instructions: 73000417 cycles: 122683163 heartbeat IPC: 0.2032 cumulative IPC: 0.2082 (Simulation time: 00 hr 18 min 37 sec)
Heartbeat CPU 0 instructions: 73500424 cycles: 125076595 heartbeat IPC: 0.2089 cumulative IPC: 0.2082 (Simulation time: 00 hr 18 min 55 sec)
Heartbeat CPU 0 instructions: 74000426 cycles: 127427410 heartbeat IPC: 0.2127 cumulative IPC: 0.2083 (Simulation time: 00 hr 19 min 13 sec)
Heartbeat CPU 0 instructions: 74500426 cycles: 129769815 heartbeat IPC: 0.2135 cumulative IPC: 0.2084 (Simulation time: 00 hr 19 min 30 sec)
Heartbeat CPU 0 instructions: 75000428 cycles: 132058022 heartbeat IPC: 0.2185 cumulative IPC: 0.2086 (Simulation time: 00 hr 19 min 47 sec)
Heartbeat CPU 0 instructions: 75500429 cycles: 134410833 heartbeat IPC: 0.2125 cumulative IPC: 0.2086 (Simulation time: 00 hr 20 min 05 sec)
Heartbeat CPU 0 instructions: 76000432 cycles: 136751973 heartbeat IPC: 0.2136 cumulative IPC: 0.2087 (Simulation time: 00 hr 20 min 22 sec)
Heartbeat CPU 0 instructions: 76500434 cycles: 139234389 heartbeat IPC: 0.2014 cumulative IPC: 0.2086 (Simulation time: 00 hr 20 min 42 sec)
Heartbeat CPU 0 instructions: 77000436 cycles: 141503747 heartbeat IPC: 0.2203 cumulative IPC: 0.2088 (Simulation time: 00 hr 21 min 00 sec)
Heartbeat CPU 0 instructions: 77500442 cycles: 143875938 heartbeat IPC: 0.2108 cumulative IPC: 0.2088 (Simulation time: 00 hr 21 min 19 sec)
Heartbeat CPU 0 instructions: 78000446 cycles: 146263417 heartbeat IPC: 0.2094 cumulative IPC: 0.2088 (Simulation time: 00 hr 21 min 36 sec)
Heartbeat CPU 0 instructions: 78500448 cycles: 148653752 heartbeat IPC: 0.2092 cumulative IPC: 0.2089 (Simulation time: 00 hr 21 min 54 sec)
Heartbeat CPU 0 instructions: 79000455 cycles: 151050009 heartbeat IPC: 0.2087 cumulative IPC: 0.2089 (Simulation time: 00 hr 22 min 13 sec)
Heartbeat CPU 0 instructions: 79500455 cycles: 153410720 heartbeat IPC: 0.2118 cumulative IPC: 0.2089 (Simulation time: 00 hr 22 min 30 sec)
Heartbeat CPU 0 instructions: 80000455 cycles: 155799131 heartbeat IPC: 0.2093 cumulative IPC: 0.2089 (Simulation time: 00 hr 22 min 49 sec)
Heartbeat CPU 0 instructions: 80500462 cycles: 158185572 heartbeat IPC: 0.2095 cumulative IPC: 0.2089 (Simulation time: 00 hr 23 min 07 sec)
Heartbeat CPU 0 instructions: 81000469 cycles: 160652094 heartbeat IPC: 0.2027 cumulative IPC: 0.2088 (Simulation time: 00 hr 23 min 27 sec)
Heartbeat CPU 0 instructions: 81500472 cycles: 163094107 heartbeat IPC: 0.2048 cumulative IPC: 0.2087 (Simulation time: 00 hr 23 min 46 sec)
Heartbeat CPU 0 instructions: 82000475 cycles: 165500743 heartbeat IPC: 0.2078 cumulative IPC: 0.2087 (Simulation time: 00 hr 24 min 04 sec)
Heartbeat CPU 0 instructions: 82500476 cycles: 168068022 heartbeat IPC: 0.1948 cumulative IPC: 0.2085 (Simulation time: 00 hr 24 min 25 sec)
Heartbeat CPU 0 instructions: 83000477 cycles: 170445917 heartbeat IPC: 0.2103 cumulative IPC: 0.2085 (Simulation time: 00 hr 24 min 43 sec)
Heartbeat CPU 0 instructions: 83500481 cycles: 172893404 heartbeat IPC: 0.2043 cumulative IPC: 0.2085 (Simulation time: 00 hr 25 min 01 sec)
Heartbeat CPU 0 instructions: 84000487 cycles: 175259008 heartbeat IPC: 0.2114 cumulative IPC: 0.2085 (Simulation time: 00 hr 25 min 19 sec)
Heartbeat CPU 0 instructions: 84500494 cycles: 177672578 heartbeat IPC: 0.2072 cumulative IPC: 0.2085 (Simulation time: 00 hr 25 min 38 sec)
Heartbeat CPU 0 instructions: 85000496 cycles: 180067371 heartbeat IPC: 0.2088 cumulative IPC: 0.2085 (Simulation time: 00 hr 25 min 56 sec)
Heartbeat CPU 0 instructions: 85500501 cycles: 182516791 heartbeat IPC: 0.2041 cumulative IPC: 0.2084 (Simulation time: 00 hr 26 min 15 sec)
Heartbeat CPU 0 instructions: 86000502 cycles: 184961383 heartbeat IPC: 0.2045 cumulative IPC: 0.2084 (Simulation time: 00 hr 26 min 33 sec)
Heartbeat CPU 0 instructions: 86500503 cycles: 187357203 heartbeat IPC: 0.2087 cumulative IPC: 0.2084 (Simulation time: 00 hr 26 min 52 sec)
Heartbeat CPU 0 instructions: 87000505 cycles: 189722353 heartbeat IPC: 0.2114 cumulative IPC: 0.2084 (Simulation time: 00 hr 27 min 09 sec)
Heartbeat CPU 0 instructions: 87500507 cycles: 192217766 heartbeat IPC: 0.2004 cumulative IPC: 0.2083 (Simulation time: 00 hr 27 min 28 sec)
Heartbeat CPU 0 instructions: 88000514 cycles: 194607489 heartbeat IPC: 0.2092 cumulative IPC: 0.2083 (Simulation time: 00 hr 27 min 47 sec)
Heartbeat CPU 0 instructions: 88500516 cycles: 197125818 heartbeat IPC: 0.1985 cumulative IPC: 0.2082 (Simulation time: 00 hr 28 min 07 sec)
Heartbeat CPU 0 instructions: 89000520 cycles: 199600986 heartbeat IPC: 0.202 cumulative IPC: 0.2081 (Simulation time: 00 hr 28 min 26 sec)
Heartbeat CPU 0 instructions: 89500523 cycles: 202029252 heartbeat IPC: 0.2059 cumulative IPC: 0.2081 (Simulation time: 00 hr 28 min 44 sec)
Heartbeat CPU 0 instructions: 90000525 cycles: 204394763 heartbeat IPC: 0.2114 cumulative IPC: 0.2081 (Simulation time: 00 hr 29 min 02 sec)
Heartbeat CPU 0 instructions: 90500532 cycles: 206824331 heartbeat IPC: 0.2058 cumulative IPC: 0.2081 (Simulation time: 00 hr 29 min 20 sec)
Heartbeat CPU 0 instructions: 91000532 cycles: 209204352 heartbeat IPC: 0.2101 cumulative IPC: 0.2081 (Simulation time: 00 hr 29 min 38 sec)
Heartbeat CPU 0 instructions: 91500533 cycles: 211548267 heartbeat IPC: 0.2133 cumulative IPC: 0.2082 (Simulation time: 00 hr 29 min 55 sec)
Heartbeat CPU 0 instructions: 92000536 cycles: 213897053 heartbeat IPC: 0.2129 cumulative IPC: 0.2082 (Simulation time: 00 hr 30 min 12 sec)
Heartbeat CPU 0 instructions: 92500536 cycles: 216312233 heartbeat IPC: 0.207 cumulative IPC: 0.2082 (Simulation time: 00 hr 30 min 31 sec)
Heartbeat CPU 0 instructions: 93000539 cycles: 218692737 heartbeat IPC: 0.21 cumulative IPC: 0.2082 (Simulation time: 00 hr 30 min 48 sec)
Heartbeat CPU 0 instructions: 93500539 cycles: 221081406 heartbeat IPC: 0.2093 cumulative IPC: 0.2082 (Simulation time: 00 hr 31 min 07 sec)
Heartbeat CPU 0 instructions: 94000539 cycles: 223503637 heartbeat IPC: 0.2064 cumulative IPC: 0.2082 (Simulation time: 00 hr 31 min 25 sec)
Heartbeat CPU 0 instructions: 94500539 cycles: 226000646 heartbeat IPC: 0.2002 cumulative IPC: 0.2081 (Simulation time: 00 hr 31 min 45 sec)
Heartbeat CPU 0 instructions: 95000540 cycles: 228541273 heartbeat IPC: 0.1968 cumulative IPC: 0.208 (Simulation time: 00 hr 32 min 05 sec)
Heartbeat CPU 0 instructions: 95500542 cycles: 231014695 heartbeat IPC: 0.2021 cumulative IPC: 0.2079 (Simulation time: 00 hr 32 min 24 sec)
Heartbeat CPU 0 instructions: 96000542 cycles: 233408483 heartbeat IPC: 0.2089 cumulative IPC: 0.2079 (Simulation time: 00 hr 32 min 42 sec)
Heartbeat CPU 0 instructions: 96500542 cycles: 235856257 heartbeat IPC: 0.2043 cumulative IPC: 0.2079 (Simulation time: 00 hr 33 min 01 sec)
Heartbeat CPU 0 instructions: 97000543 cycles: 238385747 heartbeat IPC: 0.1977 cumulative IPC: 0.2078 (Simulation time: 00 hr 33 min 21 sec)
Heartbeat CPU 0 instructions: 97500547 cycles: 240874058 heartbeat IPC: 0.2009 cumulative IPC: 0.2077 (Simulation time: 00 hr 33 min 41 sec)
Heartbeat CPU 0 instructions: 98000547 cycles: 243393291 heartbeat IPC: 0.1985 cumulative IPC: 0.2076 (Simulation time: 00 hr 34 min 01 sec)
Heartbeat CPU 0 instructions: 98500552 cycles: 245852528 heartbeat IPC: 0.2033 cumulative IPC: 0.2076 (Simulation time: 00 hr 34 min 20 sec)
Heartbeat CPU 0 instructions: 99000557 cycles: 248298346 heartbeat IPC: 0.2044 cumulative IPC: 0.2075 (Simulation time: 00 hr 34 min 39 sec)
Heartbeat CPU 0 instructions: 99500561 cycles: 250773418 heartbeat IPC: 0.202 cumulative IPC: 0.2075 (Simulation time: 00 hr 34 min 58 sec)
Heartbeat CPU 0 instructions: 100000565 cycles: 253182661 heartbeat IPC: 0.2075 cumulative IPC: 0.2075 (Simulation time: 00 hr 35 min 16 sec)
Heartbeat CPU 0 instructions: 100500570 cycles: 255634829 heartbeat IPC: 0.2039 cumulative IPC: 0.2074 (Simulation time: 00 hr 35 min 35 sec)
Heartbeat CPU 0 instructions: 101000575 cycles: 258087597 heartbeat IPC: 0.2039 cumulative IPC: 0.2074 (Simulation time: 00 hr 35 min 54 sec)
Heartbeat CPU 0 instructions: 101500575 cycles: 260535350 heartbeat IPC: 0.2043 cumulative IPC: 0.2074 (Simulation time: 00 hr 36 min 12 sec)
Heartbeat CPU 0 instructions: 102000580 cycles: 262943107 heartbeat IPC: 0.2077 cumulative IPC: 0.2074 (Simulation time: 00 hr 36 min 30 sec)
Heartbeat CPU 0 instructions: 102500585 cycles: 265359464 heartbeat IPC: 0.2069 cumulative IPC: 0.2074 (Simulation time: 00 hr 36 min 49 sec)
Heartbeat CPU 0 instructions: 103000590 cycles: 267825195 heartbeat IPC: 0.2028 cumulative IPC: 0.2073 (Simulation time: 00 hr 37 min 08 sec)
Heartbeat CPU 0 instructions: 103500595 cycles: 270300748 heartbeat IPC: 0.202 cumulative IPC: 0.2073 (Simulation time: 00 hr 37 min 28 sec)
Heartbeat CPU 0 instructions: 104000595 cycles: 272672236 heartbeat IPC: 0.2108 cumulative IPC: 0.2073 (Simulation time: 00 hr 37 min 45 sec)
Heartbeat CPU 0 instructions: 104500596 cycles: 275057795 heartbeat IPC: 0.2096 cumulative IPC: 0.2073 (Simulation time: 00 hr 38 min 04 sec)
Heartbeat CPU 0 instructions: 105000600 cycles: 277623659 heartbeat IPC: 0.1949 cumulative IPC: 0.2072 (Simulation time: 00 hr 38 min 24 sec)
Heartbeat CPU 0 instructions: 105500602 cycles: 280128690 heartbeat IPC: 0.1996 cumulative IPC: 0.2071 (Simulation time: 00 hr 38 min 44 sec)
Heartbeat CPU 0 instructions: 106000609 cycles: 282577800 heartbeat IPC: 0.2042 cumulative IPC: 0.2071 (Simulation time: 00 hr 39 min 03 sec)
Heartbeat CPU 0 instructions: 106500610 cycles: 285114356 heartbeat IPC: 0.1971 cumulative IPC: 0.207 (Simulation time: 00 hr 39 min 23 sec)
Heartbeat CPU 0 instructions: 107000612 cycles: 287528677 heartbeat IPC: 0.2071 cumulative IPC: 0.207 (Simulation time: 00 hr 39 min 41 sec)
Heartbeat CPU 0 instructions: 107500612 cycles: 289897985 heartbeat IPC: 0.211 cumulative IPC: 0.2071 (Simulation time: 00 hr 39 min 59 sec)
Heartbeat CPU 0 instructions: 108000614 cycles: 292242836 heartbeat IPC: 0.2132 cumulative IPC: 0.2071 (Simulation time: 00 hr 40 min 16 sec)
Heartbeat CPU 0 instructions: 108500616 cycles: 294628574 heartbeat IPC: 0.2096 cumulative IPC: 0.2071 (Simulation time: 00 hr 40 min 34 sec)
Heartbeat CPU 0 instructions: 109000618 cycles: 297037665 heartbeat IPC: 0.2075 cumulative IPC: 0.2071 (Simulation time: 00 hr 40 min 52 sec)
Heartbeat CPU 0 instructions: 109500623 cycles: 299523158 heartbeat IPC: 0.2012 cumulative IPC: 0.2071 (Simulation time: 00 hr 41 min 11 sec)
Heartbeat CPU 0 instructions: 110000623 cycles: 301930458 heartbeat IPC: 0.2077 cumulative IPC: 0.2071 (Simulation time: 00 hr 41 min 29 sec)
Heartbeat CPU 0 instructions: 110500624 cycles: 304338343 heartbeat IPC: 0.2077 cumulative IPC: 0.2071 (Simulation time: 00 hr 41 min 48 sec)
Heartbeat CPU 0 instructions: 111000627 cycles: 306835425 heartbeat IPC: 0.2002 cumulative IPC: 0.207 (Simulation time: 00 hr 42 min 06 sec)
Heartbeat CPU 0 instructions: 111500628 cycles: 309229029 heartbeat IPC: 0.2089 cumulative IPC: 0.207 (Simulation time: 00 hr 42 min 24 sec)
Heartbeat CPU 0 instructions: 112000628 cycles: 311618807 heartbeat IPC: 0.2092 cumulative IPC: 0.2071 (Simulation time: 00 hr 42 min 41 sec)
Heartbeat CPU 0 instructions: 112500629 cycles: 314037629 heartbeat IPC: 0.2067 cumulative IPC: 0.2071 (Simulation time: 00 hr 43 min 00 sec)
Heartbeat CPU 0 instructions: 113000633 cycles: 316485982 heartbeat IPC: 0.2042 cumulative IPC: 0.207 (Simulation time: 00 hr 43 min 18 sec)
Heartbeat CPU 0 instructions: 113500635 cycles: 318952760 heartbeat IPC: 0.2027 cumulative IPC: 0.207 (Simulation time: 00 hr 43 min 37 sec)
Heartbeat CPU 0 instructions: 114000635 cycles: 321396879 heartbeat IPC: 0.2046 cumulative IPC: 0.207 (Simulation time: 00 hr 43 min 55 sec)
Heartbeat CPU 0 instructions: 114500639 cycles: 323776360 heartbeat IPC: 0.2101 cumulative IPC: 0.207 (Simulation time: 00 hr 44 min 12 sec)
Heartbeat CPU 0 instructions: 115000639 cycles: 326257435 heartbeat IPC: 0.2015 cumulative IPC: 0.207 (Simulation time: 00 hr 44 min 30 sec)
Heartbeat CPU 0 instructions: 115500639 cycles: 328659722 heartbeat IPC: 0.2081 cumulative IPC: 0.207 (Simulation time: 00 hr 44 min 47 sec)
Heartbeat CPU 0 instructions: 116000641 cycles: 331115027 heartbeat IPC: 0.2036 cumulative IPC: 0.2069 (Simulation time: 00 hr 45 min 06 sec)
Heartbeat CPU 0 instructions: 116500641 cycles: 333395833 heartbeat IPC: 0.2192 cumulative IPC: 0.207 (Simulation time: 00 hr 45 min 23 sec)
Heartbeat CPU 0 instructions: 117000643 cycles: 335826600 heartbeat IPC: 0.2057 cumulative IPC: 0.207 (Simulation time: 00 hr 45 min 42 sec)
Heartbeat CPU 0 instructions: 117500645 cycles: 338296608 heartbeat IPC: 0.2024 cumulative IPC: 0.207 (Simulation time: 00 hr 46 min 00 sec)
Heartbeat CPU 0 instructions: 118000645 cycles: 340681996 heartbeat IPC: 0.2096 cumulative IPC: 0.207 (Simulation time: 00 hr 46 min 17 sec)
Heartbeat CPU 0 instructions: 118500648 cycles: 343100415 heartbeat IPC: 0.2067 cumulative IPC: 0.207 (Simulation time: 00 hr 46 min 35 sec)
Heartbeat CPU 0 instructions: 119000650 cycles: 345524715 heartbeat IPC: 0.2062 cumulative IPC: 0.207 (Simulation time: 00 hr 46 min 52 sec)
Heartbeat CPU 0 instructions: 119500651 cycles: 347671474 heartbeat IPC: 0.2329 cumulative IPC: 0.2072 (Simulation time: 00 hr 47 min 08 sec)
Heartbeat CPU 0 instructions: 120000651 cycles: 350282980 heartbeat IPC: 0.1915 cumulative IPC: 0.207 (Simulation time: 00 hr 47 min 28 sec)
Heartbeat CPU 0 instructions: 120500651 cycles: 352712154 heartbeat IPC: 0.2058 cumulative IPC: 0.207 (Simulation time: 00 hr 47 min 45 sec)
Heartbeat CPU 0 instructions: 121000656 cycles: 355141068 heartbeat IPC: 0.2059 cumulative IPC: 0.207 (Simulation time: 00 hr 48 min 02 sec)
Heartbeat CPU 0 instructions: 121500657 cycles: 357600291 heartbeat IPC: 0.2033 cumulative IPC: 0.207 (Simulation time: 00 hr 48 min 20 sec)
Heartbeat CPU 0 instructions: 122000659 cycles: 360127296 heartbeat IPC: 0.1979 cumulative IPC: 0.2069 (Simulation time: 00 hr 48 min 38 sec)
Heartbeat CPU 0 instructions: 122500665 cycles: 362631094 heartbeat IPC: 0.1997 cumulative IPC: 0.2069 (Simulation time: 00 hr 48 min 57 sec)
Heartbeat CPU 0 instructions: 123000665 cycles: 365054398 heartbeat IPC: 0.2063 cumulative IPC: 0.2069 (Simulation time: 00 hr 49 min 14 sec)
Heartbeat CPU 0 instructions: 123500666 cycles: 367568239 heartbeat IPC: 0.1989 cumulative IPC: 0.2068 (Simulation time: 00 hr 49 min 32 sec)
Heartbeat CPU 0 instructions: 124000667 cycles: 370030762 heartbeat IPC: 0.203 cumulative IPC: 0.2068 (Simulation time: 00 hr 49 min 49 sec)
Heartbeat CPU 0 instructions: 124500667 cycles: 372469594 heartbeat IPC: 0.205 cumulative IPC: 0.2068 (Simulation time: 00 hr 50 min 06 sec)
Heartbeat CPU 0 instructions: 125000667 cycles: 374849237 heartbeat IPC: 0.2101 cumulative IPC: 0.2068 (Simulation time: 00 hr 50 min 22 sec)
Heartbeat CPU 0 instructions: 125500673 cycles: 377386693 heartbeat IPC: 0.1971 cumulative IPC: 0.2067 (Simulation time: 00 hr 50 min 40 sec)
Heartbeat CPU 0 instructions: 126000673 cycles: 379769747 heartbeat IPC: 0.2098 cumulative IPC: 0.2068 (Simulation time: 00 hr 50 min 56 sec)
Heartbeat CPU 0 instructions: 126500677 cycles: 382220495 heartbeat IPC: 0.204 cumulative IPC: 0.2067 (Simulation time: 00 hr 51 min 14 sec)
Heartbeat CPU 0 instructions: 127000684 cycles: 384648597 heartbeat IPC: 0.2059 cumulative IPC: 0.2067 (Simulation time: 00 hr 51 min 30 sec)
Heartbeat CPU 0 instructions: 127500691 cycles: 387136105 heartbeat IPC: 0.201 cumulative IPC: 0.2067 (Simulation time: 00 hr 51 min 48 sec)
Heartbeat CPU 0 instructions: 128000692 cycles: 389668136 heartbeat IPC: 0.1975 cumulative IPC: 0.2066 (Simulation time: 00 hr 52 min 06 sec)
Heartbeat CPU 0 instructions: 128500692 cycles: 392030375 heartbeat IPC: 0.2117 cumulative IPC: 0.2067 (Simulation time: 00 hr 52 min 21 sec)
Heartbeat CPU 0 instructions: 129000695 cycles: 394427482 heartbeat IPC: 0.2086 cumulative IPC: 0.2067 (Simulation time: 00 hr 52 min 37 sec)
Heartbeat CPU 0 instructions: 129500695 cycles: 396838696 heartbeat IPC: 0.2074 cumulative IPC: 0.2067 (Simulation time: 00 hr 52 min 53 sec)
Heartbeat CPU 0 instructions: 130000699 cycles: 399209936 heartbeat IPC: 0.2109 cumulative IPC: 0.2067 (Simulation time: 00 hr 53 min 09 sec)
Heartbeat CPU 0 instructions: 130500701 cycles: 401528796 heartbeat IPC: 0.2156 cumulative IPC: 0.2068 (Simulation time: 00 hr 53 min 24 sec)
Heartbeat CPU 0 instructions: 131000705 cycles: 403809801 heartbeat IPC: 0.2192 cumulative IPC: 0.2068 (Simulation time: 00 hr 53 min 42 sec)
Heartbeat CPU 0 instructions: 131500708 cycles: 406270537 heartbeat IPC: 0.2032 cumulative IPC: 0.2068 (Simulation time: 00 hr 53 min 59 sec)
Heartbeat CPU 0 instructions: 132000708 cycles: 408730370 heartbeat IPC: 0.2033 cumulative IPC: 0.2068 (Simulation time: 00 hr 54 min 15 sec)
Heartbeat CPU 0 instructions: 132500708 cycles: 411177708 heartbeat IPC: 0.2043 cumulative IPC: 0.2068 (Simulation time: 00 hr 54 min 31 sec)
Heartbeat CPU 0 instructions: 133000710 cycles: 413550858 heartbeat IPC: 0.2107 cumulative IPC: 0.2068 (Simulation time: 00 hr 54 min 47 sec)
Heartbeat CPU 0 instructions: 133500710 cycles: 416080963 heartbeat IPC: 0.1976 cumulative IPC: 0.2067 (Simulation time: 00 hr 55 min 04 sec)
Heartbeat CPU 0 instructions: 134000716 cycles: 418624923 heartbeat IPC: 0.1965 cumulative IPC: 0.2067 (Simulation time: 00 hr 55 min 21 sec)
Heartbeat CPU 0 instructions: 134500718 cycles: 421081354 heartbeat IPC: 0.2035 cumulative IPC: 0.2067 (Simulation time: 00 hr 55 min 37 sec)
Heartbeat CPU 0 instructions: 135000720 cycles: 423404248 heartbeat IPC: 0.2152 cumulative IPC: 0.2067 (Simulation time: 00 hr 55 min 52 sec)
Heartbeat CPU 0 instructions: 135500724 cycles: 425866101 heartbeat IPC: 0.2031 cumulative IPC: 0.2067 (Simulation time: 00 hr 56 min 09 sec)
Heartbeat CPU 0 instructions: 136000730 cycles: 428374682 heartbeat IPC: 0.1993 cumulative IPC: 0.2066 (Simulation time: 00 hr 56 min 25 sec)
Heartbeat CPU 0 instructions: 136500731 cycles: 430939913 heartbeat IPC: 0.1949 cumulative IPC: 0.2066 (Simulation time: 00 hr 56 min 43 sec)
Heartbeat CPU 0 instructions: 137000732 cycles: 433484795 heartbeat IPC: 0.1965 cumulative IPC: 0.2065 (Simulation time: 00 hr 57 min 00 sec)
Heartbeat CPU 0 instructions: 137500733 cycles: 435744736 heartbeat IPC: 0.2212 cumulative IPC: 0.2066 (Simulation time: 00 hr 57 min 16 sec)
Heartbeat CPU 0 instructions: 138000733 cycles: 438247082 heartbeat IPC: 0.1998 cumulative IPC: 0.2065 (Simulation time: 00 hr 57 min 33 sec)
Heartbeat CPU 0 instructions: 138500738 cycles: 440708879 heartbeat IPC: 0.2031 cumulative IPC: 0.2065 (Simulation time: 00 hr 57 min 49 sec)
Heartbeat CPU 0 instructions: 139000739 cycles: 443179683 heartbeat IPC: 0.2024 cumulative IPC: 0.2065 (Simulation time: 00 hr 58 min 05 sec)
Heartbeat CPU 0 instructions: 139500744 cycles: 445590618 heartbeat IPC: 0.2074 cumulative IPC: 0.2065 (Simulation time: 00 hr 58 min 19 sec)
Heartbeat CPU 0 instructions: 140000745 cycles: 448035575 heartbeat IPC: 0.2045 cumulative IPC: 0.2065 (Simulation time: 00 hr 58 min 35 sec)
Heartbeat CPU 0 instructions: 140500746 cycles: 450416956 heartbeat IPC: 0.21 cumulative IPC: 0.2065 (Simulation time: 00 hr 58 min 50 sec)
Heartbeat CPU 0 instructions: 141000753 cycles: 452831845 heartbeat IPC: 0.2071 cumulative IPC: 0.2065 (Simulation time: 00 hr 59 min 05 sec)
Heartbeat CPU 0 instructions: 141500753 cycles: 455338522 heartbeat IPC: 0.1995 cumulative IPC: 0.2065 (Simulation time: 00 hr 59 min 21 sec)
Heartbeat CPU 0 instructions: 142000757 cycles: 457741274 heartbeat IPC: 0.2081 cumulative IPC: 0.2065 (Simulation time: 00 hr 59 min 37 sec)
Heartbeat CPU 0 instructions: 142500758 cycles: 460185681 heartbeat IPC: 0.2045 cumulative IPC: 0.2065 (Simulation time: 00 hr 59 min 52 sec)
Heartbeat CPU 0 instructions: 143000763 cycles: 462668375 heartbeat IPC: 0.2014 cumulative IPC: 0.2065 (Simulation time: 01 hr 00 min 08 sec)
Heartbeat CPU 0 instructions: 143500766 cycles: 465169492 heartbeat IPC: 0.1999 cumulative IPC: 0.2064 (Simulation time: 01 hr 00 min 24 sec)
Heartbeat CPU 0 instructions: 144000766 cycles: 467583551 heartbeat IPC: 0.2071 cumulative IPC: 0.2064 (Simulation time: 01 hr 00 min 39 sec)
Heartbeat CPU 0 instructions: 144500766 cycles: 469989090 heartbeat IPC: 0.2079 cumulative IPC: 0.2064 (Simulation time: 01 hr 00 min 54 sec)
Heartbeat CPU 0 instructions: 145000771 cycles: 472401249 heartbeat IPC: 0.2073 cumulative IPC: 0.2064 (Simulation time: 01 hr 01 min 09 sec)
Heartbeat CPU 0 instructions: 145500772 cycles: 474784529 heartbeat IPC: 0.2098 cumulative IPC: 0.2064 (Simulation time: 01 hr 01 min 23 sec)
Heartbeat CPU 0 instructions: 146000773 cycles: 477269472 heartbeat IPC: 0.2012 cumulative IPC: 0.2064 (Simulation time: 01 hr 01 min 39 sec)
Heartbeat CPU 0 instructions: 146500780 cycles: 479769312 heartbeat IPC: 0.2 cumulative IPC: 0.2064 (Simulation time: 01 hr 01 min 55 sec)
Heartbeat CPU 0 instructions: 147000782 cycles: 482175819 heartbeat IPC: 0.2078 cumulative IPC: 0.2064 (Simulation time: 01 hr 02 min 09 sec)
Heartbeat CPU 0 instructions: 147500782 cycles: 484641040 heartbeat IPC: 0.2028 cumulative IPC: 0.2064 (Simulation time: 01 hr 02 min 25 sec)
Heartbeat CPU 0 instructions: 148000782 cycles: 487062203 heartbeat IPC: 0.2065 cumulative IPC: 0.2064 (Simulation time: 01 hr 02 min 39 sec)
Heartbeat CPU 0 instructions: 148500784 cycles: 489525564 heartbeat IPC: 0.203 cumulative IPC: 0.2064 (Simulation time: 01 hr 02 min 55 sec)
Heartbeat CPU 0 instructions: 149000785 cycles: 492021224 heartbeat IPC: 0.2003 cumulative IPC: 0.2063 (Simulation time: 01 hr 03 min 10 sec)
Heartbeat CPU 0 instructions: 149500792 cycles: 494542778 heartbeat IPC: 0.1983 cumulative IPC: 0.2063 (Simulation time: 01 hr 03 min 26 sec)
Heartbeat CPU 0 instructions: 150000794 cycles: 497026846 heartbeat IPC: 0.2013 cumulative IPC: 0.2063 (Simulation time: 01 hr 03 min 42 sec)
Heartbeat CPU 0 instructions: 150500795 cycles: 499526620 heartbeat IPC: 0.2 cumulative IPC: 0.2062 (Simulation time: 01 hr 03 min 57 sec)
Heartbeat CPU 0 instructions: 151000799 cycles: 501935936 heartbeat IPC: 0.2075 cumulative IPC: 0.2062 (Simulation time: 01 hr 04 min 12 sec)
Heartbeat CPU 0 instructions: 151500799 cycles: 504337318 heartbeat IPC: 0.2082 cumulative IPC: 0.2062 (Simulation time: 01 hr 04 min 26 sec)
Heartbeat CPU 0 instructions: 152000799 cycles: 506806704 heartbeat IPC: 0.2025 cumulative IPC: 0.2062 (Simulation time: 01 hr 04 min 41 sec)
Heartbeat CPU 0 instructions: 152500800 cycles: 509044598 heartbeat IPC: 0.2234 cumulative IPC: 0.2063 (Simulation time: 01 hr 04 min 55 sec)
Heartbeat CPU 0 instructions: 153000801 cycles: 511346497 heartbeat IPC: 0.2172 cumulative IPC: 0.2064 (Simulation time: 01 hr 05 min 11 sec)
Heartbeat CPU 0 instructions: 153500808 cycles: 513955628 heartbeat IPC: 0.1916 cumulative IPC: 0.2063 (Simulation time: 01 hr 05 min 28 sec)
Heartbeat CPU 0 instructions: 154000808 cycles: 516413114 heartbeat IPC: 0.2035 cumulative IPC: 0.2063 (Simulation time: 01 hr 05 min 42 sec)
Heartbeat CPU 0 instructions: 154500810 cycles: 518858670 heartbeat IPC: 0.2045 cumulative IPC: 0.2063 (Simulation time: 01 hr 05 min 56 sec)
Heartbeat CPU 0 instructions: 155000810 cycles: 521344472 heartbeat IPC: 0.2011 cumulative IPC: 0.2062 (Simulation time: 01 hr 06 min 11 sec)
Heartbeat CPU 0 instructions: 155500813 cycles: 523784853 heartbeat IPC: 0.2049 cumulative IPC: 0.2062 (Simulation time: 01 hr 06 min 26 sec)
Heartbeat CPU 0 instructions: 156000814 cycles: 526286186 heartbeat IPC: 0.1999 cumulative IPC: 0.2062 (Simulation time: 01 hr 06 min 41 sec)
Heartbeat CPU 0 instructions: 156500814 cycles: 528764778 heartbeat IPC: 0.2017 cumulative IPC: 0.2062 (Simulation time: 01 hr 06 min 56 sec)
Heartbeat CPU 0 instructions: 157000815 cycles: 531245761 heartbeat IPC: 0.2015 cumulative IPC: 0.2061 (Simulation time: 01 hr 07 min 10 sec)
Heartbeat CPU 0 instructions: 157500822 cycles: 533685575 heartbeat IPC: 0.2049 cumulative IPC: 0.2061 (Simulation time: 01 hr 07 min 25 sec)
Heartbeat CPU 0 instructions: 158000825 cycles: 536117395 heartbeat IPC: 0.2056 cumulative IPC: 0.2061 (Simulation time: 01 hr 07 min 39 sec)
Heartbeat CPU 0 instructions: 158500825 cycles: 538611595 heartbeat IPC: 0.2005 cumulative IPC: 0.2061 (Simulation time: 01 hr 07 min 54 sec)
Heartbeat CPU 0 instructions: 159000832 cycles: 540877790 heartbeat IPC: 0.2206 cumulative IPC: 0.2062 (Simulation time: 01 hr 08 min 09 sec)
Heartbeat CPU 0 instructions: 159500834 cycles: 543483423 heartbeat IPC: 0.1919 cumulative IPC: 0.2061 (Simulation time: 01 hr 08 min 25 sec)
Heartbeat CPU 0 instructions: 160000837 cycles: 545977604 heartbeat IPC: 0.2005 cumulative IPC: 0.2061 (Simulation time: 01 hr 08 min 40 sec)
Heartbeat CPU 0 instructions: 160500837 cycles: 548404776 heartbeat IPC: 0.206 cumulative IPC: 0.2061 (Simulation time: 01 hr 08 min 54 sec)
Heartbeat CPU 0 instructions: 161000837 cycles: 550925768 heartbeat IPC: 0.1983 cumulative IPC: 0.206 (Simulation time: 01 hr 09 min 09 sec)
Heartbeat CPU 0 instructions: 161500844 cycles: 553201786 heartbeat IPC: 0.2197 cumulative IPC: 0.2061 (Simulation time: 01 hr 09 min 23 sec)
Heartbeat CPU 0 instructions: 162000844 cycles: 555643668 heartbeat IPC: 0.2048 cumulative IPC: 0.2061 (Simulation time: 01 hr 09 min 38 sec)
Heartbeat CPU 0 instructions: 162500844 cycles: 558063318 heartbeat IPC: 0.2066 cumulative IPC: 0.2061 (Simulation time: 01 hr 09 min 52 sec)
Heartbeat CPU 0 instructions: 163000848 cycles: 560699490 heartbeat IPC: 0.1897 cumulative IPC: 0.206 (Simulation time: 01 hr 10 min 08 sec)
Heartbeat CPU 0 instructions: 163500848 cycles: 563258813 heartbeat IPC: 0.1954 cumulative IPC: 0.206 (Simulation time: 01 hr 10 min 23 sec)
Heartbeat CPU 0 instructions: 164000852 cycles: 565642942 heartbeat IPC: 0.2097 cumulative IPC: 0.206 (Simulation time: 01 hr 10 min 37 sec)
Heartbeat CPU 0 instructions: 164500855 cycles: 567910215 heartbeat IPC: 0.2205 cumulative IPC: 0.206 (Simulation time: 01 hr 10 min 50 sec)
Heartbeat CPU 0 instructions: 165000855 cycles: 570279232 heartbeat IPC: 0.2111 cumulative IPC: 0.2061 (Simulation time: 01 hr 11 min 05 sec)
Heartbeat CPU 0 instructions: 165500856 cycles: 572784523 heartbeat IPC: 0.1996 cumulative IPC: 0.206 (Simulation time: 01 hr 11 min 19 sec)
Heartbeat CPU 0 instructions: 166000857 cycles: 575215430 heartbeat IPC: 0.2057 cumulative IPC: 0.206 (Simulation time: 01 hr 11 min 34 sec)
Heartbeat CPU 0 instructions: 166500857 cycles: 577444261 heartbeat IPC: 0.2243 cumulative IPC: 0.2061 (Simulation time: 01 hr 11 min 48 sec)
Heartbeat CPU 0 instructions: 167000860 cycles: 580143787 heartbeat IPC: 0.1852 cumulative IPC: 0.206 (Simulation time: 01 hr 12 min 05 sec)
Heartbeat CPU 0 instructions: 167500860 cycles: 582568981 heartbeat IPC: 0.2062 cumulative IPC: 0.206 (Simulation time: 01 hr 12 min 19 sec)
Heartbeat CPU 0 instructions: 168000863 cycles: 585052274 heartbeat IPC: 0.2013 cumulative IPC: 0.206 (Simulation time: 01 hr 12 min 33 sec)
Heartbeat CPU 0 instructions: 168500863 cycles: 587376573 heartbeat IPC: 0.2151 cumulative IPC: 0.206 (Simulation time: 01 hr 12 min 46 sec)
Heartbeat CPU 0 instructions: 169000869 cycles: 589711122 heartbeat IPC: 0.2142 cumulative IPC: 0.2061 (Simulation time: 01 hr 13 min 01 sec)
Heartbeat CPU 0 instructions: 169500875 cycles: 592294855 heartbeat IPC: 0.1935 cumulative IPC: 0.206 (Simulation time: 01 hr 13 min 17 sec)
Heartbeat CPU 0 instructions: 170000880 cycles: 594779619 heartbeat IPC: 0.2012 cumulative IPC: 0.206 (Simulation time: 01 hr 13 min 31 sec)
Heartbeat CPU 0 instructions: 170500881 cycles: 597284976 heartbeat IPC: 0.1996 cumulative IPC: 0.206 (Simulation time: 01 hr 13 min 47 sec)
Heartbeat CPU 0 instructions: 171000883 cycles: 599644173 heartbeat IPC: 0.2119 cumulative IPC: 0.206 (Simulation time: 01 hr 14 min 01 sec)
Heartbeat CPU 0 instructions: 171500889 cycles: 602021599 heartbeat IPC: 0.2103 cumulative IPC: 0.206 (Simulation time: 01 hr 14 min 16 sec)
Heartbeat CPU 0 instructions: 172000896 cycles: 604555832 heartbeat IPC: 0.1973 cumulative IPC: 0.206 (Simulation time: 01 hr 14 min 31 sec)
Heartbeat CPU 0 instructions: 172500899 cycles: 607034601 heartbeat IPC: 0.2017 cumulative IPC: 0.2059 (Simulation time: 01 hr 14 min 46 sec)
Heartbeat CPU 0 instructions: 173000904 cycles: 609454197 heartbeat IPC: 0.2066 cumulative IPC: 0.2059 (Simulation time: 01 hr 14 min 59 sec)
Heartbeat CPU 0 instructions: 173500906 cycles: 612009164 heartbeat IPC: 0.1957 cumulative IPC: 0.2059 (Simulation time: 01 hr 15 min 15 sec)
Heartbeat CPU 0 instructions: 174000911 cycles: 614451339 heartbeat IPC: 0.2047 cumulative IPC: 0.2059 (Simulation time: 01 hr 15 min 29 sec)
Heartbeat CPU 0 instructions: 174500913 cycles: 616881304 heartbeat IPC: 0.2058 cumulative IPC: 0.2059 (Simulation time: 01 hr 15 min 43 sec)
Heartbeat CPU 0 instructions: 175000917 cycles: 619359143 heartbeat IPC: 0.2018 cumulative IPC: 0.2059 (Simulation time: 01 hr 15 min 57 sec)
Heartbeat CPU 0 instructions: 175500917 cycles: 621855756 heartbeat IPC: 0.2003 cumulative IPC: 0.2059 (Simulation time: 01 hr 16 min 12 sec)
Heartbeat CPU 0 instructions: 176000917 cycles: 624269180 heartbeat IPC: 0.2072 cumulative IPC: 0.2059 (Simulation time: 01 hr 16 min 25 sec)
Heartbeat CPU 0 instructions: 176500917 cycles: 626682192 heartbeat IPC: 0.2072 cumulative IPC: 0.2059 (Simulation time: 01 hr 16 min 39 sec)
Heartbeat CPU 0 instructions: 177000918 cycles: 629258476 heartbeat IPC: 0.1941 cumulative IPC: 0.2058 (Simulation time: 01 hr 16 min 55 sec)
Heartbeat CPU 0 instructions: 177500918 cycles: 631670901 heartbeat IPC: 0.2073 cumulative IPC: 0.2058 (Simulation time: 01 hr 17 min 08 sec)
Heartbeat CPU 0 instructions: 178000918 cycles: 634252027 heartbeat IPC: 0.1937 cumulative IPC: 0.2058 (Simulation time: 01 hr 17 min 25 sec)
Heartbeat CPU 0 instructions: 178500920 cycles: 636688691 heartbeat IPC: 0.2052 cumulative IPC: 0.2058 (Simulation time: 01 hr 17 min 38 sec)
Heartbeat CPU 0 instructions: 179000923 cycles: 639192478 heartbeat IPC: 0.1997 cumulative IPC: 0.2057 (Simulation time: 01 hr 17 min 53 sec)
Heartbeat CPU 0 instructions: 179500929 cycles: 641660008 heartbeat IPC: 0.2026 cumulative IPC: 0.2057 (Simulation time: 01 hr 18 min 08 sec)
Heartbeat CPU 0 instructions: 180000931 cycles: 644110736 heartbeat IPC: 0.204 cumulative IPC: 0.2057 (Simulation time: 01 hr 18 min 22 sec)
Heartbeat CPU 0 instructions: 180500931 cycles: 646690887 heartbeat IPC: 0.1938 cumulative IPC: 0.2057 (Simulation time: 01 hr 18 min 37 sec)
Heartbeat CPU 0 instructions: 181000935 cycles: 649139940 heartbeat IPC: 0.2042 cumulative IPC: 0.2057 (Simulation time: 01 hr 18 min 51 sec)
Heartbeat CPU 0 instructions: 181500935 cycles: 651614108 heartbeat IPC: 0.2021 cumulative IPC: 0.2057 (Simulation time: 01 hr 19 min 06 sec)
Heartbeat CPU 0 instructions: 182000937 cycles: 654057136 heartbeat IPC: 0.2047 cumulative IPC: 0.2057 (Simulation time: 01 hr 19 min 20 sec)
Heartbeat CPU 0 instructions: 182500942 cycles: 656541913 heartbeat IPC: 0.2012 cumulative IPC: 0.2056 (Simulation time: 01 hr 19 min 35 sec)
Heartbeat CPU 0 instructions: 183000949 cycles: 659135805 heartbeat IPC: 0.1928 cumulative IPC: 0.2056 (Simulation time: 01 hr 19 min 51 sec)
Heartbeat CPU 0 instructions: 183500949 cycles: 661568072 heartbeat IPC: 0.2056 cumulative IPC: 0.2056 (Simulation time: 01 hr 20 min 05 sec)
Heartbeat CPU 0 instructions: 184000949 cycles: 664118379 heartbeat IPC: 0.1961 cumulative IPC: 0.2055 (Simulation time: 01 hr 20 min 20 sec)
Heartbeat CPU 0 instructions: 184500953 cycles: 666627981 heartbeat IPC: 0.1992 cumulative IPC: 0.2055 (Simulation time: 01 hr 20 min 35 sec)
Heartbeat CPU 0 instructions: 185000955 cycles: 669144125 heartbeat IPC: 0.1987 cumulative IPC: 0.2055 (Simulation time: 01 hr 20 min 49 sec)
Heartbeat CPU 0 instructions: 185500955 cycles: 671596995 heartbeat IPC: 0.2038 cumulative IPC: 0.2055 (Simulation time: 01 hr 21 min 03 sec)
Heartbeat CPU 0 instructions: 186000956 cycles: 673590536 heartbeat IPC: 0.2508 cumulative IPC: 0.2056 (Simulation time: 01 hr 21 min 16 sec)
Heartbeat CPU 0 instructions: 186500956 cycles: 675011400 heartbeat IPC: 0.3519 cumulative IPC: 0.2059 (Simulation time: 01 hr 21 min 26 sec)
Heartbeat CPU 0 instructions: 187000959 cycles: 676513330 heartbeat IPC: 0.3329 cumulative IPC: 0.2062 (Simulation time: 01 hr 21 min 36 sec)
Heartbeat CPU 0 instructions: 187500961 cycles: 678987606 heartbeat IPC: 0.2021 cumulative IPC: 0.2062 (Simulation time: 01 hr 21 min 51 sec)
Heartbeat CPU 0 instructions: 188000961 cycles: 681499475 heartbeat IPC: 0.1991 cumulative IPC: 0.2062 (Simulation time: 01 hr 22 min 06 sec)
Heartbeat CPU 0 instructions: 188500963 cycles: 683967837 heartbeat IPC: 0.2026 cumulative IPC: 0.2062 (Simulation time: 01 hr 22 min 20 sec)
Heartbeat CPU 0 instructions: 189000970 cycles: 686383624 heartbeat IPC: 0.207 cumulative IPC: 0.2062 (Simulation time: 01 hr 22 min 34 sec)
Heartbeat CPU 0 instructions: 189500974 cycles: 688840851 heartbeat IPC: 0.2035 cumulative IPC: 0.2062 (Simulation time: 01 hr 22 min 48 sec)
Heartbeat CPU 0 instructions: 190000974 cycles: 691240584 heartbeat IPC: 0.2084 cumulative IPC: 0.2062 (Simulation time: 01 hr 23 min 01 sec)
Heartbeat CPU 0 instructions: 190500975 cycles: 693693828 heartbeat IPC: 0.2038 cumulative IPC: 0.2062 (Simulation time: 01 hr 23 min 14 sec)
Heartbeat CPU 0 instructions: 191000982 cycles: 696128545 heartbeat IPC: 0.2054 cumulative IPC: 0.2062 (Simulation time: 01 hr 23 min 28 sec)
Heartbeat CPU 0 instructions: 191500983 cycles: 698580847 heartbeat IPC: 0.2039 cumulative IPC: 0.2062 (Simulation time: 01 hr 23 min 42 sec)
Heartbeat CPU 0 instructions: 192000984 cycles: 700994849 heartbeat IPC: 0.2071 cumulative IPC: 0.2062 (Simulation time: 01 hr 23 min 55 sec)
Heartbeat CPU 0 instructions: 192500984 cycles: 703401143 heartbeat IPC: 0.2078 cumulative IPC: 0.2062 (Simulation time: 01 hr 24 min 08 sec)
Heartbeat CPU 0 instructions: 193000984 cycles: 705809394 heartbeat IPC: 0.2076 cumulative IPC: 0.2062 (Simulation time: 01 hr 24 min 22 sec)
Heartbeat CPU 0 instructions: 193500988 cycles: 708219889 heartbeat IPC: 0.2074 cumulative IPC: 0.2062 (Simulation time: 01 hr 24 min 35 sec)
Heartbeat CPU 0 instructions: 194000988 cycles: 710659608 heartbeat IPC: 0.2049 cumulative IPC: 0.2062 (Simulation time: 01 hr 24 min 49 sec)
Heartbeat CPU 0 instructions: 194500988 cycles: 713069448 heartbeat IPC: 0.2075 cumulative IPC: 0.2062 (Simulation time: 01 hr 25 min 02 sec)
Heartbeat CPU 0 instructions: 195000988 cycles: 715503879 heartbeat IPC: 0.2054 cumulative IPC: 0.2062 (Simulation time: 01 hr 25 min 15 sec)
Heartbeat CPU 0 instructions: 195500991 cycles: 717909118 heartbeat IPC: 0.2079 cumulative IPC: 0.2062 (Simulation time: 01 hr 25 min 29 sec)
Heartbeat CPU 0 instructions: 196000992 cycles: 720312885 heartbeat IPC: 0.208 cumulative IPC: 0.2062 (Simulation time: 01 hr 25 min 42 sec)
Heartbeat CPU 0 instructions: 196500993 cycles: 722681214 heartbeat IPC: 0.2111 cumulative IPC: 0.2062 (Simulation time: 01 hr 25 min 55 sec)
Heartbeat CPU 0 instructions: 197000999 cycles: 725153987 heartbeat IPC: 0.2022 cumulative IPC: 0.2062 (Simulation time: 01 hr 26 min 08 sec)
Heartbeat CPU 0 instructions: 197501000 cycles: 727527778 heartbeat IPC: 0.2106 cumulative IPC: 0.2062 (Simulation time: 01 hr 26 min 21 sec)
Heartbeat CPU 0 instructions: 198001001 cycles: 729896793 heartbeat IPC: 0.2111 cumulative IPC: 0.2062 (Simulation time: 01 hr 26 min 33 sec)
Heartbeat CPU 0 instructions: 198501002 cycles: 732285013 heartbeat IPC: 0.2094 cumulative IPC: 0.2062 (Simulation time: 01 hr 26 min 46 sec)
Heartbeat CPU 0 instructions: 199001003 cycles: 734717916 heartbeat IPC: 0.2055 cumulative IPC: 0.2062 (Simulation time: 01 hr 27 min 00 sec)
Heartbeat CPU 0 instructions: 199501006 cycles: 737119790 heartbeat IPC: 0.2082 cumulative IPC: 0.2062 (Simulation time: 01 hr 27 min 13 sec)
Heartbeat CPU 0 instructions: 200001006 cycles: 739516935 heartbeat IPC: 0.2086 cumulative IPC: 0.2062 (Simulation time: 01 hr 27 min 26 sec)
Heartbeat CPU 0 instructions: 200501011 cycles: 741937668 heartbeat IPC: 0.2066 cumulative IPC: 0.2062 (Simulation time: 01 hr 27 min 39 sec)
Heartbeat CPU 0 instructions: 201001011 cycles: 744318787 heartbeat IPC: 0.21 cumulative IPC: 0.2063 (Simulation time: 01 hr 27 min 52 sec)
Heartbeat CPU 0 instructions: 201501012 cycles: 746726724 heartbeat IPC: 0.2076 cumulative IPC: 0.2063 (Simulation time: 01 hr 28 min 05 sec)
Heartbeat CPU 0 instructions: 202001014 cycles: 749155483 heartbeat IPC: 0.2059 cumulative IPC: 0.2063 (Simulation time: 01 hr 28 min 19 sec)
Heartbeat CPU 0 instructions: 202501019 cycles: 751569157 heartbeat IPC: 0.2072 cumulative IPC: 0.2063 (Simulation time: 01 hr 28 min 32 sec)
Heartbeat CPU 0 instructions: 203001023 cycles: 753958673 heartbeat IPC: 0.2092 cumulative IPC: 0.2063 (Simulation time: 01 hr 28 min 45 sec)
Heartbeat CPU 0 instructions: 203501024 cycles: 756362407 heartbeat IPC: 0.208 cumulative IPC: 0.2063 (Simulation time: 01 hr 28 min 57 sec)
Heartbeat CPU 0 instructions: 204001024 cycles: 758814566 heartbeat IPC: 0.2039 cumulative IPC: 0.2063 (Simulation time: 01 hr 29 min 11 sec)
Heartbeat CPU 0 instructions: 204501024 cycles: 761231921 heartbeat IPC: 0.2068 cumulative IPC: 0.2063 (Simulation time: 01 hr 29 min 24 sec)
Heartbeat CPU 0 instructions: 205001026 cycles: 763634373 heartbeat IPC: 0.2081 cumulative IPC: 0.2063 (Simulation time: 01 hr 29 min 37 sec)
Heartbeat CPU 0 instructions: 205501030 cycles: 766050418 heartbeat IPC: 0.207 cumulative IPC: 0.2063 (Simulation time: 01 hr 29 min 50 sec)
Heartbeat CPU 0 instructions: 206001036 cycles: 768461751 heartbeat IPC: 0.2074 cumulative IPC: 0.2063 (Simulation time: 01 hr 30 min 03 sec)
Heartbeat CPU 0 instructions: 206501036 cycles: 770871278 heartbeat IPC: 0.2075 cumulative IPC: 0.2063 (Simulation time: 01 hr 30 min 16 sec)
Heartbeat CPU 0 instructions: 207001036 cycles: 773273449 heartbeat IPC: 0.2081 cumulative IPC: 0.2063 (Simulation time: 01 hr 30 min 29 sec)
Heartbeat CPU 0 instructions: 207501040 cycles: 775717206 heartbeat IPC: 0.2046 cumulative IPC: 0.2063 (Simulation time: 01 hr 30 min 43 sec)
Heartbeat CPU 0 instructions: 208001040 cycles: 778096662 heartbeat IPC: 0.2101 cumulative IPC: 0.2063 (Simulation time: 01 hr 30 min 56 sec)
Heartbeat CPU 0 instructions: 208501040 cycles: 780588037 heartbeat IPC: 0.2007 cumulative IPC: 0.2063 (Simulation time: 01 hr 31 min 10 sec)
Heartbeat CPU 0 instructions: 209001040 cycles: 783047707 heartbeat IPC: 0.2033 cumulative IPC: 0.2063 (Simulation time: 01 hr 31 min 23 sec)
Heartbeat CPU 0 instructions: 209501041 cycles: 785448192 heartbeat IPC: 0.2083 cumulative IPC: 0.2063 (Simulation time: 01 hr 31 min 36 sec)
Heartbeat CPU 0 instructions: 210001041 cycles: 787821215 heartbeat IPC: 0.2107 cumulative IPC: 0.2063 (Simulation time: 01 hr 31 min 49 sec)
Heartbeat CPU 0 instructions: 210501043 cycles: 790209309 heartbeat IPC: 0.2094 cumulative IPC: 0.2063 (Simulation time: 01 hr 32 min 02 sec)
Heartbeat CPU 0 instructions: 211001043 cycles: 792593299 heartbeat IPC: 0.2097 cumulative IPC: 0.2063 (Simulation time: 01 hr 32 min 15 sec)
Heartbeat CPU 0 instructions: 211501044 cycles: 794990287 heartbeat IPC: 0.2086 cumulative IPC: 0.2063 (Simulation time: 01 hr 32 min 28 sec)
Heartbeat CPU 0 instructions: 212001047 cycles: 797386139 heartbeat IPC: 0.2087 cumulative IPC: 0.2063 (Simulation time: 01 hr 32 min 41 sec)
Heartbeat CPU 0 instructions: 212501051 cycles: 799766983 heartbeat IPC: 0.21 cumulative IPC: 0.2063 (Simulation time: 01 hr 32 min 54 sec)
Heartbeat CPU 0 instructions: 213001053 cycles: 802140510 heartbeat IPC: 0.2107 cumulative IPC: 0.2063 (Simulation time: 01 hr 33 min 06 sec)
Heartbeat CPU 0 instructions: 213501054 cycles: 804528299 heartbeat IPC: 0.2094 cumulative IPC: 0.2064 (Simulation time: 01 hr 33 min 19 sec)
Heartbeat CPU 0 instructions: 214001054 cycles: 806901806 heartbeat IPC: 0.2107 cumulative IPC: 0.2064 (Simulation time: 01 hr 33 min 32 sec)
Heartbeat CPU 0 instructions: 214501054 cycles: 809339112 heartbeat IPC: 0.2051 cumulative IPC: 0.2064 (Simulation time: 01 hr 33 min 45 sec)
Heartbeat CPU 0 instructions: 215001054 cycles: 811789467 heartbeat IPC: 0.2041 cumulative IPC: 0.2064 (Simulation time: 01 hr 33 min 59 sec)
Heartbeat CPU 0 instructions: 215501059 cycles: 814282034 heartbeat IPC: 0.2006 cumulative IPC: 0.2063 (Simulation time: 01 hr 34 min 13 sec)
Heartbeat CPU 0 instructions: 216001063 cycles: 816673671 heartbeat IPC: 0.2091 cumulative IPC: 0.2063 (Simulation time: 01 hr 34 min 26 sec)
Heartbeat CPU 0 instructions: 216501063 cycles: 819091693 heartbeat IPC: 0.2068 cumulative IPC: 0.2063 (Simulation time: 01 hr 34 min 39 sec)
Heartbeat CPU 0 instructions: 217001063 cycles: 821503456 heartbeat IPC: 0.2073 cumulative IPC: 0.2063 (Simulation time: 01 hr 34 min 53 sec)
Heartbeat CPU 0 instructions: 217501070 cycles: 823934483 heartbeat IPC: 0.2057 cumulative IPC: 0.2063 (Simulation time: 01 hr 35 min 06 sec)
Heartbeat CPU 0 instructions: 218001073 cycles: 826322308 heartbeat IPC: 0.2094 cumulative IPC: 0.2064 (Simulation time: 01 hr 35 min 19 sec)
Heartbeat CPU 0 instructions: 218501077 cycles: 828732643 heartbeat IPC: 0.2074 cumulative IPC: 0.2064 (Simulation time: 01 hr 35 min 32 sec)
Heartbeat CPU 0 instructions: 219001077 cycles: 831132069 heartbeat IPC: 0.2084 cumulative IPC: 0.2064 (Simulation time: 01 hr 35 min 45 sec)
Heartbeat CPU 0 instructions: 219501078 cycles: 833534933 heartbeat IPC: 0.2081 cumulative IPC: 0.2064 (Simulation time: 01 hr 35 min 58 sec)
Heartbeat CPU 0 instructions: 220001081 cycles: 835921615 heartbeat IPC: 0.2095 cumulative IPC: 0.2064 (Simulation time: 01 hr 36 min 11 sec)
Heartbeat CPU 0 instructions: 220501087 cycles: 838323737 heartbeat IPC: 0.2082 cumulative IPC: 0.2064 (Simulation time: 01 hr 36 min 24 sec)
Heartbeat CPU 0 instructions: 221001093 cycles: 840711315 heartbeat IPC: 0.2094 cumulative IPC: 0.2064 (Simulation time: 01 hr 36 min 36 sec)
Heartbeat CPU 0 instructions: 221501095 cycles: 843103473 heartbeat IPC: 0.209 cumulative IPC: 0.2064 (Simulation time: 01 hr 36 min 49 sec)
Heartbeat CPU 0 instructions: 222001097 cycles: 845500315 heartbeat IPC: 0.2086 cumulative IPC: 0.2064 (Simulation time: 01 hr 37 min 02 sec)
Heartbeat CPU 0 instructions: 222501098 cycles: 847920318 heartbeat IPC: 0.2066 cumulative IPC: 0.2064 (Simulation time: 01 hr 37 min 15 sec)
Heartbeat CPU 0 instructions: 223001102 cycles: 850292572 heartbeat IPC: 0.2108 cumulative IPC: 0.2064 (Simulation time: 01 hr 37 min 27 sec)
Heartbeat CPU 0 instructions: 223501102 cycles: 852640963 heartbeat IPC: 0.2129 cumulative IPC: 0.2064 (Simulation time: 01 hr 37 min 40 sec)
Heartbeat CPU 0 instructions: 224001106 cycles: 855021051 heartbeat IPC: 0.2101 cumulative IPC: 0.2064 (Simulation time: 01 hr 37 min 52 sec)
Heartbeat CPU 0 instructions: 224501107 cycles: 857406201 heartbeat IPC: 0.2096 cumulative IPC: 0.2065 (Simulation time: 01 hr 38 min 05 sec)
Heartbeat CPU 0 instructions: 225001108 cycles: 859825682 heartbeat IPC: 0.2067 cumulative IPC: 0.2065 (Simulation time: 01 hr 38 min 18 sec)
Heartbeat CPU 0 instructions: 225501114 cycles: 862248483 heartbeat IPC: 0.2064 cumulative IPC: 0.2065 (Simulation time: 01 hr 38 min 31 sec)
Heartbeat CPU 0 instructions: 226001115 cycles: 864705202 heartbeat IPC: 0.2035 cumulative IPC: 0.2065 (Simulation time: 01 hr 38 min 45 sec)
Heartbeat CPU 0 instructions: 226501116 cycles: 867122140 heartbeat IPC: 0.2069 cumulative IPC: 0.2065 (Simulation time: 01 hr 38 min 57 sec)
Heartbeat CPU 0 instructions: 227001119 cycles: 869544135 heartbeat IPC: 0.2064 cumulative IPC: 0.2065 (Simulation time: 01 hr 39 min 11 sec)
Heartbeat CPU 0 instructions: 227501123 cycles: 871950543 heartbeat IPC: 0.2078 cumulative IPC: 0.2065 (Simulation time: 01 hr 39 min 23 sec)
Heartbeat CPU 0 instructions: 228001123 cycles: 874345676 heartbeat IPC: 0.2088 cumulative IPC: 0.2065 (Simulation time: 01 hr 39 min 36 sec)
Heartbeat CPU 0 instructions: 228501128 cycles: 876765437 heartbeat IPC: 0.2066 cumulative IPC: 0.2065 (Simulation time: 01 hr 39 min 49 sec)
Heartbeat CPU 0 instructions: 229001129 cycles: 879154551 heartbeat IPC: 0.2093 cumulative IPC: 0.2065 (Simulation time: 01 hr 40 min 02 sec)
Heartbeat CPU 0 instructions: 229501136 cycles: 881566297 heartbeat IPC: 0.2073 cumulative IPC: 0.2065 (Simulation time: 01 hr 40 min 15 sec)
Heartbeat CPU 0 instructions: 230001137 cycles: 883940010 heartbeat IPC: 0.2106 cumulative IPC: 0.2065 (Simulation time: 01 hr 40 min 27 sec)
Heartbeat CPU 0 instructions: 230501141 cycles: 886323203 heartbeat IPC: 0.2098 cumulative IPC: 0.2065 (Simulation time: 01 hr 40 min 40 sec)
Heartbeat CPU 0 instructions: 231001141 cycles: 888720851 heartbeat IPC: 0.2085 cumulative IPC: 0.2065 (Simulation time: 01 hr 40 min 53 sec)
Heartbeat CPU 0 instructions: 231501141 cycles: 891155619 heartbeat IPC: 0.2054 cumulative IPC: 0.2065 (Simulation time: 01 hr 41 min 06 sec)
Heartbeat CPU 0 instructions: 232001147 cycles: 893592204 heartbeat IPC: 0.2052 cumulative IPC: 0.2065 (Simulation time: 01 hr 41 min 19 sec)
Heartbeat CPU 0 instructions: 232501154 cycles: 895992206 heartbeat IPC: 0.2083 cumulative IPC: 0.2065 (Simulation time: 01 hr 41 min 31 sec)
Heartbeat CPU 0 instructions: 233001156 cycles: 898359177 heartbeat IPC: 0.2112 cumulative IPC: 0.2065 (Simulation time: 01 hr 41 min 44 sec)
Heartbeat CPU 0 instructions: 233501156 cycles: 900809403 heartbeat IPC: 0.2041 cumulative IPC: 0.2065 (Simulation time: 01 hr 41 min 57 sec)
Heartbeat CPU 0 instructions: 234001156 cycles: 903264475 heartbeat IPC: 0.2037 cumulative IPC: 0.2065 (Simulation time: 01 hr 42 min 11 sec)
Heartbeat CPU 0 instructions: 234501157 cycles: 905695399 heartbeat IPC: 0.2057 cumulative IPC: 0.2065 (Simulation time: 01 hr 42 min 23 sec)
Heartbeat CPU 0 instructions: 235001161 cycles: 908092622 heartbeat IPC: 0.2086 cumulative IPC: 0.2065 (Simulation time: 01 hr 42 min 36 sec)
Heartbeat CPU 0 instructions: 235501164 cycles: 910519632 heartbeat IPC: 0.206 cumulative IPC: 0.2065 (Simulation time: 01 hr 42 min 49 sec)
Heartbeat CPU 0 instructions: 236001166 cycles: 912936405 heartbeat IPC: 0.2069 cumulative IPC: 0.2065 (Simulation time: 01 hr 43 min 02 sec)
Heartbeat CPU 0 instructions: 236501169 cycles: 915374322 heartbeat IPC: 0.2051 cumulative IPC: 0.2065 (Simulation time: 01 hr 43 min 15 sec)
Heartbeat CPU 0 instructions: 237001172 cycles: 917790316 heartbeat IPC: 0.207 cumulative IPC: 0.2065 (Simulation time: 01 hr 43 min 28 sec)
Heartbeat CPU 0 instructions: 237501179 cycles: 920189521 heartbeat IPC: 0.2084 cumulative IPC: 0.2065 (Simulation time: 01 hr 43 min 40 sec)
Heartbeat CPU 0 instructions: 238001183 cycles: 922588856 heartbeat IPC: 0.2084 cumulative IPC: 0.2065 (Simulation time: 01 hr 43 min 53 sec)
Heartbeat CPU 0 instructions: 238501190 cycles: 924997403 heartbeat IPC: 0.2076 cumulative IPC: 0.2065 (Simulation time: 01 hr 44 min 06 sec)
Heartbeat CPU 0 instructions: 239001191 cycles: 927427927 heartbeat IPC: 0.2057 cumulative IPC: 0.2065 (Simulation time: 01 hr 44 min 19 sec)
Heartbeat CPU 0 instructions: 239501191 cycles: 929818867 heartbeat IPC: 0.2091 cumulative IPC: 0.2065 (Simulation time: 01 hr 44 min 32 sec)
Heartbeat CPU 0 instructions: 240001191 cycles: 932233915 heartbeat IPC: 0.207 cumulative IPC: 0.2065 (Simulation time: 01 hr 44 min 45 sec)
Heartbeat CPU 0 instructions: 240501196 cycles: 934666782 heartbeat IPC: 0.2055 cumulative IPC: 0.2065 (Simulation time: 01 hr 44 min 58 sec)
Heartbeat CPU 0 instructions: 241001200 cycles: 937043234 heartbeat IPC: 0.2104 cumulative IPC: 0.2065 (Simulation time: 01 hr 45 min 10 sec)
Heartbeat CPU 0 instructions: 241501204 cycles: 939411359 heartbeat IPC: 0.2111 cumulative IPC: 0.2065 (Simulation time: 01 hr 45 min 23 sec)
Heartbeat CPU 0 instructions: 242001204 cycles: 941810443 heartbeat IPC: 0.2084 cumulative IPC: 0.2065 (Simulation time: 01 hr 45 min 35 sec)
Heartbeat CPU 0 instructions: 242501204 cycles: 944176726 heartbeat IPC: 0.2113 cumulative IPC: 0.2066 (Simulation time: 01 hr 45 min 47 sec)
Heartbeat CPU 0 instructions: 243001207 cycles: 946562218 heartbeat IPC: 0.2096 cumulative IPC: 0.2066 (Simulation time: 01 hr 46 min 00 sec)
Heartbeat CPU 0 instructions: 243501209 cycles: 948914922 heartbeat IPC: 0.2125 cumulative IPC: 0.2066 (Simulation time: 01 hr 46 min 13 sec)
Heartbeat CPU 0 instructions: 244001211 cycles: 951312558 heartbeat IPC: 0.2085 cumulative IPC: 0.2066 (Simulation time: 01 hr 46 min 25 sec)
Heartbeat CPU 0 instructions: 244501213 cycles: 953681135 heartbeat IPC: 0.2111 cumulative IPC: 0.2066 (Simulation time: 01 hr 46 min 38 sec)
Heartbeat CPU 0 instructions: 245001216 cycles: 956085075 heartbeat IPC: 0.208 cumulative IPC: 0.2066 (Simulation time: 01 hr 46 min 51 sec)
Heartbeat CPU 0 instructions: 245501221 cycles: 958433298 heartbeat IPC: 0.2129 cumulative IPC: 0.2066 (Simulation time: 01 hr 47 min 03 sec)
Heartbeat CPU 0 instructions: 246001227 cycles: 960808693 heartbeat IPC: 0.2105 cumulative IPC: 0.2066 (Simulation time: 01 hr 47 min 15 sec)
Heartbeat CPU 0 instructions: 246501229 cycles: 963186321 heartbeat IPC: 0.2103 cumulative IPC: 0.2066 (Simulation time: 01 hr 47 min 28 sec)
Heartbeat CPU 0 instructions: 247001236 cycles: 965574066 heartbeat IPC: 0.2094 cumulative IPC: 0.2066 (Simulation time: 01 hr 47 min 40 sec)
Heartbeat CPU 0 instructions: 247501238 cycles: 967961798 heartbeat IPC: 0.2094 cumulative IPC: 0.2066 (Simulation time: 01 hr 47 min 53 sec)
Heartbeat CPU 0 instructions: 248001239 cycles: 970332879 heartbeat IPC: 0.2109 cumulative IPC: 0.2067 (Simulation time: 01 hr 48 min 05 sec)
Heartbeat CPU 0 instructions: 248501243 cycles: 972671310 heartbeat IPC: 0.2138 cumulative IPC: 0.2067 (Simulation time: 01 hr 48 min 17 sec)
Heartbeat CPU 0 instructions: 249001245 cycles: 975063869 heartbeat IPC: 0.209 cumulative IPC: 0.2067 (Simulation time: 01 hr 48 min 30 sec)
Heartbeat CPU 0 instructions: 249501250 cycles: 977447777 heartbeat IPC: 0.2097 cumulative IPC: 0.2067 (Simulation time: 01 hr 48 min 42 sec)
Simulation finished CPU 0 instructions: 200000001 cycles: 967608167 cumulative IPC: 0.2067 (Simulation time: 01 hr 48 min 55 sec)
Simulation complete CPU 0 instructions: 200000001 cycles: 967608167 cumulative IPC: 0.2067 (Simulation time: 01 hr 48 min 55 sec)

ChampSim completed all CPUs

=== Simulation ===
CPU 0 runs /local-ssd/ben/dpc4-traces/Graph/GAP/bc-12.trace.gz

Region of Interest Statistics

CPU 0 cumulative IPC: 0.2067 instructions: 200000001 cycles: 967608167
CPU 0 Branch Prediction Accuracy: 84.19% MPKI: 27.85 Average ROB Occupancy at Mispredict: 30.49
Branch type MPKI
BRANCH_DIRECT_JUMP: 0
BRANCH_INDIRECT: 0
BRANCH_CONDITIONAL: 27.85
BRANCH_DIRECT_CALL: 0
BRANCH_INDIRECT_CALL: 0
BRANCH_RETURN: 0

cpu0->cpu0_STLB TOTAL        ACCESS:    8763711 HIT:    5268462 MISS:    3495249 MSHR_MERGE:          0
cpu0->cpu0_STLB LOAD         ACCESS:    8763711 HIT:    5268462 MISS:    3495249 MSHR_MERGE:          0
cpu0->cpu0_STLB RFO          ACCESS:          0 HIT:          0 MISS:          0 MSHR_MERGE:          0
cpu0->cpu0_STLB PREFETCH     ACCESS:          0 HIT:          0 MISS:          0 MSHR_MERGE:          0
cpu0->cpu0_STLB WRITE        ACCESS:          0 HIT:          0 MISS:          0 MSHR_MERGE:          0
cpu0->cpu0_STLB TRANSLATION  ACCESS:          0 HIT:          0 MISS:          0 MSHR_MERGE:          0
cpu0->cpu0_STLB PREFETCH REQUESTED:          0 ISSUED:          0 USEFUL:          0 USELESS:          0
cpu0->cpu0_STLB AVERAGE MISS LATENCY: 17.08 cycles
cpu0->cpu0_L2C TOTAL        ACCESS:   30214818 HIT:   15079720 MISS:   15135098 MSHR_MERGE:          0
cpu0->cpu0_L2C LOAD         ACCESS:   16157047 HIT:    6696510 MISS:    9460537 MSHR_MERGE:          0
cpu0->cpu0_L2C RFO          ACCESS:      50096 HIT:      21338 MISS:      28758 MSHR_MERGE:          0
cpu0->cpu0_L2C PREFETCH     ACCESS:    7059638 HIT:    1435877 MISS:    5623761 MSHR_MERGE:          0
cpu0->cpu0_L2C WRITE        ACCESS:    5565498 HIT:    5565480 MISS:         18 MSHR_MERGE:          0
cpu0->cpu0_L2C TRANSLATION  ACCESS:    1382539 HIT:    1360515 MISS:      22024 MSHR_MERGE:          0
cpu0->cpu0_L2C PREFETCH REQUESTED:          0 ISSUED:          0 USEFUL:          0 USELESS:          0
cpu0->cpu0_L2C AVERAGE MISS LATENCY: 151.9 cycles
cpu0->cpu0_L1I TOTAL        ACCESS:     462103 HIT:     462103 MISS:          0 MSHR_MERGE:          0
cpu0->cpu0_L1I LOAD         ACCESS:     462103 HIT:     462103 MISS:          0 MSHR_MERGE:          0
cpu0->cpu0_L1I RFO          ACCESS:          0 HIT:          0 MISS:          0 MSHR_MERGE:          0
cpu0->cpu0_L1I PREFETCH     ACCESS:          0 HIT:          0 MISS:          0 MSHR_MERGE:          0
cpu0->cpu0_L1I WRITE        ACCESS:          0 HIT:          0 MISS:          0 MSHR_MERGE:          0
cpu0->cpu0_L1I TRANSLATION  ACCESS:          0 HIT:          0 MISS:          0 MSHR_MERGE:          0
cpu0->cpu0_L1I PREFETCH REQUESTED:          0 ISSUED:          0 USEFUL:          0 USELESS:          0
cpu0->cpu0_L1I AVERAGE MISS LATENCY: - cycles
cpu0->cpu0_L1D TOTAL        ACCESS:   79354080 HIT:   54045638 MISS:   25308442 MSHR_MERGE:     659116
cpu0->cpu0_L1D LOAD         ACCESS:   53563468 HIT:   36969021 MISS:   16594447 MSHR_MERGE:     437400
cpu0->cpu0_L1D RFO          ACCESS:          0 HIT:          0 MISS:          0 MSHR_MERGE:          0
cpu0->cpu0_L1D PREFETCH     ACCESS:    7683592 HIT:     519538 MISS:    7164054 MSHR_MERGE:     104417
cpu0->cpu0_L1D WRITE        ACCESS:   11243486 HIT:   11149717 MISS:      93769 MSHR_MERGE:      43666
cpu0->cpu0_L1D TRANSLATION  ACCESS:    6863534 HIT:    5407362 MISS:    1456172 MSHR_MERGE:      73633
cpu0->cpu0_L1D PREFETCH REQUESTED:    7695402 ISSUED:    7683591 USEFUL:    1086445 USELESS:    5973184
cpu0->cpu0_L1D AVERAGE MISS LATENCY: 91.13 cycles
cpu0->cpu0_ITLB TOTAL        ACCESS:     445907 HIT:     445907 MISS:          0 MSHR_MERGE:          0
cpu0->cpu0_ITLB LOAD         ACCESS:     445907 HIT:     445907 MISS:          0 MSHR_MERGE:          0
cpu0->cpu0_ITLB RFO          ACCESS:          0 HIT:          0 MISS:          0 MSHR_MERGE:          0
cpu0->cpu0_ITLB PREFETCH     ACCESS:          0 HIT:          0 MISS:          0 MSHR_MERGE:          0
cpu0->cpu0_ITLB WRITE        ACCESS:          0 HIT:          0 MISS:          0 MSHR_MERGE:          0
cpu0->cpu0_ITLB TRANSLATION  ACCESS:          0 HIT:          0 MISS:          0 MSHR_MERGE:          0
cpu0->cpu0_ITLB PREFETCH REQUESTED:          0 ISSUED:          0 USEFUL:          0 USELESS:          0
cpu0->cpu0_ITLB AVERAGE MISS LATENCY: - cycles
cpu0->cpu0_DTLB TOTAL        ACCESS:   71005739 HIT:   60604554 MISS:   10401185 MSHR_MERGE:    1637475
cpu0->cpu0_DTLB LOAD         ACCESS:   71005739 HIT:   60604554 MISS:   10401185 MSHR_MERGE:    1637475
cpu0->cpu0_DTLB RFO          ACCESS:          0 HIT:          0 MISS:          0 MSHR_MERGE:          0
cpu0->cpu0_DTLB PREFETCH     ACCESS:          0 HIT:          0 MISS:          0 MSHR_MERGE:          0
cpu0->cpu0_DTLB WRITE        ACCESS:          0 HIT:          0 MISS:          0 MSHR_MERGE:          0
cpu0->cpu0_DTLB TRANSLATION  ACCESS:          0 HIT:          0 MISS:          0 MSHR_MERGE:          0
cpu0->cpu0_DTLB PREFETCH REQUESTED:          0 ISSUED:          0 USEFUL:          0 USELESS:          0
cpu0->cpu0_DTLB AVERAGE MISS LATENCY: 12.21 cycles
cpu0->LLC TOTAL        ACCESS:   19643698 HIT:    8019764 MISS:   11623934 MSHR_MERGE:          0
cpu0->LLC LOAD         ACCESS:    9460537 HIT:    4106452 MISS:    5354085 MSHR_MERGE:          0
cpu0->LLC RFO          ACCESS:      28758 HIT:        144 MISS:      28614 MSHR_MERGE:          0
cpu0->LLC PREFETCH     ACCESS:    5623761 HIT:    1422747 MISS:    4201014 MSHR_MERGE:          0
cpu0->LLC WRITE        ACCESS:    4508618 HIT:    2490333 MISS:    2018285 MSHR_MERGE:          0
cpu0->LLC TRANSLATION  ACCESS:      22024 HIT:         88 MISS:      21936 MSHR_MERGE:          0
cpu0->LLC PREFETCH REQUESTED:          0 ISSUED:          0 USEFUL:          0 USELESS:          0
cpu0->LLC AVERAGE MISS LATENCY: 170.3 cycles

DRAM Statistics

Channel 0 RQ ROW_BUFFER_HIT:     110201
  ROW_BUFFER_MISS:    9491664
  AVG DBUS CONGESTED CYCLE: 22.7
Channel 0 WQ ROW_BUFFER_HIT:     691072
  ROW_BUFFER_MISS:    1621112
  FULL:          0
Channel 0 REFRESHES ISSUED:      80628
