[VMEM] WARNING: physical memory size is smaller than virtual memory size.

*** ChampSim Multicore Out-of-Order Simulator ***
Warmup Instructions: 50000000
Simulation Instructions: 200000000
Number of CPUs: 1
Page size: 4096
Core 0: /local-ssd/ben/dpc4-traces/Graph/Ligra/ligra_PageRankDelta.com-lj.ungraph.gcc_6.3.0_O3.drop_17000M.length_250M.champsimtrace.xz
 L1D Berti prefetcher
Off-chip DRAM Size: 64 GiB Channels: 1 Width: 64-bit Data Rate: 4807 MT/s
Heartbeat CPU 0 instructions: 500003 cycles: 189639 heartbeat IPC: 2.637 cumulative IPC: 2.637 (Simulation time: 00 hr 00 min 03 sec)
Heartbeat CPU 0 instructions: 1000004 cycles: 379908 heartbeat IPC: 2.628 cumulative IPC: 2.632 (Simulation time: 00 hr 00 min 05 sec)
Heartbeat CPU 0 instructions: 1500010 cycles: 551630 heartbeat IPC: 2.912 cumulative IPC: 2.719 (Simulation time: 00 hr 00 min 08 sec)
Heartbeat CPU 0 instructions: 2000012 cycles: 739364 heartbeat IPC: 2.663 cumulative IPC: 2.705 (Simulation time: 00 hr 00 min 11 sec)
Heartbeat CPU 0 instructions: 2500015 cycles: 912676 heartbeat IPC: 2.885 cumulative IPC: 2.739 (Simulation time: 00 hr 00 min 13 sec)
Heartbeat CPU 0 instructions: 3000018 cycles: 1099592 heartbeat IPC: 2.675 cumulative IPC: 2.728 (Simulation time: 00 hr 00 min 16 sec)
Heartbeat CPU 0 instructions: 3500018 cycles: 1280814 heartbeat IPC: 2.759 cumulative IPC: 2.733 (Simulation time: 00 hr 00 min 18 sec)
Heartbeat CPU 0 instructions: 4000023 cycles: 1456223 heartbeat IPC: 2.851 cumulative IPC: 2.747 (Simulation time: 00 hr 00 min 21 sec)
Heartbeat CPU 0 instructions: 4500027 cycles: 1631034 heartbeat IPC: 2.86 cumulative IPC: 2.759 (Simulation time: 00 hr 00 min 24 sec)
Heartbeat CPU 0 instructions: 5000034 cycles: 1821444 heartbeat IPC: 2.626 cumulative IPC: 2.745 (Simulation time: 00 hr 00 min 26 sec)
Heartbeat CPU 0 instructions: 5500038 cycles: 2006181 heartbeat IPC: 2.707 cumulative IPC: 2.742 (Simulation time: 00 hr 00 min 29 sec)
Heartbeat CPU 0 instructions: 6000038 cycles: 2193350 heartbeat IPC: 2.671 cumulative IPC: 2.736 (Simulation time: 00 hr 00 min 31 sec)
Heartbeat CPU 0 instructions: 6500039 cycles: 2382066 heartbeat IPC: 2.649 cumulative IPC: 2.729 (Simulation time: 00 hr 00 min 34 sec)
Heartbeat CPU 0 instructions: 7000043 cycles: 2573799 heartbeat IPC: 2.608 cumulative IPC: 2.72 (Simulation time: 00 hr 00 min 36 sec)
Heartbeat CPU 0 instructions: 7500049 cycles: 2760782 heartbeat IPC: 2.674 cumulative IPC: 2.717 (Simulation time: 00 hr 00 min 39 sec)
Heartbeat CPU 0 instructions: 8000049 cycles: 2948233 heartbeat IPC: 2.667 cumulative IPC: 2.714 (Simulation time: 00 hr 00 min 42 sec)
Heartbeat CPU 0 instructions: 8500051 cycles: 3136223 heartbeat IPC: 2.66 cumulative IPC: 2.71 (Simulation time: 00 hr 00 min 44 sec)
Heartbeat CPU 0 instructions: 9000057 cycles: 3320231 heartbeat IPC: 2.717 cumulative IPC: 2.711 (Simulation time: 00 hr 00 min 47 sec)
Heartbeat CPU 0 instructions: 9500060 cycles: 3487996 heartbeat IPC: 2.98 cumulative IPC: 2.724 (Simulation time: 00 hr 00 min 49 sec)
Heartbeat CPU 0 instructions: 10000063 cycles: 3663791 heartbeat IPC: 2.844 cumulative IPC: 2.729 (Simulation time: 00 hr 00 min 51 sec)
Heartbeat CPU 0 instructions: 10500070 cycles: 3833777 heartbeat IPC: 2.941 cumulative IPC: 2.739 (Simulation time: 00 hr 00 min 54 sec)
Heartbeat CPU 0 instructions: 11000070 cycles: 3971638 heartbeat IPC: 3.627 cumulative IPC: 2.77 (Simulation time: 00 hr 00 min 56 sec)
Heartbeat CPU 0 instructions: 11500077 cycles: 4103114 heartbeat IPC: 3.803 cumulative IPC: 2.803 (Simulation time: 00 hr 00 min 58 sec)
Heartbeat CPU 0 instructions: 12000077 cycles: 4229693 heartbeat IPC: 3.95 cumulative IPC: 2.837 (Simulation time: 00 hr 01 min 00 sec)
Heartbeat CPU 0 instructions: 12500084 cycles: 4351267 heartbeat IPC: 4.113 cumulative IPC: 2.873 (Simulation time: 00 hr 01 min 02 sec)
Heartbeat CPU 0 instructions: 13000091 cycles: 4469410 heartbeat IPC: 4.232 cumulative IPC: 2.909 (Simulation time: 00 hr 01 min 04 sec)
Heartbeat CPU 0 instructions: 13500094 cycles: 4582466 heartbeat IPC: 4.423 cumulative IPC: 2.946 (Simulation time: 00 hr 01 min 06 sec)
Heartbeat CPU 0 instructions: 14000097 cycles: 4708796 heartbeat IPC: 3.958 cumulative IPC: 2.973 (Simulation time: 00 hr 01 min 08 sec)
Heartbeat CPU 0 instructions: 14500104 cycles: 4830286 heartbeat IPC: 4.116 cumulative IPC: 3.002 (Simulation time: 00 hr 01 min 11 sec)
Heartbeat CPU 0 instructions: 15000108 cycles: 4952042 heartbeat IPC: 4.107 cumulative IPC: 3.029 (Simulation time: 00 hr 01 min 13 sec)
Heartbeat CPU 0 instructions: 15500115 cycles: 5080763 heartbeat IPC: 3.884 cumulative IPC: 3.051 (Simulation time: 00 hr 01 min 15 sec)
Heartbeat CPU 0 instructions: 16000115 cycles: 5202268 heartbeat IPC: 4.115 cumulative IPC: 3.076 (Simulation time: 00 hr 01 min 18 sec)
Heartbeat CPU 0 instructions: 16500122 cycles: 5323256 heartbeat IPC: 4.133 cumulative IPC: 3.1 (Simulation time: 00 hr 01 min 20 sec)
Heartbeat CPU 0 instructions: 17000123 cycles: 5457601 heartbeat IPC: 3.722 cumulative IPC: 3.115 (Simulation time: 00 hr 01 min 23 sec)
Heartbeat CPU 0 instructions: 17500127 cycles: 5578927 heartbeat IPC: 4.121 cumulative IPC: 3.137 (Simulation time: 00 hr 01 min 25 sec)
Heartbeat CPU 0 instructions: 18000127 cycles: 5703704 heartbeat IPC: 4.007 cumulative IPC: 3.156 (Simulation time: 00 hr 01 min 27 sec)
Heartbeat CPU 0 instructions: 18500131 cycles: 5830601 heartbeat IPC: 3.94 cumulative IPC: 3.173 (Simulation time: 00 hr 01 min 30 sec)
Heartbeat CPU 0 instructions: 19000133 cycles: 5951533 heartbeat IPC: 4.135 cumulative IPC: 3.192 (Simulation time: 00 hr 01 min 32 sec)
Heartbeat CPU 0 instructions: 19500134 cycles: 6072644 heartbeat IPC: 4.128 cumulative IPC: 3.211 (Simulation time: 00 hr 01 min 35 sec)
Heartbeat CPU 0 instructions: 20000135 cycles: 6194025 heartbeat IPC: 4.119 cumulative IPC: 3.229 (Simulation time: 00 hr 01 min 37 sec)
Heartbeat CPU 0 instructions: 20500141 cycles: 6315186 heartbeat IPC: 4.127 cumulative IPC: 3.246 (Simulation time: 00 hr 01 min 39 sec)
Heartbeat CPU 0 instructions: 21000148 cycles: 6436450 heartbeat IPC: 4.123 cumulative IPC: 3.263 (Simulation time: 00 hr 01 min 42 sec)
Heartbeat CPU 0 instructions: 21500148 cycles: 6557187 heartbeat IPC: 4.141 cumulative IPC: 3.279 (Simulation time: 00 hr 01 min 44 sec)
Heartbeat CPU 0 instructions: 22000155 cycles: 6678074 heartbeat IPC: 4.136 cumulative IPC: 3.294 (Simulation time: 00 hr 01 min 47 sec)
Heartbeat CPU 0 instructions: 22500157 cycles: 6799244 heartbeat IPC: 4.126 cumulative IPC: 3.309 (Simulation time: 00 hr 01 min 49 sec)
Heartbeat CPU 0 instructions: 23000164 cycles: 6920520 heartbeat IPC: 4.123 cumulative IPC: 3.323 (Simulation time: 00 hr 01 min 51 sec)
Heartbeat CPU 0 instructions: 23500168 cycles: 7048349 heartbeat IPC: 3.912 cumulative IPC: 3.334 (Simulation time: 00 hr 01 min 54 sec)
Heartbeat CPU 0 instructions: 24000169 cycles: 7176289 heartbeat IPC: 3.908 cumulative IPC: 3.344 (Simulation time: 00 hr 01 min 56 sec)
Heartbeat CPU 0 instructions: 24500171 cycles: 7298199 heartbeat IPC: 4.101 cumulative IPC: 3.357 (Simulation time: 00 hr 01 min 58 sec)
Heartbeat CPU 0 instructions: 25000176 cycles: 7431799 heartbeat IPC: 3.743 cumulative IPC: 3.364 (Simulation time: 00 hr 02 min 01 sec)
Heartbeat CPU 0 instructions: 25500181 cycles: 7553588 heartbeat IPC: 4.106 cumulative IPC: 3.376 (Simulation time: 00 hr 02 min 03 sec)
Heartbeat CPU 0 instructions: 26000183 cycles: 7679170 heartbeat IPC: 3.981 cumulative IPC: 3.386 (Simulation time: 00 hr 02 min 06 sec)
Heartbeat CPU 0 instructions: 26500189 cycles: 7808975 heartbeat IPC: 3.852 cumulative IPC: 3.394 (Simulation time: 00 hr 02 min 08 sec)
Heartbeat CPU 0 instructions: 27000194 cycles: 7938682 heartbeat IPC: 3.855 cumulative IPC: 3.401 (Simulation time: 00 hr 02 min 10 sec)
Heartbeat CPU 0 instructions: 27500196 cycles: 8060486 heartbeat IPC: 4.105 cumulative IPC: 3.412 (Simulation time: 00 hr 02 min 13 sec)
Heartbeat CPU 0 instructions: 28000196 cycles: 8236695 heartbeat IPC: 2.838 cumulative IPC: 3.399 (Simulation time: 00 hr 02 min 15 sec)
Heartbeat CPU 0 instructions: 28500198 cycles: 8428401 heartbeat IPC: 2.608 cumulative IPC: 3.381 (Simulation time: 00 hr 02 min 18 sec)
Heartbeat CPU 0 instructions: 29000202 cycles: 8620852 heartbeat IPC: 2.598 cumulative IPC: 3.364 (Simulation time: 00 hr 02 min 21 sec)
Heartbeat CPU 0 instructions: 29500203 cycles: 8813912 heartbeat IPC: 2.59 cumulative IPC: 3.347 (Simulation time: 00 hr 02 min 23 sec)
Heartbeat CPU 0 instructions: 30000207 cycles: 9010202 heartbeat IPC: 2.547 cumulative IPC: 3.33 (Simulation time: 00 hr 02 min 26 sec)
Heartbeat CPU 0 instructions: 30500208 cycles: 9206514 heartbeat IPC: 2.547 cumulative IPC: 3.313 (Simulation time: 00 hr 02 min 28 sec)
Heartbeat CPU 0 instructions: 31000210 cycles: 9387220 heartbeat IPC: 2.767 cumulative IPC: 3.302 (Simulation time: 00 hr 02 min 31 sec)
Heartbeat CPU 0 instructions: 31500214 cycles: 9571655 heartbeat IPC: 2.711 cumulative IPC: 3.291 (Simulation time: 00 hr 02 min 34 sec)
Heartbeat CPU 0 instructions: 32000219 cycles: 9763989 heartbeat IPC: 2.6 cumulative IPC: 3.277 (Simulation time: 00 hr 02 min 36 sec)
Heartbeat CPU 0 instructions: 32500223 cycles: 9959765 heartbeat IPC: 2.554 cumulative IPC: 3.263 (Simulation time: 00 hr 02 min 39 sec)
Heartbeat CPU 0 instructions: 33000223 cycles: 10154306 heartbeat IPC: 2.57 cumulative IPC: 3.25 (Simulation time: 00 hr 02 min 42 sec)
Heartbeat CPU 0 instructions: 33500224 cycles: 10345277 heartbeat IPC: 2.618 cumulative IPC: 3.238 (Simulation time: 00 hr 02 min 44 sec)
Heartbeat CPU 0 instructions: 34000226 cycles: 10536555 heartbeat IPC: 2.614 cumulative IPC: 3.227 (Simulation time: 00 hr 02 min 47 sec)
Heartbeat CPU 0 instructions: 34500227 cycles: 10728863 heartbeat IPC: 2.6 cumulative IPC: 3.216 (Simulation time: 00 hr 02 min 49 sec)
Heartbeat CPU 0 instructions: 35000233 cycles: 10924434 heartbeat IPC: 2.557 cumulative IPC: 3.204 (Simulation time: 00 hr 02 min 52 sec)
Heartbeat CPU 0 instructions: 35500235 cycles: 11119854 heartbeat IPC: 2.559 cumulative IPC: 3.193 (Simulation time: 00 hr 02 min 55 sec)
Heartbeat CPU 0 instructions: 36000242 cycles: 11310944 heartbeat IPC: 2.617 cumulative IPC: 3.183 (Simulation time: 00 hr 02 min 57 sec)
Heartbeat CPU 0 instructions: 36500243 cycles: 11483509 heartbeat IPC: 2.897 cumulative IPC: 3.178 (Simulation time: 00 hr 03 min 00 sec)
Heartbeat CPU 0 instructions: 37000243 cycles: 11674923 heartbeat IPC: 2.612 cumulative IPC: 3.169 (Simulation time: 00 hr 03 min 02 sec)
Heartbeat CPU 0 instructions: 37500247 cycles: 11870578 heartbeat IPC: 2.556 cumulative IPC: 3.159 (Simulation time: 00 hr 03 min 05 sec)
Heartbeat CPU 0 instructions: 38000247 cycles: 12060877 heartbeat IPC: 2.627 cumulative IPC: 3.151 (Simulation time: 00 hr 03 min 08 sec)
Heartbeat CPU 0 instructions: 38500247 cycles: 12219607 heartbeat IPC: 3.15 cumulative IPC: 3.151 (Simulation time: 00 hr 03 min 10 sec)
Heartbeat CPU 0 instructions: 39000249 cycles: 12338006 heartbeat IPC: 4.223 cumulative IPC: 3.161 (Simulation time: 00 hr 03 min 12 sec)
Heartbeat CPU 0 instructions: 39500250 cycles: 12437987 heartbeat IPC: 5.001 cumulative IPC: 3.176 (Simulation time: 00 hr 03 min 14 sec)
Heartbeat CPU 0 instructions: 40000256 cycles: 12570577 heartbeat IPC: 3.771 cumulative IPC: 3.182 (Simulation time: 00 hr 03 min 16 sec)
Heartbeat CPU 0 instructions: 40500262 cycles: 12696943 heartbeat IPC: 3.957 cumulative IPC: 3.19 (Simulation time: 00 hr 03 min 18 sec)
Heartbeat CPU 0 instructions: 41000266 cycles: 12822674 heartbeat IPC: 3.977 cumulative IPC: 3.197 (Simulation time: 00 hr 03 min 21 sec)
Heartbeat CPU 0 instructions: 41500267 cycles: 12948574 heartbeat IPC: 3.971 cumulative IPC: 3.205 (Simulation time: 00 hr 03 min 23 sec)
Heartbeat CPU 0 instructions: 42000269 cycles: 13074935 heartbeat IPC: 3.957 cumulative IPC: 3.212 (Simulation time: 00 hr 03 min 26 sec)
Heartbeat CPU 0 instructions: 42500270 cycles: 13200666 heartbeat IPC: 3.977 cumulative IPC: 3.22 (Simulation time: 00 hr 03 min 28 sec)
Heartbeat CPU 0 instructions: 43000270 cycles: 13326357 heartbeat IPC: 3.978 cumulative IPC: 3.227 (Simulation time: 00 hr 03 min 31 sec)
Heartbeat CPU 0 instructions: 43500276 cycles: 13452020 heartbeat IPC: 3.979 cumulative IPC: 3.234 (Simulation time: 00 hr 03 min 33 sec)
Heartbeat CPU 0 instructions: 44000283 cycles: 13578125 heartbeat IPC: 3.965 cumulative IPC: 3.241 (Simulation time: 00 hr 03 min 35 sec)
Heartbeat CPU 0 instructions: 44500287 cycles: 13720849 heartbeat IPC: 3.503 cumulative IPC: 3.243 (Simulation time: 00 hr 03 min 38 sec)
Heartbeat CPU 0 instructions: 45000292 cycles: 13846682 heartbeat IPC: 3.974 cumulative IPC: 3.25 (Simulation time: 00 hr 03 min 40 sec)
Heartbeat CPU 0 instructions: 45500298 cycles: 13972505 heartbeat IPC: 3.974 cumulative IPC: 3.256 (Simulation time: 00 hr 03 min 43 sec)
Heartbeat CPU 0 instructions: 46000304 cycles: 14098152 heartbeat IPC: 3.979 cumulative IPC: 3.263 (Simulation time: 00 hr 03 min 45 sec)
Heartbeat CPU 0 instructions: 46500307 cycles: 14224117 heartbeat IPC: 3.969 cumulative IPC: 3.269 (Simulation time: 00 hr 03 min 48 sec)
Heartbeat CPU 0 instructions: 47000311 cycles: 14350613 heartbeat IPC: 3.953 cumulative IPC: 3.275 (Simulation time: 00 hr 03 min 50 sec)
Heartbeat CPU 0 instructions: 47500312 cycles: 14476942 heartbeat IPC: 3.958 cumulative IPC: 3.281 (Simulation time: 00 hr 03 min 53 sec)
Heartbeat CPU 0 instructions: 48000318 cycles: 14602978 heartbeat IPC: 3.967 cumulative IPC: 3.287 (Simulation time: 00 hr 03 min 55 sec)
Heartbeat CPU 0 instructions: 48500325 cycles: 14743962 heartbeat IPC: 3.547 cumulative IPC: 3.29 (Simulation time: 00 hr 03 min 58 sec)
Heartbeat CPU 0 instructions: 49000331 cycles: 14885018 heartbeat IPC: 3.545 cumulative IPC: 3.292 (Simulation time: 00 hr 04 min 00 sec)
Heartbeat CPU 0 instructions: 49500335 cycles: 15026452 heartbeat IPC: 3.535 cumulative IPC: 3.294 (Simulation time: 00 hr 04 min 03 sec)
Warmup halting CPU 0 at instruction 50000004 cycle 15152600 for remainder of phase
Warmup finished CPU 0 instructions: 50000004 cycles: 15152600 cumulative IPC: 3.3 (Simulation time: 00 hr 04 min 05 sec)
Warmup complete CPU 0 instructions: 50000004 cycles: 15152600 cumulative IPC: 3.3 (Simulation time: 00 hr 04 min 05 sec)
Heartbeat CPU 0 instructions: 50000340 cycles: 15152642 heartbeat IPC: 3.962 cumulative IPC: 8 (Simulation time: 00 hr 04 min 05 sec)
Heartbeat CPU 0 instructions: 50500343 cycles: 15404855 heartbeat IPC: 1.982 cumulative IPC: 1.983 (Simulation time: 00 hr 04 min 09 sec)
Heartbeat CPU 0 instructions: 51000343 cycles: 16052185 heartbeat IPC: 0.7724 cumulative IPC: 1.112 (Simulation time: 00 hr 04 min 17 sec)
Heartbeat CPU 0 instructions: 51500350 cycles: 16959532 heartbeat IPC: 0.5511 cumulative IPC: 0.8303 (Simulation time: 00 hr 04 min 28 sec)
Heartbeat CPU 0 instructions: 52000350 cycles: 17961997 heartbeat IPC: 0.4988 cumulative IPC: 0.712 (Simulation time: 00 hr 04 min 40 sec)
Heartbeat CPU 0 instructions: 52500351 cycles: 18846060 heartbeat IPC: 0.5656 cumulative IPC: 0.677 (Simulation time: 00 hr 04 min 51 sec)
Heartbeat CPU 0 instructions: 53000352 cycles: 19102441 heartbeat IPC: 1.95 cumulative IPC: 0.7596 (Simulation time: 00 hr 04 min 54 sec)
Heartbeat CPU 0 instructions: 53500353 cycles: 19352235 heartbeat IPC: 2.002 cumulative IPC: 0.8335 (Simulation time: 00 hr 04 min 58 sec)
Heartbeat CPU 0 instructions: 54000357 cycles: 19600077 heartbeat IPC: 2.017 cumulative IPC: 0.8995 (Simulation time: 00 hr 05 min 02 sec)
Heartbeat CPU 0 instructions: 54500363 cycles: 19859151 heartbeat IPC: 1.93 cumulative IPC: 0.9562 (Simulation time: 00 hr 05 min 06 sec)
Heartbeat CPU 0 instructions: 55000369 cycles: 20115779 heartbeat IPC: 1.948 cumulative IPC: 1.007 (Simulation time: 00 hr 05 min 09 sec)
Heartbeat CPU 0 instructions: 55500373 cycles: 20377324 heartbeat IPC: 1.912 cumulative IPC: 1.053 (Simulation time: 00 hr 05 min 13 sec)
Heartbeat CPU 0 instructions: 56000377 cycles: 20632633 heartbeat IPC: 1.958 cumulative IPC: 1.095 (Simulation time: 00 hr 05 min 17 sec)
Heartbeat CPU 0 instructions: 56500378 cycles: 20898335 heartbeat IPC: 1.882 cumulative IPC: 1.131 (Simulation time: 00 hr 05 min 21 sec)
Heartbeat CPU 0 instructions: 57000384 cycles: 21153800 heartbeat IPC: 1.957 cumulative IPC: 1.166 (Simulation time: 00 hr 05 min 25 sec)
Heartbeat CPU 0 instructions: 57500385 cycles: 21419554 heartbeat IPC: 1.881 cumulative IPC: 1.197 (Simulation time: 00 hr 05 min 29 sec)
Heartbeat CPU 0 instructions: 58000389 cycles: 21669979 heartbeat IPC: 1.997 cumulative IPC: 1.228 (Simulation time: 00 hr 05 min 33 sec)
Heartbeat CPU 0 instructions: 58500393 cycles: 21925094 heartbeat IPC: 1.96 cumulative IPC: 1.255 (Simulation time: 00 hr 05 min 36 sec)
Heartbeat CPU 0 instructions: 59000397 cycles: 22186650 heartbeat IPC: 1.912 cumulative IPC: 1.28 (Simulation time: 00 hr 05 min 40 sec)
Heartbeat CPU 0 instructions: 59500404 cycles: 22453589 heartbeat IPC: 1.873 cumulative IPC: 1.301 (Simulation time: 00 hr 05 min 44 sec)
Heartbeat CPU 0 instructions: 60000409 cycles: 22713041 heartbeat IPC: 1.927 cumulative IPC: 1.323 (Simulation time: 00 hr 05 min 48 sec)
Heartbeat CPU 0 instructions: 60500413 cycles: 22971156 heartbeat IPC: 1.937 cumulative IPC: 1.343 (Simulation time: 00 hr 05 min 52 sec)
Heartbeat CPU 0 instructions: 61000413 cycles: 23232541 heartbeat IPC: 1.913 cumulative IPC: 1.361 (Simulation time: 00 hr 05 min 56 sec)
Heartbeat CPU 0 instructions: 61500418 cycles: 23741090 heartbeat IPC: 0.9832 cumulative IPC: 1.339 (Simulation time: 00 hr 06 min 02 sec)
Heartbeat CPU 0 instructions: 62000425 cycles: 24557984 heartbeat IPC: 0.6121 cumulative IPC: 1.276 (Simulation time: 00 hr 06 min 13 sec)
Heartbeat CPU 0 instructions: 62500427 cycles: 25625978 heartbeat IPC: 0.4682 cumulative IPC: 1.194 (Simulation time: 00 hr 06 min 25 sec)
Heartbeat CPU 0 instructions: 63000431 cycles: 26254596 heartbeat IPC: 0.7954 cumulative IPC: 1.171 (Simulation time: 00 hr 06 min 33 sec)
Heartbeat CPU 0 instructions: 63500437 cycles: 26480137 heartbeat IPC: 2.217 cumulative IPC: 1.192 (Simulation time: 00 hr 06 min 37 sec)
Heartbeat CPU 0 instructions: 64000441 cycles: 26716449 heartbeat IPC: 2.116 cumulative IPC: 1.211 (Simulation time: 00 hr 06 min 40 sec)
Heartbeat CPU 0 instructions: 64500444 cycles: 26959159 heartbeat IPC: 2.06 cumulative IPC: 1.228 (Simulation time: 00 hr 06 min 44 sec)
Heartbeat CPU 0 instructions: 65000444 cycles: 27211770 heartbeat IPC: 1.979 cumulative IPC: 1.244 (Simulation time: 00 hr 06 min 48 sec)
Heartbeat CPU 0 instructions: 65500448 cycles: 27442652 heartbeat IPC: 2.166 cumulative IPC: 1.261 (Simulation time: 00 hr 06 min 52 sec)
Heartbeat CPU 0 instructions: 66000453 cycles: 27678332 heartbeat IPC: 2.122 cumulative IPC: 1.277 (Simulation time: 00 hr 06 min 55 sec)
Heartbeat CPU 0 instructions: 66500456 cycles: 27904555 heartbeat IPC: 2.21 cumulative IPC: 1.294 (Simulation time: 00 hr 06 min 59 sec)
Heartbeat CPU 0 instructions: 67000456 cycles: 28144188 heartbeat IPC: 2.087 cumulative IPC: 1.309 (Simulation time: 00 hr 07 min 03 sec)
Heartbeat CPU 0 instructions: 67500456 cycles: 28365621 heartbeat IPC: 2.258 cumulative IPC: 1.324 (Simulation time: 00 hr 07 min 06 sec)
Heartbeat CPU 0 instructions: 68000463 cycles: 28588207 heartbeat IPC: 2.246 cumulative IPC: 1.34 (Simulation time: 00 hr 07 min 09 sec)
Heartbeat CPU 0 instructions: 68500469 cycles: 28803464 heartbeat IPC: 2.323 cumulative IPC: 1.355 (Simulation time: 00 hr 07 min 13 sec)
Heartbeat CPU 0 instructions: 69000470 cycles: 29027161 heartbeat IPC: 2.235 cumulative IPC: 1.369 (Simulation time: 00 hr 07 min 16 sec)
Heartbeat CPU 0 instructions: 69500476 cycles: 29256167 heartbeat IPC: 2.183 cumulative IPC: 1.383 (Simulation time: 00 hr 07 min 20 sec)
Heartbeat CPU 0 instructions: 70000482 cycles: 29480814 heartbeat IPC: 2.226 cumulative IPC: 1.396 (Simulation time: 00 hr 07 min 23 sec)
Heartbeat CPU 0 instructions: 70500489 cycles: 29699445 heartbeat IPC: 2.287 cumulative IPC: 1.409 (Simulation time: 00 hr 07 min 27 sec)
Heartbeat CPU 0 instructions: 71000493 cycles: 29924665 heartbeat IPC: 2.22 cumulative IPC: 1.422 (Simulation time: 00 hr 07 min 30 sec)
Heartbeat CPU 0 instructions: 71500500 cycles: 30163243 heartbeat IPC: 2.096 cumulative IPC: 1.432 (Simulation time: 00 hr 07 min 34 sec)
Heartbeat CPU 0 instructions: 72000500 cycles: 30754972 heartbeat IPC: 0.845 cumulative IPC: 1.41 (Simulation time: 00 hr 07 min 41 sec)
Heartbeat CPU 0 instructions: 72500505 cycles: 31633520 heartbeat IPC: 0.5691 cumulative IPC: 1.365 (Simulation time: 00 hr 07 min 52 sec)
Heartbeat CPU 0 instructions: 73000509 cycles: 32601213 heartbeat IPC: 0.5167 cumulative IPC: 1.318 (Simulation time: 00 hr 08 min 03 sec)
Heartbeat CPU 0 instructions: 73500515 cycles: 32958753 heartbeat IPC: 1.398 cumulative IPC: 1.32 (Simulation time: 00 hr 08 min 08 sec)
Heartbeat CPU 0 instructions: 74000521 cycles: 33204437 heartbeat IPC: 2.035 cumulative IPC: 1.33 (Simulation time: 00 hr 08 min 12 sec)
Heartbeat CPU 0 instructions: 74500528 cycles: 33455264 heartbeat IPC: 1.993 cumulative IPC: 1.339 (Simulation time: 00 hr 08 min 16 sec)
Heartbeat CPU 0 instructions: 75000533 cycles: 33708611 heartbeat IPC: 1.974 cumulative IPC: 1.347 (Simulation time: 00 hr 08 min 19 sec)
Heartbeat CPU 0 instructions: 75500536 cycles: 33961237 heartbeat IPC: 1.979 cumulative IPC: 1.356 (Simulation time: 00 hr 08 min 23 sec)
Heartbeat CPU 0 instructions: 76000541 cycles: 34219472 heartbeat IPC: 1.936 cumulative IPC: 1.364 (Simulation time: 00 hr 08 min 27 sec)
Heartbeat CPU 0 instructions: 76500543 cycles: 34474470 heartbeat IPC: 1.961 cumulative IPC: 1.372 (Simulation time: 00 hr 08 min 31 sec)
Heartbeat CPU 0 instructions: 77000550 cycles: 34731971 heartbeat IPC: 1.942 cumulative IPC: 1.379 (Simulation time: 00 hr 08 min 34 sec)
Heartbeat CPU 0 instructions: 77500555 cycles: 34999448 heartbeat IPC: 1.869 cumulative IPC: 1.386 (Simulation time: 00 hr 08 min 38 sec)
Heartbeat CPU 0 instructions: 78000558 cycles: 35253730 heartbeat IPC: 1.966 cumulative IPC: 1.393 (Simulation time: 00 hr 08 min 42 sec)
Heartbeat CPU 0 instructions: 78500561 cycles: 35516954 heartbeat IPC: 1.9 cumulative IPC: 1.4 (Simulation time: 00 hr 08 min 46 sec)
Heartbeat CPU 0 instructions: 79000563 cycles: 35773042 heartbeat IPC: 1.952 cumulative IPC: 1.406 (Simulation time: 00 hr 08 min 50 sec)
Heartbeat CPU 0 instructions: 79500564 cycles: 36031760 heartbeat IPC: 1.933 cumulative IPC: 1.413 (Simulation time: 00 hr 08 min 54 sec)
Heartbeat CPU 0 instructions: 80000569 cycles: 36284479 heartbeat IPC: 1.979 cumulative IPC: 1.42 (Simulation time: 00 hr 08 min 58 sec)
Heartbeat CPU 0 instructions: 80500572 cycles: 36541318 heartbeat IPC: 1.947 cumulative IPC: 1.426 (Simulation time: 00 hr 09 min 01 sec)
Heartbeat CPU 0 instructions: 81000576 cycles: 36802717 heartbeat IPC: 1.913 cumulative IPC: 1.432 (Simulation time: 00 hr 09 min 05 sec)
Heartbeat CPU 0 instructions: 81500577 cycles: 37397583 heartbeat IPC: 0.8405 cumulative IPC: 1.416 (Simulation time: 00 hr 09 min 13 sec)
Heartbeat CPU 0 instructions: 82000577 cycles: 38340022 heartbeat IPC: 0.5305 cumulative IPC: 1.38 (Simulation time: 00 hr 09 min 24 sec)
Heartbeat CPU 0 instructions: 82500580 cycles: 39307861 heartbeat IPC: 0.5166 cumulative IPC: 1.345 (Simulation time: 00 hr 09 min 36 sec)
Heartbeat CPU 0 instructions: 83000587 cycles: 39522975 heartbeat IPC: 2.324 cumulative IPC: 1.354 (Simulation time: 00 hr 09 min 39 sec)
Heartbeat CPU 0 instructions: 83500587 cycles: 39757025 heartbeat IPC: 2.136 cumulative IPC: 1.362 (Simulation time: 00 hr 09 min 43 sec)
Heartbeat CPU 0 instructions: 84000591 cycles: 39989130 heartbeat IPC: 2.154 cumulative IPC: 1.369 (Simulation time: 00 hr 09 min 47 sec)
Heartbeat CPU 0 instructions: 84500593 cycles: 40214073 heartbeat IPC: 2.223 cumulative IPC: 1.377 (Simulation time: 00 hr 09 min 50 sec)
Heartbeat CPU 0 instructions: 85000594 cycles: 40428088 heartbeat IPC: 2.336 cumulative IPC: 1.385 (Simulation time: 00 hr 09 min 54 sec)
Heartbeat CPU 0 instructions: 85500601 cycles: 40654149 heartbeat IPC: 2.212 cumulative IPC: 1.392 (Simulation time: 00 hr 09 min 57 sec)
Heartbeat CPU 0 instructions: 86000607 cycles: 40889096 heartbeat IPC: 2.128 cumulative IPC: 1.399 (Simulation time: 00 hr 10 min 01 sec)
Heartbeat CPU 0 instructions: 86500611 cycles: 41114984 heartbeat IPC: 2.214 cumulative IPC: 1.406 (Simulation time: 00 hr 10 min 05 sec)
Heartbeat CPU 0 instructions: 87000615 cycles: 41343113 heartbeat IPC: 2.192 cumulative IPC: 1.413 (Simulation time: 00 hr 10 min 08 sec)
Heartbeat CPU 0 instructions: 87500616 cycles: 41556176 heartbeat IPC: 2.347 cumulative IPC: 1.42 (Simulation time: 00 hr 10 min 12 sec)
Heartbeat CPU 0 instructions: 88000623 cycles: 41764892 heartbeat IPC: 2.396 cumulative IPC: 1.428 (Simulation time: 00 hr 10 min 15 sec)
Heartbeat CPU 0 instructions: 88500627 cycles: 41976344 heartbeat IPC: 2.365 cumulative IPC: 1.435 (Simulation time: 00 hr 10 min 18 sec)
Heartbeat CPU 0 instructions: 89000630 cycles: 42182971 heartbeat IPC: 2.42 cumulative IPC: 1.443 (Simulation time: 00 hr 10 min 22 sec)
Heartbeat CPU 0 instructions: 89500631 cycles: 42396275 heartbeat IPC: 2.344 cumulative IPC: 1.45 (Simulation time: 00 hr 10 min 25 sec)
Heartbeat CPU 0 instructions: 90000638 cycles: 42614648 heartbeat IPC: 2.29 cumulative IPC: 1.457 (Simulation time: 00 hr 10 min 28 sec)
Heartbeat CPU 0 instructions: 90500645 cycles: 42825714 heartbeat IPC: 2.369 cumulative IPC: 1.464 (Simulation time: 00 hr 10 min 32 sec)
Heartbeat CPU 0 instructions: 91000651 cycles: 43470633 heartbeat IPC: 0.7753 cumulative IPC: 1.448 (Simulation time: 00 hr 10 min 40 sec)
Heartbeat CPU 0 instructions: 91500658 cycles: 44313297 heartbeat IPC: 0.5934 cumulative IPC: 1.423 (Simulation time: 00 hr 10 min 50 sec)
Heartbeat CPU 0 instructions: 92000665 cycles: 45019013 heartbeat IPC: 0.7085 cumulative IPC: 1.406 (Simulation time: 00 hr 10 min 58 sec)
Heartbeat CPU 0 instructions: 92500667 cycles: 45281375 heartbeat IPC: 1.906 cumulative IPC: 1.411 (Simulation time: 00 hr 11 min 02 sec)
Heartbeat CPU 0 instructions: 93000672 cycles: 45525704 heartbeat IPC: 2.046 cumulative IPC: 1.416 (Simulation time: 00 hr 11 min 06 sec)
Heartbeat CPU 0 instructions: 93500675 cycles: 45767535 heartbeat IPC: 2.068 cumulative IPC: 1.421 (Simulation time: 00 hr 11 min 09 sec)
Heartbeat CPU 0 instructions: 94000678 cycles: 46015549 heartbeat IPC: 2.016 cumulative IPC: 1.426 (Simulation time: 00 hr 11 min 13 sec)
Heartbeat CPU 0 instructions: 94500680 cycles: 46272617 heartbeat IPC: 1.945 cumulative IPC: 1.43 (Simulation time: 00 hr 11 min 17 sec)
Heartbeat CPU 0 instructions: 95000683 cycles: 46526137 heartbeat IPC: 1.972 cumulative IPC: 1.434 (Simulation time: 00 hr 11 min 21 sec)
Heartbeat CPU 0 instructions: 95500686 cycles: 46777751 heartbeat IPC: 1.987 cumulative IPC: 1.439 (Simulation time: 00 hr 11 min 24 sec)
Heartbeat CPU 0 instructions: 96000693 cycles: 47028868 heartbeat IPC: 1.991 cumulative IPC: 1.443 (Simulation time: 00 hr 11 min 28 sec)
Heartbeat CPU 0 instructions: 96500700 cycles: 47293187 heartbeat IPC: 1.892 cumulative IPC: 1.447 (Simulation time: 00 hr 11 min 32 sec)
Heartbeat CPU 0 instructions: 97000702 cycles: 47553912 heartbeat IPC: 1.918 cumulative IPC: 1.451 (Simulation time: 00 hr 11 min 36 sec)
Heartbeat CPU 0 instructions: 97500705 cycles: 47812310 heartbeat IPC: 1.935 cumulative IPC: 1.454 (Simulation time: 00 hr 11 min 40 sec)
Heartbeat CPU 0 instructions: 98000705 cycles: 48164295 heartbeat IPC: 1.421 cumulative IPC: 1.454 (Simulation time: 00 hr 11 min 45 sec)
Heartbeat CPU 0 instructions: 98500705 cycles: 48928696 heartbeat IPC: 0.6541 cumulative IPC: 1.436 (Simulation time: 00 hr 11 min 54 sec)
Heartbeat CPU 0 instructions: 99000707 cycles: 49663959 heartbeat IPC: 0.68 cumulative IPC: 1.42 (Simulation time: 00 hr 12 min 04 sec)
Heartbeat CPU 0 instructions: 99500710 cycles: 49855090 heartbeat IPC: 2.616 cumulative IPC: 1.426 (Simulation time: 00 hr 12 min 07 sec)
Heartbeat CPU 0 instructions: 100000716 cycles: 50054653 heartbeat IPC: 2.506 cumulative IPC: 1.433 (Simulation time: 00 hr 12 min 10 sec)
Heartbeat CPU 0 instructions: 100500719 cycles: 50230777 heartbeat IPC: 2.839 cumulative IPC: 1.44 (Simulation time: 00 hr 12 min 13 sec)
Heartbeat CPU 0 instructions: 101000719 cycles: 50407943 heartbeat IPC: 2.822 cumulative IPC: 1.447 (Simulation time: 00 hr 12 min 16 sec)
Heartbeat CPU 0 instructions: 101500721 cycles: 50622804 heartbeat IPC: 2.327 cumulative IPC: 1.452 (Simulation time: 00 hr 12 min 20 sec)
Heartbeat CPU 0 instructions: 102000728 cycles: 50827018 heartbeat IPC: 2.448 cumulative IPC: 1.458 (Simulation time: 00 hr 12 min 23 sec)
Heartbeat CPU 0 instructions: 102500730 cycles: 51017115 heartbeat IPC: 2.63 cumulative IPC: 1.464 (Simulation time: 00 hr 12 min 26 sec)
Heartbeat CPU 0 instructions: 103000737 cycles: 51197761 heartbeat IPC: 2.768 cumulative IPC: 1.47 (Simulation time: 00 hr 12 min 29 sec)
Heartbeat CPU 0 instructions: 103500744 cycles: 51390551 heartbeat IPC: 2.594 cumulative IPC: 1.476 (Simulation time: 00 hr 12 min 32 sec)
Heartbeat CPU 0 instructions: 104000745 cycles: 51571787 heartbeat IPC: 2.759 cumulative IPC: 1.483 (Simulation time: 00 hr 12 min 35 sec)
Heartbeat CPU 0 instructions: 104500749 cycles: 51760615 heartbeat IPC: 2.648 cumulative IPC: 1.489 (Simulation time: 00 hr 12 min 38 sec)
Heartbeat CPU 0 instructions: 105000750 cycles: 52009219 heartbeat IPC: 2.011 cumulative IPC: 1.492 (Simulation time: 00 hr 12 min 42 sec)
Heartbeat CPU 0 instructions: 105500751 cycles: 52541929 heartbeat IPC: 0.9386 cumulative IPC: 1.484 (Simulation time: 00 hr 12 min 48 sec)
Heartbeat CPU 0 instructions: 106000751 cycles: 53124877 heartbeat IPC: 0.8577 cumulative IPC: 1.475 (Simulation time: 00 hr 12 min 56 sec)
Heartbeat CPU 0 instructions: 106500756 cycles: 53382400 heartbeat IPC: 1.942 cumulative IPC: 1.478 (Simulation time: 00 hr 12 min 59 sec)
Heartbeat CPU 0 instructions: 107000760 cycles: 53623098 heartbeat IPC: 2.077 cumulative IPC: 1.482 (Simulation time: 00 hr 13 min 03 sec)
Heartbeat CPU 0 instructions: 107500764 cycles: 53862646 heartbeat IPC: 2.087 cumulative IPC: 1.485 (Simulation time: 00 hr 13 min 06 sec)
Heartbeat CPU 0 instructions: 108000767 cycles: 54104043 heartbeat IPC: 2.071 cumulative IPC: 1.489 (Simulation time: 00 hr 13 min 10 sec)
Heartbeat CPU 0 instructions: 108500770 cycles: 54346786 heartbeat IPC: 2.06 cumulative IPC: 1.493 (Simulation time: 00 hr 13 min 14 sec)
Heartbeat CPU 0 instructions: 109000777 cycles: 54600106 heartbeat IPC: 1.974 cumulative IPC: 1.496 (Simulation time: 00 hr 13 min 17 sec)
Heartbeat CPU 0 instructions: 109500777 cycles: 54852510 heartbeat IPC: 1.981 cumulative IPC: 1.499 (Simulation time: 00 hr 13 min 21 sec)
Heartbeat CPU 0 instructions: 110000780 cycles: 55095556 heartbeat IPC: 2.057 cumulative IPC: 1.502 (Simulation time: 00 hr 13 min 25 sec)
Heartbeat CPU 0 instructions: 110500781 cycles: 55688714 heartbeat IPC: 0.8429 cumulative IPC: 1.493 (Simulation time: 00 hr 13 min 33 sec)
Heartbeat CPU 0 instructions: 111000783 cycles: 56053091 heartbeat IPC: 1.372 cumulative IPC: 1.491 (Simulation time: 00 hr 13 min 38 sec)
Heartbeat CPU 0 instructions: 111500784 cycles: 56208443 heartbeat IPC: 3.219 cumulative IPC: 1.498 (Simulation time: 00 hr 13 min 41 sec)
Heartbeat CPU 0 instructions: 112000790 cycles: 56342716 heartbeat IPC: 3.724 cumulative IPC: 1.505 (Simulation time: 00 hr 13 min 43 sec)
Heartbeat CPU 0 instructions: 112500797 cycles: 56483699 heartbeat IPC: 3.547 cumulative IPC: 1.512 (Simulation time: 00 hr 13 min 46 sec)
Heartbeat CPU 0 instructions: 113000800 cycles: 56611688 heartbeat IPC: 3.907 cumulative IPC: 1.52 (Simulation time: 00 hr 13 min 48 sec)
Heartbeat CPU 0 instructions: 113500801 cycles: 56748865 heartbeat IPC: 3.645 cumulative IPC: 1.527 (Simulation time: 00 hr 13 min 50 sec)
Heartbeat CPU 0 instructions: 114000806 cycles: 56888732 heartbeat IPC: 3.575 cumulative IPC: 1.533 (Simulation time: 00 hr 13 min 53 sec)
Heartbeat CPU 0 instructions: 114500813 cycles: 57041043 heartbeat IPC: 3.283 cumulative IPC: 1.54 (Simulation time: 00 hr 13 min 56 sec)
Heartbeat CPU 0 instructions: 115000813 cycles: 57219635 heartbeat IPC: 2.8 cumulative IPC: 1.545 (Simulation time: 00 hr 13 min 58 sec)
Heartbeat CPU 0 instructions: 115500815 cycles: 57534868 heartbeat IPC: 1.586 cumulative IPC: 1.545 (Simulation time: 00 hr 14 min 03 sec)
Heartbeat CPU 0 instructions: 116000817 cycles: 57774689 heartbeat IPC: 2.085 cumulative IPC: 1.549 (Simulation time: 00 hr 14 min 06 sec)
Heartbeat CPU 0 instructions: 116500820 cycles: 58008271 heartbeat IPC: 2.141 cumulative IPC: 1.552 (Simulation time: 00 hr 14 min 10 sec)
Heartbeat CPU 0 instructions: 117000820 cycles: 58242965 heartbeat IPC: 2.13 cumulative IPC: 1.555 (Simulation time: 00 hr 14 min 13 sec)
Heartbeat CPU 0 instructions: 117500821 cycles: 58477239 heartbeat IPC: 2.134 cumulative IPC: 1.558 (Simulation time: 00 hr 14 min 16 sec)
Heartbeat CPU 0 instructions: 118000826 cycles: 58723928 heartbeat IPC: 2.027 cumulative IPC: 1.561 (Simulation time: 00 hr 14 min 20 sec)
Heartbeat CPU 0 instructions: 118500829 cycles: 58969928 heartbeat IPC: 2.033 cumulative IPC: 1.563 (Simulation time: 00 hr 14 min 24 sec)
Heartbeat CPU 0 instructions: 119000831 cycles: 59213328 heartbeat IPC: 2.054 cumulative IPC: 1.566 (Simulation time: 00 hr 14 min 27 sec)
Heartbeat CPU 0 instructions: 119500837 cycles: 59460696 heartbeat IPC: 2.021 cumulative IPC: 1.569 (Simulation time: 00 hr 14 min 31 sec)
Heartbeat CPU 0 instructions: 120000839 cycles: 59724882 heartbeat IPC: 1.893 cumulative IPC: 1.571 (Simulation time: 00 hr 14 min 35 sec)
Heartbeat CPU 0 instructions: 120500840 cycles: 59987518 heartbeat IPC: 1.904 cumulative IPC: 1.572 (Simulation time: 00 hr 14 min 39 sec)
Heartbeat CPU 0 instructions: 121000840 cycles: 60250102 heartbeat IPC: 1.904 cumulative IPC: 1.574 (Simulation time: 00 hr 14 min 43 sec)
Heartbeat CPU 0 instructions: 121500843 cycles: 60805204 heartbeat IPC: 0.9007 cumulative IPC: 1.566 (Simulation time: 00 hr 14 min 50 sec)
Heartbeat CPU 0 instructions: 122000848 cycles: 61694864 heartbeat IPC: 0.562 cumulative IPC: 1.547 (Simulation time: 00 hr 15 min 01 sec)
Heartbeat CPU 0 instructions: 122500850 cycles: 61958488 heartbeat IPC: 1.897 cumulative IPC: 1.549 (Simulation time: 00 hr 15 min 05 sec)
Heartbeat CPU 0 instructions: 123000856 cycles: 62141566 heartbeat IPC: 2.731 cumulative IPC: 1.554 (Simulation time: 00 hr 15 min 08 sec)
Heartbeat CPU 0 instructions: 123500858 cycles: 62322796 heartbeat IPC: 2.759 cumulative IPC: 1.558 (Simulation time: 00 hr 15 min 11 sec)
Heartbeat CPU 0 instructions: 124000860 cycles: 62491274 heartbeat IPC: 2.968 cumulative IPC: 1.563 (Simulation time: 00 hr 15 min 14 sec)
Heartbeat CPU 0 instructions: 124500863 cycles: 62668685 heartbeat IPC: 2.818 cumulative IPC: 1.568 (Simulation time: 00 hr 15 min 17 sec)
Heartbeat CPU 0 instructions: 125000863 cycles: 62858377 heartbeat IPC: 2.636 cumulative IPC: 1.572 (Simulation time: 00 hr 15 min 21 sec)
Heartbeat CPU 0 instructions: 125500863 cycles: 63038165 heartbeat IPC: 2.781 cumulative IPC: 1.577 (Simulation time: 00 hr 15 min 24 sec)
Heartbeat CPU 0 instructions: 126000870 cycles: 63231725 heartbeat IPC: 2.583 cumulative IPC: 1.581 (Simulation time: 00 hr 15 min 27 sec)
Heartbeat CPU 0 instructions: 126500872 cycles: 63409757 heartbeat IPC: 2.808 cumulative IPC: 1.585 (Simulation time: 00 hr 15 min 30 sec)
Heartbeat CPU 0 instructions: 127000874 cycles: 63587548 heartbeat IPC: 2.812 cumulative IPC: 1.59 (Simulation time: 00 hr 15 min 33 sec)
Heartbeat CPU 0 instructions: 127500874 cycles: 63769560 heartbeat IPC: 2.747 cumulative IPC: 1.594 (Simulation time: 00 hr 15 min 36 sec)
Heartbeat CPU 0 instructions: 128000874 cycles: 64056284 heartbeat IPC: 1.744 cumulative IPC: 1.595 (Simulation time: 00 hr 15 min 40 sec)
Heartbeat CPU 0 instructions: 128500874 cycles: 64585879 heartbeat IPC: 0.9441 cumulative IPC: 1.588 (Simulation time: 00 hr 15 min 46 sec)
Heartbeat CPU 0 instructions: 129000875 cycles: 64986133 heartbeat IPC: 1.249 cumulative IPC: 1.585 (Simulation time: 00 hr 15 min 51 sec)
Heartbeat CPU 0 instructions: 129500876 cycles: 65230533 heartbeat IPC: 2.046 cumulative IPC: 1.588 (Simulation time: 00 hr 15 min 55 sec)
Heartbeat CPU 0 instructions: 130000881 cycles: 65474904 heartbeat IPC: 2.046 cumulative IPC: 1.59 (Simulation time: 00 hr 15 min 59 sec)
Heartbeat CPU 0 instructions: 130500887 cycles: 65710406 heartbeat IPC: 2.123 cumulative IPC: 1.592 (Simulation time: 00 hr 16 min 02 sec)
Heartbeat CPU 0 instructions: 131000894 cycles: 65942174 heartbeat IPC: 2.157 cumulative IPC: 1.595 (Simulation time: 00 hr 16 min 06 sec)
Heartbeat CPU 0 instructions: 131500894 cycles: 66189967 heartbeat IPC: 2.018 cumulative IPC: 1.597 (Simulation time: 00 hr 16 min 09 sec)
Heartbeat CPU 0 instructions: 132000895 cycles: 66443672 heartbeat IPC: 1.971 cumulative IPC: 1.599 (Simulation time: 00 hr 16 min 13 sec)
Heartbeat CPU 0 instructions: 132500902 cycles: 66696483 heartbeat IPC: 1.978 cumulative IPC: 1.601 (Simulation time: 00 hr 16 min 17 sec)
Heartbeat CPU 0 instructions: 133000905 cycles: 66942217 heartbeat IPC: 2.035 cumulative IPC: 1.603 (Simulation time: 00 hr 16 min 20 sec)
Heartbeat CPU 0 instructions: 133500912 cycles: 67389710 heartbeat IPC: 1.117 cumulative IPC: 1.598 (Simulation time: 00 hr 16 min 27 sec)
Heartbeat CPU 0 instructions: 134000917 cycles: 68102675 heartbeat IPC: 0.7013 cumulative IPC: 1.586 (Simulation time: 00 hr 16 min 36 sec)
Heartbeat CPU 0 instructions: 134500924 cycles: 68260155 heartbeat IPC: 3.175 cumulative IPC: 1.591 (Simulation time: 00 hr 16 min 38 sec)
Heartbeat CPU 0 instructions: 135000924 cycles: 68422744 heartbeat IPC: 3.075 cumulative IPC: 1.596 (Simulation time: 00 hr 16 min 41 sec)
Heartbeat CPU 0 instructions: 135500928 cycles: 68577380 heartbeat IPC: 3.233 cumulative IPC: 1.6 (Simulation time: 00 hr 16 min 44 sec)
Heartbeat CPU 0 instructions: 136000932 cycles: 68738703 heartbeat IPC: 3.099 cumulative IPC: 1.605 (Simulation time: 00 hr 16 min 47 sec)
Heartbeat CPU 0 instructions: 136500939 cycles: 68881557 heartbeat IPC: 3.5 cumulative IPC: 1.61 (Simulation time: 00 hr 16 min 50 sec)
Heartbeat CPU 0 instructions: 137000946 cycles: 69037424 heartbeat IPC: 3.208 cumulative IPC: 1.615 (Simulation time: 00 hr 16 min 52 sec)
Heartbeat CPU 0 instructions: 137500949 cycles: 69204406 heartbeat IPC: 2.994 cumulative IPC: 1.619 (Simulation time: 00 hr 16 min 55 sec)
Heartbeat CPU 0 instructions: 138000955 cycles: 69363535 heartbeat IPC: 3.142 cumulative IPC: 1.623 (Simulation time: 00 hr 16 min 58 sec)
Heartbeat CPU 0 instructions: 138500957 cycles: 69520207 heartbeat IPC: 3.191 cumulative IPC: 1.628 (Simulation time: 00 hr 17 min 01 sec)
Heartbeat CPU 0 instructions: 139000959 cycles: 69811407 heartbeat IPC: 1.717 cumulative IPC: 1.628 (Simulation time: 00 hr 17 min 05 sec)
Heartbeat CPU 0 instructions: 139500960 cycles: 70174077 heartbeat IPC: 1.379 cumulative IPC: 1.627 (Simulation time: 00 hr 17 min 10 sec)
Heartbeat CPU 0 instructions: 140000961 cycles: 70410857 heartbeat IPC: 2.112 cumulative IPC: 1.629 (Simulation time: 00 hr 17 min 13 sec)
Heartbeat CPU 0 instructions: 140500968 cycles: 70643748 heartbeat IPC: 2.147 cumulative IPC: 1.631 (Simulation time: 00 hr 17 min 17 sec)
Heartbeat CPU 0 instructions: 141000971 cycles: 70873437 heartbeat IPC: 2.177 cumulative IPC: 1.633 (Simulation time: 00 hr 17 min 20 sec)
Heartbeat CPU 0 instructions: 141500972 cycles: 71105746 heartbeat IPC: 2.152 cumulative IPC: 1.635 (Simulation time: 00 hr 17 min 23 sec)
Heartbeat CPU 0 instructions: 142000972 cycles: 71350539 heartbeat IPC: 2.043 cumulative IPC: 1.637 (Simulation time: 00 hr 17 min 27 sec)
Heartbeat CPU 0 instructions: 142500974 cycles: 71597788 heartbeat IPC: 2.022 cumulative IPC: 1.639 (Simulation time: 00 hr 17 min 31 sec)
Heartbeat CPU 0 instructions: 143000976 cycles: 71919708 heartbeat IPC: 1.553 cumulative IPC: 1.638 (Simulation time: 00 hr 17 min 35 sec)
Heartbeat CPU 0 instructions: 143500983 cycles: 72289503 heartbeat IPC: 1.352 cumulative IPC: 1.636 (Simulation time: 00 hr 17 min 40 sec)
Heartbeat CPU 0 instructions: 144000984 cycles: 72424219 heartbeat IPC: 3.712 cumulative IPC: 1.641 (Simulation time: 00 hr 17 min 43 sec)
Heartbeat CPU 0 instructions: 144500985 cycles: 72548735 heartbeat IPC: 4.016 cumulative IPC: 1.646 (Simulation time: 00 hr 17 min 45 sec)
Heartbeat CPU 0 instructions: 145000986 cycles: 72682492 heartbeat IPC: 3.738 cumulative IPC: 1.651 (Simulation time: 00 hr 17 min 48 sec)
Heartbeat CPU 0 instructions: 145500987 cycles: 72809245 heartbeat IPC: 3.945 cumulative IPC: 1.656 (Simulation time: 00 hr 17 min 50 sec)
Heartbeat CPU 0 instructions: 146000991 cycles: 72944605 heartbeat IPC: 3.694 cumulative IPC: 1.661 (Simulation time: 00 hr 17 min 53 sec)
Heartbeat CPU 0 instructions: 146500994 cycles: 73084941 heartbeat IPC: 3.563 cumulative IPC: 1.666 (Simulation time: 00 hr 17 min 55 sec)
Heartbeat CPU 0 instructions: 147000994 cycles: 73236509 heartbeat IPC: 3.299 cumulative IPC: 1.67 (Simulation time: 00 hr 17 min 57 sec)
Heartbeat CPU 0 instructions: 147501000 cycles: 73484062 heartbeat IPC: 2.02 cumulative IPC: 1.671 (Simulation time: 00 hr 18 min 01 sec)
Heartbeat CPU 0 instructions: 148001004 cycles: 73739659 heartbeat IPC: 1.956 cumulative IPC: 1.673 (Simulation time: 00 hr 18 min 05 sec)
Heartbeat CPU 0 instructions: 148501009 cycles: 73986327 heartbeat IPC: 2.027 cumulative IPC: 1.674 (Simulation time: 00 hr 18 min 08 sec)
Heartbeat CPU 0 instructions: 149001009 cycles: 74224879 heartbeat IPC: 2.096 cumulative IPC: 1.676 (Simulation time: 00 hr 18 min 12 sec)
Heartbeat CPU 0 instructions: 149501010 cycles: 74475097 heartbeat IPC: 1.998 cumulative IPC: 1.677 (Simulation time: 00 hr 18 min 15 sec)
Heartbeat CPU 0 instructions: 150001012 cycles: 74720777 heartbeat IPC: 2.035 cumulative IPC: 1.679 (Simulation time: 00 hr 18 min 19 sec)
Heartbeat CPU 0 instructions: 150501017 cycles: 74972338 heartbeat IPC: 1.988 cumulative IPC: 1.68 (Simulation time: 00 hr 18 min 23 sec)
Heartbeat CPU 0 instructions: 151001017 cycles: 75220628 heartbeat IPC: 2.014 cumulative IPC: 1.681 (Simulation time: 00 hr 18 min 27 sec)
Heartbeat CPU 0 instructions: 151501020 cycles: 75474164 heartbeat IPC: 1.972 cumulative IPC: 1.683 (Simulation time: 00 hr 18 min 30 sec)
Heartbeat CPU 0 instructions: 152001022 cycles: 75734957 heartbeat IPC: 1.917 cumulative IPC: 1.684 (Simulation time: 00 hr 18 min 34 sec)
Heartbeat CPU 0 instructions: 152501024 cycles: 75993898 heartbeat IPC: 1.931 cumulative IPC: 1.685 (Simulation time: 00 hr 18 min 38 sec)
Heartbeat CPU 0 instructions: 153001025 cycles: 76259920 heartbeat IPC: 1.88 cumulative IPC: 1.686 (Simulation time: 00 hr 18 min 42 sec)
Heartbeat CPU 0 instructions: 153501028 cycles: 76498577 heartbeat IPC: 2.095 cumulative IPC: 1.687 (Simulation time: 00 hr 18 min 46 sec)
Heartbeat CPU 0 instructions: 154001034 cycles: 77183806 heartbeat IPC: 0.7297 cumulative IPC: 1.677 (Simulation time: 00 hr 18 min 55 sec)
Heartbeat CPU 0 instructions: 154501041 cycles: 78124990 heartbeat IPC: 0.5313 cumulative IPC: 1.659 (Simulation time: 00 hr 19 min 06 sec)
Heartbeat CPU 0 instructions: 155001043 cycles: 78362902 heartbeat IPC: 2.102 cumulative IPC: 1.661 (Simulation time: 00 hr 19 min 10 sec)
Heartbeat CPU 0 instructions: 155501046 cycles: 78554962 heartbeat IPC: 2.603 cumulative IPC: 1.664 (Simulation time: 00 hr 19 min 13 sec)
Heartbeat CPU 0 instructions: 156001048 cycles: 78752673 heartbeat IPC: 2.529 cumulative IPC: 1.667 (Simulation time: 00 hr 19 min 16 sec)
Heartbeat CPU 0 instructions: 156501048 cycles: 78933819 heartbeat IPC: 2.76 cumulative IPC: 1.67 (Simulation time: 00 hr 19 min 19 sec)
Heartbeat CPU 0 instructions: 157001053 cycles: 79133507 heartbeat IPC: 2.504 cumulative IPC: 1.672 (Simulation time: 00 hr 19 min 23 sec)
Heartbeat CPU 0 instructions: 157501055 cycles: 79337162 heartbeat IPC: 2.455 cumulative IPC: 1.675 (Simulation time: 00 hr 19 min 26 sec)
Heartbeat CPU 0 instructions: 158001058 cycles: 79522363 heartbeat IPC: 2.7 cumulative IPC: 1.678 (Simulation time: 00 hr 19 min 29 sec)
Heartbeat CPU 0 instructions: 158501064 cycles: 79703242 heartbeat IPC: 2.764 cumulative IPC: 1.681 (Simulation time: 00 hr 19 min 32 sec)
Heartbeat CPU 0 instructions: 159001069 cycles: 79899534 heartbeat IPC: 2.547 cumulative IPC: 1.683 (Simulation time: 00 hr 19 min 35 sec)
Heartbeat CPU 0 instructions: 159501069 cycles: 80092208 heartbeat IPC: 2.595 cumulative IPC: 1.686 (Simulation time: 00 hr 19 min 39 sec)
Heartbeat CPU 0 instructions: 160001075 cycles: 80276242 heartbeat IPC: 2.717 cumulative IPC: 1.689 (Simulation time: 00 hr 19 min 42 sec)
Heartbeat CPU 0 instructions: 160501080 cycles: 80468886 heartbeat IPC: 2.595 cumulative IPC: 1.692 (Simulation time: 00 hr 19 min 45 sec)
Heartbeat CPU 0 instructions: 161001080 cycles: 80834642 heartbeat IPC: 1.367 cumulative IPC: 1.69 (Simulation time: 00 hr 19 min 49 sec)
Heartbeat CPU 0 instructions: 161501084 cycles: 81462646 heartbeat IPC: 0.7962 cumulative IPC: 1.682 (Simulation time: 00 hr 19 min 57 sec)
Heartbeat CPU 0 instructions: 162001085 cycles: 81903065 heartbeat IPC: 1.135 cumulative IPC: 1.678 (Simulation time: 00 hr 20 min 03 sec)
Heartbeat CPU 0 instructions: 162501085 cycles: 82152908 heartbeat IPC: 2.001 cumulative IPC: 1.679 (Simulation time: 00 hr 20 min 07 sec)
Heartbeat CPU 0 instructions: 163001088 cycles: 82402099 heartbeat IPC: 2.007 cumulative IPC: 1.68 (Simulation time: 00 hr 20 min 10 sec)
Heartbeat CPU 0 instructions: 163501093 cycles: 82631023 heartbeat IPC: 2.184 cumulative IPC: 1.682 (Simulation time: 00 hr 20 min 14 sec)
Heartbeat CPU 0 instructions: 164001094 cycles: 82867198 heartbeat IPC: 2.117 cumulative IPC: 1.684 (Simulation time: 00 hr 20 min 17 sec)
Heartbeat CPU 0 instructions: 164501095 cycles: 83116501 heartbeat IPC: 2.006 cumulative IPC: 1.685 (Simulation time: 00 hr 20 min 21 sec)
Heartbeat CPU 0 instructions: 165001101 cycles: 83380404 heartbeat IPC: 1.895 cumulative IPC: 1.686 (Simulation time: 00 hr 20 min 25 sec)
Heartbeat CPU 0 instructions: 165501104 cycles: 83643438 heartbeat IPC: 1.901 cumulative IPC: 1.686 (Simulation time: 00 hr 20 min 29 sec)
Heartbeat CPU 0 instructions: 166001111 cycles: 83895889 heartbeat IPC: 1.981 cumulative IPC: 1.687 (Simulation time: 00 hr 20 min 33 sec)
Heartbeat CPU 0 instructions: 166501112 cycles: 84152265 heartbeat IPC: 1.95 cumulative IPC: 1.688 (Simulation time: 00 hr 20 min 36 sec)
Heartbeat CPU 0 instructions: 167001113 cycles: 84400736 heartbeat IPC: 2.012 cumulative IPC: 1.69 (Simulation time: 00 hr 20 min 40 sec)
Heartbeat CPU 0 instructions: 167501114 cycles: 84662020 heartbeat IPC: 1.914 cumulative IPC: 1.69 (Simulation time: 00 hr 20 min 44 sec)
Heartbeat CPU 0 instructions: 168001118 cycles: 84926018 heartbeat IPC: 1.894 cumulative IPC: 1.691 (Simulation time: 00 hr 20 min 48 sec)
Heartbeat CPU 0 instructions: 168501125 cycles: 85345044 heartbeat IPC: 1.193 cumulative IPC: 1.688 (Simulation time: 00 hr 20 min 54 sec)
Heartbeat CPU 0 instructions: 169001125 cycles: 86174409 heartbeat IPC: 0.6029 cumulative IPC: 1.676 (Simulation time: 00 hr 21 min 04 sec)
Heartbeat CPU 0 instructions: 169501130 cycles: 86975513 heartbeat IPC: 0.6241 cumulative IPC: 1.664 (Simulation time: 00 hr 21 min 14 sec)
Heartbeat CPU 0 instructions: 170001134 cycles: 87164090 heartbeat IPC: 2.651 cumulative IPC: 1.666 (Simulation time: 00 hr 21 min 17 sec)
Heartbeat CPU 0 instructions: 170501135 cycles: 87352831 heartbeat IPC: 2.649 cumulative IPC: 1.669 (Simulation time: 00 hr 21 min 20 sec)
Heartbeat CPU 0 instructions: 171001136 cycles: 87552281 heartbeat IPC: 2.507 cumulative IPC: 1.671 (Simulation time: 00 hr 21 min 23 sec)
Heartbeat CPU 0 instructions: 171501143 cycles: 87742607 heartbeat IPC: 2.627 cumulative IPC: 1.674 (Simulation time: 00 hr 21 min 27 sec)
Heartbeat CPU 0 instructions: 172001146 cycles: 87946785 heartbeat IPC: 2.449 cumulative IPC: 1.676 (Simulation time: 00 hr 21 min 30 sec)
Heartbeat CPU 0 instructions: 172501146 cycles: 88152803 heartbeat IPC: 2.427 cumulative IPC: 1.678 (Simulation time: 00 hr 21 min 33 sec)
Heartbeat CPU 0 instructions: 173001153 cycles: 88358729 heartbeat IPC: 2.428 cumulative IPC: 1.68 (Simulation time: 00 hr 21 min 37 sec)
Heartbeat CPU 0 instructions: 173501154 cycles: 88559093 heartbeat IPC: 2.495 cumulative IPC: 1.682 (Simulation time: 00 hr 21 min 40 sec)
Heartbeat CPU 0 instructions: 174001155 cycles: 88763107 heartbeat IPC: 2.451 cumulative IPC: 1.685 (Simulation time: 00 hr 21 min 43 sec)
Heartbeat CPU 0 instructions: 174501156 cycles: 88960351 heartbeat IPC: 2.535 cumulative IPC: 1.687 (Simulation time: 00 hr 21 min 46 sec)
Heartbeat CPU 0 instructions: 175001157 cycles: 89146593 heartbeat IPC: 2.685 cumulative IPC: 1.689 (Simulation time: 00 hr 21 min 50 sec)
Heartbeat CPU 0 instructions: 175501158 cycles: 89345988 heartbeat IPC: 2.508 cumulative IPC: 1.692 (Simulation time: 00 hr 21 min 53 sec)
Heartbeat CPU 0 instructions: 176001163 cycles: 89534908 heartbeat IPC: 2.647 cumulative IPC: 1.694 (Simulation time: 00 hr 21 min 56 sec)
Heartbeat CPU 0 instructions: 176501168 cycles: 90017595 heartbeat IPC: 1.036 cumulative IPC: 1.69 (Simulation time: 00 hr 22 min 02 sec)
Heartbeat CPU 0 instructions: 177001170 cycles: 90785664 heartbeat IPC: 0.651 cumulative IPC: 1.679 (Simulation time: 00 hr 22 min 11 sec)
Heartbeat CPU 0 instructions: 177501173 cycles: 91141116 heartbeat IPC: 1.407 cumulative IPC: 1.678 (Simulation time: 00 hr 22 min 16 sec)
Heartbeat CPU 0 instructions: 178001180 cycles: 91384220 heartbeat IPC: 2.057 cumulative IPC: 1.679 (Simulation time: 00 hr 22 min 20 sec)
Heartbeat CPU 0 instructions: 178501187 cycles: 91627676 heartbeat IPC: 2.054 cumulative IPC: 1.68 (Simulation time: 00 hr 22 min 23 sec)
Heartbeat CPU 0 instructions: 179001190 cycles: 91871898 heartbeat IPC: 2.047 cumulative IPC: 1.681 (Simulation time: 00 hr 22 min 27 sec)
Heartbeat CPU 0 instructions: 179501193 cycles: 92115382 heartbeat IPC: 2.054 cumulative IPC: 1.683 (Simulation time: 00 hr 22 min 30 sec)
Heartbeat CPU 0 instructions: 180001195 cycles: 92359653 heartbeat IPC: 2.047 cumulative IPC: 1.684 (Simulation time: 00 hr 22 min 34 sec)
Heartbeat CPU 0 instructions: 180501202 cycles: 92612047 heartbeat IPC: 1.981 cumulative IPC: 1.685 (Simulation time: 00 hr 22 min 38 sec)
Heartbeat CPU 0 instructions: 181001209 cycles: 92868537 heartbeat IPC: 1.949 cumulative IPC: 1.686 (Simulation time: 00 hr 22 min 42 sec)
Heartbeat CPU 0 instructions: 181501212 cycles: 93124291 heartbeat IPC: 1.955 cumulative IPC: 1.687 (Simulation time: 00 hr 22 min 46 sec)
Heartbeat CPU 0 instructions: 182001215 cycles: 93403735 heartbeat IPC: 1.789 cumulative IPC: 1.687 (Simulation time: 00 hr 22 min 50 sec)
Heartbeat CPU 0 instructions: 182501215 cycles: 94077279 heartbeat IPC: 0.7423 cumulative IPC: 1.679 (Simulation time: 00 hr 22 min 59 sec)
Heartbeat CPU 0 instructions: 183001222 cycles: 94582495 heartbeat IPC: 0.9897 cumulative IPC: 1.674 (Simulation time: 00 hr 23 min 05 sec)
Heartbeat CPU 0 instructions: 183501227 cycles: 94730710 heartbeat IPC: 3.374 cumulative IPC: 1.678 (Simulation time: 00 hr 23 min 08 sec)
Heartbeat CPU 0 instructions: 184001228 cycles: 94893455 heartbeat IPC: 3.072 cumulative IPC: 1.68 (Simulation time: 00 hr 23 min 11 sec)
Heartbeat CPU 0 instructions: 184501235 cycles: 95056453 heartbeat IPC: 3.068 cumulative IPC: 1.683 (Simulation time: 00 hr 23 min 14 sec)
Heartbeat CPU 0 instructions: 185001238 cycles: 95241939 heartbeat IPC: 2.696 cumulative IPC: 1.686 (Simulation time: 00 hr 23 min 17 sec)
Heartbeat CPU 0 instructions: 185501244 cycles: 95414906 heartbeat IPC: 2.891 cumulative IPC: 1.688 (Simulation time: 00 hr 23 min 20 sec)
Heartbeat CPU 0 instructions: 186001251 cycles: 95574348 heartbeat IPC: 3.136 cumulative IPC: 1.691 (Simulation time: 00 hr 23 min 23 sec)
Heartbeat CPU 0 instructions: 186501258 cycles: 95734770 heartbeat IPC: 3.117 cumulative IPC: 1.694 (Simulation time: 00 hr 23 min 26 sec)
Heartbeat CPU 0 instructions: 187001260 cycles: 95885507 heartbeat IPC: 3.317 cumulative IPC: 1.697 (Simulation time: 00 hr 23 min 28 sec)
Heartbeat CPU 0 instructions: 187501262 cycles: 96047232 heartbeat IPC: 3.092 cumulative IPC: 1.7 (Simulation time: 00 hr 23 min 31 sec)
Heartbeat CPU 0 instructions: 188001268 cycles: 96334223 heartbeat IPC: 1.742 cumulative IPC: 1.7 (Simulation time: 00 hr 23 min 35 sec)
Heartbeat CPU 0 instructions: 188501268 cycles: 96781613 heartbeat IPC: 1.118 cumulative IPC: 1.697 (Simulation time: 00 hr 23 min 41 sec)
Heartbeat CPU 0 instructions: 189001271 cycles: 97031518 heartbeat IPC: 2.001 cumulative IPC: 1.698 (Simulation time: 00 hr 23 min 44 sec)
Heartbeat CPU 0 instructions: 189501278 cycles: 97263697 heartbeat IPC: 2.154 cumulative IPC: 1.699 (Simulation time: 00 hr 23 min 48 sec)
Heartbeat CPU 0 instructions: 190001281 cycles: 97500576 heartbeat IPC: 2.111 cumulative IPC: 1.7 (Simulation time: 00 hr 23 min 51 sec)
Heartbeat CPU 0 instructions: 190501284 cycles: 97743227 heartbeat IPC: 2.061 cumulative IPC: 1.701 (Simulation time: 00 hr 23 min 55 sec)
Heartbeat CPU 0 instructions: 191001286 cycles: 97985111 heartbeat IPC: 2.067 cumulative IPC: 1.702 (Simulation time: 00 hr 23 min 58 sec)
Heartbeat CPU 0 instructions: 191501293 cycles: 98241462 heartbeat IPC: 1.95 cumulative IPC: 1.703 (Simulation time: 00 hr 24 min 02 sec)
Heartbeat CPU 0 instructions: 192001300 cycles: 98485063 heartbeat IPC: 2.053 cumulative IPC: 1.704 (Simulation time: 00 hr 24 min 06 sec)
Heartbeat CPU 0 instructions: 192501303 cycles: 98736329 heartbeat IPC: 1.99 cumulative IPC: 1.705 (Simulation time: 00 hr 24 min 10 sec)
Heartbeat CPU 0 instructions: 193001306 cycles: 99003774 heartbeat IPC: 1.87 cumulative IPC: 1.705 (Simulation time: 00 hr 24 min 14 sec)
Heartbeat CPU 0 instructions: 193501311 cycles: 99279917 heartbeat IPC: 1.811 cumulative IPC: 1.706 (Simulation time: 00 hr 24 min 18 sec)
Heartbeat CPU 0 instructions: 194001317 cycles: 99951815 heartbeat IPC: 0.7442 cumulative IPC: 1.698 (Simulation time: 00 hr 24 min 26 sec)
Heartbeat CPU 0 instructions: 194501324 cycles: 100508632 heartbeat IPC: 0.898 cumulative IPC: 1.693 (Simulation time: 00 hr 24 min 34 sec)
Heartbeat CPU 0 instructions: 195001331 cycles: 100669885 heartbeat IPC: 3.101 cumulative IPC: 1.696 (Simulation time: 00 hr 24 min 37 sec)
Heartbeat CPU 0 instructions: 195501334 cycles: 100839109 heartbeat IPC: 2.955 cumulative IPC: 1.698 (Simulation time: 00 hr 24 min 39 sec)
Heartbeat CPU 0 instructions: 196001340 cycles: 100985892 heartbeat IPC: 3.406 cumulative IPC: 1.701 (Simulation time: 00 hr 24 min 42 sec)
Heartbeat CPU 0 instructions: 196501340 cycles: 101171840 heartbeat IPC: 2.689 cumulative IPC: 1.703 (Simulation time: 00 hr 24 min 45 sec)
Heartbeat CPU 0 instructions: 197001346 cycles: 101331147 heartbeat IPC: 3.139 cumulative IPC: 1.706 (Simulation time: 00 hr 24 min 48 sec)
Heartbeat CPU 0 instructions: 197501353 cycles: 101493312 heartbeat IPC: 3.083 cumulative IPC: 1.708 (Simulation time: 00 hr 24 min 51 sec)
Heartbeat CPU 0 instructions: 198001356 cycles: 101667857 heartbeat IPC: 2.865 cumulative IPC: 1.711 (Simulation time: 00 hr 24 min 54 sec)
Heartbeat CPU 0 instructions: 198501357 cycles: 101839273 heartbeat IPC: 2.917 cumulative IPC: 1.713 (Simulation time: 00 hr 24 min 57 sec)
Heartbeat CPU 0 instructions: 199001360 cycles: 102017229 heartbeat IPC: 2.81 cumulative IPC: 1.715 (Simulation time: 00 hr 25 min 00 sec)
Heartbeat CPU 0 instructions: 199501362 cycles: 102214847 heartbeat IPC: 2.53 cumulative IPC: 1.717 (Simulation time: 00 hr 25 min 03 sec)
Heartbeat CPU 0 instructions: 200001362 cycles: 102648351 heartbeat IPC: 1.153 cumulative IPC: 1.714 (Simulation time: 00 hr 25 min 09 sec)
Heartbeat CPU 0 instructions: 200501362 cycles: 102998789 heartbeat IPC: 1.427 cumulative IPC: 1.713 (Simulation time: 00 hr 25 min 14 sec)
Heartbeat CPU 0 instructions: 201001364 cycles: 103248688 heartbeat IPC: 2.001 cumulative IPC: 1.714 (Simulation time: 00 hr 25 min 17 sec)
Heartbeat CPU 0 instructions: 201501370 cycles: 103496308 heartbeat IPC: 2.019 cumulative IPC: 1.715 (Simulation time: 00 hr 25 min 21 sec)
Heartbeat CPU 0 instructions: 202001373 cycles: 103742739 heartbeat IPC: 2.029 cumulative IPC: 1.716 (Simulation time: 00 hr 25 min 24 sec)
Heartbeat CPU 0 instructions: 202501374 cycles: 103973974 heartbeat IPC: 2.162 cumulative IPC: 1.717 (Simulation time: 00 hr 25 min 28 sec)
Heartbeat CPU 0 instructions: 203001376 cycles: 104214042 heartbeat IPC: 2.083 cumulative IPC: 1.718 (Simulation time: 00 hr 25 min 31 sec)
Heartbeat CPU 0 instructions: 203501376 cycles: 104457426 heartbeat IPC: 2.054 cumulative IPC: 1.719 (Simulation time: 00 hr 25 min 35 sec)
Heartbeat CPU 0 instructions: 204001377 cycles: 104715478 heartbeat IPC: 1.938 cumulative IPC: 1.719 (Simulation time: 00 hr 25 min 39 sec)
Heartbeat CPU 0 instructions: 204501377 cycles: 104977889 heartbeat IPC: 1.905 cumulative IPC: 1.72 (Simulation time: 00 hr 25 min 43 sec)
Heartbeat CPU 0 instructions: 205001377 cycles: 105232359 heartbeat IPC: 1.965 cumulative IPC: 1.721 (Simulation time: 00 hr 25 min 47 sec)
Heartbeat CPU 0 instructions: 205501383 cycles: 105601213 heartbeat IPC: 1.356 cumulative IPC: 1.719 (Simulation time: 00 hr 25 min 52 sec)
Heartbeat CPU 0 instructions: 206001390 cycles: 106383275 heartbeat IPC: 0.6393 cumulative IPC: 1.71 (Simulation time: 00 hr 26 min 02 sec)
Heartbeat CPU 0 instructions: 206501396 cycles: 106802791 heartbeat IPC: 1.192 cumulative IPC: 1.708 (Simulation time: 00 hr 26 min 08 sec)
Heartbeat CPU 0 instructions: 207001397 cycles: 106970447 heartbeat IPC: 2.982 cumulative IPC: 1.71 (Simulation time: 00 hr 26 min 10 sec)
Heartbeat CPU 0 instructions: 207501400 cycles: 107142458 heartbeat IPC: 2.907 cumulative IPC: 1.712 (Simulation time: 00 hr 26 min 13 sec)
Heartbeat CPU 0 instructions: 208001400 cycles: 107308373 heartbeat IPC: 3.014 cumulative IPC: 1.715 (Simulation time: 00 hr 26 min 16 sec)
Heartbeat CPU 0 instructions: 208501402 cycles: 107476771 heartbeat IPC: 2.969 cumulative IPC: 1.717 (Simulation time: 00 hr 26 min 19 sec)
Heartbeat CPU 0 instructions: 209001404 cycles: 107637903 heartbeat IPC: 3.103 cumulative IPC: 1.719 (Simulation time: 00 hr 26 min 22 sec)
Heartbeat CPU 0 instructions: 209501410 cycles: 107814357 heartbeat IPC: 2.834 cumulative IPC: 1.721 (Simulation time: 00 hr 26 min 25 sec)
Heartbeat CPU 0 instructions: 210001411 cycles: 107984367 heartbeat IPC: 2.941 cumulative IPC: 1.724 (Simulation time: 00 hr 26 min 28 sec)
Heartbeat CPU 0 instructions: 210501417 cycles: 108141944 heartbeat IPC: 3.173 cumulative IPC: 1.726 (Simulation time: 00 hr 26 min 31 sec)
Heartbeat CPU 0 instructions: 211001422 cycles: 108314616 heartbeat IPC: 2.896 cumulative IPC: 1.728 (Simulation time: 00 hr 26 min 34 sec)
Heartbeat CPU 0 instructions: 211501423 cycles: 108533287 heartbeat IPC: 2.287 cumulative IPC: 1.729 (Simulation time: 00 hr 26 min 37 sec)
Heartbeat CPU 0 instructions: 212001429 cycles: 108957903 heartbeat IPC: 1.178 cumulative IPC: 1.727 (Simulation time: 00 hr 26 min 43 sec)
Heartbeat CPU 0 instructions: 212501429 cycles: 109337725 heartbeat IPC: 1.316 cumulative IPC: 1.725 (Simulation time: 00 hr 26 min 49 sec)
Heartbeat CPU 0 instructions: 213001434 cycles: 109585895 heartbeat IPC: 2.015 cumulative IPC: 1.726 (Simulation time: 00 hr 26 min 55 sec)
Heartbeat CPU 0 instructions: 213501439 cycles: 109829089 heartbeat IPC: 2.056 cumulative IPC: 1.727 (Simulation time: 00 hr 27 min 00 sec)
Heartbeat CPU 0 instructions: 214001441 cycles: 110059317 heartbeat IPC: 2.172 cumulative IPC: 1.728 (Simulation time: 00 hr 27 min 06 sec)
Heartbeat CPU 0 instructions: 214501446 cycles: 110289231 heartbeat IPC: 2.175 cumulative IPC: 1.729 (Simulation time: 00 hr 27 min 11 sec)
Heartbeat CPU 0 instructions: 215001450 cycles: 110532889 heartbeat IPC: 2.052 cumulative IPC: 1.73 (Simulation time: 00 hr 27 min 16 sec)
Heartbeat CPU 0 instructions: 215501452 cycles: 110785779 heartbeat IPC: 1.977 cumulative IPC: 1.731 (Simulation time: 00 hr 27 min 22 sec)
Heartbeat CPU 0 instructions: 216001452 cycles: 111042013 heartbeat IPC: 1.951 cumulative IPC: 1.731 (Simulation time: 00 hr 27 min 28 sec)
Heartbeat CPU 0 instructions: 216501454 cycles: 111293049 heartbeat IPC: 1.992 cumulative IPC: 1.732 (Simulation time: 00 hr 27 min 34 sec)
Heartbeat CPU 0 instructions: 217001456 cycles: 111549846 heartbeat IPC: 1.947 cumulative IPC: 1.732 (Simulation time: 00 hr 27 min 40 sec)
Heartbeat CPU 0 instructions: 217501461 cycles: 112055521 heartbeat IPC: 0.9888 cumulative IPC: 1.729 (Simulation time: 00 hr 27 min 50 sec)
Heartbeat CPU 0 instructions: 218001462 cycles: 112867173 heartbeat IPC: 0.616 cumulative IPC: 1.719 (Simulation time: 00 hr 28 min 03 sec)
Heartbeat CPU 0 instructions: 218501463 cycles: 113035366 heartbeat IPC: 2.973 cumulative IPC: 1.721 (Simulation time: 00 hr 28 min 06 sec)
Heartbeat CPU 0 instructions: 219001468 cycles: 113201530 heartbeat IPC: 3.009 cumulative IPC: 1.724 (Simulation time: 00 hr 28 min 09 sec)
Heartbeat CPU 0 instructions: 219501468 cycles: 113369427 heartbeat IPC: 2.978 cumulative IPC: 1.726 (Simulation time: 00 hr 28 min 12 sec)
Heartbeat CPU 0 instructions: 220001475 cycles: 113528300 heartbeat IPC: 3.147 cumulative IPC: 1.728 (Simulation time: 00 hr 28 min 15 sec)
Heartbeat CPU 0 instructions: 220501480 cycles: 113696526 heartbeat IPC: 2.972 cumulative IPC: 1.73 (Simulation time: 00 hr 28 min 18 sec)
Heartbeat CPU 0 instructions: 221001481 cycles: 113854739 heartbeat IPC: 3.16 cumulative IPC: 1.733 (Simulation time: 00 hr 28 min 21 sec)
Heartbeat CPU 0 instructions: 221501483 cycles: 114031601 heartbeat IPC: 2.827 cumulative IPC: 1.734 (Simulation time: 00 hr 28 min 24 sec)
Heartbeat CPU 0 instructions: 222001489 cycles: 114201267 heartbeat IPC: 2.947 cumulative IPC: 1.737 (Simulation time: 00 hr 28 min 27 sec)
Heartbeat CPU 0 instructions: 222501491 cycles: 114377348 heartbeat IPC: 2.84 cumulative IPC: 1.738 (Simulation time: 00 hr 28 min 29 sec)
Heartbeat CPU 0 instructions: 223001491 cycles: 114532769 heartbeat IPC: 3.217 cumulative IPC: 1.741 (Simulation time: 00 hr 28 min 32 sec)
Heartbeat CPU 0 instructions: 223501493 cycles: 114888277 heartbeat IPC: 1.406 cumulative IPC: 1.74 (Simulation time: 00 hr 28 min 37 sec)
Heartbeat CPU 0 instructions: 224001493 cycles: 115309132 heartbeat IPC: 1.188 cumulative IPC: 1.737 (Simulation time: 00 hr 28 min 42 sec)
Heartbeat CPU 0 instructions: 224501493 cycles: 115555544 heartbeat IPC: 2.029 cumulative IPC: 1.738 (Simulation time: 00 hr 28 min 46 sec)
Heartbeat CPU 0 instructions: 225001493 cycles: 115798243 heartbeat IPC: 2.06 cumulative IPC: 1.739 (Simulation time: 00 hr 28 min 49 sec)
Heartbeat CPU 0 instructions: 225501494 cycles: 116041369 heartbeat IPC: 2.057 cumulative IPC: 1.74 (Simulation time: 00 hr 28 min 53 sec)
Heartbeat CPU 0 instructions: 226001497 cycles: 116270028 heartbeat IPC: 2.187 cumulative IPC: 1.741 (Simulation time: 00 hr 28 min 56 sec)
Heartbeat CPU 0 instructions: 226501501 cycles: 116506947 heartbeat IPC: 2.11 cumulative IPC: 1.741 (Simulation time: 00 hr 29 min 00 sec)
Heartbeat CPU 0 instructions: 227001502 cycles: 116751989 heartbeat IPC: 2.04 cumulative IPC: 1.742 (Simulation time: 00 hr 29 min 03 sec)
Heartbeat CPU 0 instructions: 227501508 cycles: 117014818 heartbeat IPC: 1.902 cumulative IPC: 1.743 (Simulation time: 00 hr 29 min 07 sec)
Heartbeat CPU 0 instructions: 228001514 cycles: 117272841 heartbeat IPC: 1.938 cumulative IPC: 1.743 (Simulation time: 00 hr 29 min 11 sec)
Heartbeat CPU 0 instructions: 228501521 cycles: 117526496 heartbeat IPC: 1.971 cumulative IPC: 1.744 (Simulation time: 00 hr 29 min 15 sec)
Heartbeat CPU 0 instructions: 229001522 cycles: 117880318 heartbeat IPC: 1.413 cumulative IPC: 1.742 (Simulation time: 00 hr 29 min 20 sec)
Heartbeat CPU 0 instructions: 229501522 cycles: 118619184 heartbeat IPC: 0.6767 cumulative IPC: 1.735 (Simulation time: 00 hr 29 min 29 sec)
Heartbeat CPU 0 instructions: 230001523 cycles: 119027122 heartbeat IPC: 1.226 cumulative IPC: 1.733 (Simulation time: 00 hr 29 min 35 sec)
Heartbeat CPU 0 instructions: 230501529 cycles: 119201983 heartbeat IPC: 2.859 cumulative IPC: 1.735 (Simulation time: 00 hr 29 min 38 sec)
Heartbeat CPU 0 instructions: 231001529 cycles: 119370306 heartbeat IPC: 2.97 cumulative IPC: 1.737 (Simulation time: 00 hr 29 min 41 sec)
Heartbeat CPU 0 instructions: 231501534 cycles: 119544543 heartbeat IPC: 2.87 cumulative IPC: 1.739 (Simulation time: 00 hr 29 min 44 sec)
Heartbeat CPU 0 instructions: 232001538 cycles: 119716397 heartbeat IPC: 2.909 cumulative IPC: 1.741 (Simulation time: 00 hr 29 min 47 sec)
Heartbeat CPU 0 instructions: 232501543 cycles: 119887328 heartbeat IPC: 2.925 cumulative IPC: 1.743 (Simulation time: 00 hr 29 min 50 sec)
Heartbeat CPU 0 instructions: 233001549 cycles: 120066636 heartbeat IPC: 2.789 cumulative IPC: 1.744 (Simulation time: 00 hr 29 min 53 sec)
Heartbeat CPU 0 instructions: 233501555 cycles: 120244582 heartbeat IPC: 2.81 cumulative IPC: 1.746 (Simulation time: 00 hr 29 min 56 sec)
Heartbeat CPU 0 instructions: 234001558 cycles: 120408728 heartbeat IPC: 3.046 cumulative IPC: 1.748 (Simulation time: 00 hr 29 min 59 sec)
Heartbeat CPU 0 instructions: 234501562 cycles: 120577656 heartbeat IPC: 2.96 cumulative IPC: 1.75 (Simulation time: 00 hr 30 min 02 sec)
Heartbeat CPU 0 instructions: 235001563 cycles: 120839499 heartbeat IPC: 1.91 cumulative IPC: 1.75 (Simulation time: 00 hr 30 min 05 sec)
Heartbeat CPU 0 instructions: 235501563 cycles: 121305859 heartbeat IPC: 1.072 cumulative IPC: 1.747 (Simulation time: 00 hr 30 min 11 sec)
Heartbeat CPU 0 instructions: 236001569 cycles: 121585736 heartbeat IPC: 1.787 cumulative IPC: 1.748 (Simulation time: 00 hr 30 min 15 sec)
Heartbeat CPU 0 instructions: 236501572 cycles: 121836779 heartbeat IPC: 1.992 cumulative IPC: 1.748 (Simulation time: 00 hr 30 min 19 sec)
Heartbeat CPU 0 instructions: 237001578 cycles: 122070813 heartbeat IPC: 2.136 cumulative IPC: 1.749 (Simulation time: 00 hr 30 min 22 sec)
Heartbeat CPU 0 instructions: 237501583 cycles: 122299548 heartbeat IPC: 2.186 cumulative IPC: 1.75 (Simulation time: 00 hr 30 min 26 sec)
Heartbeat CPU 0 instructions: 238001585 cycles: 122537773 heartbeat IPC: 2.099 cumulative IPC: 1.751 (Simulation time: 00 hr 30 min 29 sec)
Heartbeat CPU 0 instructions: 238501586 cycles: 122787604 heartbeat IPC: 2.001 cumulative IPC: 1.751 (Simulation time: 00 hr 30 min 33 sec)
Heartbeat CPU 0 instructions: 239001591 cycles: 123042066 heartbeat IPC: 1.965 cumulative IPC: 1.752 (Simulation time: 00 hr 30 min 37 sec)
Heartbeat CPU 0 instructions: 239501596 cycles: 123298869 heartbeat IPC: 1.947 cumulative IPC: 1.752 (Simulation time: 00 hr 30 min 40 sec)
Heartbeat CPU 0 instructions: 240001599 cycles: 123554113 heartbeat IPC: 1.959 cumulative IPC: 1.753 (Simulation time: 00 hr 30 min 44 sec)
Heartbeat CPU 0 instructions: 240501603 cycles: 123819769 heartbeat IPC: 1.882 cumulative IPC: 1.753 (Simulation time: 00 hr 30 min 48 sec)
Heartbeat CPU 0 instructions: 241001605 cycles: 124086897 heartbeat IPC: 1.872 cumulative IPC: 1.753 (Simulation time: 00 hr 30 min 52 sec)
Heartbeat CPU 0 instructions: 241501606 cycles: 124649487 heartbeat IPC: 0.8887 cumulative IPC: 1.749 (Simulation time: 00 hr 31 min 00 sec)
Heartbeat CPU 0 instructions: 242001608 cycles: 125536882 heartbeat IPC: 0.5634 cumulative IPC: 1.739 (Simulation time: 00 hr 31 min 10 sec)
Heartbeat CPU 0 instructions: 242501608 cycles: 125778696 heartbeat IPC: 2.068 cumulative IPC: 1.74 (Simulation time: 00 hr 31 min 14 sec)
Heartbeat CPU 0 instructions: 243001609 cycles: 125964464 heartbeat IPC: 2.692 cumulative IPC: 1.742 (Simulation time: 00 hr 31 min 17 sec)
Heartbeat CPU 0 instructions: 243501614 cycles: 126142042 heartbeat IPC: 2.816 cumulative IPC: 1.743 (Simulation time: 00 hr 31 min 20 sec)
Heartbeat CPU 0 instructions: 244001616 cycles: 126298839 heartbeat IPC: 3.189 cumulative IPC: 1.745 (Simulation time: 00 hr 31 min 23 sec)
Heartbeat CPU 0 instructions: 244501618 cycles: 126486797 heartbeat IPC: 2.66 cumulative IPC: 1.747 (Simulation time: 00 hr 31 min 26 sec)
Heartbeat CPU 0 instructions: 245001624 cycles: 126677023 heartbeat IPC: 2.628 cumulative IPC: 1.749 (Simulation time: 00 hr 31 min 30 sec)
Heartbeat CPU 0 instructions: 245501627 cycles: 126845561 heartbeat IPC: 2.967 cumulative IPC: 1.75 (Simulation time: 00 hr 31 min 33 sec)
Heartbeat CPU 0 instructions: 246001632 cycles: 127023491 heartbeat IPC: 2.81 cumulative IPC: 1.752 (Simulation time: 00 hr 31 min 36 sec)
Heartbeat CPU 0 instructions: 246501639 cycles: 127193648 heartbeat IPC: 2.939 cumulative IPC: 1.754 (Simulation time: 00 hr 31 min 39 sec)
Heartbeat CPU 0 instructions: 247001644 cycles: 127376453 heartbeat IPC: 2.735 cumulative IPC: 1.755 (Simulation time: 00 hr 31 min 42 sec)
Heartbeat CPU 0 instructions: 247501644 cycles: 127568157 heartbeat IPC: 2.608 cumulative IPC: 1.757 (Simulation time: 00 hr 31 min 45 sec)
Heartbeat CPU 0 instructions: 248001651 cycles: 127893531 heartbeat IPC: 1.537 cumulative IPC: 1.756 (Simulation time: 00 hr 31 min 49 sec)
Heartbeat CPU 0 instructions: 248501658 cycles: 128453132 heartbeat IPC: 0.8935 cumulative IPC: 1.752 (Simulation time: 00 hr 31 min 56 sec)
Heartbeat CPU 0 instructions: 249001660 cycles: 128775678 heartbeat IPC: 1.55 cumulative IPC: 1.751 (Simulation time: 00 hr 32 min 00 sec)
Heartbeat CPU 0 instructions: 249501667 cycles: 129016183 heartbeat IPC: 2.079 cumulative IPC: 1.752 (Simulation time: 00 hr 32 min 04 sec)
*** Reached end of trace: (0, "/local-ssd/ben/dpc4-traces/Graph/Ligra/ligra_PageRankDelta.com-lj.ungraph.gcc_6.3.0_O3.drop_17000M.length_250M.champsimtrace.xz")
Simulation finished CPU 0 instructions: 200000000 cycles: 114097676 cumulative IPC: 1.753 (Simulation time: 00 hr 32 min 07 sec)
Simulation complete CPU 0 instructions: 200000000 cycles: 114097676 cumulative IPC: 1.753 (Simulation time: 00 hr 32 min 07 sec)

ChampSim completed all CPUs

=== Simulation ===
CPU 0 runs /local-ssd/ben/dpc4-traces/Graph/Ligra/ligra_PageRankDelta.com-lj.ungraph.gcc_6.3.0_O3.drop_17000M.length_250M.champsimtrace.xz

Region of Interest Statistics

CPU 0 cumulative IPC: 1.753 instructions: 200000000 cycles: 114097676
CPU 0 Branch Prediction Accuracy: 99% MPKI: 1.016 Average ROB Occupancy at Mispredict: 184.6
Branch type MPKI
BRANCH_DIRECT_JUMP: 0
BRANCH_INDIRECT: 0
BRANCH_CONDITIONAL: 1.015
BRANCH_DIRECT_CALL: 0
BRANCH_INDIRECT_CALL: 0
BRANCH_RETURN: 0.00016

cpu0->cpu0_STLB TOTAL        ACCESS:     108421 HIT:      88717 MISS:      19704 MSHR_MERGE:          0
cpu0->cpu0_STLB LOAD         ACCESS:     108421 HIT:      88717 MISS:      19704 MSHR_MERGE:          0
cpu0->cpu0_STLB RFO          ACCESS:          0 HIT:          0 MISS:          0 MSHR_MERGE:          0
cpu0->cpu0_STLB PREFETCH     ACCESS:          0 HIT:          0 MISS:          0 MSHR_MERGE:          0
cpu0->cpu0_STLB WRITE        ACCESS:          0 HIT:          0 MISS:          0 MSHR_MERGE:          0
cpu0->cpu0_STLB TRANSLATION  ACCESS:          0 HIT:          0 MISS:          0 MSHR_MERGE:          0
cpu0->cpu0_STLB PREFETCH REQUESTED:          0 ISSUED:          0 USEFUL:          0 USELESS:          0
cpu0->cpu0_STLB AVERAGE MISS LATENCY: 259.4 cycles
cpu0->cpu0_L2C TOTAL        ACCESS:    7341503 HIT:    3441997 MISS:    3899506 MSHR_MERGE:          0
cpu0->cpu0_L2C LOAD         ACCESS:    1494490 HIT:     841664 MISS:     652826 MSHR_MERGE:          0
cpu0->cpu0_L2C RFO          ACCESS:    2244332 HIT:     226783 MISS:    2017549 MSHR_MERGE:          0
cpu0->cpu0_L2C PREFETCH     ACCESS:    1343173 HIT:     117090 MISS:    1226083 MSHR_MERGE:          0
cpu0->cpu0_L2C WRITE        ACCESS:    2253992 HIT:    2253957 MISS:         35 MSHR_MERGE:          0
cpu0->cpu0_L2C TRANSLATION  ACCESS:       5516 HIT:       2503 MISS:       3013 MSHR_MERGE:          0
cpu0->cpu0_L2C PREFETCH REQUESTED:          0 ISSUED:          0 USEFUL:          0 USELESS:          0
cpu0->cpu0_L2C AVERAGE MISS LATENCY: 276 cycles
cpu0->cpu0_L1I TOTAL        ACCESS:   27590275 HIT:   27590275 MISS:          0 MSHR_MERGE:          0
cpu0->cpu0_L1I LOAD         ACCESS:   27590275 HIT:   27590275 MISS:          0 MSHR_MERGE:          0
cpu0->cpu0_L1I RFO          ACCESS:          0 HIT:          0 MISS:          0 MSHR_MERGE:          0
cpu0->cpu0_L1I PREFETCH     ACCESS:          0 HIT:          0 MISS:          0 MSHR_MERGE:          0
cpu0->cpu0_L1I WRITE        ACCESS:          0 HIT:          0 MISS:          0 MSHR_MERGE:          0
cpu0->cpu0_L1I TRANSLATION  ACCESS:          0 HIT:          0 MISS:          0 MSHR_MERGE:          0
cpu0->cpu0_L1I PREFETCH REQUESTED:          0 ISSUED:          0 USEFUL:          0 USELESS:          0
cpu0->cpu0_L1I AVERAGE MISS LATENCY: - cycles
cpu0->cpu0_L1D TOTAL        ACCESS:   57589196 HIT:   39072289 MISS:   18516907 MSHR_MERGE:   13429309
cpu0->cpu0_L1D LOAD         ACCESS:   16076957 HIT:   12972979 MISS:    3103978 MSHR_MERGE:    1609480
cpu0->cpu0_L1D RFO          ACCESS:          0 HIT:          0 MISS:          0 MSHR_MERGE:          0
cpu0->cpu0_L1D PREFETCH     ACCESS:    1955125 HIT:     476591 MISS:    1478534 MSHR_MERGE:     135361
cpu0->cpu0_L1D WRITE        ACCESS:   39519380 HIT:   25592333 MISS:   13927047 MSHR_MERGE:   11682636
cpu0->cpu0_L1D TRANSLATION  ACCESS:      37734 HIT:      30386 MISS:       7348 MSHR_MERGE:       1832
cpu0->cpu0_L1D PREFETCH REQUESTED:    2870380 ISSUED:    1955117 USEFUL:    1293996 USELESS:      49155
cpu0->cpu0_L1D AVERAGE MISS LATENCY: 202.3 cycles
cpu0->cpu0_ITLB TOTAL        ACCESS:   25965075 HIT:   25965075 MISS:          0 MSHR_MERGE:          0
cpu0->cpu0_ITLB LOAD         ACCESS:   25965075 HIT:   25965075 MISS:          0 MSHR_MERGE:          0
cpu0->cpu0_ITLB RFO          ACCESS:          0 HIT:          0 MISS:          0 MSHR_MERGE:          0
cpu0->cpu0_ITLB PREFETCH     ACCESS:          0 HIT:          0 MISS:          0 MSHR_MERGE:          0
cpu0->cpu0_ITLB WRITE        ACCESS:          0 HIT:          0 MISS:          0 MSHR_MERGE:          0
cpu0->cpu0_ITLB TRANSLATION  ACCESS:          0 HIT:          0 MISS:          0 MSHR_MERGE:          0
cpu0->cpu0_ITLB PREFETCH REQUESTED:          0 ISSUED:          0 USEFUL:          0 USELESS:          0
cpu0->cpu0_ITLB AVERAGE MISS LATENCY: - cycles
cpu0->cpu0_DTLB TOTAL        ACCESS:   51647249 HIT:   51237861 MISS:     409388 MSHR_MERGE:     300967
cpu0->cpu0_DTLB LOAD         ACCESS:   51647249 HIT:   51237861 MISS:     409388 MSHR_MERGE:     300967
cpu0->cpu0_DTLB RFO          ACCESS:          0 HIT:          0 MISS:          0 MSHR_MERGE:          0
cpu0->cpu0_DTLB PREFETCH     ACCESS:          0 HIT:          0 MISS:          0 MSHR_MERGE:          0
cpu0->cpu0_DTLB WRITE        ACCESS:          0 HIT:          0 MISS:          0 MSHR_MERGE:          0
cpu0->cpu0_DTLB TRANSLATION  ACCESS:          0 HIT:          0 MISS:          0 MSHR_MERGE:          0
cpu0->cpu0_DTLB PREFETCH REQUESTED:          0 ISSUED:          0 USEFUL:          0 USELESS:          0
cpu0->cpu0_DTLB AVERAGE MISS LATENCY: 52.33 cycles
cpu0->LLC TOTAL        ACCESS:    5994610 HIT:    1925330 MISS:    4069280 MSHR_MERGE:          0
cpu0->LLC LOAD         ACCESS:     652826 HIT:     444695 MISS:     208131 MSHR_MERGE:          0
cpu0->LLC RFO          ACCESS:    2017549 HIT:     496340 MISS:    1521209 MSHR_MERGE:          0
cpu0->LLC PREFETCH     ACCESS:    1226083 HIT:     377977 MISS:     848106 MSHR_MERGE:          0
cpu0->LLC WRITE        ACCESS:    2095139 HIT:     606312 MISS:    1488827 MSHR_MERGE:          0
cpu0->LLC TRANSLATION  ACCESS:       3013 HIT:          6 MISS:       3007 MSHR_MERGE:          0
cpu0->LLC PREFETCH REQUESTED:          0 ISSUED:          0 USEFUL:          0 USELESS:          0
cpu0->LLC AVERAGE MISS LATENCY: 218.1 cycles

DRAM Statistics

Channel 0 RQ ROW_BUFFER_HIT:     172075
  ROW_BUFFER_MISS:    2405872
  AVG DBUS CONGESTED CYCLE: 14.21
Channel 0 WQ ROW_BUFFER_HIT:     226328
  ROW_BUFFER_MISS:    1348810
  FULL:     302206
Channel 0 REFRESHES ISSUED:       9508
