[VMEM] WARNING: physical memory size is smaller than virtual memory size.

*** ChampSim Multicore Out-of-Order Simulator ***
Warmup Instructions: 50000000
Simulation Instructions: 200000000
Number of CPUs: 1
Page size: 4096
Core 0: /local-ssd/ben/dpc4-traces/Graph/Ligra/ligra_BFSCC.com-lj.ungraph.gcc_6.3.0_O3.drop_15500M.length_250M.champsimtrace.xz
 L1D Berti prefetcher
Off-chip DRAM Size: 64 GiB Channels: 1 Width: 64-bit Data Rate: 4807 MT/s
Heartbeat CPU 0 instructions: 500003 cycles: 163792 heartbeat IPC: 3.053 cumulative IPC: 3.053 (Simulation time: 00 hr 00 min 02 sec)
Heartbeat CPU 0 instructions: 1000004 cycles: 326151 heartbeat IPC: 3.08 cumulative IPC: 3.066 (Simulation time: 00 hr 00 min 04 sec)
Heartbeat CPU 0 instructions: 1500008 cycles: 488658 heartbeat IPC: 3.077 cumulative IPC: 3.07 (Simulation time: 00 hr 00 min 06 sec)
Heartbeat CPU 0 instructions: 2000010 cycles: 650825 heartbeat IPC: 3.083 cumulative IPC: 3.073 (Simulation time: 00 hr 00 min 08 sec)
Heartbeat CPU 0 instructions: 2500012 cycles: 813315 heartbeat IPC: 3.077 cumulative IPC: 3.074 (Simulation time: 00 hr 00 min 10 sec)
Heartbeat CPU 0 instructions: 3000015 cycles: 975683 heartbeat IPC: 3.079 cumulative IPC: 3.075 (Simulation time: 00 hr 00 min 13 sec)
Heartbeat CPU 0 instructions: 3500018 cycles: 1137982 heartbeat IPC: 3.081 cumulative IPC: 3.076 (Simulation time: 00 hr 00 min 15 sec)
Heartbeat CPU 0 instructions: 4000020 cycles: 1300680 heartbeat IPC: 3.073 cumulative IPC: 3.075 (Simulation time: 00 hr 00 min 17 sec)
Heartbeat CPU 0 instructions: 4500026 cycles: 1463063 heartbeat IPC: 3.079 cumulative IPC: 3.076 (Simulation time: 00 hr 00 min 19 sec)
Heartbeat CPU 0 instructions: 5000033 cycles: 1625012 heartbeat IPC: 3.087 cumulative IPC: 3.077 (Simulation time: 00 hr 00 min 21 sec)
Heartbeat CPU 0 instructions: 5500033 cycles: 1787545 heartbeat IPC: 3.076 cumulative IPC: 3.077 (Simulation time: 00 hr 00 min 23 sec)
Heartbeat CPU 0 instructions: 6000038 cycles: 1949724 heartbeat IPC: 3.083 cumulative IPC: 3.077 (Simulation time: 00 hr 00 min 25 sec)
Heartbeat CPU 0 instructions: 6500040 cycles: 2112177 heartbeat IPC: 3.078 cumulative IPC: 3.077 (Simulation time: 00 hr 00 min 27 sec)
Heartbeat CPU 0 instructions: 7000044 cycles: 2275599 heartbeat IPC: 3.06 cumulative IPC: 3.076 (Simulation time: 00 hr 00 min 29 sec)
Heartbeat CPU 0 instructions: 7500045 cycles: 2438371 heartbeat IPC: 3.072 cumulative IPC: 3.076 (Simulation time: 00 hr 00 min 31 sec)
Heartbeat CPU 0 instructions: 8000048 cycles: 2601300 heartbeat IPC: 3.069 cumulative IPC: 3.075 (Simulation time: 00 hr 00 min 33 sec)
Heartbeat CPU 0 instructions: 8500050 cycles: 2763469 heartbeat IPC: 3.083 cumulative IPC: 3.076 (Simulation time: 00 hr 00 min 35 sec)
Heartbeat CPU 0 instructions: 9000052 cycles: 2926089 heartbeat IPC: 3.075 cumulative IPC: 3.076 (Simulation time: 00 hr 00 min 37 sec)
Heartbeat CPU 0 instructions: 9500055 cycles: 3088341 heartbeat IPC: 3.082 cumulative IPC: 3.076 (Simulation time: 00 hr 00 min 39 sec)
Heartbeat CPU 0 instructions: 10000060 cycles: 3250593 heartbeat IPC: 3.082 cumulative IPC: 3.076 (Simulation time: 00 hr 00 min 41 sec)
Heartbeat CPU 0 instructions: 10500060 cycles: 3413189 heartbeat IPC: 3.075 cumulative IPC: 3.076 (Simulation time: 00 hr 00 min 43 sec)
Heartbeat CPU 0 instructions: 11000063 cycles: 3575362 heartbeat IPC: 3.083 cumulative IPC: 3.077 (Simulation time: 00 hr 00 min 45 sec)
Heartbeat CPU 0 instructions: 11500065 cycles: 3737665 heartbeat IPC: 3.081 cumulative IPC: 3.077 (Simulation time: 00 hr 00 min 47 sec)
Heartbeat CPU 0 instructions: 12000068 cycles: 3900210 heartbeat IPC: 3.076 cumulative IPC: 3.077 (Simulation time: 00 hr 00 min 49 sec)
Heartbeat CPU 0 instructions: 12500070 cycles: 4062513 heartbeat IPC: 3.081 cumulative IPC: 3.077 (Simulation time: 00 hr 00 min 51 sec)
Heartbeat CPU 0 instructions: 13000073 cycles: 4224544 heartbeat IPC: 3.086 cumulative IPC: 3.077 (Simulation time: 00 hr 00 min 53 sec)
Heartbeat CPU 0 instructions: 13500076 cycles: 4387427 heartbeat IPC: 3.07 cumulative IPC: 3.077 (Simulation time: 00 hr 00 min 55 sec)
Heartbeat CPU 0 instructions: 14000076 cycles: 4549258 heartbeat IPC: 3.09 cumulative IPC: 3.077 (Simulation time: 00 hr 00 min 57 sec)
Heartbeat CPU 0 instructions: 14500079 cycles: 4712126 heartbeat IPC: 3.07 cumulative IPC: 3.077 (Simulation time: 00 hr 01 min 00 sec)
Heartbeat CPU 0 instructions: 15000081 cycles: 4873986 heartbeat IPC: 3.089 cumulative IPC: 3.078 (Simulation time: 00 hr 01 min 02 sec)
Heartbeat CPU 0 instructions: 15500084 cycles: 5036356 heartbeat IPC: 3.079 cumulative IPC: 3.078 (Simulation time: 00 hr 01 min 04 sec)
Heartbeat CPU 0 instructions: 16000088 cycles: 5198992 heartbeat IPC: 3.074 cumulative IPC: 3.078 (Simulation time: 00 hr 01 min 06 sec)
Heartbeat CPU 0 instructions: 16500090 cycles: 5361171 heartbeat IPC: 3.083 cumulative IPC: 3.078 (Simulation time: 00 hr 01 min 08 sec)
Heartbeat CPU 0 instructions: 17000092 cycles: 5523655 heartbeat IPC: 3.077 cumulative IPC: 3.078 (Simulation time: 00 hr 01 min 10 sec)
Heartbeat CPU 0 instructions: 17500095 cycles: 5686595 heartbeat IPC: 3.069 cumulative IPC: 3.077 (Simulation time: 00 hr 01 min 12 sec)
Heartbeat CPU 0 instructions: 18000098 cycles: 5849746 heartbeat IPC: 3.065 cumulative IPC: 3.077 (Simulation time: 00 hr 01 min 14 sec)
Heartbeat CPU 0 instructions: 18500100 cycles: 6012309 heartbeat IPC: 3.076 cumulative IPC: 3.077 (Simulation time: 00 hr 01 min 16 sec)
Heartbeat CPU 0 instructions: 19000104 cycles: 6174652 heartbeat IPC: 3.08 cumulative IPC: 3.077 (Simulation time: 00 hr 01 min 18 sec)
Heartbeat CPU 0 instructions: 19500105 cycles: 6336631 heartbeat IPC: 3.087 cumulative IPC: 3.077 (Simulation time: 00 hr 01 min 20 sec)
Heartbeat CPU 0 instructions: 20000105 cycles: 6499278 heartbeat IPC: 3.074 cumulative IPC: 3.077 (Simulation time: 00 hr 01 min 22 sec)
Heartbeat CPU 0 instructions: 20500110 cycles: 6661491 heartbeat IPC: 3.082 cumulative IPC: 3.077 (Simulation time: 00 hr 01 min 24 sec)
Heartbeat CPU 0 instructions: 21000113 cycles: 6823718 heartbeat IPC: 3.082 cumulative IPC: 3.078 (Simulation time: 00 hr 01 min 26 sec)
Heartbeat CPU 0 instructions: 21500115 cycles: 6986204 heartbeat IPC: 3.077 cumulative IPC: 3.078 (Simulation time: 00 hr 01 min 28 sec)
Heartbeat CPU 0 instructions: 22000118 cycles: 7148234 heartbeat IPC: 3.086 cumulative IPC: 3.078 (Simulation time: 00 hr 01 min 30 sec)
Heartbeat CPU 0 instructions: 22500120 cycles: 7310945 heartbeat IPC: 3.073 cumulative IPC: 3.078 (Simulation time: 00 hr 01 min 32 sec)
Heartbeat CPU 0 instructions: 23000124 cycles: 7473292 heartbeat IPC: 3.08 cumulative IPC: 3.078 (Simulation time: 00 hr 01 min 34 sec)
Heartbeat CPU 0 instructions: 23500124 cycles: 7635694 heartbeat IPC: 3.079 cumulative IPC: 3.078 (Simulation time: 00 hr 01 min 36 sec)
Heartbeat CPU 0 instructions: 24000128 cycles: 7798116 heartbeat IPC: 3.078 cumulative IPC: 3.078 (Simulation time: 00 hr 01 min 38 sec)
Heartbeat CPU 0 instructions: 24500129 cycles: 7960961 heartbeat IPC: 3.07 cumulative IPC: 3.078 (Simulation time: 00 hr 01 min 40 sec)
Heartbeat CPU 0 instructions: 25000133 cycles: 8123694 heartbeat IPC: 3.073 cumulative IPC: 3.077 (Simulation time: 00 hr 01 min 42 sec)
Heartbeat CPU 0 instructions: 25500135 cycles: 8286723 heartbeat IPC: 3.067 cumulative IPC: 3.077 (Simulation time: 00 hr 01 min 44 sec)
Heartbeat CPU 0 instructions: 26000138 cycles: 8449030 heartbeat IPC: 3.081 cumulative IPC: 3.077 (Simulation time: 00 hr 01 min 46 sec)
Heartbeat CPU 0 instructions: 26500140 cycles: 8611443 heartbeat IPC: 3.079 cumulative IPC: 3.077 (Simulation time: 00 hr 01 min 49 sec)
Heartbeat CPU 0 instructions: 27000143 cycles: 8773746 heartbeat IPC: 3.081 cumulative IPC: 3.077 (Simulation time: 00 hr 01 min 51 sec)
Heartbeat CPU 0 instructions: 27500145 cycles: 8935919 heartbeat IPC: 3.083 cumulative IPC: 3.077 (Simulation time: 00 hr 01 min 53 sec)
Heartbeat CPU 0 instructions: 28000148 cycles: 9099331 heartbeat IPC: 3.06 cumulative IPC: 3.077 (Simulation time: 00 hr 01 min 55 sec)
Heartbeat CPU 0 instructions: 28500150 cycles: 9261617 heartbeat IPC: 3.081 cumulative IPC: 3.077 (Simulation time: 00 hr 01 min 57 sec)
Heartbeat CPU 0 instructions: 29000151 cycles: 9424395 heartbeat IPC: 3.072 cumulative IPC: 3.077 (Simulation time: 00 hr 01 min 59 sec)
Heartbeat CPU 0 instructions: 29500155 cycles: 9586907 heartbeat IPC: 3.077 cumulative IPC: 3.077 (Simulation time: 00 hr 02 min 01 sec)
Heartbeat CPU 0 instructions: 30000156 cycles: 9749384 heartbeat IPC: 3.077 cumulative IPC: 3.077 (Simulation time: 00 hr 02 min 03 sec)
Heartbeat CPU 0 instructions: 30500160 cycles: 9912497 heartbeat IPC: 3.065 cumulative IPC: 3.077 (Simulation time: 00 hr 02 min 05 sec)
Heartbeat CPU 0 instructions: 31000163 cycles: 10075130 heartbeat IPC: 3.074 cumulative IPC: 3.077 (Simulation time: 00 hr 02 min 07 sec)
Heartbeat CPU 0 instructions: 31500164 cycles: 10238205 heartbeat IPC: 3.066 cumulative IPC: 3.077 (Simulation time: 00 hr 02 min 09 sec)
Heartbeat CPU 0 instructions: 32000168 cycles: 10400518 heartbeat IPC: 3.08 cumulative IPC: 3.077 (Simulation time: 00 hr 02 min 11 sec)
Heartbeat CPU 0 instructions: 32500170 cycles: 10562818 heartbeat IPC: 3.081 cumulative IPC: 3.077 (Simulation time: 00 hr 02 min 13 sec)
Heartbeat CPU 0 instructions: 33000172 cycles: 10725378 heartbeat IPC: 3.076 cumulative IPC: 3.077 (Simulation time: 00 hr 02 min 15 sec)
Heartbeat CPU 0 instructions: 33500177 cycles: 10887867 heartbeat IPC: 3.077 cumulative IPC: 3.077 (Simulation time: 00 hr 02 min 17 sec)
Heartbeat CPU 0 instructions: 34000178 cycles: 11049706 heartbeat IPC: 3.089 cumulative IPC: 3.077 (Simulation time: 00 hr 02 min 19 sec)
Heartbeat CPU 0 instructions: 34500180 cycles: 11212193 heartbeat IPC: 3.077 cumulative IPC: 3.077 (Simulation time: 00 hr 02 min 21 sec)
Heartbeat CPU 0 instructions: 35000183 cycles: 11374428 heartbeat IPC: 3.082 cumulative IPC: 3.077 (Simulation time: 00 hr 02 min 23 sec)
Heartbeat CPU 0 instructions: 35500185 cycles: 11536793 heartbeat IPC: 3.079 cumulative IPC: 3.077 (Simulation time: 00 hr 02 min 25 sec)
Heartbeat CPU 0 instructions: 36000188 cycles: 11699278 heartbeat IPC: 3.077 cumulative IPC: 3.077 (Simulation time: 00 hr 02 min 28 sec)
Heartbeat CPU 0 instructions: 36500190 cycles: 11861307 heartbeat IPC: 3.086 cumulative IPC: 3.077 (Simulation time: 00 hr 02 min 30 sec)
Heartbeat CPU 0 instructions: 37000193 cycles: 12023812 heartbeat IPC: 3.077 cumulative IPC: 3.077 (Simulation time: 00 hr 02 min 32 sec)
Heartbeat CPU 0 instructions: 37500195 cycles: 12186165 heartbeat IPC: 3.08 cumulative IPC: 3.077 (Simulation time: 00 hr 02 min 34 sec)
Heartbeat CPU 0 instructions: 38000196 cycles: 12348945 heartbeat IPC: 3.072 cumulative IPC: 3.077 (Simulation time: 00 hr 02 min 36 sec)
Heartbeat CPU 0 instructions: 38500200 cycles: 12511051 heartbeat IPC: 3.084 cumulative IPC: 3.077 (Simulation time: 00 hr 02 min 38 sec)
Heartbeat CPU 0 instructions: 39000201 cycles: 12673290 heartbeat IPC: 3.082 cumulative IPC: 3.077 (Simulation time: 00 hr 02 min 40 sec)
Heartbeat CPU 0 instructions: 39500205 cycles: 12836201 heartbeat IPC: 3.069 cumulative IPC: 3.077 (Simulation time: 00 hr 02 min 42 sec)
Heartbeat CPU 0 instructions: 40000208 cycles: 12998930 heartbeat IPC: 3.073 cumulative IPC: 3.077 (Simulation time: 00 hr 02 min 44 sec)
Heartbeat CPU 0 instructions: 40500212 cycles: 13161513 heartbeat IPC: 3.075 cumulative IPC: 3.077 (Simulation time: 00 hr 02 min 46 sec)
Heartbeat CPU 0 instructions: 41000213 cycles: 13323934 heartbeat IPC: 3.078 cumulative IPC: 3.077 (Simulation time: 00 hr 02 min 48 sec)
Heartbeat CPU 0 instructions: 41500215 cycles: 13486235 heartbeat IPC: 3.081 cumulative IPC: 3.077 (Simulation time: 00 hr 02 min 50 sec)
Heartbeat CPU 0 instructions: 42000218 cycles: 13648464 heartbeat IPC: 3.082 cumulative IPC: 3.077 (Simulation time: 00 hr 02 min 52 sec)
Heartbeat CPU 0 instructions: 42500223 cycles: 13811075 heartbeat IPC: 3.075 cumulative IPC: 3.077 (Simulation time: 00 hr 02 min 54 sec)
Heartbeat CPU 0 instructions: 43000223 cycles: 13972970 heartbeat IPC: 3.088 cumulative IPC: 3.077 (Simulation time: 00 hr 02 min 56 sec)
Heartbeat CPU 0 instructions: 43500223 cycles: 14135712 heartbeat IPC: 3.072 cumulative IPC: 3.077 (Simulation time: 00 hr 02 min 58 sec)
Heartbeat CPU 0 instructions: 44000228 cycles: 14297826 heartbeat IPC: 3.084 cumulative IPC: 3.077 (Simulation time: 00 hr 03 min 00 sec)
Heartbeat CPU 0 instructions: 44500230 cycles: 14459995 heartbeat IPC: 3.083 cumulative IPC: 3.077 (Simulation time: 00 hr 03 min 02 sec)
Heartbeat CPU 0 instructions: 45000233 cycles: 14622506 heartbeat IPC: 3.077 cumulative IPC: 3.077 (Simulation time: 00 hr 03 min 04 sec)
Heartbeat CPU 0 instructions: 45500235 cycles: 14784863 heartbeat IPC: 3.08 cumulative IPC: 3.077 (Simulation time: 00 hr 03 min 06 sec)
Heartbeat CPU 0 instructions: 46000236 cycles: 14947572 heartbeat IPC: 3.073 cumulative IPC: 3.077 (Simulation time: 00 hr 03 min 08 sec)
Heartbeat CPU 0 instructions: 46500240 cycles: 15109739 heartbeat IPC: 3.083 cumulative IPC: 3.078 (Simulation time: 00 hr 03 min 11 sec)
Heartbeat CPU 0 instructions: 47000244 cycles: 15272414 heartbeat IPC: 3.074 cumulative IPC: 3.077 (Simulation time: 00 hr 03 min 13 sec)
Heartbeat CPU 0 instructions: 47500244 cycles: 15434725 heartbeat IPC: 3.081 cumulative IPC: 3.077 (Simulation time: 00 hr 03 min 15 sec)
Heartbeat CPU 0 instructions: 48000249 cycles: 15597186 heartbeat IPC: 3.078 cumulative IPC: 3.077 (Simulation time: 00 hr 03 min 17 sec)
Heartbeat CPU 0 instructions: 48500249 cycles: 15759247 heartbeat IPC: 3.085 cumulative IPC: 3.078 (Simulation time: 00 hr 03 min 19 sec)
Heartbeat CPU 0 instructions: 49000252 cycles: 15921530 heartbeat IPC: 3.081 cumulative IPC: 3.078 (Simulation time: 00 hr 03 min 21 sec)
Heartbeat CPU 0 instructions: 49500255 cycles: 16083769 heartbeat IPC: 3.082 cumulative IPC: 3.078 (Simulation time: 00 hr 03 min 23 sec)
Warmup halting CPU 0 at instruction 50000003 cycle 16245936 for remainder of phase
Warmup finished CPU 0 instructions: 50000003 cycles: 16245936 cumulative IPC: 3.078 (Simulation time: 00 hr 03 min 25 sec)
Warmup complete CPU 0 instructions: 50000003 cycles: 16245936 cumulative IPC: 3.078 (Simulation time: 00 hr 03 min 25 sec)
Heartbeat CPU 0 instructions: 50000260 cycles: 16246156 heartbeat IPC: 3.079 cumulative IPC: 1.168 (Simulation time: 00 hr 03 min 25 sec)
Heartbeat CPU 0 instructions: 50500262 cycles: 16733352 heartbeat IPC: 1.026 cumulative IPC: 1.026 (Simulation time: 00 hr 03 min 31 sec)
Heartbeat CPU 0 instructions: 51000266 cycles: 17229326 heartbeat IPC: 1.008 cumulative IPC: 1.017 (Simulation time: 00 hr 03 min 38 sec)
Heartbeat CPU 0 instructions: 51500272 cycles: 17721671 heartbeat IPC: 1.016 cumulative IPC: 1.017 (Simulation time: 00 hr 03 min 44 sec)
Heartbeat CPU 0 instructions: 52000275 cycles: 18226288 heartbeat IPC: 0.9909 cumulative IPC: 1.01 (Simulation time: 00 hr 03 min 50 sec)
Heartbeat CPU 0 instructions: 52500275 cycles: 18731615 heartbeat IPC: 0.9895 cumulative IPC: 1.006 (Simulation time: 00 hr 03 min 57 sec)
Heartbeat CPU 0 instructions: 53000275 cycles: 19215294 heartbeat IPC: 1.034 cumulative IPC: 1.01 (Simulation time: 00 hr 04 min 03 sec)
Heartbeat CPU 0 instructions: 53500282 cycles: 19714442 heartbeat IPC: 1.002 cumulative IPC: 1.009 (Simulation time: 00 hr 04 min 10 sec)
Heartbeat CPU 0 instructions: 54000288 cycles: 20215894 heartbeat IPC: 0.9971 cumulative IPC: 1.008 (Simulation time: 00 hr 04 min 16 sec)
Heartbeat CPU 0 instructions: 54500292 cycles: 20711378 heartbeat IPC: 1.009 cumulative IPC: 1.008 (Simulation time: 00 hr 04 min 22 sec)
Heartbeat CPU 0 instructions: 55000296 cycles: 21208036 heartbeat IPC: 1.007 cumulative IPC: 1.008 (Simulation time: 00 hr 04 min 29 sec)
Heartbeat CPU 0 instructions: 55500296 cycles: 21690394 heartbeat IPC: 1.037 cumulative IPC: 1.01 (Simulation time: 00 hr 04 min 35 sec)
Heartbeat CPU 0 instructions: 56000302 cycles: 22202800 heartbeat IPC: 0.9758 cumulative IPC: 1.007 (Simulation time: 00 hr 04 min 42 sec)
Heartbeat CPU 0 instructions: 56500304 cycles: 22699285 heartbeat IPC: 1.007 cumulative IPC: 1.007 (Simulation time: 00 hr 04 min 48 sec)
Heartbeat CPU 0 instructions: 57000310 cycles: 23200726 heartbeat IPC: 0.9971 cumulative IPC: 1.007 (Simulation time: 00 hr 04 min 55 sec)
Heartbeat CPU 0 instructions: 57500315 cycles: 23695011 heartbeat IPC: 1.012 cumulative IPC: 1.007 (Simulation time: 00 hr 05 min 01 sec)
Heartbeat CPU 0 instructions: 58000316 cycles: 24193084 heartbeat IPC: 1.004 cumulative IPC: 1.007 (Simulation time: 00 hr 05 min 07 sec)
Heartbeat CPU 0 instructions: 58500316 cycles: 24684512 heartbeat IPC: 1.017 cumulative IPC: 1.007 (Simulation time: 00 hr 05 min 14 sec)
Heartbeat CPU 0 instructions: 59000316 cycles: 25182398 heartbeat IPC: 1.004 cumulative IPC: 1.007 (Simulation time: 00 hr 05 min 20 sec)
Heartbeat CPU 0 instructions: 59500317 cycles: 25679783 heartbeat IPC: 1.005 cumulative IPC: 1.007 (Simulation time: 00 hr 05 min 26 sec)
Heartbeat CPU 0 instructions: 60000318 cycles: 26169179 heartbeat IPC: 1.022 cumulative IPC: 1.008 (Simulation time: 00 hr 05 min 33 sec)
Heartbeat CPU 0 instructions: 60500320 cycles: 26660287 heartbeat IPC: 1.018 cumulative IPC: 1.008 (Simulation time: 00 hr 05 min 39 sec)
Heartbeat CPU 0 instructions: 61000320 cycles: 27456395 heartbeat IPC: 0.6281 cumulative IPC: 0.9813 (Simulation time: 00 hr 05 min 48 sec)
Heartbeat CPU 0 instructions: 61500320 cycles: 28302602 heartbeat IPC: 0.5909 cumulative IPC: 0.9539 (Simulation time: 00 hr 05 min 57 sec)
Heartbeat CPU 0 instructions: 62000320 cycles: 29183980 heartbeat IPC: 0.5673 cumulative IPC: 0.9275 (Simulation time: 00 hr 06 min 06 sec)
Heartbeat CPU 0 instructions: 62500320 cycles: 30072163 heartbeat IPC: 0.5629 cumulative IPC: 0.9041 (Simulation time: 00 hr 06 min 16 sec)
Heartbeat CPU 0 instructions: 63000320 cycles: 30965014 heartbeat IPC: 0.56 cumulative IPC: 0.8832 (Simulation time: 00 hr 06 min 25 sec)
Heartbeat CPU 0 instructions: 63500320 cycles: 31846071 heartbeat IPC: 0.5675 cumulative IPC: 0.8654 (Simulation time: 00 hr 06 min 35 sec)
Heartbeat CPU 0 instructions: 64000320 cycles: 32737465 heartbeat IPC: 0.5609 cumulative IPC: 0.8489 (Simulation time: 00 hr 06 min 44 sec)
Heartbeat CPU 0 instructions: 64500320 cycles: 33629894 heartbeat IPC: 0.5603 cumulative IPC: 0.8341 (Simulation time: 00 hr 06 min 54 sec)
Heartbeat CPU 0 instructions: 65000320 cycles: 34508722 heartbeat IPC: 0.5689 cumulative IPC: 0.8214 (Simulation time: 00 hr 07 min 03 sec)
Heartbeat CPU 0 instructions: 65500320 cycles: 35389843 heartbeat IPC: 0.5675 cumulative IPC: 0.8097 (Simulation time: 00 hr 07 min 13 sec)
Heartbeat CPU 0 instructions: 66000327 cycles: 35904101 heartbeat IPC: 0.9723 cumulative IPC: 0.8139 (Simulation time: 00 hr 07 min 19 sec)
Heartbeat CPU 0 instructions: 66500330 cycles: 36310271 heartbeat IPC: 1.231 cumulative IPC: 0.8224 (Simulation time: 00 hr 07 min 25 sec)
Heartbeat CPU 0 instructions: 67000331 cycles: 36716548 heartbeat IPC: 1.231 cumulative IPC: 0.8305 (Simulation time: 00 hr 07 min 31 sec)
Heartbeat CPU 0 instructions: 67500331 cycles: 37120362 heartbeat IPC: 1.238 cumulative IPC: 0.8384 (Simulation time: 00 hr 07 min 36 sec)
Heartbeat CPU 0 instructions: 68000335 cycles: 37496379 heartbeat IPC: 1.33 cumulative IPC: 0.8471 (Simulation time: 00 hr 07 min 42 sec)
Heartbeat CPU 0 instructions: 68500339 cycles: 37870070 heartbeat IPC: 1.338 cumulative IPC: 0.8555 (Simulation time: 00 hr 07 min 47 sec)
Heartbeat CPU 0 instructions: 69000343 cycles: 38253222 heartbeat IPC: 1.305 cumulative IPC: 0.8634 (Simulation time: 00 hr 07 min 52 sec)
Heartbeat CPU 0 instructions: 69500350 cycles: 38605091 heartbeat IPC: 1.421 cumulative IPC: 0.8721 (Simulation time: 00 hr 07 min 57 sec)
Heartbeat CPU 0 instructions: 70000355 cycles: 38969412 heartbeat IPC: 1.372 cumulative IPC: 0.8802 (Simulation time: 00 hr 08 min 02 sec)
Heartbeat CPU 0 instructions: 70500360 cycles: 39333361 heartbeat IPC: 1.374 cumulative IPC: 0.8879 (Simulation time: 00 hr 08 min 07 sec)
Heartbeat CPU 0 instructions: 71000363 cycles: 39673853 heartbeat IPC: 1.468 cumulative IPC: 0.8964 (Simulation time: 00 hr 08 min 12 sec)
Heartbeat CPU 0 instructions: 71500363 cycles: 40018254 heartbeat IPC: 1.452 cumulative IPC: 0.9044 (Simulation time: 00 hr 08 min 17 sec)
Heartbeat CPU 0 instructions: 72000363 cycles: 40369968 heartbeat IPC: 1.422 cumulative IPC: 0.912 (Simulation time: 00 hr 08 min 21 sec)
Heartbeat CPU 0 instructions: 72500367 cycles: 40726072 heartbeat IPC: 1.404 cumulative IPC: 0.9191 (Simulation time: 00 hr 08 min 26 sec)
Heartbeat CPU 0 instructions: 73000372 cycles: 41089525 heartbeat IPC: 1.376 cumulative IPC: 0.9258 (Simulation time: 00 hr 08 min 31 sec)
Heartbeat CPU 0 instructions: 73500372 cycles: 41454373 heartbeat IPC: 1.37 cumulative IPC: 0.9322 (Simulation time: 00 hr 08 min 36 sec)
Heartbeat CPU 0 instructions: 74000375 cycles: 41800190 heartbeat IPC: 1.446 cumulative IPC: 0.9392 (Simulation time: 00 hr 08 min 41 sec)
Heartbeat CPU 0 instructions: 74500380 cycles: 42155937 heartbeat IPC: 1.406 cumulative IPC: 0.9456 (Simulation time: 00 hr 08 min 46 sec)
Heartbeat CPU 0 instructions: 75000383 cycles: 42530433 heartbeat IPC: 1.335 cumulative IPC: 0.9511 (Simulation time: 00 hr 08 min 51 sec)
Heartbeat CPU 0 instructions: 75500383 cycles: 42884920 heartbeat IPC: 1.41 cumulative IPC: 0.9573 (Simulation time: 00 hr 08 min 56 sec)
Heartbeat CPU 0 instructions: 76000383 cycles: 43258806 heartbeat IPC: 1.337 cumulative IPC: 0.9625 (Simulation time: 00 hr 09 min 01 sec)
Heartbeat CPU 0 instructions: 76500383 cycles: 43621784 heartbeat IPC: 1.377 cumulative IPC: 0.968 (Simulation time: 00 hr 09 min 06 sec)
Heartbeat CPU 0 instructions: 77000383 cycles: 43991737 heartbeat IPC: 1.352 cumulative IPC: 0.9731 (Simulation time: 00 hr 09 min 11 sec)
Heartbeat CPU 0 instructions: 77500383 cycles: 44346496 heartbeat IPC: 1.409 cumulative IPC: 0.9786 (Simulation time: 00 hr 09 min 16 sec)
Heartbeat CPU 0 instructions: 78000385 cycles: 44713713 heartbeat IPC: 1.362 cumulative IPC: 0.9836 (Simulation time: 00 hr 09 min 21 sec)
Heartbeat CPU 0 instructions: 78500391 cycles: 45081992 heartbeat IPC: 1.358 cumulative IPC: 0.9884 (Simulation time: 00 hr 09 min 26 sec)
Heartbeat CPU 0 instructions: 79000391 cycles: 45441468 heartbeat IPC: 1.391 cumulative IPC: 0.9933 (Simulation time: 00 hr 09 min 31 sec)
Heartbeat CPU 0 instructions: 79500391 cycles: 45805714 heartbeat IPC: 1.373 cumulative IPC: 0.998 (Simulation time: 00 hr 09 min 36 sec)
Heartbeat CPU 0 instructions: 80000391 cycles: 46167342 heartbeat IPC: 1.383 cumulative IPC: 1.003 (Simulation time: 00 hr 09 min 41 sec)
Heartbeat CPU 0 instructions: 80500395 cycles: 46516752 heartbeat IPC: 1.431 cumulative IPC: 1.008 (Simulation time: 00 hr 09 min 46 sec)
Heartbeat CPU 0 instructions: 81000397 cycles: 46868054 heartbeat IPC: 1.423 cumulative IPC: 1.012 (Simulation time: 00 hr 09 min 51 sec)
Heartbeat CPU 0 instructions: 81500403 cycles: 47217582 heartbeat IPC: 1.431 cumulative IPC: 1.017 (Simulation time: 00 hr 09 min 56 sec)
Heartbeat CPU 0 instructions: 82000407 cycles: 47574310 heartbeat IPC: 1.402 cumulative IPC: 1.021 (Simulation time: 00 hr 10 min 01 sec)
Heartbeat CPU 0 instructions: 82500407 cycles: 47937178 heartbeat IPC: 1.378 cumulative IPC: 1.026 (Simulation time: 00 hr 10 min 06 sec)
Heartbeat CPU 0 instructions: 83000412 cycles: 48300327 heartbeat IPC: 1.377 cumulative IPC: 1.03 (Simulation time: 00 hr 10 min 11 sec)
Heartbeat CPU 0 instructions: 83500419 cycles: 48666231 heartbeat IPC: 1.366 cumulative IPC: 1.033 (Simulation time: 00 hr 10 min 16 sec)
Heartbeat CPU 0 instructions: 84000419 cycles: 49043468 heartbeat IPC: 1.325 cumulative IPC: 1.037 (Simulation time: 00 hr 10 min 21 sec)
Heartbeat CPU 0 instructions: 84500419 cycles: 49402425 heartbeat IPC: 1.393 cumulative IPC: 1.041 (Simulation time: 00 hr 10 min 26 sec)
Heartbeat CPU 0 instructions: 85000420 cycles: 49775326 heartbeat IPC: 1.341 cumulative IPC: 1.044 (Simulation time: 00 hr 10 min 31 sec)
Heartbeat CPU 0 instructions: 85500427 cycles: 50162273 heartbeat IPC: 1.292 cumulative IPC: 1.047 (Simulation time: 00 hr 10 min 36 sec)
Heartbeat CPU 0 instructions: 86000432 cycles: 50521897 heartbeat IPC: 1.39 cumulative IPC: 1.05 (Simulation time: 00 hr 10 min 41 sec)
Heartbeat CPU 0 instructions: 86500435 cycles: 50887352 heartbeat IPC: 1.368 cumulative IPC: 1.054 (Simulation time: 00 hr 10 min 46 sec)
Heartbeat CPU 0 instructions: 87000439 cycles: 51270402 heartbeat IPC: 1.305 cumulative IPC: 1.056 (Simulation time: 00 hr 10 min 51 sec)
Heartbeat CPU 0 instructions: 87500443 cycles: 51629207 heartbeat IPC: 1.394 cumulative IPC: 1.06 (Simulation time: 00 hr 10 min 56 sec)
Heartbeat CPU 0 instructions: 88000446 cycles: 51982532 heartbeat IPC: 1.415 cumulative IPC: 1.063 (Simulation time: 00 hr 11 min 01 sec)
Heartbeat CPU 0 instructions: 88500447 cycles: 52328285 heartbeat IPC: 1.446 cumulative IPC: 1.067 (Simulation time: 00 hr 11 min 05 sec)
Heartbeat CPU 0 instructions: 89000453 cycles: 52689115 heartbeat IPC: 1.386 cumulative IPC: 1.07 (Simulation time: 00 hr 11 min 10 sec)
Heartbeat CPU 0 instructions: 89500455 cycles: 53039441 heartbeat IPC: 1.427 cumulative IPC: 1.074 (Simulation time: 00 hr 11 min 15 sec)
Heartbeat CPU 0 instructions: 90000455 cycles: 53422945 heartbeat IPC: 1.304 cumulative IPC: 1.076 (Simulation time: 00 hr 11 min 20 sec)
Heartbeat CPU 0 instructions: 90500460 cycles: 53782260 heartbeat IPC: 1.392 cumulative IPC: 1.079 (Simulation time: 00 hr 11 min 25 sec)
Heartbeat CPU 0 instructions: 91000462 cycles: 54130142 heartbeat IPC: 1.437 cumulative IPC: 1.082 (Simulation time: 00 hr 11 min 30 sec)
Heartbeat CPU 0 instructions: 91500467 cycles: 54495122 heartbeat IPC: 1.37 cumulative IPC: 1.085 (Simulation time: 00 hr 11 min 35 sec)
Heartbeat CPU 0 instructions: 92000471 cycles: 54860895 heartbeat IPC: 1.367 cumulative IPC: 1.088 (Simulation time: 00 hr 11 min 40 sec)
Heartbeat CPU 0 instructions: 92500471 cycles: 55218786 heartbeat IPC: 1.397 cumulative IPC: 1.091 (Simulation time: 00 hr 11 min 45 sec)
Heartbeat CPU 0 instructions: 93000476 cycles: 55583214 heartbeat IPC: 1.372 cumulative IPC: 1.093 (Simulation time: 00 hr 11 min 50 sec)
Heartbeat CPU 0 instructions: 93500476 cycles: 55950132 heartbeat IPC: 1.363 cumulative IPC: 1.096 (Simulation time: 00 hr 11 min 55 sec)
Heartbeat CPU 0 instructions: 94000483 cycles: 56334941 heartbeat IPC: 1.299 cumulative IPC: 1.098 (Simulation time: 00 hr 12 min 00 sec)
Heartbeat CPU 0 instructions: 94500483 cycles: 56705184 heartbeat IPC: 1.35 cumulative IPC: 1.1 (Simulation time: 00 hr 12 min 05 sec)
Heartbeat CPU 0 instructions: 95000486 cycles: 57091670 heartbeat IPC: 1.294 cumulative IPC: 1.102 (Simulation time: 00 hr 12 min 10 sec)
Heartbeat CPU 0 instructions: 95500491 cycles: 57462992 heartbeat IPC: 1.347 cumulative IPC: 1.104 (Simulation time: 00 hr 12 min 15 sec)
Heartbeat CPU 0 instructions: 96000492 cycles: 57841224 heartbeat IPC: 1.322 cumulative IPC: 1.106 (Simulation time: 00 hr 12 min 20 sec)
Heartbeat CPU 0 instructions: 96500499 cycles: 58202043 heartbeat IPC: 1.386 cumulative IPC: 1.108 (Simulation time: 00 hr 12 min 25 sec)
Heartbeat CPU 0 instructions: 97000503 cycles: 58572321 heartbeat IPC: 1.35 cumulative IPC: 1.11 (Simulation time: 00 hr 12 min 30 sec)
Heartbeat CPU 0 instructions: 97500506 cycles: 58903624 heartbeat IPC: 1.509 cumulative IPC: 1.114 (Simulation time: 00 hr 12 min 34 sec)
Heartbeat CPU 0 instructions: 98000511 cycles: 59255145 heartbeat IPC: 1.422 cumulative IPC: 1.116 (Simulation time: 00 hr 12 min 39 sec)
Heartbeat CPU 0 instructions: 98500515 cycles: 59603440 heartbeat IPC: 1.436 cumulative IPC: 1.119 (Simulation time: 00 hr 12 min 44 sec)
Heartbeat CPU 0 instructions: 99000518 cycles: 59946562 heartbeat IPC: 1.457 cumulative IPC: 1.121 (Simulation time: 00 hr 12 min 49 sec)
Heartbeat CPU 0 instructions: 99500523 cycles: 60298596 heartbeat IPC: 1.42 cumulative IPC: 1.124 (Simulation time: 00 hr 12 min 54 sec)
Heartbeat CPU 0 instructions: 100000526 cycles: 60651514 heartbeat IPC: 1.417 cumulative IPC: 1.126 (Simulation time: 00 hr 12 min 59 sec)
Heartbeat CPU 0 instructions: 100500530 cycles: 60987287 heartbeat IPC: 1.489 cumulative IPC: 1.129 (Simulation time: 00 hr 13 min 03 sec)
Heartbeat CPU 0 instructions: 101000534 cycles: 61322202 heartbeat IPC: 1.493 cumulative IPC: 1.131 (Simulation time: 00 hr 13 min 08 sec)
Heartbeat CPU 0 instructions: 101500535 cycles: 61670079 heartbeat IPC: 1.437 cumulative IPC: 1.134 (Simulation time: 00 hr 13 min 13 sec)
Heartbeat CPU 0 instructions: 102000541 cycles: 62015490 heartbeat IPC: 1.448 cumulative IPC: 1.136 (Simulation time: 00 hr 13 min 17 sec)
Heartbeat CPU 0 instructions: 102500544 cycles: 62367205 heartbeat IPC: 1.422 cumulative IPC: 1.138 (Simulation time: 00 hr 13 min 22 sec)
Heartbeat CPU 0 instructions: 103000547 cycles: 62722696 heartbeat IPC: 1.407 cumulative IPC: 1.14 (Simulation time: 00 hr 13 min 27 sec)
Heartbeat CPU 0 instructions: 103500548 cycles: 63069576 heartbeat IPC: 1.441 cumulative IPC: 1.143 (Simulation time: 00 hr 13 min 32 sec)
Heartbeat CPU 0 instructions: 104000555 cycles: 63418592 heartbeat IPC: 1.433 cumulative IPC: 1.145 (Simulation time: 00 hr 13 min 37 sec)
Heartbeat CPU 0 instructions: 104500555 cycles: 63767307 heartbeat IPC: 1.434 cumulative IPC: 1.147 (Simulation time: 00 hr 13 min 42 sec)
Heartbeat CPU 0 instructions: 105000555 cycles: 64117134 heartbeat IPC: 1.429 cumulative IPC: 1.149 (Simulation time: 00 hr 13 min 47 sec)
Heartbeat CPU 0 instructions: 105500555 cycles: 64471713 heartbeat IPC: 1.41 cumulative IPC: 1.151 (Simulation time: 00 hr 13 min 52 sec)
Heartbeat CPU 0 instructions: 106000555 cycles: 64836222 heartbeat IPC: 1.372 cumulative IPC: 1.153 (Simulation time: 00 hr 13 min 57 sec)
Heartbeat CPU 0 instructions: 106500559 cycles: 65198084 heartbeat IPC: 1.382 cumulative IPC: 1.154 (Simulation time: 00 hr 14 min 02 sec)
Heartbeat CPU 0 instructions: 107000563 cycles: 65553060 heartbeat IPC: 1.409 cumulative IPC: 1.156 (Simulation time: 00 hr 14 min 07 sec)
Heartbeat CPU 0 instructions: 107500563 cycles: 65910522 heartbeat IPC: 1.399 cumulative IPC: 1.158 (Simulation time: 00 hr 14 min 12 sec)
Heartbeat CPU 0 instructions: 108000563 cycles: 66259702 heartbeat IPC: 1.432 cumulative IPC: 1.16 (Simulation time: 00 hr 14 min 17 sec)
Heartbeat CPU 0 instructions: 108500567 cycles: 66615012 heartbeat IPC: 1.407 cumulative IPC: 1.161 (Simulation time: 00 hr 14 min 22 sec)
Heartbeat CPU 0 instructions: 109000571 cycles: 66961332 heartbeat IPC: 1.444 cumulative IPC: 1.163 (Simulation time: 00 hr 14 min 27 sec)
Heartbeat CPU 0 instructions: 109500571 cycles: 67322137 heartbeat IPC: 1.386 cumulative IPC: 1.165 (Simulation time: 00 hr 14 min 32 sec)
Heartbeat CPU 0 instructions: 110000571 cycles: 67673962 heartbeat IPC: 1.421 cumulative IPC: 1.167 (Simulation time: 00 hr 14 min 36 sec)
Heartbeat CPU 0 instructions: 110500571 cycles: 68037890 heartbeat IPC: 1.374 cumulative IPC: 1.168 (Simulation time: 00 hr 14 min 41 sec)
Heartbeat CPU 0 instructions: 111000575 cycles: 68397261 heartbeat IPC: 1.391 cumulative IPC: 1.17 (Simulation time: 00 hr 14 min 46 sec)
Heartbeat CPU 0 instructions: 111500580 cycles: 68750032 heartbeat IPC: 1.417 cumulative IPC: 1.171 (Simulation time: 00 hr 14 min 51 sec)
Heartbeat CPU 0 instructions: 112000587 cycles: 69097580 heartbeat IPC: 1.439 cumulative IPC: 1.173 (Simulation time: 00 hr 14 min 56 sec)
Heartbeat CPU 0 instructions: 112500587 cycles: 69454064 heartbeat IPC: 1.403 cumulative IPC: 1.175 (Simulation time: 00 hr 15 min 01 sec)
Heartbeat CPU 0 instructions: 113000587 cycles: 69813377 heartbeat IPC: 1.392 cumulative IPC: 1.176 (Simulation time: 00 hr 15 min 06 sec)
Heartbeat CPU 0 instructions: 113500587 cycles: 70171761 heartbeat IPC: 1.395 cumulative IPC: 1.178 (Simulation time: 00 hr 15 min 11 sec)
Heartbeat CPU 0 instructions: 114000593 cycles: 70536794 heartbeat IPC: 1.37 cumulative IPC: 1.179 (Simulation time: 00 hr 15 min 16 sec)
Heartbeat CPU 0 instructions: 114500595 cycles: 70887003 heartbeat IPC: 1.428 cumulative IPC: 1.18 (Simulation time: 00 hr 15 min 21 sec)
Heartbeat CPU 0 instructions: 115000595 cycles: 71247517 heartbeat IPC: 1.387 cumulative IPC: 1.182 (Simulation time: 00 hr 15 min 26 sec)
Heartbeat CPU 0 instructions: 115500595 cycles: 71615731 heartbeat IPC: 1.358 cumulative IPC: 1.183 (Simulation time: 00 hr 15 min 31 sec)
Heartbeat CPU 0 instructions: 116000599 cycles: 71966862 heartbeat IPC: 1.424 cumulative IPC: 1.184 (Simulation time: 00 hr 15 min 36 sec)
Heartbeat CPU 0 instructions: 116500603 cycles: 72334151 heartbeat IPC: 1.361 cumulative IPC: 1.186 (Simulation time: 00 hr 15 min 41 sec)
Heartbeat CPU 0 instructions: 117000604 cycles: 72700815 heartbeat IPC: 1.364 cumulative IPC: 1.187 (Simulation time: 00 hr 15 min 47 sec)
Heartbeat CPU 0 instructions: 117500605 cycles: 73060024 heartbeat IPC: 1.392 cumulative IPC: 1.188 (Simulation time: 00 hr 15 min 51 sec)
Heartbeat CPU 0 instructions: 118000607 cycles: 73430088 heartbeat IPC: 1.351 cumulative IPC: 1.189 (Simulation time: 00 hr 15 min 57 sec)
Heartbeat CPU 0 instructions: 118500607 cycles: 73780774 heartbeat IPC: 1.426 cumulative IPC: 1.191 (Simulation time: 00 hr 16 min 01 sec)
Heartbeat CPU 0 instructions: 119000607 cycles: 74135408 heartbeat IPC: 1.41 cumulative IPC: 1.192 (Simulation time: 00 hr 16 min 06 sec)
Heartbeat CPU 0 instructions: 119500607 cycles: 74491711 heartbeat IPC: 1.403 cumulative IPC: 1.193 (Simulation time: 00 hr 16 min 11 sec)
Heartbeat CPU 0 instructions: 120000611 cycles: 74853091 heartbeat IPC: 1.384 cumulative IPC: 1.194 (Simulation time: 00 hr 16 min 16 sec)
Heartbeat CPU 0 instructions: 120500611 cycles: 75216836 heartbeat IPC: 1.375 cumulative IPC: 1.196 (Simulation time: 00 hr 16 min 21 sec)
Heartbeat CPU 0 instructions: 121000615 cycles: 75575850 heartbeat IPC: 1.393 cumulative IPC: 1.197 (Simulation time: 00 hr 16 min 26 sec)
Heartbeat CPU 0 instructions: 121500619 cycles: 75942544 heartbeat IPC: 1.364 cumulative IPC: 1.198 (Simulation time: 00 hr 16 min 31 sec)
Heartbeat CPU 0 instructions: 122000619 cycles: 76304387 heartbeat IPC: 1.382 cumulative IPC: 1.199 (Simulation time: 00 hr 16 min 36 sec)
Heartbeat CPU 0 instructions: 122500620 cycles: 76670206 heartbeat IPC: 1.367 cumulative IPC: 1.2 (Simulation time: 00 hr 16 min 41 sec)
Heartbeat CPU 0 instructions: 123000627 cycles: 77031028 heartbeat IPC: 1.386 cumulative IPC: 1.201 (Simulation time: 00 hr 16 min 46 sec)
Heartbeat CPU 0 instructions: 123500629 cycles: 77378403 heartbeat IPC: 1.439 cumulative IPC: 1.202 (Simulation time: 00 hr 16 min 51 sec)
Heartbeat CPU 0 instructions: 124000635 cycles: 77736728 heartbeat IPC: 1.395 cumulative IPC: 1.203 (Simulation time: 00 hr 16 min 56 sec)
Heartbeat CPU 0 instructions: 124500641 cycles: 78107518 heartbeat IPC: 1.348 cumulative IPC: 1.204 (Simulation time: 00 hr 17 min 01 sec)
Heartbeat CPU 0 instructions: 125000647 cycles: 78472011 heartbeat IPC: 1.372 cumulative IPC: 1.205 (Simulation time: 00 hr 17 min 06 sec)
Heartbeat CPU 0 instructions: 125500649 cycles: 78836486 heartbeat IPC: 1.372 cumulative IPC: 1.206 (Simulation time: 00 hr 17 min 11 sec)
Heartbeat CPU 0 instructions: 126000655 cycles: 79197352 heartbeat IPC: 1.386 cumulative IPC: 1.207 (Simulation time: 00 hr 17 min 16 sec)
Heartbeat CPU 0 instructions: 126500659 cycles: 79570435 heartbeat IPC: 1.34 cumulative IPC: 1.208 (Simulation time: 00 hr 17 min 21 sec)
Heartbeat CPU 0 instructions: 127000659 cycles: 79939508 heartbeat IPC: 1.355 cumulative IPC: 1.209 (Simulation time: 00 hr 17 min 27 sec)
Heartbeat CPU 0 instructions: 127500661 cycles: 80311320 heartbeat IPC: 1.345 cumulative IPC: 1.21 (Simulation time: 00 hr 17 min 32 sec)
Heartbeat CPU 0 instructions: 128000663 cycles: 80689610 heartbeat IPC: 1.322 cumulative IPC: 1.21 (Simulation time: 00 hr 17 min 37 sec)
Heartbeat CPU 0 instructions: 128500663 cycles: 81043520 heartbeat IPC: 1.413 cumulative IPC: 1.211 (Simulation time: 00 hr 17 min 42 sec)
Heartbeat CPU 0 instructions: 129000665 cycles: 81410575 heartbeat IPC: 1.362 cumulative IPC: 1.212 (Simulation time: 00 hr 17 min 47 sec)
Heartbeat CPU 0 instructions: 129500667 cycles: 81784041 heartbeat IPC: 1.339 cumulative IPC: 1.213 (Simulation time: 00 hr 17 min 52 sec)
Heartbeat CPU 0 instructions: 130000671 cycles: 82171399 heartbeat IPC: 1.291 cumulative IPC: 1.214 (Simulation time: 00 hr 17 min 57 sec)
Heartbeat CPU 0 instructions: 130500675 cycles: 82552810 heartbeat IPC: 1.311 cumulative IPC: 1.214 (Simulation time: 00 hr 18 min 03 sec)
Heartbeat CPU 0 instructions: 131000677 cycles: 82932607 heartbeat IPC: 1.316 cumulative IPC: 1.215 (Simulation time: 00 hr 18 min 08 sec)
Heartbeat CPU 0 instructions: 131500677 cycles: 83296741 heartbeat IPC: 1.373 cumulative IPC: 1.216 (Simulation time: 00 hr 18 min 13 sec)
Heartbeat CPU 0 instructions: 132000679 cycles: 83669557 heartbeat IPC: 1.341 cumulative IPC: 1.216 (Simulation time: 00 hr 18 min 18 sec)
Heartbeat CPU 0 instructions: 132500683 cycles: 84040273 heartbeat IPC: 1.349 cumulative IPC: 1.217 (Simulation time: 00 hr 18 min 23 sec)
Heartbeat CPU 0 instructions: 133000685 cycles: 84404187 heartbeat IPC: 1.374 cumulative IPC: 1.218 (Simulation time: 00 hr 18 min 28 sec)
Heartbeat CPU 0 instructions: 133500687 cycles: 84778516 heartbeat IPC: 1.336 cumulative IPC: 1.218 (Simulation time: 00 hr 18 min 33 sec)
Heartbeat CPU 0 instructions: 134000687 cycles: 85148387 heartbeat IPC: 1.352 cumulative IPC: 1.219 (Simulation time: 00 hr 18 min 38 sec)
Heartbeat CPU 0 instructions: 134500694 cycles: 85524048 heartbeat IPC: 1.331 cumulative IPC: 1.22 (Simulation time: 00 hr 18 min 43 sec)
Heartbeat CPU 0 instructions: 135000695 cycles: 85907757 heartbeat IPC: 1.303 cumulative IPC: 1.22 (Simulation time: 00 hr 18 min 48 sec)
Heartbeat CPU 0 instructions: 135500702 cycles: 86293241 heartbeat IPC: 1.297 cumulative IPC: 1.221 (Simulation time: 00 hr 18 min 53 sec)
Heartbeat CPU 0 instructions: 136000703 cycles: 86673700 heartbeat IPC: 1.314 cumulative IPC: 1.221 (Simulation time: 00 hr 18 min 59 sec)
Heartbeat CPU 0 instructions: 136500703 cycles: 87062066 heartbeat IPC: 1.287 cumulative IPC: 1.221 (Simulation time: 00 hr 19 min 04 sec)
Heartbeat CPU 0 instructions: 137000707 cycles: 87440979 heartbeat IPC: 1.32 cumulative IPC: 1.222 (Simulation time: 00 hr 19 min 09 sec)
Heartbeat CPU 0 instructions: 137500707 cycles: 87824647 heartbeat IPC: 1.303 cumulative IPC: 1.222 (Simulation time: 00 hr 19 min 14 sec)
Heartbeat CPU 0 instructions: 138000707 cycles: 88188499 heartbeat IPC: 1.374 cumulative IPC: 1.223 (Simulation time: 00 hr 19 min 19 sec)
Heartbeat CPU 0 instructions: 138500711 cycles: 88557322 heartbeat IPC: 1.356 cumulative IPC: 1.224 (Simulation time: 00 hr 19 min 24 sec)
Heartbeat CPU 0 instructions: 139000715 cycles: 88913630 heartbeat IPC: 1.403 cumulative IPC: 1.225 (Simulation time: 00 hr 19 min 29 sec)
Heartbeat CPU 0 instructions: 139500716 cycles: 89305371 heartbeat IPC: 1.276 cumulative IPC: 1.225 (Simulation time: 00 hr 19 min 34 sec)
Heartbeat CPU 0 instructions: 140000719 cycles: 89688760 heartbeat IPC: 1.304 cumulative IPC: 1.225 (Simulation time: 00 hr 19 min 39 sec)
Heartbeat CPU 0 instructions: 140500719 cycles: 90079850 heartbeat IPC: 1.278 cumulative IPC: 1.226 (Simulation time: 00 hr 19 min 44 sec)
Heartbeat CPU 0 instructions: 141000719 cycles: 90429741 heartbeat IPC: 1.429 cumulative IPC: 1.227 (Simulation time: 00 hr 19 min 49 sec)
Heartbeat CPU 0 instructions: 141500723 cycles: 90799939 heartbeat IPC: 1.351 cumulative IPC: 1.227 (Simulation time: 00 hr 19 min 54 sec)
Heartbeat CPU 0 instructions: 142000723 cycles: 91175066 heartbeat IPC: 1.333 cumulative IPC: 1.228 (Simulation time: 00 hr 19 min 59 sec)
Heartbeat CPU 0 instructions: 142500723 cycles: 91556354 heartbeat IPC: 1.311 cumulative IPC: 1.228 (Simulation time: 00 hr 20 min 04 sec)
Heartbeat CPU 0 instructions: 143000727 cycles: 91935047 heartbeat IPC: 1.32 cumulative IPC: 1.229 (Simulation time: 00 hr 20 min 09 sec)
Heartbeat CPU 0 instructions: 143500727 cycles: 92317127 heartbeat IPC: 1.309 cumulative IPC: 1.229 (Simulation time: 00 hr 20 min 14 sec)
Heartbeat CPU 0 instructions: 144000731 cycles: 92709459 heartbeat IPC: 1.274 cumulative IPC: 1.229 (Simulation time: 00 hr 20 min 19 sec)
Heartbeat CPU 0 instructions: 144500738 cycles: 93098348 heartbeat IPC: 1.286 cumulative IPC: 1.23 (Simulation time: 00 hr 20 min 24 sec)
Heartbeat CPU 0 instructions: 145000739 cycles: 93489225 heartbeat IPC: 1.279 cumulative IPC: 1.23 (Simulation time: 00 hr 20 min 29 sec)
Heartbeat CPU 0 instructions: 145500743 cycles: 93869758 heartbeat IPC: 1.314 cumulative IPC: 1.23 (Simulation time: 00 hr 20 min 34 sec)
Heartbeat CPU 0 instructions: 146000747 cycles: 94262120 heartbeat IPC: 1.274 cumulative IPC: 1.231 (Simulation time: 00 hr 20 min 39 sec)
Heartbeat CPU 0 instructions: 146500747 cycles: 94665168 heartbeat IPC: 1.241 cumulative IPC: 1.231 (Simulation time: 00 hr 20 min 45 sec)
Heartbeat CPU 0 instructions: 147000751 cycles: 95040822 heartbeat IPC: 1.331 cumulative IPC: 1.231 (Simulation time: 00 hr 20 min 49 sec)
Heartbeat CPU 0 instructions: 147500755 cycles: 95419996 heartbeat IPC: 1.319 cumulative IPC: 1.231 (Simulation time: 00 hr 20 min 54 sec)
Heartbeat CPU 0 instructions: 148000755 cycles: 95806205 heartbeat IPC: 1.295 cumulative IPC: 1.232 (Simulation time: 00 hr 20 min 59 sec)
Heartbeat CPU 0 instructions: 148500755 cycles: 96192508 heartbeat IPC: 1.294 cumulative IPC: 1.232 (Simulation time: 00 hr 21 min 04 sec)
Heartbeat CPU 0 instructions: 149000759 cycles: 96616201 heartbeat IPC: 1.18 cumulative IPC: 1.232 (Simulation time: 00 hr 21 min 09 sec)
Heartbeat CPU 0 instructions: 149500760 cycles: 97037373 heartbeat IPC: 1.187 cumulative IPC: 1.232 (Simulation time: 00 hr 21 min 14 sec)
Heartbeat CPU 0 instructions: 150000766 cycles: 97461333 heartbeat IPC: 1.179 cumulative IPC: 1.231 (Simulation time: 00 hr 21 min 19 sec)
Heartbeat CPU 0 instructions: 150500768 cycles: 97890492 heartbeat IPC: 1.165 cumulative IPC: 1.231 (Simulation time: 00 hr 21 min 24 sec)
Heartbeat CPU 0 instructions: 151000768 cycles: 98321990 heartbeat IPC: 1.159 cumulative IPC: 1.231 (Simulation time: 00 hr 21 min 29 sec)
Heartbeat CPU 0 instructions: 151500771 cycles: 98752702 heartbeat IPC: 1.161 cumulative IPC: 1.23 (Simulation time: 00 hr 21 min 34 sec)
Heartbeat CPU 0 instructions: 152000772 cycles: 99213536 heartbeat IPC: 1.085 cumulative IPC: 1.229 (Simulation time: 00 hr 21 min 39 sec)
Heartbeat CPU 0 instructions: 152500779 cycles: 99612318 heartbeat IPC: 1.254 cumulative IPC: 1.23 (Simulation time: 00 hr 21 min 44 sec)
Heartbeat CPU 0 instructions: 153000783 cycles: 99964469 heartbeat IPC: 1.42 cumulative IPC: 1.23 (Simulation time: 00 hr 21 min 49 sec)
Heartbeat CPU 0 instructions: 153500787 cycles: 100309380 heartbeat IPC: 1.45 cumulative IPC: 1.231 (Simulation time: 00 hr 21 min 54 sec)
Heartbeat CPU 0 instructions: 154000787 cycles: 100679364 heartbeat IPC: 1.351 cumulative IPC: 1.232 (Simulation time: 00 hr 21 min 59 sec)
Heartbeat CPU 0 instructions: 154500787 cycles: 101036188 heartbeat IPC: 1.401 cumulative IPC: 1.232 (Simulation time: 00 hr 22 min 03 sec)
Heartbeat CPU 0 instructions: 155000791 cycles: 101403820 heartbeat IPC: 1.36 cumulative IPC: 1.233 (Simulation time: 00 hr 22 min 08 sec)
Heartbeat CPU 0 instructions: 155500791 cycles: 101763082 heartbeat IPC: 1.392 cumulative IPC: 1.234 (Simulation time: 00 hr 22 min 13 sec)
Heartbeat CPU 0 instructions: 156000791 cycles: 102134798 heartbeat IPC: 1.345 cumulative IPC: 1.234 (Simulation time: 00 hr 22 min 18 sec)
Heartbeat CPU 0 instructions: 156500794 cycles: 102510521 heartbeat IPC: 1.331 cumulative IPC: 1.235 (Simulation time: 00 hr 22 min 23 sec)
Heartbeat CPU 0 instructions: 157000795 cycles: 102885326 heartbeat IPC: 1.334 cumulative IPC: 1.235 (Simulation time: 00 hr 22 min 28 sec)
Heartbeat CPU 0 instructions: 157500796 cycles: 103265300 heartbeat IPC: 1.316 cumulative IPC: 1.235 (Simulation time: 00 hr 22 min 33 sec)
Heartbeat CPU 0 instructions: 158000803 cycles: 103628127 heartbeat IPC: 1.378 cumulative IPC: 1.236 (Simulation time: 00 hr 22 min 38 sec)
Heartbeat CPU 0 instructions: 158500803 cycles: 103994368 heartbeat IPC: 1.365 cumulative IPC: 1.236 (Simulation time: 00 hr 22 min 43 sec)
Heartbeat CPU 0 instructions: 159000805 cycles: 104360239 heartbeat IPC: 1.367 cumulative IPC: 1.237 (Simulation time: 00 hr 22 min 48 sec)
Heartbeat CPU 0 instructions: 159500811 cycles: 104724330 heartbeat IPC: 1.373 cumulative IPC: 1.238 (Simulation time: 00 hr 22 min 53 sec)
Heartbeat CPU 0 instructions: 160000812 cycles: 105087544 heartbeat IPC: 1.377 cumulative IPC: 1.238 (Simulation time: 00 hr 22 min 58 sec)
Heartbeat CPU 0 instructions: 160500818 cycles: 105466885 heartbeat IPC: 1.318 cumulative IPC: 1.239 (Simulation time: 00 hr 23 min 04 sec)
Heartbeat CPU 0 instructions: 161000819 cycles: 105840715 heartbeat IPC: 1.338 cumulative IPC: 1.239 (Simulation time: 00 hr 23 min 09 sec)
Heartbeat CPU 0 instructions: 161500819 cycles: 106204697 heartbeat IPC: 1.374 cumulative IPC: 1.239 (Simulation time: 00 hr 23 min 14 sec)
Heartbeat CPU 0 instructions: 162000823 cycles: 106571181 heartbeat IPC: 1.364 cumulative IPC: 1.24 (Simulation time: 00 hr 23 min 19 sec)
Heartbeat CPU 0 instructions: 162500823 cycles: 107000236 heartbeat IPC: 1.165 cumulative IPC: 1.24 (Simulation time: 00 hr 23 min 24 sec)
Heartbeat CPU 0 instructions: 163000823 cycles: 107468648 heartbeat IPC: 1.067 cumulative IPC: 1.239 (Simulation time: 00 hr 23 min 29 sec)
Heartbeat CPU 0 instructions: 163500830 cycles: 107907593 heartbeat IPC: 1.139 cumulative IPC: 1.238 (Simulation time: 00 hr 23 min 35 sec)
Heartbeat CPU 0 instructions: 164000832 cycles: 108390130 heartbeat IPC: 1.036 cumulative IPC: 1.237 (Simulation time: 00 hr 23 min 40 sec)
Heartbeat CPU 0 instructions: 164500839 cycles: 108807859 heartbeat IPC: 1.197 cumulative IPC: 1.237 (Simulation time: 00 hr 23 min 45 sec)
Heartbeat CPU 0 instructions: 165000843 cycles: 109191745 heartbeat IPC: 1.302 cumulative IPC: 1.237 (Simulation time: 00 hr 23 min 50 sec)
Heartbeat CPU 0 instructions: 165500847 cycles: 109611919 heartbeat IPC: 1.19 cumulative IPC: 1.237 (Simulation time: 00 hr 23 min 55 sec)
Heartbeat CPU 0 instructions: 166000850 cycles: 110044979 heartbeat IPC: 1.155 cumulative IPC: 1.237 (Simulation time: 00 hr 24 min 00 sec)
Heartbeat CPU 0 instructions: 166500856 cycles: 110469128 heartbeat IPC: 1.179 cumulative IPC: 1.236 (Simulation time: 00 hr 24 min 05 sec)
Heartbeat CPU 0 instructions: 167000859 cycles: 110820066 heartbeat IPC: 1.425 cumulative IPC: 1.237 (Simulation time: 00 hr 24 min 10 sec)
Heartbeat CPU 0 instructions: 167500859 cycles: 111179989 heartbeat IPC: 1.389 cumulative IPC: 1.238 (Simulation time: 00 hr 24 min 15 sec)
Heartbeat CPU 0 instructions: 168000859 cycles: 111530755 heartbeat IPC: 1.425 cumulative IPC: 1.238 (Simulation time: 00 hr 24 min 20 sec)
Heartbeat CPU 0 instructions: 168500865 cycles: 111883515 heartbeat IPC: 1.417 cumulative IPC: 1.239 (Simulation time: 00 hr 24 min 24 sec)
Heartbeat CPU 0 instructions: 169000871 cycles: 112247346 heartbeat IPC: 1.374 cumulative IPC: 1.24 (Simulation time: 00 hr 24 min 29 sec)
Heartbeat CPU 0 instructions: 169500878 cycles: 112619847 heartbeat IPC: 1.342 cumulative IPC: 1.24 (Simulation time: 00 hr 24 min 34 sec)
Heartbeat CPU 0 instructions: 170000879 cycles: 112981910 heartbeat IPC: 1.381 cumulative IPC: 1.24 (Simulation time: 00 hr 24 min 39 sec)
Heartbeat CPU 0 instructions: 170500879 cycles: 113361983 heartbeat IPC: 1.316 cumulative IPC: 1.241 (Simulation time: 00 hr 24 min 44 sec)
Heartbeat CPU 0 instructions: 171000883 cycles: 113743183 heartbeat IPC: 1.312 cumulative IPC: 1.241 (Simulation time: 00 hr 24 min 50 sec)
Heartbeat CPU 0 instructions: 171500883 cycles: 114120267 heartbeat IPC: 1.326 cumulative IPC: 1.241 (Simulation time: 00 hr 24 min 55 sec)
Heartbeat CPU 0 instructions: 172000883 cycles: 114498212 heartbeat IPC: 1.323 cumulative IPC: 1.242 (Simulation time: 00 hr 25 min 00 sec)
Heartbeat CPU 0 instructions: 172500885 cycles: 114868417 heartbeat IPC: 1.351 cumulative IPC: 1.242 (Simulation time: 00 hr 25 min 05 sec)
Heartbeat CPU 0 instructions: 173000887 cycles: 115246546 heartbeat IPC: 1.322 cumulative IPC: 1.242 (Simulation time: 00 hr 25 min 10 sec)
Heartbeat CPU 0 instructions: 173500887 cycles: 115611047 heartbeat IPC: 1.372 cumulative IPC: 1.243 (Simulation time: 00 hr 25 min 15 sec)
Heartbeat CPU 0 instructions: 174000887 cycles: 115985473 heartbeat IPC: 1.335 cumulative IPC: 1.243 (Simulation time: 00 hr 25 min 20 sec)
Heartbeat CPU 0 instructions: 174500894 cycles: 116366451 heartbeat IPC: 1.312 cumulative IPC: 1.244 (Simulation time: 00 hr 25 min 25 sec)
Heartbeat CPU 0 instructions: 175000899 cycles: 116741731 heartbeat IPC: 1.332 cumulative IPC: 1.244 (Simulation time: 00 hr 25 min 30 sec)
Heartbeat CPU 0 instructions: 175500903 cycles: 117113181 heartbeat IPC: 1.346 cumulative IPC: 1.244 (Simulation time: 00 hr 25 min 35 sec)
Heartbeat CPU 0 instructions: 176000907 cycles: 117472150 heartbeat IPC: 1.393 cumulative IPC: 1.245 (Simulation time: 00 hr 25 min 40 sec)
Heartbeat CPU 0 instructions: 176500913 cycles: 117843668 heartbeat IPC: 1.346 cumulative IPC: 1.245 (Simulation time: 00 hr 25 min 45 sec)
Heartbeat CPU 0 instructions: 177000919 cycles: 118207185 heartbeat IPC: 1.375 cumulative IPC: 1.246 (Simulation time: 00 hr 25 min 50 sec)
Heartbeat CPU 0 instructions: 177500925 cycles: 118582561 heartbeat IPC: 1.332 cumulative IPC: 1.246 (Simulation time: 00 hr 25 min 55 sec)
Heartbeat CPU 0 instructions: 178000931 cycles: 118950021 heartbeat IPC: 1.361 cumulative IPC: 1.246 (Simulation time: 00 hr 26 min 00 sec)
Heartbeat CPU 0 instructions: 178500935 cycles: 119318561 heartbeat IPC: 1.357 cumulative IPC: 1.247 (Simulation time: 00 hr 26 min 05 sec)
Heartbeat CPU 0 instructions: 179000939 cycles: 119709318 heartbeat IPC: 1.28 cumulative IPC: 1.247 (Simulation time: 00 hr 26 min 11 sec)
Heartbeat CPU 0 instructions: 179500939 cycles: 120088658 heartbeat IPC: 1.318 cumulative IPC: 1.247 (Simulation time: 00 hr 26 min 16 sec)
Heartbeat CPU 0 instructions: 180000940 cycles: 120457463 heartbeat IPC: 1.356 cumulative IPC: 1.247 (Simulation time: 00 hr 26 min 21 sec)
Heartbeat CPU 0 instructions: 180500943 cycles: 120824942 heartbeat IPC: 1.361 cumulative IPC: 1.248 (Simulation time: 00 hr 26 min 26 sec)
Heartbeat CPU 0 instructions: 181000943 cycles: 121206307 heartbeat IPC: 1.311 cumulative IPC: 1.248 (Simulation time: 00 hr 26 min 31 sec)
Heartbeat CPU 0 instructions: 181500948 cycles: 121575974 heartbeat IPC: 1.353 cumulative IPC: 1.248 (Simulation time: 00 hr 26 min 36 sec)
Heartbeat CPU 0 instructions: 182000955 cycles: 121950892 heartbeat IPC: 1.334 cumulative IPC: 1.249 (Simulation time: 00 hr 26 min 41 sec)
Heartbeat CPU 0 instructions: 182500955 cycles: 122330127 heartbeat IPC: 1.318 cumulative IPC: 1.249 (Simulation time: 00 hr 26 min 46 sec)
Heartbeat CPU 0 instructions: 183000958 cycles: 122700310 heartbeat IPC: 1.351 cumulative IPC: 1.249 (Simulation time: 00 hr 26 min 51 sec)
Heartbeat CPU 0 instructions: 183500963 cycles: 123084789 heartbeat IPC: 1.3 cumulative IPC: 1.25 (Simulation time: 00 hr 26 min 56 sec)
Heartbeat CPU 0 instructions: 184000968 cycles: 123469791 heartbeat IPC: 1.299 cumulative IPC: 1.25 (Simulation time: 00 hr 27 min 01 sec)
Heartbeat CPU 0 instructions: 184500971 cycles: 123846766 heartbeat IPC: 1.326 cumulative IPC: 1.25 (Simulation time: 00 hr 27 min 06 sec)
Heartbeat CPU 0 instructions: 185000975 cycles: 124218126 heartbeat IPC: 1.346 cumulative IPC: 1.25 (Simulation time: 00 hr 27 min 11 sec)
Heartbeat CPU 0 instructions: 185500976 cycles: 124591770 heartbeat IPC: 1.338 cumulative IPC: 1.251 (Simulation time: 00 hr 27 min 16 sec)
Heartbeat CPU 0 instructions: 186000978 cycles: 124968268 heartbeat IPC: 1.328 cumulative IPC: 1.251 (Simulation time: 00 hr 27 min 21 sec)
Heartbeat CPU 0 instructions: 186500979 cycles: 125351232 heartbeat IPC: 1.306 cumulative IPC: 1.251 (Simulation time: 00 hr 27 min 26 sec)
Heartbeat CPU 0 instructions: 187000983 cycles: 125739247 heartbeat IPC: 1.289 cumulative IPC: 1.251 (Simulation time: 00 hr 27 min 32 sec)
Heartbeat CPU 0 instructions: 187500987 cycles: 126111751 heartbeat IPC: 1.342 cumulative IPC: 1.252 (Simulation time: 00 hr 27 min 37 sec)
Heartbeat CPU 0 instructions: 188000991 cycles: 126489411 heartbeat IPC: 1.324 cumulative IPC: 1.252 (Simulation time: 00 hr 27 min 42 sec)
Heartbeat CPU 0 instructions: 188500991 cycles: 126865618 heartbeat IPC: 1.329 cumulative IPC: 1.252 (Simulation time: 00 hr 27 min 47 sec)
Heartbeat CPU 0 instructions: 189000991 cycles: 127254695 heartbeat IPC: 1.285 cumulative IPC: 1.252 (Simulation time: 00 hr 27 min 52 sec)
Heartbeat CPU 0 instructions: 189500996 cycles: 127648039 heartbeat IPC: 1.271 cumulative IPC: 1.252 (Simulation time: 00 hr 27 min 57 sec)
Heartbeat CPU 0 instructions: 190001002 cycles: 128032353 heartbeat IPC: 1.301 cumulative IPC: 1.252 (Simulation time: 00 hr 28 min 02 sec)
Heartbeat CPU 0 instructions: 190501003 cycles: 128402712 heartbeat IPC: 1.35 cumulative IPC: 1.253 (Simulation time: 00 hr 28 min 07 sec)
Heartbeat CPU 0 instructions: 191001003 cycles: 128778659 heartbeat IPC: 1.33 cumulative IPC: 1.253 (Simulation time: 00 hr 28 min 12 sec)
Heartbeat CPU 0 instructions: 191501009 cycles: 129159011 heartbeat IPC: 1.315 cumulative IPC: 1.253 (Simulation time: 00 hr 28 min 17 sec)
Heartbeat CPU 0 instructions: 192001014 cycles: 129538773 heartbeat IPC: 1.317 cumulative IPC: 1.253 (Simulation time: 00 hr 28 min 22 sec)
Heartbeat CPU 0 instructions: 192501021 cycles: 129919873 heartbeat IPC: 1.312 cumulative IPC: 1.254 (Simulation time: 00 hr 28 min 27 sec)
Heartbeat CPU 0 instructions: 193001024 cycles: 130286638 heartbeat IPC: 1.363 cumulative IPC: 1.254 (Simulation time: 00 hr 28 min 32 sec)
Heartbeat CPU 0 instructions: 193501031 cycles: 130663411 heartbeat IPC: 1.327 cumulative IPC: 1.254 (Simulation time: 00 hr 28 min 37 sec)
Heartbeat CPU 0 instructions: 194001036 cycles: 131047706 heartbeat IPC: 1.301 cumulative IPC: 1.254 (Simulation time: 00 hr 28 min 42 sec)
Heartbeat CPU 0 instructions: 194501037 cycles: 131429900 heartbeat IPC: 1.308 cumulative IPC: 1.255 (Simulation time: 00 hr 28 min 47 sec)
Heartbeat CPU 0 instructions: 195001037 cycles: 131796566 heartbeat IPC: 1.364 cumulative IPC: 1.255 (Simulation time: 00 hr 28 min 52 sec)
Heartbeat CPU 0 instructions: 195501037 cycles: 132175935 heartbeat IPC: 1.318 cumulative IPC: 1.255 (Simulation time: 00 hr 28 min 57 sec)
Heartbeat CPU 0 instructions: 196001038 cycles: 132562619 heartbeat IPC: 1.293 cumulative IPC: 1.255 (Simulation time: 00 hr 29 min 03 sec)
Heartbeat CPU 0 instructions: 196501043 cycles: 132951905 heartbeat IPC: 1.284 cumulative IPC: 1.255 (Simulation time: 00 hr 29 min 08 sec)
Heartbeat CPU 0 instructions: 197001043 cycles: 133334151 heartbeat IPC: 1.308 cumulative IPC: 1.255 (Simulation time: 00 hr 29 min 13 sec)
Heartbeat CPU 0 instructions: 197501045 cycles: 133710487 heartbeat IPC: 1.329 cumulative IPC: 1.256 (Simulation time: 00 hr 29 min 18 sec)
Heartbeat CPU 0 instructions: 198001047 cycles: 134092283 heartbeat IPC: 1.31 cumulative IPC: 1.256 (Simulation time: 00 hr 29 min 23 sec)
Heartbeat CPU 0 instructions: 198501047 cycles: 134473138 heartbeat IPC: 1.313 cumulative IPC: 1.256 (Simulation time: 00 hr 29 min 28 sec)
Heartbeat CPU 0 instructions: 199001051 cycles: 134862853 heartbeat IPC: 1.283 cumulative IPC: 1.256 (Simulation time: 00 hr 29 min 33 sec)
Heartbeat CPU 0 instructions: 199501055 cycles: 135251138 heartbeat IPC: 1.288 cumulative IPC: 1.256 (Simulation time: 00 hr 29 min 38 sec)
Heartbeat CPU 0 instructions: 200001061 cycles: 135637310 heartbeat IPC: 1.295 cumulative IPC: 1.256 (Simulation time: 00 hr 29 min 43 sec)
Heartbeat CPU 0 instructions: 200501067 cycles: 136013677 heartbeat IPC: 1.329 cumulative IPC: 1.257 (Simulation time: 00 hr 29 min 48 sec)
Heartbeat CPU 0 instructions: 201001067 cycles: 136396950 heartbeat IPC: 1.305 cumulative IPC: 1.257 (Simulation time: 00 hr 29 min 53 sec)
Heartbeat CPU 0 instructions: 201501071 cycles: 136788297 heartbeat IPC: 1.278 cumulative IPC: 1.257 (Simulation time: 00 hr 29 min 58 sec)
Heartbeat CPU 0 instructions: 202001075 cycles: 137168896 heartbeat IPC: 1.314 cumulative IPC: 1.257 (Simulation time: 00 hr 30 min 04 sec)
Heartbeat CPU 0 instructions: 202501079 cycles: 137537535 heartbeat IPC: 1.356 cumulative IPC: 1.257 (Simulation time: 00 hr 30 min 08 sec)
Heartbeat CPU 0 instructions: 203001085 cycles: 137906109 heartbeat IPC: 1.357 cumulative IPC: 1.258 (Simulation time: 00 hr 30 min 13 sec)
Heartbeat CPU 0 instructions: 203501089 cycles: 138287078 heartbeat IPC: 1.312 cumulative IPC: 1.258 (Simulation time: 00 hr 30 min 18 sec)
Heartbeat CPU 0 instructions: 204001093 cycles: 138675747 heartbeat IPC: 1.286 cumulative IPC: 1.258 (Simulation time: 00 hr 30 min 24 sec)
Heartbeat CPU 0 instructions: 204501095 cycles: 139058801 heartbeat IPC: 1.305 cumulative IPC: 1.258 (Simulation time: 00 hr 30 min 29 sec)
Heartbeat CPU 0 instructions: 205001099 cycles: 139438450 heartbeat IPC: 1.317 cumulative IPC: 1.258 (Simulation time: 00 hr 30 min 34 sec)
Heartbeat CPU 0 instructions: 205501100 cycles: 139803755 heartbeat IPC: 1.369 cumulative IPC: 1.259 (Simulation time: 00 hr 30 min 39 sec)
Heartbeat CPU 0 instructions: 206001107 cycles: 140165107 heartbeat IPC: 1.384 cumulative IPC: 1.259 (Simulation time: 00 hr 30 min 44 sec)
Heartbeat CPU 0 instructions: 206501108 cycles: 140547544 heartbeat IPC: 1.307 cumulative IPC: 1.259 (Simulation time: 00 hr 30 min 49 sec)
Heartbeat CPU 0 instructions: 207001112 cycles: 140927987 heartbeat IPC: 1.314 cumulative IPC: 1.259 (Simulation time: 00 hr 30 min 54 sec)
Heartbeat CPU 0 instructions: 207501117 cycles: 141304040 heartbeat IPC: 1.33 cumulative IPC: 1.259 (Simulation time: 00 hr 30 min 59 sec)
Heartbeat CPU 0 instructions: 208001121 cycles: 141704585 heartbeat IPC: 1.248 cumulative IPC: 1.259 (Simulation time: 00 hr 31 min 04 sec)
Heartbeat CPU 0 instructions: 208501124 cycles: 142097801 heartbeat IPC: 1.272 cumulative IPC: 1.259 (Simulation time: 00 hr 31 min 09 sec)
Heartbeat CPU 0 instructions: 209001127 cycles: 142483818 heartbeat IPC: 1.295 cumulative IPC: 1.26 (Simulation time: 00 hr 31 min 14 sec)
Heartbeat CPU 0 instructions: 209501134 cycles: 142856020 heartbeat IPC: 1.343 cumulative IPC: 1.26 (Simulation time: 00 hr 31 min 19 sec)
Heartbeat CPU 0 instructions: 210001134 cycles: 143248614 heartbeat IPC: 1.274 cumulative IPC: 1.26 (Simulation time: 00 hr 31 min 24 sec)
Heartbeat CPU 0 instructions: 210501139 cycles: 143631546 heartbeat IPC: 1.306 cumulative IPC: 1.26 (Simulation time: 00 hr 31 min 29 sec)
Heartbeat CPU 0 instructions: 211001144 cycles: 144038461 heartbeat IPC: 1.229 cumulative IPC: 1.26 (Simulation time: 00 hr 31 min 35 sec)
Heartbeat CPU 0 instructions: 211501146 cycles: 144423358 heartbeat IPC: 1.299 cumulative IPC: 1.26 (Simulation time: 00 hr 31 min 40 sec)
Heartbeat CPU 0 instructions: 212001151 cycles: 144798127 heartbeat IPC: 1.334 cumulative IPC: 1.26 (Simulation time: 00 hr 31 min 45 sec)
Heartbeat CPU 0 instructions: 212501152 cycles: 145157916 heartbeat IPC: 1.39 cumulative IPC: 1.261 (Simulation time: 00 hr 31 min 49 sec)
Heartbeat CPU 0 instructions: 213001153 cycles: 145542969 heartbeat IPC: 1.299 cumulative IPC: 1.261 (Simulation time: 00 hr 31 min 55 sec)
Heartbeat CPU 0 instructions: 213501159 cycles: 145931286 heartbeat IPC: 1.288 cumulative IPC: 1.261 (Simulation time: 00 hr 32 min 00 sec)
Heartbeat CPU 0 instructions: 214001161 cycles: 146322330 heartbeat IPC: 1.279 cumulative IPC: 1.261 (Simulation time: 00 hr 32 min 05 sec)
Heartbeat CPU 0 instructions: 214501166 cycles: 146706844 heartbeat IPC: 1.3 cumulative IPC: 1.261 (Simulation time: 00 hr 32 min 10 sec)
Heartbeat CPU 0 instructions: 215001170 cycles: 147080962 heartbeat IPC: 1.336 cumulative IPC: 1.261 (Simulation time: 00 hr 32 min 15 sec)
Heartbeat CPU 0 instructions: 215501171 cycles: 147455955 heartbeat IPC: 1.333 cumulative IPC: 1.261 (Simulation time: 00 hr 32 min 20 sec)
Heartbeat CPU 0 instructions: 216001171 cycles: 147831316 heartbeat IPC: 1.332 cumulative IPC: 1.262 (Simulation time: 00 hr 32 min 25 sec)
Heartbeat CPU 0 instructions: 216501175 cycles: 148219504 heartbeat IPC: 1.288 cumulative IPC: 1.262 (Simulation time: 00 hr 32 min 30 sec)
Heartbeat CPU 0 instructions: 217001179 cycles: 148605684 heartbeat IPC: 1.295 cumulative IPC: 1.262 (Simulation time: 00 hr 32 min 35 sec)
Heartbeat CPU 0 instructions: 217501179 cycles: 148979312 heartbeat IPC: 1.338 cumulative IPC: 1.262 (Simulation time: 00 hr 32 min 40 sec)
Heartbeat CPU 0 instructions: 218001181 cycles: 149368310 heartbeat IPC: 1.285 cumulative IPC: 1.262 (Simulation time: 00 hr 32 min 45 sec)
Heartbeat CPU 0 instructions: 218501183 cycles: 149760207 heartbeat IPC: 1.276 cumulative IPC: 1.262 (Simulation time: 00 hr 32 min 51 sec)
Heartbeat CPU 0 instructions: 219001183 cycles: 150146120 heartbeat IPC: 1.296 cumulative IPC: 1.262 (Simulation time: 00 hr 32 min 56 sec)
Heartbeat CPU 0 instructions: 219501187 cycles: 150533081 heartbeat IPC: 1.292 cumulative IPC: 1.262 (Simulation time: 00 hr 33 min 01 sec)
Heartbeat CPU 0 instructions: 220001188 cycles: 150935092 heartbeat IPC: 1.244 cumulative IPC: 1.262 (Simulation time: 00 hr 33 min 06 sec)
Heartbeat CPU 0 instructions: 220501191 cycles: 151320561 heartbeat IPC: 1.297 cumulative IPC: 1.262 (Simulation time: 00 hr 33 min 11 sec)
Heartbeat CPU 0 instructions: 221001195 cycles: 151700103 heartbeat IPC: 1.317 cumulative IPC: 1.262 (Simulation time: 00 hr 33 min 16 sec)
Heartbeat CPU 0 instructions: 221501199 cycles: 152096213 heartbeat IPC: 1.262 cumulative IPC: 1.262 (Simulation time: 00 hr 33 min 22 sec)
Heartbeat CPU 0 instructions: 222001199 cycles: 152486601 heartbeat IPC: 1.281 cumulative IPC: 1.262 (Simulation time: 00 hr 33 min 27 sec)
Heartbeat CPU 0 instructions: 222501199 cycles: 152854150 heartbeat IPC: 1.36 cumulative IPC: 1.263 (Simulation time: 00 hr 33 min 32 sec)
Heartbeat CPU 0 instructions: 223001203 cycles: 153231591 heartbeat IPC: 1.325 cumulative IPC: 1.263 (Simulation time: 00 hr 33 min 37 sec)
Heartbeat CPU 0 instructions: 223501203 cycles: 153616533 heartbeat IPC: 1.299 cumulative IPC: 1.263 (Simulation time: 00 hr 33 min 42 sec)
Heartbeat CPU 0 instructions: 224001203 cycles: 153993791 heartbeat IPC: 1.325 cumulative IPC: 1.263 (Simulation time: 00 hr 33 min 47 sec)
Heartbeat CPU 0 instructions: 224501207 cycles: 154382694 heartbeat IPC: 1.286 cumulative IPC: 1.263 (Simulation time: 00 hr 33 min 52 sec)
Heartbeat CPU 0 instructions: 225001207 cycles: 154759766 heartbeat IPC: 1.326 cumulative IPC: 1.263 (Simulation time: 00 hr 33 min 57 sec)
Heartbeat CPU 0 instructions: 225501209 cycles: 155136048 heartbeat IPC: 1.329 cumulative IPC: 1.264 (Simulation time: 00 hr 34 min 02 sec)
Heartbeat CPU 0 instructions: 226001211 cycles: 155515174 heartbeat IPC: 1.319 cumulative IPC: 1.264 (Simulation time: 00 hr 34 min 07 sec)
Heartbeat CPU 0 instructions: 226501215 cycles: 155911560 heartbeat IPC: 1.261 cumulative IPC: 1.264 (Simulation time: 00 hr 34 min 12 sec)
Heartbeat CPU 0 instructions: 227001219 cycles: 156300295 heartbeat IPC: 1.286 cumulative IPC: 1.264 (Simulation time: 00 hr 34 min 17 sec)
Heartbeat CPU 0 instructions: 227501223 cycles: 156688266 heartbeat IPC: 1.289 cumulative IPC: 1.264 (Simulation time: 00 hr 34 min 23 sec)
Heartbeat CPU 0 instructions: 228001227 cycles: 157061828 heartbeat IPC: 1.338 cumulative IPC: 1.264 (Simulation time: 00 hr 34 min 28 sec)
Heartbeat CPU 0 instructions: 228501234 cycles: 157399474 heartbeat IPC: 1.481 cumulative IPC: 1.265 (Simulation time: 00 hr 34 min 32 sec)
Heartbeat CPU 0 instructions: 229001239 cycles: 157778107 heartbeat IPC: 1.321 cumulative IPC: 1.265 (Simulation time: 00 hr 34 min 37 sec)
Heartbeat CPU 0 instructions: 229501244 cycles: 158154644 heartbeat IPC: 1.328 cumulative IPC: 1.265 (Simulation time: 00 hr 34 min 42 sec)
Heartbeat CPU 0 instructions: 230001247 cycles: 158529463 heartbeat IPC: 1.334 cumulative IPC: 1.265 (Simulation time: 00 hr 34 min 47 sec)
Heartbeat CPU 0 instructions: 230501251 cycles: 158911962 heartbeat IPC: 1.307 cumulative IPC: 1.265 (Simulation time: 00 hr 34 min 52 sec)
Heartbeat CPU 0 instructions: 231001258 cycles: 159295730 heartbeat IPC: 1.303 cumulative IPC: 1.265 (Simulation time: 00 hr 34 min 57 sec)
Heartbeat CPU 0 instructions: 231501259 cycles: 159673784 heartbeat IPC: 1.323 cumulative IPC: 1.265 (Simulation time: 00 hr 35 min 02 sec)
Heartbeat CPU 0 instructions: 232001261 cycles: 160063657 heartbeat IPC: 1.282 cumulative IPC: 1.265 (Simulation time: 00 hr 35 min 07 sec)
Heartbeat CPU 0 instructions: 232501264 cycles: 160441412 heartbeat IPC: 1.324 cumulative IPC: 1.266 (Simulation time: 00 hr 35 min 12 sec)
Heartbeat CPU 0 instructions: 233001271 cycles: 160840102 heartbeat IPC: 1.254 cumulative IPC: 1.266 (Simulation time: 00 hr 35 min 17 sec)
Heartbeat CPU 0 instructions: 233501271 cycles: 161217341 heartbeat IPC: 1.325 cumulative IPC: 1.266 (Simulation time: 00 hr 35 min 22 sec)
Heartbeat CPU 0 instructions: 234001275 cycles: 161599846 heartbeat IPC: 1.307 cumulative IPC: 1.266 (Simulation time: 00 hr 35 min 27 sec)
Heartbeat CPU 0 instructions: 234501278 cycles: 161976548 heartbeat IPC: 1.327 cumulative IPC: 1.266 (Simulation time: 00 hr 35 min 32 sec)
Heartbeat CPU 0 instructions: 235001280 cycles: 162354684 heartbeat IPC: 1.322 cumulative IPC: 1.266 (Simulation time: 00 hr 35 min 37 sec)
Heartbeat CPU 0 instructions: 235501285 cycles: 162737240 heartbeat IPC: 1.307 cumulative IPC: 1.266 (Simulation time: 00 hr 35 min 42 sec)
Heartbeat CPU 0 instructions: 236001289 cycles: 163107398 heartbeat IPC: 1.351 cumulative IPC: 1.267 (Simulation time: 00 hr 35 min 47 sec)
Heartbeat CPU 0 instructions: 236501295 cycles: 163493210 heartbeat IPC: 1.296 cumulative IPC: 1.267 (Simulation time: 00 hr 35 min 52 sec)
Heartbeat CPU 0 instructions: 237001297 cycles: 163862661 heartbeat IPC: 1.353 cumulative IPC: 1.267 (Simulation time: 00 hr 35 min 57 sec)
Heartbeat CPU 0 instructions: 237501303 cycles: 164253509 heartbeat IPC: 1.279 cumulative IPC: 1.267 (Simulation time: 00 hr 36 min 02 sec)
Heartbeat CPU 0 instructions: 238001310 cycles: 164638463 heartbeat IPC: 1.299 cumulative IPC: 1.267 (Simulation time: 00 hr 36 min 07 sec)
Heartbeat CPU 0 instructions: 238501312 cycles: 165020890 heartbeat IPC: 1.307 cumulative IPC: 1.267 (Simulation time: 00 hr 36 min 12 sec)
Heartbeat CPU 0 instructions: 239001315 cycles: 165415771 heartbeat IPC: 1.266 cumulative IPC: 1.267 (Simulation time: 00 hr 36 min 17 sec)
Heartbeat CPU 0 instructions: 239501317 cycles: 165782284 heartbeat IPC: 1.364 cumulative IPC: 1.267 (Simulation time: 00 hr 36 min 22 sec)
Heartbeat CPU 0 instructions: 240001321 cycles: 166208676 heartbeat IPC: 1.173 cumulative IPC: 1.267 (Simulation time: 00 hr 36 min 27 sec)
Heartbeat CPU 0 instructions: 240501327 cycles: 166580722 heartbeat IPC: 1.344 cumulative IPC: 1.267 (Simulation time: 00 hr 36 min 32 sec)
Heartbeat CPU 0 instructions: 241001327 cycles: 166959335 heartbeat IPC: 1.321 cumulative IPC: 1.267 (Simulation time: 00 hr 36 min 37 sec)
Heartbeat CPU 0 instructions: 241501328 cycles: 167352070 heartbeat IPC: 1.273 cumulative IPC: 1.267 (Simulation time: 00 hr 36 min 44 sec)
Heartbeat CPU 0 instructions: 242001335 cycles: 167725925 heartbeat IPC: 1.337 cumulative IPC: 1.268 (Simulation time: 00 hr 36 min 49 sec)
Heartbeat CPU 0 instructions: 242501335 cycles: 168116240 heartbeat IPC: 1.281 cumulative IPC: 1.268 (Simulation time: 00 hr 36 min 54 sec)
Heartbeat CPU 0 instructions: 243001336 cycles: 168496703 heartbeat IPC: 1.314 cumulative IPC: 1.268 (Simulation time: 00 hr 36 min 59 sec)
Heartbeat CPU 0 instructions: 243501343 cycles: 168868651 heartbeat IPC: 1.344 cumulative IPC: 1.268 (Simulation time: 00 hr 37 min 04 sec)
Heartbeat CPU 0 instructions: 244001343 cycles: 169265332 heartbeat IPC: 1.26 cumulative IPC: 1.268 (Simulation time: 00 hr 37 min 11 sec)
Heartbeat CPU 0 instructions: 244501343 cycles: 169639607 heartbeat IPC: 1.336 cumulative IPC: 1.268 (Simulation time: 00 hr 37 min 18 sec)
Heartbeat CPU 0 instructions: 245001347 cycles: 170030449 heartbeat IPC: 1.279 cumulative IPC: 1.268 (Simulation time: 00 hr 37 min 26 sec)
Heartbeat CPU 0 instructions: 245501351 cycles: 170405648 heartbeat IPC: 1.333 cumulative IPC: 1.268 (Simulation time: 00 hr 37 min 33 sec)
Heartbeat CPU 0 instructions: 246001353 cycles: 170800693 heartbeat IPC: 1.266 cumulative IPC: 1.268 (Simulation time: 00 hr 37 min 41 sec)
Heartbeat CPU 0 instructions: 246501355 cycles: 171166383 heartbeat IPC: 1.367 cumulative IPC: 1.268 (Simulation time: 00 hr 37 min 48 sec)
Heartbeat CPU 0 instructions: 247001361 cycles: 171554164 heartbeat IPC: 1.289 cumulative IPC: 1.268 (Simulation time: 00 hr 37 min 56 sec)
Heartbeat CPU 0 instructions: 247501367 cycles: 171934679 heartbeat IPC: 1.314 cumulative IPC: 1.269 (Simulation time: 00 hr 38 min 00 sec)
Heartbeat CPU 0 instructions: 248001370 cycles: 172331229 heartbeat IPC: 1.261 cumulative IPC: 1.269 (Simulation time: 00 hr 38 min 05 sec)
Heartbeat CPU 0 instructions: 248501375 cycles: 172705542 heartbeat IPC: 1.336 cumulative IPC: 1.269 (Simulation time: 00 hr 38 min 10 sec)
Heartbeat CPU 0 instructions: 249001375 cycles: 173085399 heartbeat IPC: 1.316 cumulative IPC: 1.269 (Simulation time: 00 hr 38 min 15 sec)
Heartbeat CPU 0 instructions: 249501375 cycles: 173467833 heartbeat IPC: 1.307 cumulative IPC: 1.269 (Simulation time: 00 hr 38 min 20 sec)
*** Reached end of trace: (0, "/local-ssd/ben/dpc4-traces/Graph/Ligra/ligra_BFSCC.com-lj.ungraph.gcc_6.3.0_O3.drop_15500M.length_250M.champsimtrace.xz")
Simulation finished CPU 0 instructions: 200000005 cycles: 157604426 cumulative IPC: 1.269 (Simulation time: 00 hr 38 min 25 sec)
Simulation complete CPU 0 instructions: 200000005 cycles: 157604426 cumulative IPC: 1.269 (Simulation time: 00 hr 38 min 25 sec)

ChampSim completed all CPUs

=== Simulation ===
CPU 0 runs /local-ssd/ben/dpc4-traces/Graph/Ligra/ligra_BFSCC.com-lj.ungraph.gcc_6.3.0_O3.drop_15500M.length_250M.champsimtrace.xz

Region of Interest Statistics

CPU 0 cumulative IPC: 1.269 instructions: 200000005 cycles: 157604426
CPU 0 Branch Prediction Accuracy: 97.56% MPKI: 2.84 Average ROB Occupancy at Mispredict: 112.2
Branch type MPKI
BRANCH_DIRECT_JUMP: 1e-05
BRANCH_INDIRECT: 0
BRANCH_CONDITIONAL: 2.84
BRANCH_DIRECT_CALL: 1e-05
BRANCH_INDIRECT_CALL: 0
BRANCH_RETURN: 1e-05

cpu0->cpu0_STLB TOTAL        ACCESS:      70539 HIT:          0 MISS:      70539 MSHR_MERGE:          0
cpu0->cpu0_STLB LOAD         ACCESS:      70539 HIT:          0 MISS:      70539 MSHR_MERGE:          0
cpu0->cpu0_STLB RFO          ACCESS:          0 HIT:          0 MISS:          0 MSHR_MERGE:          0
cpu0->cpu0_STLB PREFETCH     ACCESS:          0 HIT:          0 MISS:          0 MSHR_MERGE:          0
cpu0->cpu0_STLB WRITE        ACCESS:          0 HIT:          0 MISS:          0 MSHR_MERGE:          0
cpu0->cpu0_STLB TRANSLATION  ACCESS:          0 HIT:          0 MISS:          0 MSHR_MERGE:          0
cpu0->cpu0_STLB PREFETCH REQUESTED:          0 ISSUED:          0 USEFUL:          0 USELESS:          0
cpu0->cpu0_STLB AVERAGE MISS LATENCY: 263.7 cycles
cpu0->cpu0_L2C TOTAL        ACCESS:    7510429 HIT:    2988596 MISS:    4521833 MSHR_MERGE:          0
cpu0->cpu0_L2C LOAD         ACCESS:      95320 HIT:        187 MISS:      95133 MSHR_MERGE:          0
cpu0->cpu0_L2C RFO          ACCESS:    2985635 HIT:          0 MISS:    2985635 MSHR_MERGE:          0
cpu0->cpu0_L2C PREFETCH     ACCESS:    1432148 HIT:         58 MISS:    1432090 MSHR_MERGE:          0
cpu0->cpu0_L2C WRITE        ACCESS:    2985850 HIT:    2985850 MISS:          0 MSHR_MERGE:          0
cpu0->cpu0_L2C TRANSLATION  ACCESS:      11476 HIT:       2501 MISS:       8975 MSHR_MERGE:          0
cpu0->cpu0_L2C PREFETCH REQUESTED:          0 ISSUED:          0 USEFUL:          0 USELESS:          0
cpu0->cpu0_L2C AVERAGE MISS LATENCY: 436.6 cycles
cpu0->cpu0_L1I TOTAL        ACCESS:    8331717 HIT:    8331708 MISS:          9 MSHR_MERGE:          0
cpu0->cpu0_L1I LOAD         ACCESS:    8331717 HIT:    8331708 MISS:          9 MSHR_MERGE:          0
cpu0->cpu0_L1I RFO          ACCESS:          0 HIT:          0 MISS:          0 MSHR_MERGE:          0
cpu0->cpu0_L1I PREFETCH     ACCESS:          0 HIT:          0 MISS:          0 MSHR_MERGE:          0
cpu0->cpu0_L1I WRITE        ACCESS:          0 HIT:          0 MISS:          0 MSHR_MERGE:          0
cpu0->cpu0_L1I TRANSLATION  ACCESS:          0 HIT:          0 MISS:          0 MSHR_MERGE:          0
cpu0->cpu0_L1I PREFETCH REQUESTED:          0 ISSUED:          0 USEFUL:          0 USELESS:          0
cpu0->cpu0_L1I AVERAGE MISS LATENCY: 482.4 cycles
cpu0->cpu0_L1D TOTAL        ACCESS:   53813061 HIT:    9474541 MISS:   44338520 MSHR_MERGE:   39813950
cpu0->cpu0_L1D LOAD         ACCESS:   10216484 HIT:    9052767 MISS:    1163717 MSHR_MERGE:    1068406
cpu0->cpu0_L1D RFO          ACCESS:          0 HIT:          0 MISS:          0 MSHR_MERGE:          0
cpu0->cpu0_L1D PREFETCH     ACCESS:    1528463 HIT:      37764 MISS:    1490699 MSHR_MERGE:      58551
cpu0->cpu0_L1D WRITE        ACCESS:   41926890 HIT:     254262 MISS:   41672628 MSHR_MERGE:   38686993
cpu0->cpu0_L1D TRANSLATION  ACCESS:     141224 HIT:     129748 MISS:      11476 MSHR_MERGE:          0
cpu0->cpu0_L1D PREFETCH REQUESTED:    1532375 ISSUED:    1528455 USEFUL:    1431901 USELESS:        234
cpu0->cpu0_L1D AVERAGE MISS LATENCY: 430.8 cycles
cpu0->cpu0_ITLB TOTAL        ACCESS:    8331683 HIT:    8331683 MISS:          0 MSHR_MERGE:          0
cpu0->cpu0_ITLB LOAD         ACCESS:    8331683 HIT:    8331683 MISS:          0 MSHR_MERGE:          0
cpu0->cpu0_ITLB RFO          ACCESS:          0 HIT:          0 MISS:          0 MSHR_MERGE:          0
cpu0->cpu0_ITLB PREFETCH     ACCESS:          0 HIT:          0 MISS:          0 MSHR_MERGE:          0
cpu0->cpu0_ITLB WRITE        ACCESS:          0 HIT:          0 MISS:          0 MSHR_MERGE:          0
cpu0->cpu0_ITLB TRANSLATION  ACCESS:          0 HIT:          0 MISS:          0 MSHR_MERGE:          0
cpu0->cpu0_ITLB PREFETCH REQUESTED:          0 ISSUED:          0 USEFUL:          0 USELESS:          0
cpu0->cpu0_ITLB AVERAGE MISS LATENCY: - cycles
cpu0->cpu0_DTLB TOTAL        ACCESS:   47578177 HIT:   46587064 MISS:     991113 MSHR_MERGE:     920572
cpu0->cpu0_DTLB LOAD         ACCESS:   47578177 HIT:   46587064 MISS:     991113 MSHR_MERGE:     920572
cpu0->cpu0_DTLB RFO          ACCESS:          0 HIT:          0 MISS:          0 MSHR_MERGE:          0
cpu0->cpu0_DTLB PREFETCH     ACCESS:          0 HIT:          0 MISS:          0 MSHR_MERGE:          0
cpu0->cpu0_DTLB WRITE        ACCESS:          0 HIT:          0 MISS:          0 MSHR_MERGE:          0
cpu0->cpu0_DTLB TRANSLATION  ACCESS:          0 HIT:          0 MISS:          0 MSHR_MERGE:          0
cpu0->cpu0_DTLB PREFETCH REQUESTED:          0 ISSUED:          0 USEFUL:          0 USELESS:          0
cpu0->cpu0_DTLB AVERAGE MISS LATENCY: 269.7 cycles
cpu0->LLC TOTAL        ACCESS:    7515325 HIT:     727236 MISS:    6788089 MSHR_MERGE:          0
cpu0->LLC LOAD         ACCESS:      95133 HIT:          0 MISS:      95133 MSHR_MERGE:          0
cpu0->LLC RFO          ACCESS:    2985635 HIT:          0 MISS:    2985635 MSHR_MERGE:          0
cpu0->LLC PREFETCH     ACCESS:    1432089 HIT:          0 MISS:    1432089 MSHR_MERGE:          0
cpu0->LLC WRITE        ACCESS:    2993493 HIT:     727218 MISS:    2266275 MSHR_MERGE:          0
cpu0->LLC TRANSLATION  ACCESS:       8975 HIT:         18 MISS:       8957 MSHR_MERGE:          0
cpu0->LLC PREFETCH REQUESTED:          0 ISSUED:          0 USEFUL:          0 USELESS:          0
cpu0->LLC AVERAGE MISS LATENCY: 245.8 cycles

DRAM Statistics

Channel 0 RQ ROW_BUFFER_HIT:     238553
  ROW_BUFFER_MISS:    4283255
  AVG DBUS CONGESTED CYCLE: 12.92
Channel 0 WQ ROW_BUFFER_HIT:     380801
  ROW_BUFFER_MISS:    2616598
  FULL:     928530
Channel 0 REFRESHES ISSUED:      13133
