[VMEM] WARNING: physical memory size is smaller than virtual memory size.

*** ChampSim Multicore Out-of-Order Simulator ***
Warmup Instructions: 50000000
Simulation Instructions: 200000000
Number of CPUs: 1
Page size: 4096
Core 0: /local-ssd/ben/dpc4-traces/Graph/Ligra/ligra_Radii.com-lj.ungraph.gcc_6.3.0_O3.drop_24500M.length_250M.champsimtrace.xz
 L1D Berti prefetcher
Off-chip DRAM Size: 64 GiB Channels: 1 Width: 64-bit Data Rate: 4807 MT/s
Heartbeat CPU 0 instructions: 500005 cycles: 104619 heartbeat IPC: 4.779 cumulative IPC: 4.779 (Simulation time: 00 hr 00 min 02 sec)
Heartbeat CPU 0 instructions: 1000007 cycles: 206896 heartbeat IPC: 4.889 cumulative IPC: 4.833 (Simulation time: 00 hr 00 min 03 sec)
Heartbeat CPU 0 instructions: 1500007 cycles: 309266 heartbeat IPC: 4.884 cumulative IPC: 4.85 (Simulation time: 00 hr 00 min 04 sec)
Heartbeat CPU 0 instructions: 2000009 cycles: 411545 heartbeat IPC: 4.889 cumulative IPC: 4.86 (Simulation time: 00 hr 00 min 06 sec)
Heartbeat CPU 0 instructions: 2500009 cycles: 513820 heartbeat IPC: 4.889 cumulative IPC: 4.866 (Simulation time: 00 hr 00 min 07 sec)
Heartbeat CPU 0 instructions: 3000011 cycles: 616392 heartbeat IPC: 4.875 cumulative IPC: 4.867 (Simulation time: 00 hr 00 min 09 sec)
Heartbeat CPU 0 instructions: 3500013 cycles: 718670 heartbeat IPC: 4.889 cumulative IPC: 4.87 (Simulation time: 00 hr 00 min 10 sec)
Heartbeat CPU 0 instructions: 4000020 cycles: 821046 heartbeat IPC: 4.884 cumulative IPC: 4.872 (Simulation time: 00 hr 00 min 11 sec)
Heartbeat CPU 0 instructions: 4500020 cycles: 923317 heartbeat IPC: 4.889 cumulative IPC: 4.874 (Simulation time: 00 hr 00 min 13 sec)
Heartbeat CPU 0 instructions: 5000020 cycles: 1025594 heartbeat IPC: 4.889 cumulative IPC: 4.875 (Simulation time: 00 hr 00 min 14 sec)
Heartbeat CPU 0 instructions: 5500022 cycles: 1127966 heartbeat IPC: 4.884 cumulative IPC: 4.876 (Simulation time: 00 hr 00 min 15 sec)
Heartbeat CPU 0 instructions: 6000024 cycles: 1230241 heartbeat IPC: 4.889 cumulative IPC: 4.877 (Simulation time: 00 hr 00 min 17 sec)
Heartbeat CPU 0 instructions: 6500024 cycles: 1332614 heartbeat IPC: 4.884 cumulative IPC: 4.878 (Simulation time: 00 hr 00 min 18 sec)
Heartbeat CPU 0 instructions: 7000026 cycles: 1434889 heartbeat IPC: 4.889 cumulative IPC: 4.878 (Simulation time: 00 hr 00 min 19 sec)
Heartbeat CPU 0 instructions: 7500032 cycles: 1537171 heartbeat IPC: 4.889 cumulative IPC: 4.879 (Simulation time: 00 hr 00 min 21 sec)
Heartbeat CPU 0 instructions: 8000033 cycles: 1639539 heartbeat IPC: 4.884 cumulative IPC: 4.879 (Simulation time: 00 hr 00 min 22 sec)
Heartbeat CPU 0 instructions: 8500035 cycles: 1741816 heartbeat IPC: 4.889 cumulative IPC: 4.88 (Simulation time: 00 hr 00 min 24 sec)
Heartbeat CPU 0 instructions: 9000036 cycles: 1844243 heartbeat IPC: 4.882 cumulative IPC: 4.88 (Simulation time: 00 hr 00 min 25 sec)
Heartbeat CPU 0 instructions: 9500037 cycles: 1946464 heartbeat IPC: 4.891 cumulative IPC: 4.881 (Simulation time: 00 hr 00 min 26 sec)
Heartbeat CPU 0 instructions: 10000039 cycles: 2048740 heartbeat IPC: 4.889 cumulative IPC: 4.881 (Simulation time: 00 hr 00 min 28 sec)
Heartbeat CPU 0 instructions: 10500039 cycles: 2151112 heartbeat IPC: 4.884 cumulative IPC: 4.881 (Simulation time: 00 hr 00 min 29 sec)
Heartbeat CPU 0 instructions: 11000041 cycles: 2253387 heartbeat IPC: 4.889 cumulative IPC: 4.882 (Simulation time: 00 hr 00 min 30 sec)
Heartbeat CPU 0 instructions: 11500048 cycles: 2355873 heartbeat IPC: 4.879 cumulative IPC: 4.881 (Simulation time: 00 hr 00 min 32 sec)
Heartbeat CPU 0 instructions: 12000048 cycles: 2458035 heartbeat IPC: 4.894 cumulative IPC: 4.882 (Simulation time: 00 hr 00 min 33 sec)
Heartbeat CPU 0 instructions: 12500048 cycles: 2562542 heartbeat IPC: 4.784 cumulative IPC: 4.878 (Simulation time: 00 hr 00 min 34 sec)
Heartbeat CPU 0 instructions: 13000048 cycles: 2729102 heartbeat IPC: 3.002 cumulative IPC: 4.763 (Simulation time: 00 hr 00 min 36 sec)
Heartbeat CPU 0 instructions: 13500048 cycles: 2895662 heartbeat IPC: 3.002 cumulative IPC: 4.662 (Simulation time: 00 hr 00 min 38 sec)
Heartbeat CPU 0 instructions: 14000052 cycles: 3062218 heartbeat IPC: 3.002 cumulative IPC: 4.572 (Simulation time: 00 hr 00 min 39 sec)
Heartbeat CPU 0 instructions: 14500055 cycles: 3228760 heartbeat IPC: 3.002 cumulative IPC: 4.491 (Simulation time: 00 hr 00 min 41 sec)
Heartbeat CPU 0 instructions: 15000055 cycles: 3394793 heartbeat IPC: 3.011 cumulative IPC: 4.419 (Simulation time: 00 hr 00 min 42 sec)
Heartbeat CPU 0 instructions: 15500058 cycles: 3561076 heartbeat IPC: 3.007 cumulative IPC: 4.353 (Simulation time: 00 hr 00 min 44 sec)
Heartbeat CPU 0 instructions: 16000062 cycles: 3727453 heartbeat IPC: 3.005 cumulative IPC: 4.292 (Simulation time: 00 hr 00 min 46 sec)
Heartbeat CPU 0 instructions: 16500065 cycles: 3893964 heartbeat IPC: 3.003 cumulative IPC: 4.237 (Simulation time: 00 hr 00 min 47 sec)
Heartbeat CPU 0 instructions: 17000065 cycles: 4060465 heartbeat IPC: 3.003 cumulative IPC: 4.187 (Simulation time: 00 hr 00 min 49 sec)
Heartbeat CPU 0 instructions: 17500066 cycles: 4226908 heartbeat IPC: 3.004 cumulative IPC: 4.14 (Simulation time: 00 hr 00 min 50 sec)
Heartbeat CPU 0 instructions: 18000066 cycles: 4390229 heartbeat IPC: 3.061 cumulative IPC: 4.1 (Simulation time: 00 hr 00 min 52 sec)
Heartbeat CPU 0 instructions: 18500068 cycles: 4551424 heartbeat IPC: 3.102 cumulative IPC: 4.065 (Simulation time: 00 hr 00 min 53 sec)
Heartbeat CPU 0 instructions: 19000068 cycles: 4712452 heartbeat IPC: 3.105 cumulative IPC: 4.032 (Simulation time: 00 hr 00 min 55 sec)
Heartbeat CPU 0 instructions: 19500073 cycles: 4874082 heartbeat IPC: 3.094 cumulative IPC: 4.001 (Simulation time: 00 hr 00 min 57 sec)
Heartbeat CPU 0 instructions: 20000077 cycles: 5035458 heartbeat IPC: 3.098 cumulative IPC: 3.972 (Simulation time: 00 hr 00 min 58 sec)
Heartbeat CPU 0 instructions: 20500082 cycles: 5195556 heartbeat IPC: 3.123 cumulative IPC: 3.946 (Simulation time: 00 hr 01 min 00 sec)
Heartbeat CPU 0 instructions: 21000085 cycles: 5353878 heartbeat IPC: 3.158 cumulative IPC: 3.922 (Simulation time: 00 hr 01 min 01 sec)
Heartbeat CPU 0 instructions: 21500090 cycles: 5513732 heartbeat IPC: 3.128 cumulative IPC: 3.899 (Simulation time: 00 hr 01 min 03 sec)
Heartbeat CPU 0 instructions: 22000090 cycles: 5672039 heartbeat IPC: 3.158 cumulative IPC: 3.879 (Simulation time: 00 hr 01 min 04 sec)
Heartbeat CPU 0 instructions: 22500091 cycles: 5829779 heartbeat IPC: 3.17 cumulative IPC: 3.86 (Simulation time: 00 hr 01 min 06 sec)
Heartbeat CPU 0 instructions: 23000091 cycles: 5984287 heartbeat IPC: 3.236 cumulative IPC: 3.843 (Simulation time: 00 hr 01 min 07 sec)
Heartbeat CPU 0 instructions: 23500093 cycles: 6140034 heartbeat IPC: 3.21 cumulative IPC: 3.827 (Simulation time: 00 hr 01 min 09 sec)
Heartbeat CPU 0 instructions: 24000098 cycles: 6295796 heartbeat IPC: 3.21 cumulative IPC: 3.812 (Simulation time: 00 hr 01 min 10 sec)
Heartbeat CPU 0 instructions: 24500103 cycles: 6450544 heartbeat IPC: 3.231 cumulative IPC: 3.798 (Simulation time: 00 hr 01 min 12 sec)
Heartbeat CPU 0 instructions: 25000108 cycles: 6604859 heartbeat IPC: 3.24 cumulative IPC: 3.785 (Simulation time: 00 hr 01 min 13 sec)
Heartbeat CPU 0 instructions: 25500110 cycles: 6758604 heartbeat IPC: 3.252 cumulative IPC: 3.773 (Simulation time: 00 hr 01 min 15 sec)
Heartbeat CPU 0 instructions: 26000117 cycles: 6911943 heartbeat IPC: 3.261 cumulative IPC: 3.762 (Simulation time: 00 hr 01 min 17 sec)
Heartbeat CPU 0 instructions: 26500120 cycles: 7065401 heartbeat IPC: 3.258 cumulative IPC: 3.751 (Simulation time: 00 hr 01 min 18 sec)
Heartbeat CPU 0 instructions: 27000122 cycles: 7218873 heartbeat IPC: 3.258 cumulative IPC: 3.74 (Simulation time: 00 hr 01 min 20 sec)
Heartbeat CPU 0 instructions: 27500123 cycles: 7373319 heartbeat IPC: 3.237 cumulative IPC: 3.73 (Simulation time: 00 hr 01 min 21 sec)
Heartbeat CPU 0 instructions: 28000125 cycles: 7527604 heartbeat IPC: 3.241 cumulative IPC: 3.72 (Simulation time: 00 hr 01 min 23 sec)
Heartbeat CPU 0 instructions: 28500126 cycles: 7682046 heartbeat IPC: 3.237 cumulative IPC: 3.71 (Simulation time: 00 hr 01 min 24 sec)
Heartbeat CPU 0 instructions: 29000129 cycles: 7835133 heartbeat IPC: 3.266 cumulative IPC: 3.701 (Simulation time: 00 hr 01 min 26 sec)
Heartbeat CPU 0 instructions: 29500131 cycles: 7988766 heartbeat IPC: 3.255 cumulative IPC: 3.693 (Simulation time: 00 hr 01 min 27 sec)
Heartbeat CPU 0 instructions: 30000136 cycles: 8141435 heartbeat IPC: 3.275 cumulative IPC: 3.685 (Simulation time: 00 hr 01 min 29 sec)
Heartbeat CPU 0 instructions: 30500141 cycles: 8294654 heartbeat IPC: 3.263 cumulative IPC: 3.677 (Simulation time: 00 hr 01 min 30 sec)
Heartbeat CPU 0 instructions: 31000146 cycles: 8447676 heartbeat IPC: 3.268 cumulative IPC: 3.67 (Simulation time: 00 hr 01 min 32 sec)
Heartbeat CPU 0 instructions: 31500150 cycles: 8599546 heartbeat IPC: 3.292 cumulative IPC: 3.663 (Simulation time: 00 hr 01 min 33 sec)
Heartbeat CPU 0 instructions: 32000152 cycles: 8751871 heartbeat IPC: 3.282 cumulative IPC: 3.656 (Simulation time: 00 hr 01 min 35 sec)
Heartbeat CPU 0 instructions: 32500154 cycles: 8903574 heartbeat IPC: 3.296 cumulative IPC: 3.65 (Simulation time: 00 hr 01 min 36 sec)
Heartbeat CPU 0 instructions: 33000161 cycles: 9054751 heartbeat IPC: 3.307 cumulative IPC: 3.645 (Simulation time: 00 hr 01 min 38 sec)
Heartbeat CPU 0 instructions: 33500166 cycles: 9206895 heartbeat IPC: 3.286 cumulative IPC: 3.639 (Simulation time: 00 hr 01 min 39 sec)
Heartbeat CPU 0 instructions: 34000168 cycles: 9358052 heartbeat IPC: 3.308 cumulative IPC: 3.633 (Simulation time: 00 hr 01 min 41 sec)
Heartbeat CPU 0 instructions: 34500170 cycles: 9508773 heartbeat IPC: 3.317 cumulative IPC: 3.628 (Simulation time: 00 hr 01 min 42 sec)
Heartbeat CPU 0 instructions: 35000171 cycles: 9659708 heartbeat IPC: 3.313 cumulative IPC: 3.623 (Simulation time: 00 hr 01 min 44 sec)
Heartbeat CPU 0 instructions: 35500173 cycles: 9810457 heartbeat IPC: 3.317 cumulative IPC: 3.619 (Simulation time: 00 hr 01 min 45 sec)
Heartbeat CPU 0 instructions: 36000175 cycles: 9961166 heartbeat IPC: 3.318 cumulative IPC: 3.614 (Simulation time: 00 hr 01 min 47 sec)
Heartbeat CPU 0 instructions: 36500179 cycles: 10113316 heartbeat IPC: 3.286 cumulative IPC: 3.609 (Simulation time: 00 hr 01 min 48 sec)
Heartbeat CPU 0 instructions: 37000181 cycles: 10266611 heartbeat IPC: 3.262 cumulative IPC: 3.604 (Simulation time: 00 hr 01 min 50 sec)
Heartbeat CPU 0 instructions: 37500185 cycles: 10422431 heartbeat IPC: 3.209 cumulative IPC: 3.598 (Simulation time: 00 hr 01 min 51 sec)
Heartbeat CPU 0 instructions: 38000186 cycles: 10583262 heartbeat IPC: 3.109 cumulative IPC: 3.591 (Simulation time: 00 hr 01 min 53 sec)
Heartbeat CPU 0 instructions: 38500188 cycles: 10957392 heartbeat IPC: 1.336 cumulative IPC: 3.514 (Simulation time: 00 hr 01 min 58 sec)
Heartbeat CPU 0 instructions: 39000195 cycles: 11295788 heartbeat IPC: 1.478 cumulative IPC: 3.453 (Simulation time: 00 hr 02 min 03 sec)
Heartbeat CPU 0 instructions: 39500201 cycles: 11612149 heartbeat IPC: 1.58 cumulative IPC: 3.402 (Simulation time: 00 hr 02 min 08 sec)
Heartbeat CPU 0 instructions: 40000204 cycles: 11920887 heartbeat IPC: 1.62 cumulative IPC: 3.355 (Simulation time: 00 hr 02 min 12 sec)
Heartbeat CPU 0 instructions: 40500204 cycles: 12221366 heartbeat IPC: 1.664 cumulative IPC: 3.314 (Simulation time: 00 hr 02 min 17 sec)
Heartbeat CPU 0 instructions: 41000211 cycles: 12524307 heartbeat IPC: 1.651 cumulative IPC: 3.274 (Simulation time: 00 hr 02 min 21 sec)
Heartbeat CPU 0 instructions: 41500211 cycles: 12826301 heartbeat IPC: 1.656 cumulative IPC: 3.236 (Simulation time: 00 hr 02 min 26 sec)
Heartbeat CPU 0 instructions: 42000214 cycles: 13123977 heartbeat IPC: 1.68 cumulative IPC: 3.2 (Simulation time: 00 hr 02 min 30 sec)
Heartbeat CPU 0 instructions: 42500216 cycles: 13419742 heartbeat IPC: 1.691 cumulative IPC: 3.167 (Simulation time: 00 hr 02 min 35 sec)
Heartbeat CPU 0 instructions: 43000220 cycles: 13713788 heartbeat IPC: 1.7 cumulative IPC: 3.136 (Simulation time: 00 hr 02 min 39 sec)
Heartbeat CPU 0 instructions: 43500226 cycles: 14008424 heartbeat IPC: 1.697 cumulative IPC: 3.105 (Simulation time: 00 hr 02 min 43 sec)
Heartbeat CPU 0 instructions: 44000228 cycles: 14296096 heartbeat IPC: 1.738 cumulative IPC: 3.078 (Simulation time: 00 hr 02 min 48 sec)
Heartbeat CPU 0 instructions: 44500233 cycles: 14585807 heartbeat IPC: 1.726 cumulative IPC: 3.051 (Simulation time: 00 hr 02 min 52 sec)
Heartbeat CPU 0 instructions: 45000237 cycles: 14883308 heartbeat IPC: 1.681 cumulative IPC: 3.024 (Simulation time: 00 hr 02 min 56 sec)
Heartbeat CPU 0 instructions: 45500239 cycles: 15117657 heartbeat IPC: 2.134 cumulative IPC: 3.01 (Simulation time: 00 hr 03 min 00 sec)
Heartbeat CPU 0 instructions: 46000240 cycles: 15220733 heartbeat IPC: 4.851 cumulative IPC: 3.022 (Simulation time: 00 hr 03 min 01 sec)
Heartbeat CPU 0 instructions: 46500242 cycles: 15329448 heartbeat IPC: 4.599 cumulative IPC: 3.033 (Simulation time: 00 hr 03 min 03 sec)
Heartbeat CPU 0 instructions: 47000247 cycles: 15438721 heartbeat IPC: 4.576 cumulative IPC: 3.044 (Simulation time: 00 hr 03 min 05 sec)
Heartbeat CPU 0 instructions: 47500249 cycles: 15547964 heartbeat IPC: 4.577 cumulative IPC: 3.055 (Simulation time: 00 hr 03 min 07 sec)
Heartbeat CPU 0 instructions: 48000254 cycles: 15657472 heartbeat IPC: 4.566 cumulative IPC: 3.066 (Simulation time: 00 hr 03 min 09 sec)
Heartbeat CPU 0 instructions: 48500261 cycles: 15767064 heartbeat IPC: 4.562 cumulative IPC: 3.076 (Simulation time: 00 hr 03 min 11 sec)
Heartbeat CPU 0 instructions: 49000261 cycles: 15876593 heartbeat IPC: 4.565 cumulative IPC: 3.086 (Simulation time: 00 hr 03 min 13 sec)
Heartbeat CPU 0 instructions: 49500267 cycles: 15985769 heartbeat IPC: 4.58 cumulative IPC: 3.097 (Simulation time: 00 hr 03 min 15 sec)
Warmup halting CPU 0 at instruction 50000002 cycle 16094449 for remainder of phase
Warmup finished CPU 0 instructions: 50000002 cycles: 16094449 cumulative IPC: 3.107 (Simulation time: 00 hr 03 min 16 sec)
Warmup complete CPU 0 instructions: 50000002 cycles: 16094449 cumulative IPC: 3.107 (Simulation time: 00 hr 03 min 16 sec)
Heartbeat CPU 0 instructions: 50000268 cycles: 16094668 heartbeat IPC: 4.591 cumulative IPC: 1.215 (Simulation time: 00 hr 03 min 16 sec)
Heartbeat CPU 0 instructions: 50500273 cycles: 16473581 heartbeat IPC: 1.32 cumulative IPC: 1.32 (Simulation time: 00 hr 03 min 20 sec)
Heartbeat CPU 0 instructions: 51000277 cycles: 16752442 heartbeat IPC: 1.793 cumulative IPC: 1.52 (Simulation time: 00 hr 03 min 23 sec)
Heartbeat CPU 0 instructions: 51500279 cycles: 17024842 heartbeat IPC: 1.836 cumulative IPC: 1.613 (Simulation time: 00 hr 03 min 26 sec)
Heartbeat CPU 0 instructions: 52000280 cycles: 17298368 heartbeat IPC: 1.828 cumulative IPC: 1.661 (Simulation time: 00 hr 03 min 29 sec)
Heartbeat CPU 0 instructions: 52500281 cycles: 17564814 heartbeat IPC: 1.877 cumulative IPC: 1.7 (Simulation time: 00 hr 03 min 32 sec)
Heartbeat CPU 0 instructions: 53000282 cycles: 17831444 heartbeat IPC: 1.875 cumulative IPC: 1.727 (Simulation time: 00 hr 03 min 36 sec)
Heartbeat CPU 0 instructions: 53500283 cycles: 18108168 heartbeat IPC: 1.807 cumulative IPC: 1.738 (Simulation time: 00 hr 03 min 39 sec)
Heartbeat CPU 0 instructions: 54000283 cycles: 18386402 heartbeat IPC: 1.797 cumulative IPC: 1.745 (Simulation time: 00 hr 03 min 42 sec)
Heartbeat CPU 0 instructions: 54500285 cycles: 18662723 heartbeat IPC: 1.809 cumulative IPC: 1.752 (Simulation time: 00 hr 03 min 45 sec)
Heartbeat CPU 0 instructions: 55000289 cycles: 18942439 heartbeat IPC: 1.788 cumulative IPC: 1.756 (Simulation time: 00 hr 03 min 49 sec)
Heartbeat CPU 0 instructions: 55500290 cycles: 19218103 heartbeat IPC: 1.814 cumulative IPC: 1.761 (Simulation time: 00 hr 03 min 52 sec)
Heartbeat CPU 0 instructions: 56000291 cycles: 19497067 heartbeat IPC: 1.792 cumulative IPC: 1.763 (Simulation time: 00 hr 03 min 55 sec)
Heartbeat CPU 0 instructions: 56500292 cycles: 19774027 heartbeat IPC: 1.805 cumulative IPC: 1.767 (Simulation time: 00 hr 03 min 58 sec)
Heartbeat CPU 0 instructions: 57000296 cycles: 20062428 heartbeat IPC: 1.734 cumulative IPC: 1.764 (Simulation time: 00 hr 04 min 02 sec)
Heartbeat CPU 0 instructions: 57500297 cycles: 20423536 heartbeat IPC: 1.385 cumulative IPC: 1.733 (Simulation time: 00 hr 04 min 05 sec)
Heartbeat CPU 0 instructions: 58000300 cycles: 20750545 heartbeat IPC: 1.529 cumulative IPC: 1.718 (Simulation time: 00 hr 04 min 09 sec)
Heartbeat CPU 0 instructions: 58500300 cycles: 21048493 heartbeat IPC: 1.678 cumulative IPC: 1.716 (Simulation time: 00 hr 04 min 12 sec)
Heartbeat CPU 0 instructions: 59000302 cycles: 21354879 heartbeat IPC: 1.632 cumulative IPC: 1.711 (Simulation time: 00 hr 04 min 16 sec)
Heartbeat CPU 0 instructions: 59500306 cycles: 21700793 heartbeat IPC: 1.445 cumulative IPC: 1.695 (Simulation time: 00 hr 04 min 20 sec)
Heartbeat CPU 0 instructions: 60000308 cycles: 22048212 heartbeat IPC: 1.439 cumulative IPC: 1.68 (Simulation time: 00 hr 04 min 23 sec)
Heartbeat CPU 0 instructions: 60500309 cycles: 22403520 heartbeat IPC: 1.407 cumulative IPC: 1.664 (Simulation time: 00 hr 04 min 27 sec)
Heartbeat CPU 0 instructions: 61000309 cycles: 22742979 heartbeat IPC: 1.473 cumulative IPC: 1.655 (Simulation time: 00 hr 04 min 31 sec)
Heartbeat CPU 0 instructions: 61500311 cycles: 23079590 heartbeat IPC: 1.485 cumulative IPC: 1.646 (Simulation time: 00 hr 04 min 35 sec)
Heartbeat CPU 0 instructions: 62000314 cycles: 23435814 heartbeat IPC: 1.404 cumulative IPC: 1.635 (Simulation time: 00 hr 04 min 39 sec)
Heartbeat CPU 0 instructions: 62500316 cycles: 23768189 heartbeat IPC: 1.504 cumulative IPC: 1.629 (Simulation time: 00 hr 04 min 43 sec)
Heartbeat CPU 0 instructions: 63000317 cycles: 24108520 heartbeat IPC: 1.469 cumulative IPC: 1.622 (Simulation time: 00 hr 04 min 46 sec)
Heartbeat CPU 0 instructions: 63500317 cycles: 24456664 heartbeat IPC: 1.436 cumulative IPC: 1.614 (Simulation time: 00 hr 04 min 50 sec)
Heartbeat CPU 0 instructions: 64000319 cycles: 24812669 heartbeat IPC: 1.404 cumulative IPC: 1.606 (Simulation time: 00 hr 04 min 54 sec)
Heartbeat CPU 0 instructions: 64500320 cycles: 25185504 heartbeat IPC: 1.341 cumulative IPC: 1.595 (Simulation time: 00 hr 04 min 58 sec)
Heartbeat CPU 0 instructions: 65000324 cycles: 25554363 heartbeat IPC: 1.356 cumulative IPC: 1.586 (Simulation time: 00 hr 05 min 02 sec)
Heartbeat CPU 0 instructions: 65500324 cycles: 25965218 heartbeat IPC: 1.217 cumulative IPC: 1.57 (Simulation time: 00 hr 05 min 07 sec)
Heartbeat CPU 0 instructions: 66000325 cycles: 26352561 heartbeat IPC: 1.291 cumulative IPC: 1.56 (Simulation time: 00 hr 05 min 11 sec)
Heartbeat CPU 0 instructions: 66500326 cycles: 26758155 heartbeat IPC: 1.233 cumulative IPC: 1.547 (Simulation time: 00 hr 05 min 15 sec)
Heartbeat CPU 0 instructions: 67000327 cycles: 27108363 heartbeat IPC: 1.428 cumulative IPC: 1.544 (Simulation time: 00 hr 05 min 19 sec)
Heartbeat CPU 0 instructions: 67500328 cycles: 27475899 heartbeat IPC: 1.36 cumulative IPC: 1.538 (Simulation time: 00 hr 05 min 23 sec)
Heartbeat CPU 0 instructions: 68000329 cycles: 27845040 heartbeat IPC: 1.354 cumulative IPC: 1.532 (Simulation time: 00 hr 05 min 27 sec)
Heartbeat CPU 0 instructions: 68500331 cycles: 28248350 heartbeat IPC: 1.24 cumulative IPC: 1.522 (Simulation time: 00 hr 05 min 32 sec)
Heartbeat CPU 0 instructions: 69000337 cycles: 28648320 heartbeat IPC: 1.25 cumulative IPC: 1.514 (Simulation time: 00 hr 05 min 36 sec)
Heartbeat CPU 0 instructions: 69500338 cycles: 29036235 heartbeat IPC: 1.289 cumulative IPC: 1.507 (Simulation time: 00 hr 05 min 40 sec)
Heartbeat CPU 0 instructions: 70000345 cycles: 29416615 heartbeat IPC: 1.314 cumulative IPC: 1.501 (Simulation time: 00 hr 05 min 44 sec)
Heartbeat CPU 0 instructions: 70500346 cycles: 29809206 heartbeat IPC: 1.274 cumulative IPC: 1.495 (Simulation time: 00 hr 05 min 49 sec)
Heartbeat CPU 0 instructions: 71000347 cycles: 30212932 heartbeat IPC: 1.238 cumulative IPC: 1.487 (Simulation time: 00 hr 05 min 53 sec)
Heartbeat CPU 0 instructions: 71500351 cycles: 30632759 heartbeat IPC: 1.191 cumulative IPC: 1.479 (Simulation time: 00 hr 05 min 58 sec)
Heartbeat CPU 0 instructions: 72000353 cycles: 31048486 heartbeat IPC: 1.203 cumulative IPC: 1.471 (Simulation time: 00 hr 06 min 02 sec)
Heartbeat CPU 0 instructions: 72500360 cycles: 31491856 heartbeat IPC: 1.128 cumulative IPC: 1.461 (Simulation time: 00 hr 06 min 06 sec)
Heartbeat CPU 0 instructions: 73000360 cycles: 31905307 heartbeat IPC: 1.209 cumulative IPC: 1.455 (Simulation time: 00 hr 06 min 11 sec)
Heartbeat CPU 0 instructions: 73500361 cycles: 32309170 heartbeat IPC: 1.238 cumulative IPC: 1.449 (Simulation time: 00 hr 06 min 15 sec)
Heartbeat CPU 0 instructions: 74000362 cycles: 32724662 heartbeat IPC: 1.203 cumulative IPC: 1.443 (Simulation time: 00 hr 06 min 20 sec)
Heartbeat CPU 0 instructions: 74500363 cycles: 33175789 heartbeat IPC: 1.108 cumulative IPC: 1.434 (Simulation time: 00 hr 06 min 24 sec)
Heartbeat CPU 0 instructions: 75000364 cycles: 33642850 heartbeat IPC: 1.071 cumulative IPC: 1.425 (Simulation time: 00 hr 06 min 29 sec)
Heartbeat CPU 0 instructions: 75500364 cycles: 34068252 heartbeat IPC: 1.175 cumulative IPC: 1.419 (Simulation time: 00 hr 06 min 34 sec)
Heartbeat CPU 0 instructions: 76000366 cycles: 34485053 heartbeat IPC: 1.2 cumulative IPC: 1.414 (Simulation time: 00 hr 06 min 38 sec)
Heartbeat CPU 0 instructions: 76500370 cycles: 34923810 heartbeat IPC: 1.14 cumulative IPC: 1.407 (Simulation time: 00 hr 06 min 43 sec)
Heartbeat CPU 0 instructions: 77000370 cycles: 35343808 heartbeat IPC: 1.19 cumulative IPC: 1.403 (Simulation time: 00 hr 06 min 47 sec)
Heartbeat CPU 0 instructions: 77500377 cycles: 35806703 heartbeat IPC: 1.08 cumulative IPC: 1.395 (Simulation time: 00 hr 06 min 52 sec)
Heartbeat CPU 0 instructions: 78000378 cycles: 36281461 heartbeat IPC: 1.053 cumulative IPC: 1.387 (Simulation time: 00 hr 06 min 57 sec)
Heartbeat CPU 0 instructions: 78500379 cycles: 36771806 heartbeat IPC: 1.02 cumulative IPC: 1.378 (Simulation time: 00 hr 07 min 02 sec)
Heartbeat CPU 0 instructions: 79000380 cycles: 37256460 heartbeat IPC: 1.032 cumulative IPC: 1.37 (Simulation time: 00 hr 07 min 07 sec)
Heartbeat CPU 0 instructions: 79500381 cycles: 37745764 heartbeat IPC: 1.022 cumulative IPC: 1.363 (Simulation time: 00 hr 07 min 12 sec)
Heartbeat CPU 0 instructions: 80000383 cycles: 38290626 heartbeat IPC: 0.9177 cumulative IPC: 1.352 (Simulation time: 00 hr 07 min 17 sec)
Heartbeat CPU 0 instructions: 80500389 cycles: 38788161 heartbeat IPC: 1.005 cumulative IPC: 1.344 (Simulation time: 00 hr 07 min 22 sec)
Heartbeat CPU 0 instructions: 81000390 cycles: 39233873 heartbeat IPC: 1.122 cumulative IPC: 1.34 (Simulation time: 00 hr 07 min 26 sec)
Heartbeat CPU 0 instructions: 81500391 cycles: 39660309 heartbeat IPC: 1.173 cumulative IPC: 1.337 (Simulation time: 00 hr 07 min 30 sec)
Heartbeat CPU 0 instructions: 82000396 cycles: 40067839 heartbeat IPC: 1.227 cumulative IPC: 1.335 (Simulation time: 00 hr 07 min 34 sec)
Heartbeat CPU 0 instructions: 82500398 cycles: 40523007 heartbeat IPC: 1.098 cumulative IPC: 1.33 (Simulation time: 00 hr 07 min 38 sec)
Heartbeat CPU 0 instructions: 83000402 cycles: 41037186 heartbeat IPC: 0.9724 cumulative IPC: 1.323 (Simulation time: 00 hr 07 min 43 sec)
Heartbeat CPU 0 instructions: 83500408 cycles: 41562010 heartbeat IPC: 0.9527 cumulative IPC: 1.315 (Simulation time: 00 hr 07 min 48 sec)
Heartbeat CPU 0 instructions: 84000408 cycles: 42094257 heartbeat IPC: 0.9394 cumulative IPC: 1.308 (Simulation time: 00 hr 07 min 53 sec)
Heartbeat CPU 0 instructions: 84500409 cycles: 42648600 heartbeat IPC: 0.902 cumulative IPC: 1.299 (Simulation time: 00 hr 07 min 58 sec)
Heartbeat CPU 0 instructions: 85000410 cycles: 43216028 heartbeat IPC: 0.8812 cumulative IPC: 1.291 (Simulation time: 00 hr 08 min 04 sec)
Heartbeat CPU 0 instructions: 85500410 cycles: 43738133 heartbeat IPC: 0.9577 cumulative IPC: 1.284 (Simulation time: 00 hr 08 min 09 sec)
Heartbeat CPU 0 instructions: 86000411 cycles: 44304998 heartbeat IPC: 0.882 cumulative IPC: 1.276 (Simulation time: 00 hr 08 min 14 sec)
Heartbeat CPU 0 instructions: 86500412 cycles: 44872624 heartbeat IPC: 0.8809 cumulative IPC: 1.268 (Simulation time: 00 hr 08 min 19 sec)
Heartbeat CPU 0 instructions: 87000416 cycles: 45392626 heartbeat IPC: 0.9615 cumulative IPC: 1.263 (Simulation time: 00 hr 08 min 24 sec)
Heartbeat CPU 0 instructions: 87500417 cycles: 45826591 heartbeat IPC: 1.152 cumulative IPC: 1.261 (Simulation time: 00 hr 08 min 28 sec)
Heartbeat CPU 0 instructions: 88000419 cycles: 46283602 heartbeat IPC: 1.094 cumulative IPC: 1.259 (Simulation time: 00 hr 08 min 33 sec)
Heartbeat CPU 0 instructions: 88500422 cycles: 46737400 heartbeat IPC: 1.102 cumulative IPC: 1.256 (Simulation time: 00 hr 08 min 37 sec)
Heartbeat CPU 0 instructions: 89000423 cycles: 47246576 heartbeat IPC: 0.982 cumulative IPC: 1.252 (Simulation time: 00 hr 08 min 42 sec)
Heartbeat CPU 0 instructions: 89500427 cycles: 47729187 heartbeat IPC: 1.036 cumulative IPC: 1.249 (Simulation time: 00 hr 08 min 47 sec)
Heartbeat CPU 0 instructions: 90000428 cycles: 48169853 heartbeat IPC: 1.135 cumulative IPC: 1.247 (Simulation time: 00 hr 08 min 51 sec)
Heartbeat CPU 0 instructions: 90500434 cycles: 48546425 heartbeat IPC: 1.328 cumulative IPC: 1.248 (Simulation time: 00 hr 08 min 55 sec)
Heartbeat CPU 0 instructions: 91000438 cycles: 49014127 heartbeat IPC: 1.069 cumulative IPC: 1.245 (Simulation time: 00 hr 09 min 00 sec)
Heartbeat CPU 0 instructions: 91500440 cycles: 49454202 heartbeat IPC: 1.136 cumulative IPC: 1.244 (Simulation time: 00 hr 09 min 04 sec)
Heartbeat CPU 0 instructions: 92000441 cycles: 49901721 heartbeat IPC: 1.117 cumulative IPC: 1.242 (Simulation time: 00 hr 09 min 08 sec)
Heartbeat CPU 0 instructions: 92500441 cycles: 50374610 heartbeat IPC: 1.057 cumulative IPC: 1.24 (Simulation time: 00 hr 09 min 13 sec)
Heartbeat CPU 0 instructions: 93000442 cycles: 50875498 heartbeat IPC: 0.9982 cumulative IPC: 1.236 (Simulation time: 00 hr 09 min 17 sec)
Heartbeat CPU 0 instructions: 93500446 cycles: 51378077 heartbeat IPC: 0.9949 cumulative IPC: 1.233 (Simulation time: 00 hr 09 min 22 sec)
Heartbeat CPU 0 instructions: 94000452 cycles: 51846467 heartbeat IPC: 1.067 cumulative IPC: 1.231 (Simulation time: 00 hr 09 min 27 sec)
Heartbeat CPU 0 instructions: 94500452 cycles: 52272399 heartbeat IPC: 1.174 cumulative IPC: 1.23 (Simulation time: 00 hr 09 min 31 sec)
Heartbeat CPU 0 instructions: 95000454 cycles: 52743101 heartbeat IPC: 1.062 cumulative IPC: 1.228 (Simulation time: 00 hr 09 min 35 sec)
Heartbeat CPU 0 instructions: 95500455 cycles: 53243622 heartbeat IPC: 0.999 cumulative IPC: 1.225 (Simulation time: 00 hr 09 min 40 sec)
Heartbeat CPU 0 instructions: 96000455 cycles: 53751036 heartbeat IPC: 0.9854 cumulative IPC: 1.222 (Simulation time: 00 hr 09 min 45 sec)
Heartbeat CPU 0 instructions: 96500456 cycles: 54302120 heartbeat IPC: 0.9073 cumulative IPC: 1.217 (Simulation time: 00 hr 09 min 50 sec)
Heartbeat CPU 0 instructions: 97000457 cycles: 54843587 heartbeat IPC: 0.9234 cumulative IPC: 1.213 (Simulation time: 00 hr 09 min 55 sec)
Heartbeat CPU 0 instructions: 97500458 cycles: 55378944 heartbeat IPC: 0.934 cumulative IPC: 1.209 (Simulation time: 00 hr 10 min 00 sec)
Heartbeat CPU 0 instructions: 98000458 cycles: 55916940 heartbeat IPC: 0.9294 cumulative IPC: 1.205 (Simulation time: 00 hr 10 min 05 sec)
Heartbeat CPU 0 instructions: 98500460 cycles: 56463471 heartbeat IPC: 0.9149 cumulative IPC: 1.201 (Simulation time: 00 hr 10 min 10 sec)
Heartbeat CPU 0 instructions: 99000461 cycles: 57039628 heartbeat IPC: 0.8678 cumulative IPC: 1.197 (Simulation time: 00 hr 10 min 16 sec)
Heartbeat CPU 0 instructions: 99500462 cycles: 57570727 heartbeat IPC: 0.9414 cumulative IPC: 1.193 (Simulation time: 00 hr 10 min 21 sec)
Heartbeat CPU 0 instructions: 100000465 cycles: 58037397 heartbeat IPC: 1.071 cumulative IPC: 1.192 (Simulation time: 00 hr 10 min 25 sec)
Heartbeat CPU 0 instructions: 100500472 cycles: 58557683 heartbeat IPC: 0.961 cumulative IPC: 1.189 (Simulation time: 00 hr 10 min 30 sec)
Heartbeat CPU 0 instructions: 101000473 cycles: 59066019 heartbeat IPC: 0.9836 cumulative IPC: 1.187 (Simulation time: 00 hr 10 min 35 sec)
Heartbeat CPU 0 instructions: 101500480 cycles: 59518647 heartbeat IPC: 1.105 cumulative IPC: 1.186 (Simulation time: 00 hr 10 min 39 sec)
Heartbeat CPU 0 instructions: 102000481 cycles: 60008968 heartbeat IPC: 1.02 cumulative IPC: 1.184 (Simulation time: 00 hr 10 min 44 sec)
Heartbeat CPU 0 instructions: 102500485 cycles: 60513974 heartbeat IPC: 0.9901 cumulative IPC: 1.182 (Simulation time: 00 hr 10 min 49 sec)
Heartbeat CPU 0 instructions: 103000487 cycles: 61042611 heartbeat IPC: 0.9458 cumulative IPC: 1.179 (Simulation time: 00 hr 10 min 54 sec)
Heartbeat CPU 0 instructions: 103500487 cycles: 61548063 heartbeat IPC: 0.9892 cumulative IPC: 1.177 (Simulation time: 00 hr 10 min 59 sec)
Heartbeat CPU 0 instructions: 104000487 cycles: 62029958 heartbeat IPC: 1.038 cumulative IPC: 1.176 (Simulation time: 00 hr 11 min 04 sec)
Heartbeat CPU 0 instructions: 104500487 cycles: 62564626 heartbeat IPC: 0.9352 cumulative IPC: 1.173 (Simulation time: 00 hr 11 min 09 sec)
Heartbeat CPU 0 instructions: 105000494 cycles: 63097188 heartbeat IPC: 0.9389 cumulative IPC: 1.17 (Simulation time: 00 hr 11 min 14 sec)
Heartbeat CPU 0 instructions: 105500494 cycles: 63623624 heartbeat IPC: 0.9498 cumulative IPC: 1.168 (Simulation time: 00 hr 11 min 19 sec)
Heartbeat CPU 0 instructions: 106000496 cycles: 64188304 heartbeat IPC: 0.8855 cumulative IPC: 1.164 (Simulation time: 00 hr 11 min 24 sec)
Heartbeat CPU 0 instructions: 106500496 cycles: 64757363 heartbeat IPC: 0.8786 cumulative IPC: 1.161 (Simulation time: 00 hr 11 min 30 sec)
Heartbeat CPU 0 instructions: 107000497 cycles: 65214638 heartbeat IPC: 1.093 cumulative IPC: 1.16 (Simulation time: 00 hr 11 min 34 sec)
Heartbeat CPU 0 instructions: 107500499 cycles: 65687383 heartbeat IPC: 1.058 cumulative IPC: 1.159 (Simulation time: 00 hr 11 min 39 sec)
Heartbeat CPU 0 instructions: 108000499 cycles: 66235539 heartbeat IPC: 0.9121 cumulative IPC: 1.157 (Simulation time: 00 hr 11 min 44 sec)
Heartbeat CPU 0 instructions: 108500500 cycles: 66824447 heartbeat IPC: 0.849 cumulative IPC: 1.153 (Simulation time: 00 hr 11 min 50 sec)
Heartbeat CPU 0 instructions: 109000502 cycles: 67393589 heartbeat IPC: 0.8785 cumulative IPC: 1.15 (Simulation time: 00 hr 11 min 55 sec)
Heartbeat CPU 0 instructions: 109500504 cycles: 67856846 heartbeat IPC: 1.079 cumulative IPC: 1.149 (Simulation time: 00 hr 12 min 00 sec)
Heartbeat CPU 0 instructions: 110000505 cycles: 68377735 heartbeat IPC: 0.9599 cumulative IPC: 1.148 (Simulation time: 00 hr 12 min 05 sec)
Heartbeat CPU 0 instructions: 110500505 cycles: 68925389 heartbeat IPC: 0.913 cumulative IPC: 1.145 (Simulation time: 00 hr 12 min 10 sec)
Heartbeat CPU 0 instructions: 111000506 cycles: 69508493 heartbeat IPC: 0.8575 cumulative IPC: 1.142 (Simulation time: 00 hr 12 min 15 sec)
Heartbeat CPU 0 instructions: 111500506 cycles: 70055982 heartbeat IPC: 0.9133 cumulative IPC: 1.14 (Simulation time: 00 hr 12 min 21 sec)
Heartbeat CPU 0 instructions: 112000508 cycles: 70563754 heartbeat IPC: 0.9847 cumulative IPC: 1.138 (Simulation time: 00 hr 12 min 25 sec)
Heartbeat CPU 0 instructions: 112500509 cycles: 71104613 heartbeat IPC: 0.9245 cumulative IPC: 1.136 (Simulation time: 00 hr 12 min 30 sec)
Heartbeat CPU 0 instructions: 113000512 cycles: 71677308 heartbeat IPC: 0.8731 cumulative IPC: 1.133 (Simulation time: 00 hr 12 min 36 sec)
Heartbeat CPU 0 instructions: 113500513 cycles: 72223502 heartbeat IPC: 0.9154 cumulative IPC: 1.131 (Simulation time: 00 hr 12 min 41 sec)
Heartbeat CPU 0 instructions: 114000514 cycles: 72759851 heartbeat IPC: 0.9322 cumulative IPC: 1.129 (Simulation time: 00 hr 12 min 46 sec)
Heartbeat CPU 0 instructions: 114500516 cycles: 73320269 heartbeat IPC: 0.8922 cumulative IPC: 1.127 (Simulation time: 00 hr 12 min 51 sec)
Heartbeat CPU 0 instructions: 115000518 cycles: 73876819 heartbeat IPC: 0.8984 cumulative IPC: 1.125 (Simulation time: 00 hr 12 min 57 sec)
Heartbeat CPU 0 instructions: 115500519 cycles: 74553104 heartbeat IPC: 0.7393 cumulative IPC: 1.12 (Simulation time: 00 hr 13 min 03 sec)
Heartbeat CPU 0 instructions: 116000519 cycles: 75071472 heartbeat IPC: 0.9646 cumulative IPC: 1.119 (Simulation time: 00 hr 13 min 08 sec)
Heartbeat CPU 0 instructions: 116500519 cycles: 75601400 heartbeat IPC: 0.9435 cumulative IPC: 1.118 (Simulation time: 00 hr 13 min 13 sec)
Heartbeat CPU 0 instructions: 117000525 cycles: 76118649 heartbeat IPC: 0.9667 cumulative IPC: 1.116 (Simulation time: 00 hr 13 min 19 sec)
Heartbeat CPU 0 instructions: 117500525 cycles: 76731145 heartbeat IPC: 0.8163 cumulative IPC: 1.113 (Simulation time: 00 hr 13 min 25 sec)
Heartbeat CPU 0 instructions: 118000525 cycles: 77346472 heartbeat IPC: 0.8126 cumulative IPC: 1.11 (Simulation time: 00 hr 13 min 32 sec)
Heartbeat CPU 0 instructions: 118500525 cycles: 77884407 heartbeat IPC: 0.9295 cumulative IPC: 1.109 (Simulation time: 00 hr 13 min 37 sec)
Heartbeat CPU 0 instructions: 119000527 cycles: 78406812 heartbeat IPC: 0.9571 cumulative IPC: 1.107 (Simulation time: 00 hr 13 min 43 sec)
Heartbeat CPU 0 instructions: 119500531 cycles: 78945999 heartbeat IPC: 0.9273 cumulative IPC: 1.106 (Simulation time: 00 hr 13 min 49 sec)
Heartbeat CPU 0 instructions: 120000532 cycles: 79513097 heartbeat IPC: 0.8817 cumulative IPC: 1.104 (Simulation time: 00 hr 13 min 55 sec)
Heartbeat CPU 0 instructions: 120500538 cycles: 80085564 heartbeat IPC: 0.8734 cumulative IPC: 1.102 (Simulation time: 00 hr 14 min 01 sec)
Heartbeat CPU 0 instructions: 121000538 cycles: 80667599 heartbeat IPC: 0.8591 cumulative IPC: 1.1 (Simulation time: 00 hr 14 min 07 sec)
Heartbeat CPU 0 instructions: 121500539 cycles: 81215244 heartbeat IPC: 0.913 cumulative IPC: 1.098 (Simulation time: 00 hr 14 min 12 sec)
Heartbeat CPU 0 instructions: 122000541 cycles: 81787593 heartbeat IPC: 0.8736 cumulative IPC: 1.096 (Simulation time: 00 hr 14 min 18 sec)
Heartbeat CPU 0 instructions: 122500547 cycles: 82317314 heartbeat IPC: 0.9439 cumulative IPC: 1.095 (Simulation time: 00 hr 14 min 23 sec)
Heartbeat CPU 0 instructions: 123000549 cycles: 82967759 heartbeat IPC: 0.7687 cumulative IPC: 1.092 (Simulation time: 00 hr 14 min 29 sec)
Heartbeat CPU 0 instructions: 123500550 cycles: 83360441 heartbeat IPC: 1.273 cumulative IPC: 1.093 (Simulation time: 00 hr 14 min 33 sec)
Heartbeat CPU 0 instructions: 124000551 cycles: 83799066 heartbeat IPC: 1.14 cumulative IPC: 1.093 (Simulation time: 00 hr 14 min 38 sec)
Heartbeat CPU 0 instructions: 124500552 cycles: 84231195 heartbeat IPC: 1.157 cumulative IPC: 1.093 (Simulation time: 00 hr 14 min 43 sec)
Heartbeat CPU 0 instructions: 125000553 cycles: 84706199 heartbeat IPC: 1.053 cumulative IPC: 1.093 (Simulation time: 00 hr 14 min 48 sec)
Heartbeat CPU 0 instructions: 125500555 cycles: 85210243 heartbeat IPC: 0.992 cumulative IPC: 1.092 (Simulation time: 00 hr 14 min 53 sec)
Heartbeat CPU 0 instructions: 126000559 cycles: 85743187 heartbeat IPC: 0.9382 cumulative IPC: 1.091 (Simulation time: 00 hr 14 min 58 sec)
Heartbeat CPU 0 instructions: 126500559 cycles: 86237027 heartbeat IPC: 1.012 cumulative IPC: 1.091 (Simulation time: 00 hr 15 min 03 sec)
Heartbeat CPU 0 instructions: 127000560 cycles: 86684103 heartbeat IPC: 1.118 cumulative IPC: 1.091 (Simulation time: 00 hr 15 min 07 sec)
Heartbeat CPU 0 instructions: 127500561 cycles: 87203286 heartbeat IPC: 0.9631 cumulative IPC: 1.09 (Simulation time: 00 hr 15 min 12 sec)
Heartbeat CPU 0 instructions: 128000561 cycles: 87734204 heartbeat IPC: 0.9418 cumulative IPC: 1.089 (Simulation time: 00 hr 15 min 18 sec)
Heartbeat CPU 0 instructions: 128500563 cycles: 88248409 heartbeat IPC: 0.9724 cumulative IPC: 1.088 (Simulation time: 00 hr 15 min 22 sec)
Heartbeat CPU 0 instructions: 129000564 cycles: 88786110 heartbeat IPC: 0.9299 cumulative IPC: 1.087 (Simulation time: 00 hr 15 min 28 sec)
Heartbeat CPU 0 instructions: 129500565 cycles: 89304892 heartbeat IPC: 0.9638 cumulative IPC: 1.086 (Simulation time: 00 hr 15 min 32 sec)
Heartbeat CPU 0 instructions: 130000567 cycles: 89817004 heartbeat IPC: 0.9764 cumulative IPC: 1.085 (Simulation time: 00 hr 15 min 37 sec)
Heartbeat CPU 0 instructions: 130500568 cycles: 90379868 heartbeat IPC: 0.8883 cumulative IPC: 1.084 (Simulation time: 00 hr 15 min 42 sec)
Heartbeat CPU 0 instructions: 131000568 cycles: 90949522 heartbeat IPC: 0.8777 cumulative IPC: 1.082 (Simulation time: 00 hr 15 min 48 sec)
Heartbeat CPU 0 instructions: 131500568 cycles: 91511207 heartbeat IPC: 0.8902 cumulative IPC: 1.081 (Simulation time: 00 hr 15 min 53 sec)
Heartbeat CPU 0 instructions: 132000572 cycles: 92092854 heartbeat IPC: 0.8596 cumulative IPC: 1.079 (Simulation time: 00 hr 15 min 59 sec)
Heartbeat CPU 0 instructions: 132500572 cycles: 92669766 heartbeat IPC: 0.8667 cumulative IPC: 1.077 (Simulation time: 00 hr 16 min 04 sec)
Heartbeat CPU 0 instructions: 133000574 cycles: 93221010 heartbeat IPC: 0.907 cumulative IPC: 1.076 (Simulation time: 00 hr 16 min 10 sec)
Heartbeat CPU 0 instructions: 133500574 cycles: 93766480 heartbeat IPC: 0.9166 cumulative IPC: 1.075 (Simulation time: 00 hr 16 min 15 sec)
Heartbeat CPU 0 instructions: 134000576 cycles: 94353293 heartbeat IPC: 0.8521 cumulative IPC: 1.073 (Simulation time: 00 hr 16 min 20 sec)
Heartbeat CPU 0 instructions: 134500579 cycles: 94892998 heartbeat IPC: 0.9264 cumulative IPC: 1.072 (Simulation time: 00 hr 16 min 26 sec)
Heartbeat CPU 0 instructions: 135000582 cycles: 95417783 heartbeat IPC: 0.9528 cumulative IPC: 1.072 (Simulation time: 00 hr 16 min 30 sec)
Heartbeat CPU 0 instructions: 135500582 cycles: 95962374 heartbeat IPC: 0.9181 cumulative IPC: 1.071 (Simulation time: 00 hr 16 min 35 sec)
Heartbeat CPU 0 instructions: 136000586 cycles: 96528718 heartbeat IPC: 0.8829 cumulative IPC: 1.069 (Simulation time: 00 hr 16 min 41 sec)
Heartbeat CPU 0 instructions: 136500586 cycles: 97082607 heartbeat IPC: 0.9027 cumulative IPC: 1.068 (Simulation time: 00 hr 16 min 46 sec)
Heartbeat CPU 0 instructions: 137000587 cycles: 97522261 heartbeat IPC: 1.137 cumulative IPC: 1.068 (Simulation time: 00 hr 16 min 50 sec)
Heartbeat CPU 0 instructions: 137500587 cycles: 97954996 heartbeat IPC: 1.155 cumulative IPC: 1.069 (Simulation time: 00 hr 16 min 55 sec)
Heartbeat CPU 0 instructions: 138000589 cycles: 98442121 heartbeat IPC: 1.026 cumulative IPC: 1.069 (Simulation time: 00 hr 16 min 59 sec)
Heartbeat CPU 0 instructions: 138500591 cycles: 98930964 heartbeat IPC: 1.023 cumulative IPC: 1.068 (Simulation time: 00 hr 17 min 04 sec)
Heartbeat CPU 0 instructions: 139000592 cycles: 99506210 heartbeat IPC: 0.8692 cumulative IPC: 1.067 (Simulation time: 00 hr 17 min 09 sec)
Heartbeat CPU 0 instructions: 139500593 cycles: 100112563 heartbeat IPC: 0.8246 cumulative IPC: 1.065 (Simulation time: 00 hr 17 min 15 sec)
Heartbeat CPU 0 instructions: 140000594 cycles: 100703665 heartbeat IPC: 0.8459 cumulative IPC: 1.064 (Simulation time: 00 hr 17 min 20 sec)
Heartbeat CPU 0 instructions: 140500595 cycles: 101276550 heartbeat IPC: 0.8728 cumulative IPC: 1.062 (Simulation time: 00 hr 17 min 26 sec)
Heartbeat CPU 0 instructions: 141000601 cycles: 101851959 heartbeat IPC: 0.869 cumulative IPC: 1.061 (Simulation time: 00 hr 17 min 31 sec)
Heartbeat CPU 0 instructions: 141500608 cycles: 102429631 heartbeat IPC: 0.8656 cumulative IPC: 1.06 (Simulation time: 00 hr 17 min 37 sec)
Heartbeat CPU 0 instructions: 142000610 cycles: 103081455 heartbeat IPC: 0.7671 cumulative IPC: 1.058 (Simulation time: 00 hr 17 min 43 sec)
Heartbeat CPU 0 instructions: 142500612 cycles: 103744441 heartbeat IPC: 0.7542 cumulative IPC: 1.055 (Simulation time: 00 hr 17 min 48 sec)
Heartbeat CPU 0 instructions: 143000613 cycles: 104408076 heartbeat IPC: 0.7534 cumulative IPC: 1.053 (Simulation time: 00 hr 17 min 54 sec)
Heartbeat CPU 0 instructions: 143500615 cycles: 105046102 heartbeat IPC: 0.7837 cumulative IPC: 1.051 (Simulation time: 00 hr 18 min 00 sec)
Heartbeat CPU 0 instructions: 144000616 cycles: 105744429 heartbeat IPC: 0.716 cumulative IPC: 1.049 (Simulation time: 00 hr 18 min 06 sec)
Heartbeat CPU 0 instructions: 144500617 cycles: 106352998 heartbeat IPC: 0.8216 cumulative IPC: 1.047 (Simulation time: 00 hr 18 min 12 sec)
Heartbeat CPU 0 instructions: 145000618 cycles: 106931948 heartbeat IPC: 0.8636 cumulative IPC: 1.046 (Simulation time: 00 hr 18 min 17 sec)
Heartbeat CPU 0 instructions: 145500619 cycles: 107508396 heartbeat IPC: 0.8674 cumulative IPC: 1.045 (Simulation time: 00 hr 18 min 22 sec)
Heartbeat CPU 0 instructions: 146000621 cycles: 107967690 heartbeat IPC: 1.089 cumulative IPC: 1.045 (Simulation time: 00 hr 18 min 27 sec)
Heartbeat CPU 0 instructions: 146500622 cycles: 108357970 heartbeat IPC: 1.281 cumulative IPC: 1.046 (Simulation time: 00 hr 18 min 30 sec)
Heartbeat CPU 0 instructions: 147000625 cycles: 108873894 heartbeat IPC: 0.9691 cumulative IPC: 1.045 (Simulation time: 00 hr 18 min 35 sec)
Heartbeat CPU 0 instructions: 147500626 cycles: 109471246 heartbeat IPC: 0.837 cumulative IPC: 1.044 (Simulation time: 00 hr 18 min 41 sec)
Heartbeat CPU 0 instructions: 148000628 cycles: 110074410 heartbeat IPC: 0.829 cumulative IPC: 1.043 (Simulation time: 00 hr 18 min 46 sec)
Heartbeat CPU 0 instructions: 148500630 cycles: 110691442 heartbeat IPC: 0.8103 cumulative IPC: 1.041 (Simulation time: 00 hr 18 min 52 sec)
Heartbeat CPU 0 instructions: 149000631 cycles: 111459647 heartbeat IPC: 0.6509 cumulative IPC: 1.038 (Simulation time: 00 hr 18 min 58 sec)
Heartbeat CPU 0 instructions: 149500636 cycles: 112076979 heartbeat IPC: 0.8099 cumulative IPC: 1.037 (Simulation time: 00 hr 19 min 04 sec)
Heartbeat CPU 0 instructions: 150000638 cycles: 112703957 heartbeat IPC: 0.7975 cumulative IPC: 1.035 (Simulation time: 00 hr 19 min 09 sec)
Heartbeat CPU 0 instructions: 150500638 cycles: 113265135 heartbeat IPC: 0.891 cumulative IPC: 1.034 (Simulation time: 00 hr 19 min 15 sec)
Heartbeat CPU 0 instructions: 151000638 cycles: 113874710 heartbeat IPC: 0.8202 cumulative IPC: 1.033 (Simulation time: 00 hr 19 min 20 sec)
Heartbeat CPU 0 instructions: 151500642 cycles: 114487256 heartbeat IPC: 0.8163 cumulative IPC: 1.032 (Simulation time: 00 hr 19 min 25 sec)
Heartbeat CPU 0 instructions: 152000642 cycles: 115122875 heartbeat IPC: 0.7866 cumulative IPC: 1.03 (Simulation time: 00 hr 19 min 31 sec)
Heartbeat CPU 0 instructions: 152500644 cycles: 115636352 heartbeat IPC: 0.9738 cumulative IPC: 1.03 (Simulation time: 00 hr 19 min 36 sec)
Heartbeat CPU 0 instructions: 153000645 cycles: 116239423 heartbeat IPC: 0.8291 cumulative IPC: 1.029 (Simulation time: 00 hr 19 min 41 sec)
Heartbeat CPU 0 instructions: 153500649 cycles: 116888679 heartbeat IPC: 0.7701 cumulative IPC: 1.027 (Simulation time: 00 hr 19 min 47 sec)
Heartbeat CPU 0 instructions: 154000649 cycles: 117497030 heartbeat IPC: 0.8219 cumulative IPC: 1.026 (Simulation time: 00 hr 19 min 53 sec)
Heartbeat CPU 0 instructions: 154500651 cycles: 118099523 heartbeat IPC: 0.8299 cumulative IPC: 1.024 (Simulation time: 00 hr 19 min 58 sec)
Heartbeat CPU 0 instructions: 155000651 cycles: 118725092 heartbeat IPC: 0.7993 cumulative IPC: 1.023 (Simulation time: 00 hr 20 min 04 sec)
Heartbeat CPU 0 instructions: 155500653 cycles: 119335780 heartbeat IPC: 0.8188 cumulative IPC: 1.022 (Simulation time: 00 hr 20 min 09 sec)
Heartbeat CPU 0 instructions: 156000655 cycles: 120069862 heartbeat IPC: 0.6811 cumulative IPC: 1.019 (Simulation time: 00 hr 20 min 16 sec)
Heartbeat CPU 0 instructions: 156500660 cycles: 120746445 heartbeat IPC: 0.739 cumulative IPC: 1.018 (Simulation time: 00 hr 20 min 22 sec)
Heartbeat CPU 0 instructions: 157000662 cycles: 121362243 heartbeat IPC: 0.812 cumulative IPC: 1.016 (Simulation time: 00 hr 20 min 27 sec)
Heartbeat CPU 0 instructions: 157500663 cycles: 121990923 heartbeat IPC: 0.7953 cumulative IPC: 1.015 (Simulation time: 00 hr 20 min 33 sec)
Heartbeat CPU 0 instructions: 158000663 cycles: 122702383 heartbeat IPC: 0.7028 cumulative IPC: 1.013 (Simulation time: 00 hr 20 min 39 sec)
Heartbeat CPU 0 instructions: 158500663 cycles: 123444187 heartbeat IPC: 0.674 cumulative IPC: 1.011 (Simulation time: 00 hr 20 min 45 sec)
Heartbeat CPU 0 instructions: 159000663 cycles: 124121464 heartbeat IPC: 0.7383 cumulative IPC: 1.009 (Simulation time: 00 hr 20 min 51 sec)
Heartbeat CPU 0 instructions: 159500665 cycles: 124781525 heartbeat IPC: 0.7575 cumulative IPC: 1.007 (Simulation time: 00 hr 20 min 57 sec)
Heartbeat CPU 0 instructions: 160000669 cycles: 125484238 heartbeat IPC: 0.7115 cumulative IPC: 1.006 (Simulation time: 00 hr 21 min 03 sec)
Heartbeat CPU 0 instructions: 160500670 cycles: 126190820 heartbeat IPC: 0.7076 cumulative IPC: 1.004 (Simulation time: 00 hr 21 min 09 sec)
Heartbeat CPU 0 instructions: 161000671 cycles: 126850812 heartbeat IPC: 0.7576 cumulative IPC: 1.002 (Simulation time: 00 hr 21 min 15 sec)
Heartbeat CPU 0 instructions: 161500671 cycles: 127564686 heartbeat IPC: 0.7004 cumulative IPC: 1 (Simulation time: 00 hr 21 min 21 sec)
Heartbeat CPU 0 instructions: 162000673 cycles: 128296068 heartbeat IPC: 0.6836 cumulative IPC: 0.9982 (Simulation time: 00 hr 21 min 28 sec)
Heartbeat CPU 0 instructions: 162500675 cycles: 129058428 heartbeat IPC: 0.6559 cumulative IPC: 0.9959 (Simulation time: 00 hr 21 min 34 sec)
Heartbeat CPU 0 instructions: 163000682 cycles: 129748810 heartbeat IPC: 0.7242 cumulative IPC: 0.9942 (Simulation time: 00 hr 21 min 40 sec)
Heartbeat CPU 0 instructions: 163500686 cycles: 130517426 heartbeat IPC: 0.6505 cumulative IPC: 0.9919 (Simulation time: 00 hr 21 min 46 sec)
Heartbeat CPU 0 instructions: 164000686 cycles: 131251836 heartbeat IPC: 0.6808 cumulative IPC: 0.99 (Simulation time: 00 hr 21 min 52 sec)
Heartbeat CPU 0 instructions: 164500688 cycles: 132023391 heartbeat IPC: 0.648 cumulative IPC: 0.9877 (Simulation time: 00 hr 21 min 59 sec)
Heartbeat CPU 0 instructions: 165000690 cycles: 132791504 heartbeat IPC: 0.6509 cumulative IPC: 0.9855 (Simulation time: 00 hr 22 min 05 sec)
Heartbeat CPU 0 instructions: 165500695 cycles: 133399052 heartbeat IPC: 0.823 cumulative IPC: 0.9846 (Simulation time: 00 hr 22 min 11 sec)
Heartbeat CPU 0 instructions: 166000695 cycles: 134019798 heartbeat IPC: 0.8055 cumulative IPC: 0.9837 (Simulation time: 00 hr 22 min 16 sec)
Heartbeat CPU 0 instructions: 166500696 cycles: 134788096 heartbeat IPC: 0.6508 cumulative IPC: 0.9815 (Simulation time: 00 hr 22 min 23 sec)
Heartbeat CPU 0 instructions: 167000696 cycles: 135559791 heartbeat IPC: 0.6479 cumulative IPC: 0.9794 (Simulation time: 00 hr 22 min 29 sec)
Heartbeat CPU 0 instructions: 167500696 cycles: 136240577 heartbeat IPC: 0.7344 cumulative IPC: 0.978 (Simulation time: 00 hr 22 min 35 sec)
Heartbeat CPU 0 instructions: 168000697 cycles: 136951746 heartbeat IPC: 0.7031 cumulative IPC: 0.9764 (Simulation time: 00 hr 22 min 41 sec)
Heartbeat CPU 0 instructions: 168500702 cycles: 137626104 heartbeat IPC: 0.7415 cumulative IPC: 0.9751 (Simulation time: 00 hr 22 min 46 sec)
Heartbeat CPU 0 instructions: 169000703 cycles: 138428937 heartbeat IPC: 0.6228 cumulative IPC: 0.9727 (Simulation time: 00 hr 22 min 53 sec)
Heartbeat CPU 0 instructions: 169500709 cycles: 139191081 heartbeat IPC: 0.6561 cumulative IPC: 0.9708 (Simulation time: 00 hr 22 min 59 sec)
Heartbeat CPU 0 instructions: 170000711 cycles: 140023562 heartbeat IPC: 0.6006 cumulative IPC: 0.9683 (Simulation time: 00 hr 23 min 06 sec)
Heartbeat CPU 0 instructions: 170500716 cycles: 140710453 heartbeat IPC: 0.7279 cumulative IPC: 0.967 (Simulation time: 00 hr 23 min 12 sec)
Heartbeat CPU 0 instructions: 171000717 cycles: 141287566 heartbeat IPC: 0.8664 cumulative IPC: 0.9665 (Simulation time: 00 hr 23 min 17 sec)
Heartbeat CPU 0 instructions: 171500718 cycles: 141924988 heartbeat IPC: 0.7844 cumulative IPC: 0.9656 (Simulation time: 00 hr 23 min 23 sec)
Heartbeat CPU 0 instructions: 172000719 cycles: 142695718 heartbeat IPC: 0.6487 cumulative IPC: 0.9637 (Simulation time: 00 hr 23 min 29 sec)
Heartbeat CPU 0 instructions: 172500721 cycles: 143474875 heartbeat IPC: 0.6417 cumulative IPC: 0.9617 (Simulation time: 00 hr 23 min 35 sec)
Heartbeat CPU 0 instructions: 173000723 cycles: 144282922 heartbeat IPC: 0.6188 cumulative IPC: 0.9595 (Simulation time: 00 hr 23 min 42 sec)
Heartbeat CPU 0 instructions: 173500723 cycles: 145072960 heartbeat IPC: 0.6329 cumulative IPC: 0.9575 (Simulation time: 00 hr 23 min 49 sec)
Heartbeat CPU 0 instructions: 174000724 cycles: 145727485 heartbeat IPC: 0.7639 cumulative IPC: 0.9566 (Simulation time: 00 hr 23 min 54 sec)
Heartbeat CPU 0 instructions: 174500726 cycles: 146211156 heartbeat IPC: 1.034 cumulative IPC: 0.9568 (Simulation time: 00 hr 23 min 59 sec)
Heartbeat CPU 0 instructions: 175000726 cycles: 147050820 heartbeat IPC: 0.5955 cumulative IPC: 0.9545 (Simulation time: 00 hr 24 min 06 sec)
Heartbeat CPU 0 instructions: 175500731 cycles: 147948523 heartbeat IPC: 0.557 cumulative IPC: 0.9518 (Simulation time: 00 hr 24 min 13 sec)
Heartbeat CPU 0 instructions: 176000734 cycles: 148641236 heartbeat IPC: 0.7218 cumulative IPC: 0.9506 (Simulation time: 00 hr 24 min 19 sec)
Heartbeat CPU 0 instructions: 176500734 cycles: 149518964 heartbeat IPC: 0.5697 cumulative IPC: 0.9481 (Simulation time: 00 hr 24 min 26 sec)
Heartbeat CPU 0 instructions: 177000734 cycles: 150264620 heartbeat IPC: 0.6706 cumulative IPC: 0.9466 (Simulation time: 00 hr 24 min 32 sec)
Heartbeat CPU 0 instructions: 177500734 cycles: 151098212 heartbeat IPC: 0.5998 cumulative IPC: 0.9444 (Simulation time: 00 hr 24 min 39 sec)
Heartbeat CPU 0 instructions: 178000734 cycles: 151941483 heartbeat IPC: 0.5929 cumulative IPC: 0.9422 (Simulation time: 00 hr 24 min 46 sec)
Heartbeat CPU 0 instructions: 178500736 cycles: 152808641 heartbeat IPC: 0.5766 cumulative IPC: 0.9399 (Simulation time: 00 hr 24 min 52 sec)
Heartbeat CPU 0 instructions: 179000736 cycles: 153675204 heartbeat IPC: 0.577 cumulative IPC: 0.9376 (Simulation time: 00 hr 24 min 59 sec)
Heartbeat CPU 0 instructions: 179500738 cycles: 154501361 heartbeat IPC: 0.6052 cumulative IPC: 0.9357 (Simulation time: 00 hr 25 min 06 sec)
Heartbeat CPU 0 instructions: 180000739 cycles: 155357132 heartbeat IPC: 0.5843 cumulative IPC: 0.9335 (Simulation time: 00 hr 25 min 13 sec)
Heartbeat CPU 0 instructions: 180500739 cycles: 155954344 heartbeat IPC: 0.8372 cumulative IPC: 0.9331 (Simulation time: 00 hr 25 min 18 sec)
Heartbeat CPU 0 instructions: 181000741 cycles: 156831356 heartbeat IPC: 0.5701 cumulative IPC: 0.9308 (Simulation time: 00 hr 25 min 25 sec)
Heartbeat CPU 0 instructions: 181500743 cycles: 157652549 heartbeat IPC: 0.6089 cumulative IPC: 0.929 (Simulation time: 00 hr 25 min 32 sec)
Heartbeat CPU 0 instructions: 182000748 cycles: 158529374 heartbeat IPC: 0.5702 cumulative IPC: 0.9267 (Simulation time: 00 hr 25 min 39 sec)
Heartbeat CPU 0 instructions: 182500750 cycles: 159366650 heartbeat IPC: 0.5972 cumulative IPC: 0.9248 (Simulation time: 00 hr 25 min 46 sec)
Heartbeat CPU 0 instructions: 183000750 cycles: 160249160 heartbeat IPC: 0.5666 cumulative IPC: 0.9226 (Simulation time: 00 hr 25 min 53 sec)
Heartbeat CPU 0 instructions: 183500750 cycles: 161107549 heartbeat IPC: 0.5825 cumulative IPC: 0.9206 (Simulation time: 00 hr 26 min 00 sec)
Heartbeat CPU 0 instructions: 184000752 cycles: 161898814 heartbeat IPC: 0.6319 cumulative IPC: 0.919 (Simulation time: 00 hr 26 min 06 sec)
Heartbeat CPU 0 instructions: 184500754 cycles: 162796899 heartbeat IPC: 0.5567 cumulative IPC: 0.9168 (Simulation time: 00 hr 26 min 14 sec)
Heartbeat CPU 0 instructions: 185000754 cycles: 163686019 heartbeat IPC: 0.5624 cumulative IPC: 0.9147 (Simulation time: 00 hr 26 min 21 sec)
Heartbeat CPU 0 instructions: 185500754 cycles: 164607522 heartbeat IPC: 0.5426 cumulative IPC: 0.9124 (Simulation time: 00 hr 26 min 28 sec)
Heartbeat CPU 0 instructions: 186000754 cycles: 165466622 heartbeat IPC: 0.582 cumulative IPC: 0.9105 (Simulation time: 00 hr 26 min 35 sec)
Heartbeat CPU 0 instructions: 186500760 cycles: 166357848 heartbeat IPC: 0.561 cumulative IPC: 0.9084 (Simulation time: 00 hr 26 min 42 sec)
Heartbeat CPU 0 instructions: 187000760 cycles: 167262418 heartbeat IPC: 0.5527 cumulative IPC: 0.9063 (Simulation time: 00 hr 26 min 49 sec)
Heartbeat CPU 0 instructions: 187500760 cycles: 168166734 heartbeat IPC: 0.5529 cumulative IPC: 0.9042 (Simulation time: 00 hr 26 min 56 sec)
Heartbeat CPU 0 instructions: 188000765 cycles: 169032598 heartbeat IPC: 0.5775 cumulative IPC: 0.9023 (Simulation time: 00 hr 27 min 03 sec)
Heartbeat CPU 0 instructions: 188500767 cycles: 169838027 heartbeat IPC: 0.6208 cumulative IPC: 0.9009 (Simulation time: 00 hr 27 min 10 sec)
Heartbeat CPU 0 instructions: 189000767 cycles: 170779545 heartbeat IPC: 0.5311 cumulative IPC: 0.8986 (Simulation time: 00 hr 27 min 17 sec)
Heartbeat CPU 0 instructions: 189500769 cycles: 171718776 heartbeat IPC: 0.5324 cumulative IPC: 0.8964 (Simulation time: 00 hr 27 min 25 sec)
Heartbeat CPU 0 instructions: 190000769 cycles: 172579493 heartbeat IPC: 0.5809 cumulative IPC: 0.8947 (Simulation time: 00 hr 27 min 32 sec)
Heartbeat CPU 0 instructions: 190500770 cycles: 173493539 heartbeat IPC: 0.547 cumulative IPC: 0.8926 (Simulation time: 00 hr 27 min 39 sec)
Heartbeat CPU 0 instructions: 191000770 cycles: 174409000 heartbeat IPC: 0.5462 cumulative IPC: 0.8906 (Simulation time: 00 hr 27 min 46 sec)
Heartbeat CPU 0 instructions: 191500770 cycles: 175238636 heartbeat IPC: 0.6027 cumulative IPC: 0.8891 (Simulation time: 00 hr 27 min 53 sec)
Heartbeat CPU 0 instructions: 192000774 cycles: 176093725 heartbeat IPC: 0.5847 cumulative IPC: 0.8875 (Simulation time: 00 hr 28 min 00 sec)
Heartbeat CPU 0 instructions: 192500776 cycles: 177068427 heartbeat IPC: 0.513 cumulative IPC: 0.8852 (Simulation time: 00 hr 28 min 08 sec)
Heartbeat CPU 0 instructions: 193000782 cycles: 177962403 heartbeat IPC: 0.5593 cumulative IPC: 0.8834 (Simulation time: 00 hr 28 min 15 sec)
Heartbeat CPU 0 instructions: 193500783 cycles: 178798147 heartbeat IPC: 0.5983 cumulative IPC: 0.882 (Simulation time: 00 hr 28 min 21 sec)
Heartbeat CPU 0 instructions: 194000783 cycles: 179479331 heartbeat IPC: 0.734 cumulative IPC: 0.8814 (Simulation time: 00 hr 28 min 27 sec)
Heartbeat CPU 0 instructions: 194500784 cycles: 180457504 heartbeat IPC: 0.5112 cumulative IPC: 0.8792 (Simulation time: 00 hr 28 min 35 sec)
Heartbeat CPU 0 instructions: 195000784 cycles: 181125181 heartbeat IPC: 0.7489 cumulative IPC: 0.8786 (Simulation time: 00 hr 28 min 40 sec)
Heartbeat CPU 0 instructions: 195500786 cycles: 182188519 heartbeat IPC: 0.4702 cumulative IPC: 0.876 (Simulation time: 00 hr 28 min 49 sec)
Heartbeat CPU 0 instructions: 196000792 cycles: 183086207 heartbeat IPC: 0.557 cumulative IPC: 0.8743 (Simulation time: 00 hr 28 min 56 sec)
Heartbeat CPU 0 instructions: 196500792 cycles: 184076468 heartbeat IPC: 0.5049 cumulative IPC: 0.8721 (Simulation time: 00 hr 29 min 03 sec)
Heartbeat CPU 0 instructions: 197000792 cycles: 184975066 heartbeat IPC: 0.5564 cumulative IPC: 0.8704 (Simulation time: 00 hr 29 min 10 sec)
Heartbeat CPU 0 instructions: 197500793 cycles: 185984314 heartbeat IPC: 0.4954 cumulative IPC: 0.8682 (Simulation time: 00 hr 29 min 18 sec)
Heartbeat CPU 0 instructions: 198000797 cycles: 186932977 heartbeat IPC: 0.5271 cumulative IPC: 0.8663 (Simulation time: 00 hr 29 min 26 sec)
Heartbeat CPU 0 instructions: 198500801 cycles: 187991799 heartbeat IPC: 0.4722 cumulative IPC: 0.8639 (Simulation time: 00 hr 29 min 34 sec)
Heartbeat CPU 0 instructions: 199000801 cycles: 189134357 heartbeat IPC: 0.4376 cumulative IPC: 0.8611 (Simulation time: 00 hr 29 min 42 sec)
Heartbeat CPU 0 instructions: 199500802 cycles: 190170124 heartbeat IPC: 0.4827 cumulative IPC: 0.8588 (Simulation time: 00 hr 29 min 50 sec)
Heartbeat CPU 0 instructions: 200000804 cycles: 191054960 heartbeat IPC: 0.5651 cumulative IPC: 0.8573 (Simulation time: 00 hr 29 min 57 sec)
Heartbeat CPU 0 instructions: 200500809 cycles: 192050994 heartbeat IPC: 0.502 cumulative IPC: 0.8553 (Simulation time: 00 hr 30 min 05 sec)
Heartbeat CPU 0 instructions: 201000811 cycles: 193059753 heartbeat IPC: 0.4957 cumulative IPC: 0.8533 (Simulation time: 00 hr 30 min 13 sec)
Heartbeat CPU 0 instructions: 201500812 cycles: 194126261 heartbeat IPC: 0.4688 cumulative IPC: 0.851 (Simulation time: 00 hr 30 min 21 sec)
Heartbeat CPU 0 instructions: 202000814 cycles: 195173037 heartbeat IPC: 0.4777 cumulative IPC: 0.8488 (Simulation time: 00 hr 30 min 29 sec)
Heartbeat CPU 0 instructions: 202500816 cycles: 196149839 heartbeat IPC: 0.5119 cumulative IPC: 0.847 (Simulation time: 00 hr 30 min 36 sec)
Heartbeat CPU 0 instructions: 203000817 cycles: 197211712 heartbeat IPC: 0.4709 cumulative IPC: 0.8448 (Simulation time: 00 hr 30 min 45 sec)
Heartbeat CPU 0 instructions: 203500822 cycles: 198291419 heartbeat IPC: 0.4631 cumulative IPC: 0.8425 (Simulation time: 00 hr 30 min 53 sec)
Heartbeat CPU 0 instructions: 204000823 cycles: 199223329 heartbeat IPC: 0.5365 cumulative IPC: 0.8409 (Simulation time: 00 hr 31 min 00 sec)
Heartbeat CPU 0 instructions: 204500823 cycles: 200300891 heartbeat IPC: 0.464 cumulative IPC: 0.8387 (Simulation time: 00 hr 31 min 08 sec)
Heartbeat CPU 0 instructions: 205000823 cycles: 201436072 heartbeat IPC: 0.4405 cumulative IPC: 0.8363 (Simulation time: 00 hr 31 min 17 sec)
Heartbeat CPU 0 instructions: 205500825 cycles: 202415761 heartbeat IPC: 0.5104 cumulative IPC: 0.8346 (Simulation time: 00 hr 31 min 24 sec)
Heartbeat CPU 0 instructions: 206000825 cycles: 203591524 heartbeat IPC: 0.4253 cumulative IPC: 0.832 (Simulation time: 00 hr 31 min 33 sec)
Heartbeat CPU 0 instructions: 206500826 cycles: 204664312 heartbeat IPC: 0.4661 cumulative IPC: 0.8299 (Simulation time: 00 hr 31 min 41 sec)
Heartbeat CPU 0 instructions: 207000828 cycles: 205745011 heartbeat IPC: 0.4627 cumulative IPC: 0.8278 (Simulation time: 00 hr 31 min 49 sec)
Heartbeat CPU 0 instructions: 207500829 cycles: 206779613 heartbeat IPC: 0.4833 cumulative IPC: 0.826 (Simulation time: 00 hr 31 min 57 sec)
Heartbeat CPU 0 instructions: 208000830 cycles: 207852618 heartbeat IPC: 0.466 cumulative IPC: 0.824 (Simulation time: 00 hr 32 min 05 sec)
Heartbeat CPU 0 instructions: 208500830 cycles: 208928629 heartbeat IPC: 0.4647 cumulative IPC: 0.822 (Simulation time: 00 hr 32 min 13 sec)
Heartbeat CPU 0 instructions: 209000836 cycles: 210005723 heartbeat IPC: 0.4642 cumulative IPC: 0.82 (Simulation time: 00 hr 32 min 21 sec)
Heartbeat CPU 0 instructions: 209500837 cycles: 211107224 heartbeat IPC: 0.4539 cumulative IPC: 0.8179 (Simulation time: 00 hr 32 min 30 sec)
Heartbeat CPU 0 instructions: 210000838 cycles: 212263475 heartbeat IPC: 0.4324 cumulative IPC: 0.8156 (Simulation time: 00 hr 32 min 38 sec)
Heartbeat CPU 0 instructions: 210500838 cycles: 213385155 heartbeat IPC: 0.4458 cumulative IPC: 0.8135 (Simulation time: 00 hr 32 min 47 sec)
Heartbeat CPU 0 instructions: 211000839 cycles: 214534168 heartbeat IPC: 0.4352 cumulative IPC: 0.8113 (Simulation time: 00 hr 32 min 55 sec)
Heartbeat CPU 0 instructions: 211500841 cycles: 215358513 heartbeat IPC: 0.6065 cumulative IPC: 0.8105 (Simulation time: 00 hr 33 min 02 sec)
Heartbeat CPU 0 instructions: 212000843 cycles: 216473695 heartbeat IPC: 0.4484 cumulative IPC: 0.8085 (Simulation time: 00 hr 33 min 10 sec)
Heartbeat CPU 0 instructions: 212500844 cycles: 217518227 heartbeat IPC: 0.4787 cumulative IPC: 0.8068 (Simulation time: 00 hr 33 min 18 sec)
Heartbeat CPU 0 instructions: 213000844 cycles: 218676732 heartbeat IPC: 0.4316 cumulative IPC: 0.8046 (Simulation time: 00 hr 33 min 27 sec)
Heartbeat CPU 0 instructions: 213500848 cycles: 219835716 heartbeat IPC: 0.4314 cumulative IPC: 0.8025 (Simulation time: 00 hr 33 min 35 sec)
Heartbeat CPU 0 instructions: 214000849 cycles: 220960082 heartbeat IPC: 0.4447 cumulative IPC: 0.8005 (Simulation time: 00 hr 33 min 44 sec)
Heartbeat CPU 0 instructions: 214500851 cycles: 222111423 heartbeat IPC: 0.4343 cumulative IPC: 0.7985 (Simulation time: 00 hr 33 min 52 sec)
Heartbeat CPU 0 instructions: 215000854 cycles: 223193721 heartbeat IPC: 0.462 cumulative IPC: 0.7967 (Simulation time: 00 hr 34 min 00 sec)
Heartbeat CPU 0 instructions: 215500854 cycles: 224335648 heartbeat IPC: 0.4379 cumulative IPC: 0.7948 (Simulation time: 00 hr 34 min 09 sec)
Heartbeat CPU 0 instructions: 216000855 cycles: 225463004 heartbeat IPC: 0.4435 cumulative IPC: 0.7929 (Simulation time: 00 hr 34 min 17 sec)
Heartbeat CPU 0 instructions: 216500860 cycles: 226656276 heartbeat IPC: 0.419 cumulative IPC: 0.7907 (Simulation time: 00 hr 34 min 26 sec)
Heartbeat CPU 0 instructions: 217000862 cycles: 227770443 heartbeat IPC: 0.4488 cumulative IPC: 0.7889 (Simulation time: 00 hr 34 min 34 sec)
Heartbeat CPU 0 instructions: 217500865 cycles: 229077796 heartbeat IPC: 0.3825 cumulative IPC: 0.7865 (Simulation time: 00 hr 34 min 44 sec)
Heartbeat CPU 0 instructions: 218000867 cycles: 230339870 heartbeat IPC: 0.3962 cumulative IPC: 0.7842 (Simulation time: 00 hr 34 min 53 sec)
Heartbeat CPU 0 instructions: 218500868 cycles: 231499016 heartbeat IPC: 0.4314 cumulative IPC: 0.7823 (Simulation time: 00 hr 35 min 02 sec)
Heartbeat CPU 0 instructions: 219000869 cycles: 232737837 heartbeat IPC: 0.4036 cumulative IPC: 0.7801 (Simulation time: 00 hr 35 min 11 sec)
Heartbeat CPU 0 instructions: 219500869 cycles: 233880294 heartbeat IPC: 0.4377 cumulative IPC: 0.7783 (Simulation time: 00 hr 35 min 19 sec)
Heartbeat CPU 0 instructions: 220000870 cycles: 235170233 heartbeat IPC: 0.3876 cumulative IPC: 0.776 (Simulation time: 00 hr 35 min 28 sec)
Heartbeat CPU 0 instructions: 220500870 cycles: 236417603 heartbeat IPC: 0.4008 cumulative IPC: 0.7739 (Simulation time: 00 hr 35 min 37 sec)
Heartbeat CPU 0 instructions: 221000870 cycles: 237589141 heartbeat IPC: 0.4268 cumulative IPC: 0.772 (Simulation time: 00 hr 35 min 46 sec)
Heartbeat CPU 0 instructions: 221500870 cycles: 238921867 heartbeat IPC: 0.3752 cumulative IPC: 0.7697 (Simulation time: 00 hr 35 min 55 sec)
Heartbeat CPU 0 instructions: 222000870 cycles: 240183721 heartbeat IPC: 0.3962 cumulative IPC: 0.7676 (Simulation time: 00 hr 36 min 05 sec)
Heartbeat CPU 0 instructions: 222500872 cycles: 241363203 heartbeat IPC: 0.4239 cumulative IPC: 0.7658 (Simulation time: 00 hr 36 min 13 sec)
Heartbeat CPU 0 instructions: 223000876 cycles: 242608808 heartbeat IPC: 0.4014 cumulative IPC: 0.7638 (Simulation time: 00 hr 36 min 22 sec)
Heartbeat CPU 0 instructions: 223500876 cycles: 243727952 heartbeat IPC: 0.4468 cumulative IPC: 0.7622 (Simulation time: 00 hr 36 min 31 sec)
Heartbeat CPU 0 instructions: 224000876 cycles: 244986211 heartbeat IPC: 0.3974 cumulative IPC: 0.7602 (Simulation time: 00 hr 36 min 40 sec)
Heartbeat CPU 0 instructions: 224500876 cycles: 246320809 heartbeat IPC: 0.3746 cumulative IPC: 0.758 (Simulation time: 00 hr 36 min 50 sec)
Heartbeat CPU 0 instructions: 225000876 cycles: 247609556 heartbeat IPC: 0.388 cumulative IPC: 0.7559 (Simulation time: 00 hr 36 min 59 sec)
Heartbeat CPU 0 instructions: 225500877 cycles: 248710736 heartbeat IPC: 0.4541 cumulative IPC: 0.7545 (Simulation time: 00 hr 37 min 07 sec)
Heartbeat CPU 0 instructions: 226000879 cycles: 250098147 heartbeat IPC: 0.3604 cumulative IPC: 0.7521 (Simulation time: 00 hr 37 min 17 sec)
Heartbeat CPU 0 instructions: 226500881 cycles: 251480343 heartbeat IPC: 0.3617 cumulative IPC: 0.7498 (Simulation time: 00 hr 37 min 27 sec)
Heartbeat CPU 0 instructions: 227000881 cycles: 252699194 heartbeat IPC: 0.4102 cumulative IPC: 0.7481 (Simulation time: 00 hr 37 min 36 sec)
Heartbeat CPU 0 instructions: 227500881 cycles: 253627009 heartbeat IPC: 0.5389 cumulative IPC: 0.7473 (Simulation time: 00 hr 37 min 43 sec)
Heartbeat CPU 0 instructions: 228000882 cycles: 254749111 heartbeat IPC: 0.4456 cumulative IPC: 0.7459 (Simulation time: 00 hr 37 min 51 sec)
Heartbeat CPU 0 instructions: 228500884 cycles: 256032973 heartbeat IPC: 0.3895 cumulative IPC: 0.7439 (Simulation time: 00 hr 38 min 01 sec)
Heartbeat CPU 0 instructions: 229000885 cycles: 257261728 heartbeat IPC: 0.4069 cumulative IPC: 0.7422 (Simulation time: 00 hr 38 min 09 sec)
Heartbeat CPU 0 instructions: 229500887 cycles: 258586467 heartbeat IPC: 0.3774 cumulative IPC: 0.7402 (Simulation time: 00 hr 38 min 19 sec)
Heartbeat CPU 0 instructions: 230000889 cycles: 259948633 heartbeat IPC: 0.3671 cumulative IPC: 0.7381 (Simulation time: 00 hr 38 min 29 sec)
Heartbeat CPU 0 instructions: 230500891 cycles: 261248194 heartbeat IPC: 0.3847 cumulative IPC: 0.7363 (Simulation time: 00 hr 38 min 38 sec)
Heartbeat CPU 0 instructions: 231000891 cycles: 262530096 heartbeat IPC: 0.39 cumulative IPC: 0.7345 (Simulation time: 00 hr 38 min 47 sec)
Heartbeat CPU 0 instructions: 231500892 cycles: 263851331 heartbeat IPC: 0.3784 cumulative IPC: 0.7326 (Simulation time: 00 hr 38 min 57 sec)
Heartbeat CPU 0 instructions: 232000893 cycles: 265257407 heartbeat IPC: 0.3556 cumulative IPC: 0.7304 (Simulation time: 00 hr 39 min 07 sec)
Heartbeat CPU 0 instructions: 232500895 cycles: 266511959 heartbeat IPC: 0.3986 cumulative IPC: 0.7288 (Simulation time: 00 hr 39 min 16 sec)
Heartbeat CPU 0 instructions: 233000895 cycles: 267758070 heartbeat IPC: 0.4012 cumulative IPC: 0.7272 (Simulation time: 00 hr 39 min 25 sec)
Heartbeat CPU 0 instructions: 233500895 cycles: 268582819 heartbeat IPC: 0.6062 cumulative IPC: 0.7268 (Simulation time: 00 hr 39 min 31 sec)
Heartbeat CPU 0 instructions: 234000896 cycles: 270020024 heartbeat IPC: 0.3479 cumulative IPC: 0.7246 (Simulation time: 00 hr 39 min 41 sec)
Heartbeat CPU 0 instructions: 234500900 cycles: 271310565 heartbeat IPC: 0.3874 cumulative IPC: 0.7229 (Simulation time: 00 hr 39 min 51 sec)
Heartbeat CPU 0 instructions: 235000902 cycles: 272579916 heartbeat IPC: 0.3939 cumulative IPC: 0.7213 (Simulation time: 00 hr 40 min 00 sec)
Heartbeat CPU 0 instructions: 235500904 cycles: 273924428 heartbeat IPC: 0.3719 cumulative IPC: 0.7195 (Simulation time: 00 hr 40 min 10 sec)
Heartbeat CPU 0 instructions: 236000906 cycles: 275336532 heartbeat IPC: 0.3541 cumulative IPC: 0.7175 (Simulation time: 00 hr 40 min 20 sec)
Heartbeat CPU 0 instructions: 236500907 cycles: 276634627 heartbeat IPC: 0.3852 cumulative IPC: 0.7158 (Simulation time: 00 hr 40 min 29 sec)
Heartbeat CPU 0 instructions: 237000907 cycles: 278003300 heartbeat IPC: 0.3653 cumulative IPC: 0.714 (Simulation time: 00 hr 40 min 39 sec)
Heartbeat CPU 0 instructions: 237500909 cycles: 279348274 heartbeat IPC: 0.3718 cumulative IPC: 0.7122 (Simulation time: 00 hr 40 min 48 sec)
Heartbeat CPU 0 instructions: 238000910 cycles: 280861625 heartbeat IPC: 0.3304 cumulative IPC: 0.7101 (Simulation time: 00 hr 40 min 59 sec)
Heartbeat CPU 0 instructions: 238500911 cycles: 282155379 heartbeat IPC: 0.3865 cumulative IPC: 0.7085 (Simulation time: 00 hr 41 min 08 sec)
Heartbeat CPU 0 instructions: 239000911 cycles: 283514266 heartbeat IPC: 0.3679 cumulative IPC: 0.7068 (Simulation time: 00 hr 41 min 18 sec)
Heartbeat CPU 0 instructions: 239500913 cycles: 284793925 heartbeat IPC: 0.3907 cumulative IPC: 0.7053 (Simulation time: 00 hr 41 min 27 sec)
Heartbeat CPU 0 instructions: 240000919 cycles: 285795930 heartbeat IPC: 0.499 cumulative IPC: 0.7045 (Simulation time: 00 hr 41 min 34 sec)
Heartbeat CPU 0 instructions: 240500926 cycles: 287137812 heartbeat IPC: 0.3726 cumulative IPC: 0.7028 (Simulation time: 00 hr 41 min 44 sec)
Heartbeat CPU 0 instructions: 241000927 cycles: 288273982 heartbeat IPC: 0.4401 cumulative IPC: 0.7017 (Simulation time: 00 hr 41 min 52 sec)
Heartbeat CPU 0 instructions: 241500929 cycles: 289832516 heartbeat IPC: 0.3208 cumulative IPC: 0.6996 (Simulation time: 00 hr 42 min 03 sec)
Heartbeat CPU 0 instructions: 242000934 cycles: 291197407 heartbeat IPC: 0.3663 cumulative IPC: 0.6979 (Simulation time: 00 hr 42 min 13 sec)
Heartbeat CPU 0 instructions: 242500934 cycles: 292660997 heartbeat IPC: 0.3416 cumulative IPC: 0.696 (Simulation time: 00 hr 42 min 23 sec)
Heartbeat CPU 0 instructions: 243000934 cycles: 294072408 heartbeat IPC: 0.3543 cumulative IPC: 0.6943 (Simulation time: 00 hr 42 min 33 sec)
Heartbeat CPU 0 instructions: 243500940 cycles: 295574455 heartbeat IPC: 0.3329 cumulative IPC: 0.6924 (Simulation time: 00 hr 42 min 43 sec)
Heartbeat CPU 0 instructions: 244000946 cycles: 296822306 heartbeat IPC: 0.4007 cumulative IPC: 0.6911 (Simulation time: 00 hr 42 min 52 sec)
Heartbeat CPU 0 instructions: 244500947 cycles: 298356982 heartbeat IPC: 0.3258 cumulative IPC: 0.6891 (Simulation time: 00 hr 43 min 02 sec)
Heartbeat CPU 0 instructions: 245000952 cycles: 299807138 heartbeat IPC: 0.3448 cumulative IPC: 0.6873 (Simulation time: 00 hr 43 min 12 sec)
Heartbeat CPU 0 instructions: 245500952 cycles: 301137049 heartbeat IPC: 0.376 cumulative IPC: 0.6859 (Simulation time: 00 hr 43 min 22 sec)
Heartbeat CPU 0 instructions: 246000953 cycles: 302603213 heartbeat IPC: 0.341 cumulative IPC: 0.6841 (Simulation time: 00 hr 43 min 32 sec)
Heartbeat CPU 0 instructions: 246500958 cycles: 304132460 heartbeat IPC: 0.327 cumulative IPC: 0.6822 (Simulation time: 00 hr 43 min 43 sec)
Heartbeat CPU 0 instructions: 247000959 cycles: 304726148 heartbeat IPC: 0.8422 cumulative IPC: 0.6825 (Simulation time: 00 hr 43 min 47 sec)
Heartbeat CPU 0 instructions: 247500960 cycles: 306246275 heartbeat IPC: 0.3289 cumulative IPC: 0.6807 (Simulation time: 00 hr 43 min 58 sec)
Heartbeat CPU 0 instructions: 248000960 cycles: 307209269 heartbeat IPC: 0.5192 cumulative IPC: 0.6801 (Simulation time: 00 hr 44 min 05 sec)
Heartbeat CPU 0 instructions: 248500966 cycles: 308849059 heartbeat IPC: 0.3049 cumulative IPC: 0.678 (Simulation time: 00 hr 44 min 16 sec)
Heartbeat CPU 0 instructions: 249000967 cycles: 310185772 heartbeat IPC: 0.3741 cumulative IPC: 0.6767 (Simulation time: 00 hr 44 min 25 sec)
Heartbeat CPU 0 instructions: 249500969 cycles: 311657530 heartbeat IPC: 0.3397 cumulative IPC: 0.675 (Simulation time: 00 hr 44 min 35 sec)
*** Reached end of trace: (0, "/local-ssd/ben/dpc4-traces/Graph/Ligra/ligra_Radii.com-lj.ungraph.gcc_6.3.0_O3.drop_24500M.length_250M.champsimtrace.xz")
Simulation finished CPU 0 instructions: 200000000 cycles: 297158604 cumulative IPC: 0.673 (Simulation time: 00 hr 44 min 46 sec)
Simulation complete CPU 0 instructions: 200000000 cycles: 297158604 cumulative IPC: 0.673 (Simulation time: 00 hr 44 min 46 sec)

ChampSim completed all CPUs

=== Simulation ===
CPU 0 runs /local-ssd/ben/dpc4-traces/Graph/Ligra/ligra_Radii.com-lj.ungraph.gcc_6.3.0_O3.drop_24500M.length_250M.champsimtrace.xz

Region of Interest Statistics

CPU 0 cumulative IPC: 0.673 instructions: 200000000 cycles: 297158604
CPU 0 Branch Prediction Accuracy: 95.81% MPKI: 12.57 Average ROB Occupancy at Mispredict: 61.09
Branch type MPKI
BRANCH_DIRECT_JUMP: 0
BRANCH_INDIRECT: 0
BRANCH_CONDITIONAL: 12.57
BRANCH_DIRECT_CALL: 0
BRANCH_INDIRECT_CALL: 0
BRANCH_RETURN: 0

cpu0->cpu0_STLB TOTAL        ACCESS:    5872467 HIT:    5789830 MISS:      82637 MSHR_MERGE:          0
cpu0->cpu0_STLB LOAD         ACCESS:    5872467 HIT:    5789830 MISS:      82637 MSHR_MERGE:          0
cpu0->cpu0_STLB RFO          ACCESS:          0 HIT:          0 MISS:          0 MSHR_MERGE:          0
cpu0->cpu0_STLB PREFETCH     ACCESS:          0 HIT:          0 MISS:          0 MSHR_MERGE:          0
cpu0->cpu0_STLB WRITE        ACCESS:          0 HIT:          0 MISS:          0 MSHR_MERGE:          0
cpu0->cpu0_STLB TRANSLATION  ACCESS:          0 HIT:          0 MISS:          0 MSHR_MERGE:          0
cpu0->cpu0_STLB PREFETCH REQUESTED:          0 ISSUED:          0 USEFUL:          0 USELESS:          0
cpu0->cpu0_STLB AVERAGE MISS LATENCY: 134.9 cycles
cpu0->cpu0_L2C TOTAL        ACCESS:   14244435 HIT:   10769658 MISS:    3474777 MSHR_MERGE:          0
cpu0->cpu0_L2C LOAD         ACCESS:    9652540 HIT:    8375143 MISS:    1277397 MSHR_MERGE:          0
cpu0->cpu0_L2C RFO          ACCESS:      37660 HIT:       6714 MISS:      30946 MSHR_MERGE:          0
cpu0->cpu0_L2C PREFETCH     ACCESS:    4359203 HIT:    2205515 MISS:    2153688 MSHR_MERGE:          0
cpu0->cpu0_L2C WRITE        ACCESS:     128305 HIT:     128282 MISS:         23 MSHR_MERGE:          0
cpu0->cpu0_L2C TRANSLATION  ACCESS:      66727 HIT:      54004 MISS:      12723 MSHR_MERGE:          0
cpu0->cpu0_L2C PREFETCH REQUESTED:          0 ISSUED:          0 USEFUL:          0 USELESS:          0
cpu0->cpu0_L2C AVERAGE MISS LATENCY: 187.9 cycles
cpu0->cpu0_L1I TOTAL        ACCESS:    6411564 HIT:    6411564 MISS:          0 MSHR_MERGE:          0
cpu0->cpu0_L1I LOAD         ACCESS:    6411564 HIT:    6411564 MISS:          0 MSHR_MERGE:          0
cpu0->cpu0_L1I RFO          ACCESS:          0 HIT:          0 MISS:          0 MSHR_MERGE:          0
cpu0->cpu0_L1I PREFETCH     ACCESS:          0 HIT:          0 MISS:          0 MSHR_MERGE:          0
cpu0->cpu0_L1I WRITE        ACCESS:          0 HIT:          0 MISS:          0 MSHR_MERGE:          0
cpu0->cpu0_L1I TRANSLATION  ACCESS:          0 HIT:          0 MISS:          0 MSHR_MERGE:          0
cpu0->cpu0_L1I PREFETCH REQUESTED:          0 ISSUED:          0 USEFUL:          0 USELESS:          0
cpu0->cpu0_L1I AVERAGE MISS LATENCY: - cycles
cpu0->cpu0_L1D TOTAL        ACCESS:   55849759 HIT:   39753244 MISS:   16096515 MSHR_MERGE:    1980369
cpu0->cpu0_L1D LOAD         ACCESS:   44643013 HIT:   33177859 MISS:   11465154 MSHR_MERGE:    1812614
cpu0->cpu0_L1D RFO          ACCESS:          0 HIT:          0 MISS:          0 MSHR_MERGE:          0
cpu0->cpu0_L1D PREFETCH     ACCESS:    6780139 HIT:    2318508 MISS:    4461631 MSHR_MERGE:     102428
cpu0->cpu0_L1D WRITE        ACCESS:    4261241 HIT:    4158238 MISS:     103003 MSHR_MERGE:      65327
cpu0->cpu0_L1D TRANSLATION  ACCESS:     165366 HIT:      98639 MISS:      66727 MSHR_MERGE:          0
cpu0->cpu0_L1D PREFETCH REQUESTED:    7114586 ISSUED:    6780131 USEFUL:    2276036 USELESS:    2083110
cpu0->cpu0_L1D AVERAGE MISS LATENCY: 35.5 cycles
cpu0->cpu0_ITLB TOTAL        ACCESS:    4891845 HIT:    4891845 MISS:          0 MSHR_MERGE:          0
cpu0->cpu0_ITLB LOAD         ACCESS:    4891845 HIT:    4891845 MISS:          0 MSHR_MERGE:          0
cpu0->cpu0_ITLB RFO          ACCESS:          0 HIT:          0 MISS:          0 MSHR_MERGE:          0
cpu0->cpu0_ITLB PREFETCH     ACCESS:          0 HIT:          0 MISS:          0 MSHR_MERGE:          0
cpu0->cpu0_ITLB WRITE        ACCESS:          0 HIT:          0 MISS:          0 MSHR_MERGE:          0
cpu0->cpu0_ITLB TRANSLATION  ACCESS:          0 HIT:          0 MISS:          0 MSHR_MERGE:          0
cpu0->cpu0_ITLB PREFETCH REQUESTED:          0 ISSUED:          0 USEFUL:          0 USELESS:          0
cpu0->cpu0_ITLB AVERAGE MISS LATENCY: - cycles
cpu0->cpu0_DTLB TOTAL        ACCESS:   53844405 HIT:   47224678 MISS:    6619727 MSHR_MERGE:     747259
cpu0->cpu0_DTLB LOAD         ACCESS:   53844405 HIT:   47224678 MISS:    6619727 MSHR_MERGE:     747259
cpu0->cpu0_DTLB RFO          ACCESS:          0 HIT:          0 MISS:          0 MSHR_MERGE:          0
cpu0->cpu0_DTLB PREFETCH     ACCESS:          0 HIT:          0 MISS:          0 MSHR_MERGE:          0
cpu0->cpu0_DTLB WRITE        ACCESS:          0 HIT:          0 MISS:          0 MSHR_MERGE:          0
cpu0->cpu0_DTLB TRANSLATION  ACCESS:          0 HIT:          0 MISS:          0 MSHR_MERGE:          0
cpu0->cpu0_DTLB PREFETCH REQUESTED:          0 ISSUED:          0 USEFUL:          0 USELESS:          0
cpu0->cpu0_DTLB AVERAGE MISS LATENCY: 6.925 cycles
cpu0->LLC TOTAL        ACCESS:    3595312 HIT:     490075 MISS:    3105237 MSHR_MERGE:          0
cpu0->LLC LOAD         ACCESS:    1277397 HIT:     321763 MISS:     955634 MSHR_MERGE:          0
cpu0->LLC RFO          ACCESS:      30946 HIT:        862 MISS:      30084 MSHR_MERGE:          0
cpu0->LLC PREFETCH     ACCESS:    2153688 HIT:      67609 MISS:    2086079 MSHR_MERGE:          0
cpu0->LLC WRITE        ACCESS:     120558 HIT:      96109 MISS:      24449 MSHR_MERGE:          0
cpu0->LLC TRANSLATION  ACCESS:      12723 HIT:       3732 MISS:       8991 MSHR_MERGE:          0
cpu0->LLC PREFETCH REQUESTED:          0 ISSUED:          0 USEFUL:          0 USELESS:          0
cpu0->LLC AVERAGE MISS LATENCY: 214.5 cycles

DRAM Statistics

Channel 0 RQ ROW_BUFFER_HIT:     241472
  ROW_BUFFER_MISS:    2839316
  AVG DBUS CONGESTED CYCLE: 29.86
Channel 0 WQ ROW_BUFFER_HIT:      43900
  ROW_BUFFER_MISS:     108315
  FULL:          0
Channel 0 REFRESHES ISSUED:      24761
