[VMEM] WARNING: physical memory size is smaller than virtual memory size.

*** ChampSim Multicore Out-of-Order Simulator ***
Warmup Instructions: 50000000
Simulation Instructions: 200000000
Number of CPUs: 1
Page size: 4096
Core 0: /local-ssd/ben/dpc4-traces/Graph/Ligra/ligra_Components-Shortcut.com-lj.ungraph.gcc_6.3.0_O3.drop_17000M.length_250M.champsimtrace.xz
 L1D Berti prefetcher
Off-chip DRAM Size: 64 GiB Channels: 1 Width: 64-bit Data Rate: 4807 MT/s
Heartbeat CPU 0 instructions: 500005 cycles: 171217 heartbeat IPC: 2.92 cumulative IPC: 2.92 (Simulation time: 00 hr 00 min 03 sec)
Heartbeat CPU 0 instructions: 1000005 cycles: 352716 heartbeat IPC: 2.755 cumulative IPC: 2.835 (Simulation time: 00 hr 00 min 05 sec)
Heartbeat CPU 0 instructions: 1500005 cycles: 525284 heartbeat IPC: 2.897 cumulative IPC: 2.856 (Simulation time: 00 hr 00 min 08 sec)
Heartbeat CPU 0 instructions: 2000011 cycles: 698472 heartbeat IPC: 2.887 cumulative IPC: 2.863 (Simulation time: 00 hr 00 min 10 sec)
Heartbeat CPU 0 instructions: 2500016 cycles: 880032 heartbeat IPC: 2.754 cumulative IPC: 2.841 (Simulation time: 00 hr 00 min 13 sec)
Heartbeat CPU 0 instructions: 3000022 cycles: 1069339 heartbeat IPC: 2.641 cumulative IPC: 2.805 (Simulation time: 00 hr 00 min 15 sec)
Heartbeat CPU 0 instructions: 3500022 cycles: 1261667 heartbeat IPC: 2.6 cumulative IPC: 2.774 (Simulation time: 00 hr 00 min 18 sec)
Heartbeat CPU 0 instructions: 4000026 cycles: 1438352 heartbeat IPC: 2.83 cumulative IPC: 2.781 (Simulation time: 00 hr 00 min 20 sec)
Heartbeat CPU 0 instructions: 4500027 cycles: 1624799 heartbeat IPC: 2.682 cumulative IPC: 2.77 (Simulation time: 00 hr 00 min 23 sec)
Heartbeat CPU 0 instructions: 5000033 cycles: 1793586 heartbeat IPC: 2.962 cumulative IPC: 2.788 (Simulation time: 00 hr 00 min 25 sec)
Heartbeat CPU 0 instructions: 5500036 cycles: 1979167 heartbeat IPC: 2.694 cumulative IPC: 2.779 (Simulation time: 00 hr 00 min 28 sec)
Heartbeat CPU 0 instructions: 6000038 cycles: 2154768 heartbeat IPC: 2.847 cumulative IPC: 2.785 (Simulation time: 00 hr 00 min 30 sec)
Heartbeat CPU 0 instructions: 6500038 cycles: 2342432 heartbeat IPC: 2.664 cumulative IPC: 2.775 (Simulation time: 00 hr 00 min 33 sec)
Heartbeat CPU 0 instructions: 7000044 cycles: 2529514 heartbeat IPC: 2.673 cumulative IPC: 2.767 (Simulation time: 00 hr 00 min 36 sec)
Heartbeat CPU 0 instructions: 7500050 cycles: 2716002 heartbeat IPC: 2.681 cumulative IPC: 2.761 (Simulation time: 00 hr 00 min 38 sec)
Heartbeat CPU 0 instructions: 8000050 cycles: 2905381 heartbeat IPC: 2.64 cumulative IPC: 2.754 (Simulation time: 00 hr 00 min 41 sec)
Heartbeat CPU 0 instructions: 8500051 cycles: 3096332 heartbeat IPC: 2.618 cumulative IPC: 2.745 (Simulation time: 00 hr 00 min 43 sec)
Heartbeat CPU 0 instructions: 9000055 cycles: 3282371 heartbeat IPC: 2.688 cumulative IPC: 2.742 (Simulation time: 00 hr 00 min 46 sec)
Heartbeat CPU 0 instructions: 9500061 cycles: 3469366 heartbeat IPC: 2.674 cumulative IPC: 2.738 (Simulation time: 00 hr 00 min 48 sec)
Heartbeat CPU 0 instructions: 10000066 cycles: 3658375 heartbeat IPC: 2.645 cumulative IPC: 2.733 (Simulation time: 00 hr 00 min 51 sec)
Heartbeat CPU 0 instructions: 10500072 cycles: 3850598 heartbeat IPC: 2.601 cumulative IPC: 2.727 (Simulation time: 00 hr 00 min 53 sec)
Heartbeat CPU 0 instructions: 11000079 cycles: 4021800 heartbeat IPC: 2.921 cumulative IPC: 2.735 (Simulation time: 00 hr 00 min 56 sec)
Heartbeat CPU 0 instructions: 11500085 cycles: 4200093 heartbeat IPC: 2.804 cumulative IPC: 2.738 (Simulation time: 00 hr 00 min 58 sec)
Heartbeat CPU 0 instructions: 12000090 cycles: 4367022 heartbeat IPC: 2.995 cumulative IPC: 2.748 (Simulation time: 00 hr 01 min 01 sec)
Heartbeat CPU 0 instructions: 12500094 cycles: 4547253 heartbeat IPC: 2.774 cumulative IPC: 2.749 (Simulation time: 00 hr 01 min 03 sec)
Heartbeat CPU 0 instructions: 13000097 cycles: 4717478 heartbeat IPC: 2.937 cumulative IPC: 2.756 (Simulation time: 00 hr 01 min 05 sec)
Heartbeat CPU 0 instructions: 13500103 cycles: 4832577 heartbeat IPC: 4.344 cumulative IPC: 2.794 (Simulation time: 00 hr 01 min 07 sec)
Heartbeat CPU 0 instructions: 14000109 cycles: 4945034 heartbeat IPC: 4.446 cumulative IPC: 2.831 (Simulation time: 00 hr 01 min 09 sec)
Heartbeat CPU 0 instructions: 14500113 cycles: 5045041 heartbeat IPC: 5 cumulative IPC: 2.874 (Simulation time: 00 hr 01 min 11 sec)
Heartbeat CPU 0 instructions: 15000115 cycles: 5148137 heartbeat IPC: 4.85 cumulative IPC: 2.914 (Simulation time: 00 hr 01 min 12 sec)
Heartbeat CPU 0 instructions: 15500119 cycles: 5272975 heartbeat IPC: 4.005 cumulative IPC: 2.94 (Simulation time: 00 hr 01 min 14 sec)
Heartbeat CPU 0 instructions: 16000121 cycles: 5393726 heartbeat IPC: 4.141 cumulative IPC: 2.966 (Simulation time: 00 hr 01 min 17 sec)
Heartbeat CPU 0 instructions: 16500121 cycles: 5510748 heartbeat IPC: 4.273 cumulative IPC: 2.994 (Simulation time: 00 hr 01 min 19 sec)
Heartbeat CPU 0 instructions: 17000121 cycles: 5627393 heartbeat IPC: 4.287 cumulative IPC: 3.021 (Simulation time: 00 hr 01 min 21 sec)
Heartbeat CPU 0 instructions: 17500123 cycles: 5744536 heartbeat IPC: 4.268 cumulative IPC: 3.046 (Simulation time: 00 hr 01 min 24 sec)
Heartbeat CPU 0 instructions: 18000130 cycles: 5862004 heartbeat IPC: 4.257 cumulative IPC: 3.071 (Simulation time: 00 hr 01 min 26 sec)
Heartbeat CPU 0 instructions: 18500130 cycles: 5979504 heartbeat IPC: 4.255 cumulative IPC: 3.094 (Simulation time: 00 hr 01 min 28 sec)
Heartbeat CPU 0 instructions: 19000134 cycles: 6096702 heartbeat IPC: 4.266 cumulative IPC: 3.116 (Simulation time: 00 hr 01 min 31 sec)
Heartbeat CPU 0 instructions: 19500138 cycles: 6213668 heartbeat IPC: 4.275 cumulative IPC: 3.138 (Simulation time: 00 hr 01 min 33 sec)
Heartbeat CPU 0 instructions: 20000143 cycles: 6330852 heartbeat IPC: 4.267 cumulative IPC: 3.159 (Simulation time: 00 hr 01 min 35 sec)
Heartbeat CPU 0 instructions: 20500146 cycles: 6448240 heartbeat IPC: 4.259 cumulative IPC: 3.179 (Simulation time: 00 hr 01 min 38 sec)
Heartbeat CPU 0 instructions: 21000152 cycles: 6565474 heartbeat IPC: 4.265 cumulative IPC: 3.199 (Simulation time: 00 hr 01 min 40 sec)
Heartbeat CPU 0 instructions: 21500154 cycles: 6688496 heartbeat IPC: 4.064 cumulative IPC: 3.214 (Simulation time: 00 hr 01 min 43 sec)
Heartbeat CPU 0 instructions: 22000154 cycles: 6805652 heartbeat IPC: 4.268 cumulative IPC: 3.233 (Simulation time: 00 hr 01 min 45 sec)
Heartbeat CPU 0 instructions: 22500161 cycles: 6922890 heartbeat IPC: 4.265 cumulative IPC: 3.25 (Simulation time: 00 hr 01 min 47 sec)
Heartbeat CPU 0 instructions: 23000164 cycles: 7040053 heartbeat IPC: 4.268 cumulative IPC: 3.267 (Simulation time: 00 hr 01 min 50 sec)
Heartbeat CPU 0 instructions: 23500168 cycles: 7157065 heartbeat IPC: 4.273 cumulative IPC: 3.283 (Simulation time: 00 hr 01 min 52 sec)
Heartbeat CPU 0 instructions: 24000174 cycles: 7274288 heartbeat IPC: 4.265 cumulative IPC: 3.299 (Simulation time: 00 hr 01 min 54 sec)
Heartbeat CPU 0 instructions: 24500178 cycles: 7391153 heartbeat IPC: 4.278 cumulative IPC: 3.315 (Simulation time: 00 hr 01 min 57 sec)
Heartbeat CPU 0 instructions: 25000182 cycles: 7508348 heartbeat IPC: 4.266 cumulative IPC: 3.33 (Simulation time: 00 hr 01 min 59 sec)
Heartbeat CPU 0 instructions: 25500182 cycles: 7630751 heartbeat IPC: 4.085 cumulative IPC: 3.342 (Simulation time: 00 hr 02 min 01 sec)
Heartbeat CPU 0 instructions: 26000186 cycles: 7751806 heartbeat IPC: 4.13 cumulative IPC: 3.354 (Simulation time: 00 hr 02 min 04 sec)
Heartbeat CPU 0 instructions: 26500189 cycles: 7879460 heartbeat IPC: 3.917 cumulative IPC: 3.363 (Simulation time: 00 hr 02 min 06 sec)
Heartbeat CPU 0 instructions: 27000196 cycles: 7997007 heartbeat IPC: 4.254 cumulative IPC: 3.376 (Simulation time: 00 hr 02 min 09 sec)
Heartbeat CPU 0 instructions: 27500202 cycles: 8121449 heartbeat IPC: 4.018 cumulative IPC: 3.386 (Simulation time: 00 hr 02 min 11 sec)
Heartbeat CPU 0 instructions: 28000204 cycles: 8239185 heartbeat IPC: 4.247 cumulative IPC: 3.398 (Simulation time: 00 hr 02 min 13 sec)
Heartbeat CPU 0 instructions: 28500208 cycles: 8357145 heartbeat IPC: 4.239 cumulative IPC: 3.41 (Simulation time: 00 hr 02 min 16 sec)
Heartbeat CPU 0 instructions: 29000212 cycles: 8478752 heartbeat IPC: 4.112 cumulative IPC: 3.42 (Simulation time: 00 hr 02 min 18 sec)
Heartbeat CPU 0 instructions: 29500213 cycles: 8596350 heartbeat IPC: 4.252 cumulative IPC: 3.432 (Simulation time: 00 hr 02 min 20 sec)
Heartbeat CPU 0 instructions: 30000219 cycles: 8714180 heartbeat IPC: 4.243 cumulative IPC: 3.443 (Simulation time: 00 hr 02 min 23 sec)
Heartbeat CPU 0 instructions: 30500220 cycles: 8832079 heartbeat IPC: 4.241 cumulative IPC: 3.453 (Simulation time: 00 hr 02 min 25 sec)
Heartbeat CPU 0 instructions: 31000222 cycles: 9004670 heartbeat IPC: 2.897 cumulative IPC: 3.443 (Simulation time: 00 hr 02 min 28 sec)
Heartbeat CPU 0 instructions: 31500225 cycles: 9197911 heartbeat IPC: 2.587 cumulative IPC: 3.425 (Simulation time: 00 hr 02 min 30 sec)
Heartbeat CPU 0 instructions: 32000229 cycles: 9390362 heartbeat IPC: 2.598 cumulative IPC: 3.408 (Simulation time: 00 hr 02 min 33 sec)
Heartbeat CPU 0 instructions: 32500233 cycles: 9563792 heartbeat IPC: 2.883 cumulative IPC: 3.398 (Simulation time: 00 hr 02 min 36 sec)
Heartbeat CPU 0 instructions: 33000234 cycles: 9758671 heartbeat IPC: 2.566 cumulative IPC: 3.382 (Simulation time: 00 hr 02 min 38 sec)
Heartbeat CPU 0 instructions: 33500237 cycles: 9955767 heartbeat IPC: 2.537 cumulative IPC: 3.365 (Simulation time: 00 hr 02 min 41 sec)
Heartbeat CPU 0 instructions: 34000237 cycles: 10149575 heartbeat IPC: 2.58 cumulative IPC: 3.35 (Simulation time: 00 hr 02 min 43 sec)
Heartbeat CPU 0 instructions: 34500241 cycles: 10341075 heartbeat IPC: 2.611 cumulative IPC: 3.336 (Simulation time: 00 hr 02 min 46 sec)
Heartbeat CPU 0 instructions: 35000245 cycles: 10532716 heartbeat IPC: 2.609 cumulative IPC: 3.323 (Simulation time: 00 hr 02 min 48 sec)
Heartbeat CPU 0 instructions: 35500250 cycles: 10727480 heartbeat IPC: 2.567 cumulative IPC: 3.309 (Simulation time: 00 hr 02 min 51 sec)
Heartbeat CPU 0 instructions: 36000254 cycles: 10922575 heartbeat IPC: 2.563 cumulative IPC: 3.296 (Simulation time: 00 hr 02 min 54 sec)
Heartbeat CPU 0 instructions: 36500257 cycles: 11114411 heartbeat IPC: 2.606 cumulative IPC: 3.284 (Simulation time: 00 hr 02 min 56 sec)
Heartbeat CPU 0 instructions: 37000258 cycles: 11305513 heartbeat IPC: 2.616 cumulative IPC: 3.273 (Simulation time: 00 hr 02 min 59 sec)
Heartbeat CPU 0 instructions: 37500262 cycles: 11496704 heartbeat IPC: 2.615 cumulative IPC: 3.262 (Simulation time: 00 hr 03 min 01 sec)
Heartbeat CPU 0 instructions: 38000266 cycles: 11691095 heartbeat IPC: 2.572 cumulative IPC: 3.25 (Simulation time: 00 hr 03 min 04 sec)
Heartbeat CPU 0 instructions: 38500271 cycles: 11887145 heartbeat IPC: 2.55 cumulative IPC: 3.239 (Simulation time: 00 hr 03 min 06 sec)
Heartbeat CPU 0 instructions: 39000274 cycles: 12079490 heartbeat IPC: 2.6 cumulative IPC: 3.229 (Simulation time: 00 hr 03 min 09 sec)
Heartbeat CPU 0 instructions: 39500278 cycles: 12251763 heartbeat IPC: 2.902 cumulative IPC: 3.224 (Simulation time: 00 hr 03 min 12 sec)
Heartbeat CPU 0 instructions: 40000282 cycles: 12442750 heartbeat IPC: 2.618 cumulative IPC: 3.215 (Simulation time: 00 hr 03 min 14 sec)
Heartbeat CPU 0 instructions: 40500282 cycles: 12636509 heartbeat IPC: 2.581 cumulative IPC: 3.205 (Simulation time: 00 hr 03 min 17 sec)
Heartbeat CPU 0 instructions: 41000286 cycles: 12827863 heartbeat IPC: 2.613 cumulative IPC: 3.196 (Simulation time: 00 hr 03 min 19 sec)
Heartbeat CPU 0 instructions: 41500291 cycles: 12985361 heartbeat IPC: 3.175 cumulative IPC: 3.196 (Simulation time: 00 hr 03 min 21 sec)
Heartbeat CPU 0 instructions: 42000293 cycles: 13126386 heartbeat IPC: 3.545 cumulative IPC: 3.2 (Simulation time: 00 hr 03 min 23 sec)
Heartbeat CPU 0 instructions: 42500293 cycles: 13267463 heartbeat IPC: 3.544 cumulative IPC: 3.203 (Simulation time: 00 hr 03 min 26 sec)
Heartbeat CPU 0 instructions: 43000298 cycles: 13408160 heartbeat IPC: 3.554 cumulative IPC: 3.207 (Simulation time: 00 hr 03 min 28 sec)
Heartbeat CPU 0 instructions: 43500301 cycles: 13534044 heartbeat IPC: 3.972 cumulative IPC: 3.214 (Simulation time: 00 hr 03 min 30 sec)
Heartbeat CPU 0 instructions: 44000301 cycles: 13659863 heartbeat IPC: 3.974 cumulative IPC: 3.221 (Simulation time: 00 hr 03 min 33 sec)
Heartbeat CPU 0 instructions: 44500301 cycles: 13785602 heartbeat IPC: 3.976 cumulative IPC: 3.228 (Simulation time: 00 hr 03 min 35 sec)
Heartbeat CPU 0 instructions: 45000302 cycles: 13911699 heartbeat IPC: 3.965 cumulative IPC: 3.235 (Simulation time: 00 hr 03 min 37 sec)
Heartbeat CPU 0 instructions: 45500304 cycles: 14037553 heartbeat IPC: 3.973 cumulative IPC: 3.241 (Simulation time: 00 hr 03 min 40 sec)
Heartbeat CPU 0 instructions: 46000304 cycles: 14163203 heartbeat IPC: 3.979 cumulative IPC: 3.248 (Simulation time: 00 hr 03 min 42 sec)
Heartbeat CPU 0 instructions: 46500309 cycles: 14288825 heartbeat IPC: 3.98 cumulative IPC: 3.254 (Simulation time: 00 hr 03 min 45 sec)
Heartbeat CPU 0 instructions: 47000314 cycles: 14414748 heartbeat IPC: 3.971 cumulative IPC: 3.261 (Simulation time: 00 hr 03 min 47 sec)
Heartbeat CPU 0 instructions: 47500318 cycles: 14542041 heartbeat IPC: 3.928 cumulative IPC: 3.266 (Simulation time: 00 hr 03 min 50 sec)
Heartbeat CPU 0 instructions: 48000322 cycles: 14668037 heartbeat IPC: 3.968 cumulative IPC: 3.272 (Simulation time: 00 hr 03 min 52 sec)
Heartbeat CPU 0 instructions: 48500326 cycles: 14818673 heartbeat IPC: 3.319 cumulative IPC: 3.273 (Simulation time: 00 hr 03 min 55 sec)
Heartbeat CPU 0 instructions: 49000329 cycles: 14949186 heartbeat IPC: 3.831 cumulative IPC: 3.278 (Simulation time: 00 hr 03 min 57 sec)
Heartbeat CPU 0 instructions: 49500330 cycles: 15074997 heartbeat IPC: 3.974 cumulative IPC: 3.284 (Simulation time: 00 hr 04 min 00 sec)
Warmup halting CPU 0 at instruction 50000006 cycle 15201406 for remainder of phase
Warmup finished CPU 0 instructions: 50000006 cycles: 15201406 cumulative IPC: 3.289 (Simulation time: 00 hr 04 min 02 sec)
Warmup complete CPU 0 instructions: 50000006 cycles: 15201406 cumulative IPC: 3.289 (Simulation time: 00 hr 04 min 02 sec)
Heartbeat CPU 0 instructions: 50000334 cycles: 15201661 heartbeat IPC: 3.947 cumulative IPC: 1.286 (Simulation time: 00 hr 04 min 02 sec)
Heartbeat CPU 0 instructions: 50500337 cycles: 15432756 heartbeat IPC: 2.164 cumulative IPC: 2.163 (Simulation time: 00 hr 04 min 06 sec)
Heartbeat CPU 0 instructions: 51000338 cycles: 15690599 heartbeat IPC: 1.939 cumulative IPC: 2.045 (Simulation time: 00 hr 04 min 10 sec)
Heartbeat CPU 0 instructions: 51500340 cycles: 15921363 heartbeat IPC: 2.167 cumulative IPC: 2.084 (Simulation time: 00 hr 04 min 13 sec)
Heartbeat CPU 0 instructions: 52000340 cycles: 16155853 heartbeat IPC: 2.132 cumulative IPC: 2.096 (Simulation time: 00 hr 04 min 17 sec)
Heartbeat CPU 0 instructions: 52500344 cycles: 16399351 heartbeat IPC: 2.053 cumulative IPC: 2.087 (Simulation time: 00 hr 04 min 21 sec)
Heartbeat CPU 0 instructions: 53000344 cycles: 16631243 heartbeat IPC: 2.156 cumulative IPC: 2.098 (Simulation time: 00 hr 04 min 24 sec)
Heartbeat CPU 0 instructions: 53500349 cycles: 16884872 heartbeat IPC: 1.971 cumulative IPC: 2.079 (Simulation time: 00 hr 04 min 28 sec)
Heartbeat CPU 0 instructions: 54000350 cycles: 17567984 heartbeat IPC: 0.7319 cumulative IPC: 1.69 (Simulation time: 00 hr 04 min 36 sec)
Heartbeat CPU 0 instructions: 54500356 cycles: 18480459 heartbeat IPC: 0.548 cumulative IPC: 1.372 (Simulation time: 00 hr 04 min 48 sec)
Heartbeat CPU 0 instructions: 55000362 cycles: 19496097 heartbeat IPC: 0.4923 cumulative IPC: 1.164 (Simulation time: 00 hr 05 min 00 sec)
Heartbeat CPU 0 instructions: 55500363 cycles: 20345686 heartbeat IPC: 0.5885 cumulative IPC: 1.069 (Simulation time: 00 hr 05 min 10 sec)
Heartbeat CPU 0 instructions: 56000363 cycles: 20601554 heartbeat IPC: 1.954 cumulative IPC: 1.111 (Simulation time: 00 hr 05 min 14 sec)
Heartbeat CPU 0 instructions: 56500364 cycles: 20851269 heartbeat IPC: 2.002 cumulative IPC: 1.151 (Simulation time: 00 hr 05 min 18 sec)
Heartbeat CPU 0 instructions: 57000368 cycles: 21094783 heartbeat IPC: 2.053 cumulative IPC: 1.188 (Simulation time: 00 hr 05 min 21 sec)
Heartbeat CPU 0 instructions: 57500375 cycles: 21349044 heartbeat IPC: 1.967 cumulative IPC: 1.22 (Simulation time: 00 hr 05 min 25 sec)
Heartbeat CPU 0 instructions: 58000379 cycles: 21615331 heartbeat IPC: 1.878 cumulative IPC: 1.247 (Simulation time: 00 hr 05 min 29 sec)
Heartbeat CPU 0 instructions: 58500380 cycles: 21878672 heartbeat IPC: 1.899 cumulative IPC: 1.273 (Simulation time: 00 hr 05 min 33 sec)
Heartbeat CPU 0 instructions: 59000380 cycles: 22128662 heartbeat IPC: 2 cumulative IPC: 1.299 (Simulation time: 00 hr 05 min 37 sec)
Heartbeat CPU 0 instructions: 59500386 cycles: 22379332 heartbeat IPC: 1.995 cumulative IPC: 1.324 (Simulation time: 00 hr 05 min 41 sec)
Heartbeat CPU 0 instructions: 60000389 cycles: 22640877 heartbeat IPC: 1.912 cumulative IPC: 1.344 (Simulation time: 00 hr 05 min 44 sec)
Heartbeat CPU 0 instructions: 60500391 cycles: 22899377 heartbeat IPC: 1.934 cumulative IPC: 1.364 (Simulation time: 00 hr 05 min 48 sec)
Heartbeat CPU 0 instructions: 61000392 cycles: 23159404 heartbeat IPC: 1.923 cumulative IPC: 1.382 (Simulation time: 00 hr 05 min 52 sec)
Heartbeat CPU 0 instructions: 61500396 cycles: 23412765 heartbeat IPC: 1.973 cumulative IPC: 1.401 (Simulation time: 00 hr 05 min 56 sec)
Heartbeat CPU 0 instructions: 62000401 cycles: 23673491 heartbeat IPC: 1.918 cumulative IPC: 1.416 (Simulation time: 00 hr 06 min 00 sec)
Heartbeat CPU 0 instructions: 62500407 cycles: 23939910 heartbeat IPC: 1.877 cumulative IPC: 1.43 (Simulation time: 00 hr 06 min 04 sec)
Heartbeat CPU 0 instructions: 63000413 cycles: 24204553 heartbeat IPC: 1.889 cumulative IPC: 1.444 (Simulation time: 00 hr 06 min 08 sec)
Heartbeat CPU 0 instructions: 63500416 cycles: 24456674 heartbeat IPC: 1.983 cumulative IPC: 1.459 (Simulation time: 00 hr 06 min 12 sec)
Heartbeat CPU 0 instructions: 64000421 cycles: 24705896 heartbeat IPC: 2.006 cumulative IPC: 1.473 (Simulation time: 00 hr 06 min 15 sec)
Heartbeat CPU 0 instructions: 64500422 cycles: 25228034 heartbeat IPC: 0.9576 cumulative IPC: 1.446 (Simulation time: 00 hr 06 min 22 sec)
Heartbeat CPU 0 instructions: 65000428 cycles: 26060960 heartbeat IPC: 0.6003 cumulative IPC: 1.381 (Simulation time: 00 hr 06 min 33 sec)
Heartbeat CPU 0 instructions: 65500431 cycles: 27136690 heartbeat IPC: 0.4648 cumulative IPC: 1.299 (Simulation time: 00 hr 06 min 45 sec)
Heartbeat CPU 0 instructions: 66000438 cycles: 27720431 heartbeat IPC: 0.8566 cumulative IPC: 1.278 (Simulation time: 00 hr 06 min 53 sec)
Heartbeat CPU 0 instructions: 66500439 cycles: 27955008 heartbeat IPC: 2.132 cumulative IPC: 1.294 (Simulation time: 00 hr 06 min 57 sec)
Heartbeat CPU 0 instructions: 67000440 cycles: 28181559 heartbeat IPC: 2.207 cumulative IPC: 1.31 (Simulation time: 00 hr 07 min 00 sec)
Heartbeat CPU 0 instructions: 67500443 cycles: 28410631 heartbeat IPC: 2.183 cumulative IPC: 1.325 (Simulation time: 00 hr 07 min 04 sec)
Heartbeat CPU 0 instructions: 68000449 cycles: 28657196 heartbeat IPC: 2.028 cumulative IPC: 1.338 (Simulation time: 00 hr 07 min 07 sec)
Heartbeat CPU 0 instructions: 68500455 cycles: 28893778 heartbeat IPC: 2.113 cumulative IPC: 1.351 (Simulation time: 00 hr 07 min 11 sec)
Heartbeat CPU 0 instructions: 69000460 cycles: 29127497 heartbeat IPC: 2.139 cumulative IPC: 1.364 (Simulation time: 00 hr 07 min 15 sec)
Heartbeat CPU 0 instructions: 69500464 cycles: 29353342 heartbeat IPC: 2.214 cumulative IPC: 1.378 (Simulation time: 00 hr 07 min 18 sec)
Heartbeat CPU 0 instructions: 70000465 cycles: 29588306 heartbeat IPC: 2.128 cumulative IPC: 1.39 (Simulation time: 00 hr 07 min 22 sec)
Heartbeat CPU 0 instructions: 70500469 cycles: 29818932 heartbeat IPC: 2.168 cumulative IPC: 1.402 (Simulation time: 00 hr 07 min 25 sec)
Heartbeat CPU 0 instructions: 71000474 cycles: 30055018 heartbeat IPC: 2.118 cumulative IPC: 1.414 (Simulation time: 00 hr 07 min 29 sec)
Heartbeat CPU 0 instructions: 71500476 cycles: 30268713 heartbeat IPC: 2.34 cumulative IPC: 1.427 (Simulation time: 00 hr 07 min 32 sec)
Heartbeat CPU 0 instructions: 72000476 cycles: 30485209 heartbeat IPC: 2.31 cumulative IPC: 1.439 (Simulation time: 00 hr 07 min 36 sec)
Heartbeat CPU 0 instructions: 72500476 cycles: 30704590 heartbeat IPC: 2.279 cumulative IPC: 1.451 (Simulation time: 00 hr 07 min 39 sec)
Heartbeat CPU 0 instructions: 73000480 cycles: 30922300 heartbeat IPC: 2.297 cumulative IPC: 1.463 (Simulation time: 00 hr 07 min 43 sec)
Heartbeat CPU 0 instructions: 73500480 cycles: 31147463 heartbeat IPC: 2.221 cumulative IPC: 1.474 (Simulation time: 00 hr 07 min 46 sec)
Heartbeat CPU 0 instructions: 74000482 cycles: 31364689 heartbeat IPC: 2.302 cumulative IPC: 1.485 (Simulation time: 00 hr 07 min 49 sec)
Heartbeat CPU 0 instructions: 74500483 cycles: 31589027 heartbeat IPC: 2.229 cumulative IPC: 1.495 (Simulation time: 00 hr 07 min 53 sec)
Heartbeat CPU 0 instructions: 75000485 cycles: 32195282 heartbeat IPC: 0.8247 cumulative IPC: 1.471 (Simulation time: 00 hr 08 min 00 sec)
Heartbeat CPU 0 instructions: 75500489 cycles: 33062222 heartbeat IPC: 0.5767 cumulative IPC: 1.428 (Simulation time: 00 hr 08 min 11 sec)
Heartbeat CPU 0 instructions: 76000491 cycles: 34036740 heartbeat IPC: 0.5131 cumulative IPC: 1.38 (Simulation time: 00 hr 08 min 22 sec)
Heartbeat CPU 0 instructions: 76500491 cycles: 34374305 heartbeat IPC: 1.481 cumulative IPC: 1.382 (Simulation time: 00 hr 08 min 27 sec)
Heartbeat CPU 0 instructions: 77000492 cycles: 34624789 heartbeat IPC: 1.996 cumulative IPC: 1.39 (Simulation time: 00 hr 08 min 31 sec)
Heartbeat CPU 0 instructions: 77500499 cycles: 34868591 heartbeat IPC: 2.051 cumulative IPC: 1.398 (Simulation time: 00 hr 08 min 34 sec)
Heartbeat CPU 0 instructions: 78000504 cycles: 35119975 heartbeat IPC: 1.989 cumulative IPC: 1.406 (Simulation time: 00 hr 08 min 38 sec)
Heartbeat CPU 0 instructions: 78500507 cycles: 35377531 heartbeat IPC: 1.941 cumulative IPC: 1.413 (Simulation time: 00 hr 08 min 42 sec)
Heartbeat CPU 0 instructions: 79000510 cycles: 35635162 heartbeat IPC: 1.941 cumulative IPC: 1.419 (Simulation time: 00 hr 08 min 46 sec)
Heartbeat CPU 0 instructions: 79500516 cycles: 35897665 heartbeat IPC: 1.905 cumulative IPC: 1.425 (Simulation time: 00 hr 08 min 50 sec)
Heartbeat CPU 0 instructions: 80000521 cycles: 36143834 heartbeat IPC: 2.031 cumulative IPC: 1.433 (Simulation time: 00 hr 08 min 53 sec)
Heartbeat CPU 0 instructions: 80500528 cycles: 36395809 heartbeat IPC: 1.984 cumulative IPC: 1.439 (Simulation time: 00 hr 08 min 57 sec)
Heartbeat CPU 0 instructions: 81000529 cycles: 36657391 heartbeat IPC: 1.911 cumulative IPC: 1.445 (Simulation time: 00 hr 09 min 01 sec)
Heartbeat CPU 0 instructions: 81500532 cycles: 36921225 heartbeat IPC: 1.895 cumulative IPC: 1.45 (Simulation time: 00 hr 09 min 05 sec)
Heartbeat CPU 0 instructions: 82000535 cycles: 37185644 heartbeat IPC: 1.891 cumulative IPC: 1.456 (Simulation time: 00 hr 09 min 09 sec)
Heartbeat CPU 0 instructions: 82500535 cycles: 37435725 heartbeat IPC: 1.999 cumulative IPC: 1.462 (Simulation time: 00 hr 09 min 13 sec)
Heartbeat CPU 0 instructions: 83000542 cycles: 37687996 heartbeat IPC: 1.982 cumulative IPC: 1.468 (Simulation time: 00 hr 09 min 16 sec)
Heartbeat CPU 0 instructions: 83500543 cycles: 37952497 heartbeat IPC: 1.89 cumulative IPC: 1.472 (Simulation time: 00 hr 09 min 20 sec)
Heartbeat CPU 0 instructions: 84000544 cycles: 38212703 heartbeat IPC: 1.922 cumulative IPC: 1.478 (Simulation time: 00 hr 09 min 24 sec)
Heartbeat CPU 0 instructions: 84500548 cycles: 38837429 heartbeat IPC: 0.8004 cumulative IPC: 1.46 (Simulation time: 00 hr 09 min 32 sec)
Heartbeat CPU 0 instructions: 85000551 cycles: 39767545 heartbeat IPC: 0.5376 cumulative IPC: 1.425 (Simulation time: 00 hr 09 min 44 sec)
Heartbeat CPU 0 instructions: 85500555 cycles: 40726814 heartbeat IPC: 0.5212 cumulative IPC: 1.391 (Simulation time: 00 hr 09 min 55 sec)
Heartbeat CPU 0 instructions: 86000562 cycles: 40939291 heartbeat IPC: 2.353 cumulative IPC: 1.399 (Simulation time: 00 hr 09 min 59 sec)
Heartbeat CPU 0 instructions: 86500569 cycles: 41159956 heartbeat IPC: 2.266 cumulative IPC: 1.406 (Simulation time: 00 hr 10 min 02 sec)
Heartbeat CPU 0 instructions: 87000574 cycles: 41392013 heartbeat IPC: 2.155 cumulative IPC: 1.413 (Simulation time: 00 hr 10 min 06 sec)
Heartbeat CPU 0 instructions: 87500577 cycles: 41631131 heartbeat IPC: 2.091 cumulative IPC: 1.419 (Simulation time: 00 hr 10 min 10 sec)
Heartbeat CPU 0 instructions: 88000577 cycles: 41863591 heartbeat IPC: 2.151 cumulative IPC: 1.425 (Simulation time: 00 hr 10 min 13 sec)
Heartbeat CPU 0 instructions: 88500584 cycles: 42089084 heartbeat IPC: 2.217 cumulative IPC: 1.432 (Simulation time: 00 hr 10 min 17 sec)
Heartbeat CPU 0 instructions: 89000589 cycles: 42307772 heartbeat IPC: 2.286 cumulative IPC: 1.439 (Simulation time: 00 hr 10 min 20 sec)
Heartbeat CPU 0 instructions: 89500591 cycles: 42528533 heartbeat IPC: 2.265 cumulative IPC: 1.445 (Simulation time: 00 hr 10 min 24 sec)
Heartbeat CPU 0 instructions: 90000591 cycles: 42742865 heartbeat IPC: 2.333 cumulative IPC: 1.452 (Simulation time: 00 hr 10 min 27 sec)
Heartbeat CPU 0 instructions: 90500594 cycles: 42952198 heartbeat IPC: 2.389 cumulative IPC: 1.459 (Simulation time: 00 hr 10 min 31 sec)
Heartbeat CPU 0 instructions: 91000598 cycles: 43161500 heartbeat IPC: 2.389 cumulative IPC: 1.466 (Simulation time: 00 hr 10 min 34 sec)
Heartbeat CPU 0 instructions: 91500605 cycles: 43368804 heartbeat IPC: 2.412 cumulative IPC: 1.473 (Simulation time: 00 hr 10 min 37 sec)
Heartbeat CPU 0 instructions: 92000606 cycles: 43570496 heartbeat IPC: 2.479 cumulative IPC: 1.481 (Simulation time: 00 hr 10 min 40 sec)
Heartbeat CPU 0 instructions: 92500609 cycles: 43789879 heartbeat IPC: 2.279 cumulative IPC: 1.487 (Simulation time: 00 hr 10 min 44 sec)
Heartbeat CPU 0 instructions: 93000616 cycles: 44016155 heartbeat IPC: 2.21 cumulative IPC: 1.492 (Simulation time: 00 hr 10 min 47 sec)
Heartbeat CPU 0 instructions: 93500619 cycles: 44224544 heartbeat IPC: 2.399 cumulative IPC: 1.499 (Simulation time: 00 hr 10 min 51 sec)
Heartbeat CPU 0 instructions: 94000626 cycles: 44893980 heartbeat IPC: 0.7469 cumulative IPC: 1.482 (Simulation time: 00 hr 10 min 59 sec)
Heartbeat CPU 0 instructions: 94500626 cycles: 45727200 heartbeat IPC: 0.6001 cumulative IPC: 1.458 (Simulation time: 00 hr 11 min 09 sec)
Heartbeat CPU 0 instructions: 95000632 cycles: 46425030 heartbeat IPC: 0.7165 cumulative IPC: 1.441 (Simulation time: 00 hr 11 min 18 sec)
Heartbeat CPU 0 instructions: 95500633 cycles: 46684423 heartbeat IPC: 1.928 cumulative IPC: 1.445 (Simulation time: 00 hr 11 min 21 sec)
Heartbeat CPU 0 instructions: 96000638 cycles: 46933980 heartbeat IPC: 2.004 cumulative IPC: 1.45 (Simulation time: 00 hr 11 min 25 sec)
Heartbeat CPU 0 instructions: 96500638 cycles: 47179167 heartbeat IPC: 2.039 cumulative IPC: 1.454 (Simulation time: 00 hr 11 min 29 sec)
Heartbeat CPU 0 instructions: 97000641 cycles: 47427628 heartbeat IPC: 2.012 cumulative IPC: 1.458 (Simulation time: 00 hr 11 min 32 sec)
Heartbeat CPU 0 instructions: 97500641 cycles: 47691261 heartbeat IPC: 1.897 cumulative IPC: 1.462 (Simulation time: 00 hr 11 min 36 sec)
Heartbeat CPU 0 instructions: 98000644 cycles: 47947773 heartbeat IPC: 1.949 cumulative IPC: 1.466 (Simulation time: 00 hr 11 min 40 sec)
Heartbeat CPU 0 instructions: 98500649 cycles: 48193615 heartbeat IPC: 2.034 cumulative IPC: 1.47 (Simulation time: 00 hr 11 min 44 sec)
Heartbeat CPU 0 instructions: 99000652 cycles: 48446208 heartbeat IPC: 1.979 cumulative IPC: 1.474 (Simulation time: 00 hr 11 min 47 sec)
Heartbeat CPU 0 instructions: 99500655 cycles: 48711821 heartbeat IPC: 1.882 cumulative IPC: 1.477 (Simulation time: 00 hr 11 min 51 sec)
Heartbeat CPU 0 instructions: 100000655 cycles: 48976858 heartbeat IPC: 1.887 cumulative IPC: 1.48 (Simulation time: 00 hr 11 min 55 sec)
Heartbeat CPU 0 instructions: 100500660 cycles: 49233659 heartbeat IPC: 1.947 cumulative IPC: 1.484 (Simulation time: 00 hr 11 min 59 sec)
Heartbeat CPU 0 instructions: 101000667 cycles: 49598490 heartbeat IPC: 1.371 cumulative IPC: 1.483 (Simulation time: 00 hr 12 min 04 sec)
Heartbeat CPU 0 instructions: 101500672 cycles: 50350080 heartbeat IPC: 0.6653 cumulative IPC: 1.465 (Simulation time: 00 hr 12 min 14 sec)
Heartbeat CPU 0 instructions: 102000672 cycles: 51057602 heartbeat IPC: 0.7067 cumulative IPC: 1.45 (Simulation time: 00 hr 12 min 23 sec)
Heartbeat CPU 0 instructions: 102500675 cycles: 51255177 heartbeat IPC: 2.531 cumulative IPC: 1.456 (Simulation time: 00 hr 12 min 26 sec)
Heartbeat CPU 0 instructions: 103000678 cycles: 51437794 heartbeat IPC: 2.738 cumulative IPC: 1.463 (Simulation time: 00 hr 12 min 29 sec)
Heartbeat CPU 0 instructions: 103500678 cycles: 51611591 heartbeat IPC: 2.877 cumulative IPC: 1.469 (Simulation time: 00 hr 12 min 32 sec)
Heartbeat CPU 0 instructions: 104000681 cycles: 51791837 heartbeat IPC: 2.774 cumulative IPC: 1.476 (Simulation time: 00 hr 12 min 35 sec)
Heartbeat CPU 0 instructions: 104500683 cycles: 52010958 heartbeat IPC: 2.282 cumulative IPC: 1.481 (Simulation time: 00 hr 12 min 38 sec)
Heartbeat CPU 0 instructions: 105000687 cycles: 52201863 heartbeat IPC: 2.619 cumulative IPC: 1.486 (Simulation time: 00 hr 12 min 42 sec)
Heartbeat CPU 0 instructions: 105500689 cycles: 52387306 heartbeat IPC: 2.696 cumulative IPC: 1.493 (Simulation time: 00 hr 12 min 45 sec)
Heartbeat CPU 0 instructions: 106000692 cycles: 52580351 heartbeat IPC: 2.59 cumulative IPC: 1.498 (Simulation time: 00 hr 12 min 48 sec)
Heartbeat CPU 0 instructions: 106500695 cycles: 52781541 heartbeat IPC: 2.485 cumulative IPC: 1.503 (Simulation time: 00 hr 12 min 51 sec)
Heartbeat CPU 0 instructions: 107000700 cycles: 52957330 heartbeat IPC: 2.844 cumulative IPC: 1.51 (Simulation time: 00 hr 12 min 54 sec)
Heartbeat CPU 0 instructions: 107500700 cycles: 53147931 heartbeat IPC: 2.623 cumulative IPC: 1.515 (Simulation time: 00 hr 12 min 57 sec)
Heartbeat CPU 0 instructions: 108000706 cycles: 53406558 heartbeat IPC: 1.933 cumulative IPC: 1.518 (Simulation time: 00 hr 13 min 01 sec)
Heartbeat CPU 0 instructions: 108500712 cycles: 53947532 heartbeat IPC: 0.9243 cumulative IPC: 1.51 (Simulation time: 00 hr 13 min 08 sec)
Heartbeat CPU 0 instructions: 109000719 cycles: 54504796 heartbeat IPC: 0.8973 cumulative IPC: 1.501 (Simulation time: 00 hr 13 min 14 sec)
Heartbeat CPU 0 instructions: 109500726 cycles: 54756145 heartbeat IPC: 1.989 cumulative IPC: 1.504 (Simulation time: 00 hr 13 min 18 sec)
Heartbeat CPU 0 instructions: 110000733 cycles: 55003977 heartbeat IPC: 2.018 cumulative IPC: 1.507 (Simulation time: 00 hr 13 min 22 sec)
Heartbeat CPU 0 instructions: 110500735 cycles: 55245020 heartbeat IPC: 2.074 cumulative IPC: 1.511 (Simulation time: 00 hr 13 min 25 sec)
Heartbeat CPU 0 instructions: 111000738 cycles: 55482065 heartbeat IPC: 2.109 cumulative IPC: 1.514 (Simulation time: 00 hr 13 min 29 sec)
Heartbeat CPU 0 instructions: 111500740 cycles: 55717378 heartbeat IPC: 2.125 cumulative IPC: 1.518 (Simulation time: 00 hr 13 min 32 sec)
Heartbeat CPU 0 instructions: 112000740 cycles: 55970971 heartbeat IPC: 1.972 cumulative IPC: 1.521 (Simulation time: 00 hr 13 min 36 sec)
Heartbeat CPU 0 instructions: 112500747 cycles: 56227182 heartbeat IPC: 1.952 cumulative IPC: 1.523 (Simulation time: 00 hr 13 min 40 sec)
Heartbeat CPU 0 instructions: 113000748 cycles: 56487505 heartbeat IPC: 1.921 cumulative IPC: 1.526 (Simulation time: 00 hr 13 min 44 sec)
Heartbeat CPU 0 instructions: 113500749 cycles: 57085498 heartbeat IPC: 0.8361 cumulative IPC: 1.516 (Simulation time: 00 hr 13 min 52 sec)
Heartbeat CPU 0 instructions: 114000756 cycles: 57390972 heartbeat IPC: 1.637 cumulative IPC: 1.517 (Simulation time: 00 hr 13 min 56 sec)
Heartbeat CPU 0 instructions: 114500759 cycles: 57533338 heartbeat IPC: 3.512 cumulative IPC: 1.524 (Simulation time: 00 hr 13 min 58 sec)
Heartbeat CPU 0 instructions: 115000766 cycles: 57671789 heartbeat IPC: 3.611 cumulative IPC: 1.53 (Simulation time: 00 hr 14 min 01 sec)
Heartbeat CPU 0 instructions: 115500770 cycles: 57814513 heartbeat IPC: 3.503 cumulative IPC: 1.537 (Simulation time: 00 hr 14 min 03 sec)
Heartbeat CPU 0 instructions: 116000773 cycles: 57954938 heartbeat IPC: 3.561 cumulative IPC: 1.544 (Simulation time: 00 hr 14 min 06 sec)
Heartbeat CPU 0 instructions: 116500778 cycles: 58102307 heartbeat IPC: 3.393 cumulative IPC: 1.55 (Simulation time: 00 hr 14 min 09 sec)
Heartbeat CPU 0 instructions: 117000781 cycles: 58244892 heartbeat IPC: 3.507 cumulative IPC: 1.557 (Simulation time: 00 hr 14 min 11 sec)
Heartbeat CPU 0 instructions: 117500783 cycles: 58394898 heartbeat IPC: 3.333 cumulative IPC: 1.563 (Simulation time: 00 hr 14 min 14 sec)
Heartbeat CPU 0 instructions: 118000787 cycles: 58579933 heartbeat IPC: 2.702 cumulative IPC: 1.568 (Simulation time: 00 hr 14 min 16 sec)
Heartbeat CPU 0 instructions: 118500794 cycles: 58904668 heartbeat IPC: 1.54 cumulative IPC: 1.567 (Simulation time: 00 hr 14 min 21 sec)
Heartbeat CPU 0 instructions: 119000796 cycles: 59150352 heartbeat IPC: 2.035 cumulative IPC: 1.57 (Simulation time: 00 hr 14 min 24 sec)
Heartbeat CPU 0 instructions: 119500798 cycles: 59385186 heartbeat IPC: 2.129 cumulative IPC: 1.573 (Simulation time: 00 hr 14 min 28 sec)
Heartbeat CPU 0 instructions: 120000799 cycles: 59622125 heartbeat IPC: 2.11 cumulative IPC: 1.576 (Simulation time: 00 hr 14 min 31 sec)
Heartbeat CPU 0 instructions: 120500802 cycles: 59860180 heartbeat IPC: 2.1 cumulative IPC: 1.579 (Simulation time: 00 hr 14 min 35 sec)
Heartbeat CPU 0 instructions: 121000802 cycles: 60110529 heartbeat IPC: 1.997 cumulative IPC: 1.581 (Simulation time: 00 hr 14 min 38 sec)
Heartbeat CPU 0 instructions: 121500805 cycles: 60362331 heartbeat IPC: 1.986 cumulative IPC: 1.583 (Simulation time: 00 hr 14 min 42 sec)
Heartbeat CPU 0 instructions: 122000810 cycles: 60610697 heartbeat IPC: 2.013 cumulative IPC: 1.586 (Simulation time: 00 hr 14 min 46 sec)
Heartbeat CPU 0 instructions: 122500812 cycles: 60864939 heartbeat IPC: 1.967 cumulative IPC: 1.588 (Simulation time: 00 hr 14 min 50 sec)
Heartbeat CPU 0 instructions: 123000815 cycles: 61119269 heartbeat IPC: 1.966 cumulative IPC: 1.59 (Simulation time: 00 hr 14 min 53 sec)
Heartbeat CPU 0 instructions: 123500815 cycles: 61386122 heartbeat IPC: 1.874 cumulative IPC: 1.591 (Simulation time: 00 hr 14 min 57 sec)
Heartbeat CPU 0 instructions: 124000821 cycles: 61643268 heartbeat IPC: 1.944 cumulative IPC: 1.593 (Simulation time: 00 hr 15 min 01 sec)
Heartbeat CPU 0 instructions: 124500823 cycles: 62217086 heartbeat IPC: 0.8714 cumulative IPC: 1.585 (Simulation time: 00 hr 15 min 09 sec)
Heartbeat CPU 0 instructions: 125000828 cycles: 63110938 heartbeat IPC: 0.5594 cumulative IPC: 1.565 (Simulation time: 00 hr 15 min 20 sec)
Heartbeat CPU 0 instructions: 125500830 cycles: 63350148 heartbeat IPC: 2.09 cumulative IPC: 1.568 (Simulation time: 00 hr 15 min 24 sec)
Heartbeat CPU 0 instructions: 126000835 cycles: 63528666 heartbeat IPC: 2.801 cumulative IPC: 1.573 (Simulation time: 00 hr 15 min 27 sec)
Heartbeat CPU 0 instructions: 126500841 cycles: 63721504 heartbeat IPC: 2.593 cumulative IPC: 1.577 (Simulation time: 00 hr 15 min 30 sec)
Heartbeat CPU 0 instructions: 127000841 cycles: 63885942 heartbeat IPC: 3.041 cumulative IPC: 1.582 (Simulation time: 00 hr 15 min 33 sec)
Heartbeat CPU 0 instructions: 127500844 cycles: 64076028 heartbeat IPC: 2.63 cumulative IPC: 1.586 (Simulation time: 00 hr 15 min 36 sec)
Heartbeat CPU 0 instructions: 128000846 cycles: 64266084 heartbeat IPC: 2.631 cumulative IPC: 1.59 (Simulation time: 00 hr 15 min 39 sec)
Heartbeat CPU 0 instructions: 128500846 cycles: 64457060 heartbeat IPC: 2.618 cumulative IPC: 1.594 (Simulation time: 00 hr 15 min 42 sec)
Heartbeat CPU 0 instructions: 129000852 cycles: 64641215 heartbeat IPC: 2.715 cumulative IPC: 1.598 (Simulation time: 00 hr 15 min 46 sec)
Heartbeat CPU 0 instructions: 129500855 cycles: 64817579 heartbeat IPC: 2.835 cumulative IPC: 1.602 (Simulation time: 00 hr 15 min 49 sec)
Heartbeat CPU 0 instructions: 130000857 cycles: 64989499 heartbeat IPC: 2.908 cumulative IPC: 1.607 (Simulation time: 00 hr 15 min 51 sec)
Heartbeat CPU 0 instructions: 130500857 cycles: 65171624 heartbeat IPC: 2.745 cumulative IPC: 1.611 (Simulation time: 00 hr 15 min 54 sec)
Heartbeat CPU 0 instructions: 131000859 cycles: 65468911 heartbeat IPC: 1.682 cumulative IPC: 1.611 (Simulation time: 00 hr 15 min 59 sec)
Heartbeat CPU 0 instructions: 131500866 cycles: 66015744 heartbeat IPC: 0.9144 cumulative IPC: 1.604 (Simulation time: 00 hr 16 min 05 sec)
Heartbeat CPU 0 instructions: 132000870 cycles: 66398026 heartbeat IPC: 1.308 cumulative IPC: 1.602 (Simulation time: 00 hr 16 min 10 sec)
Heartbeat CPU 0 instructions: 132500873 cycles: 66643708 heartbeat IPC: 2.035 cumulative IPC: 1.604 (Simulation time: 00 hr 16 min 14 sec)
Heartbeat CPU 0 instructions: 133000873 cycles: 66898026 heartbeat IPC: 1.966 cumulative IPC: 1.606 (Simulation time: 00 hr 16 min 18 sec)
Heartbeat CPU 0 instructions: 133500874 cycles: 67129150 heartbeat IPC: 2.163 cumulative IPC: 1.608 (Simulation time: 00 hr 16 min 21 sec)
Heartbeat CPU 0 instructions: 134000881 cycles: 67362161 heartbeat IPC: 2.146 cumulative IPC: 1.61 (Simulation time: 00 hr 16 min 25 sec)
Heartbeat CPU 0 instructions: 134500884 cycles: 67607530 heartbeat IPC: 2.038 cumulative IPC: 1.612 (Simulation time: 00 hr 16 min 28 sec)
Heartbeat CPU 0 instructions: 135000884 cycles: 67862125 heartbeat IPC: 1.964 cumulative IPC: 1.614 (Simulation time: 00 hr 16 min 32 sec)
Heartbeat CPU 0 instructions: 135500889 cycles: 68111152 heartbeat IPC: 2.008 cumulative IPC: 1.616 (Simulation time: 00 hr 16 min 36 sec)
Heartbeat CPU 0 instructions: 136000896 cycles: 68366585 heartbeat IPC: 1.957 cumulative IPC: 1.618 (Simulation time: 00 hr 16 min 40 sec)
Heartbeat CPU 0 instructions: 136500902 cycles: 68823115 heartbeat IPC: 1.095 cumulative IPC: 1.613 (Simulation time: 00 hr 16 min 46 sec)
Heartbeat CPU 0 instructions: 137000908 cycles: 69502565 heartbeat IPC: 0.7359 cumulative IPC: 1.602 (Simulation time: 00 hr 16 min 55 sec)
Heartbeat CPU 0 instructions: 137500915 cycles: 69649892 heartbeat IPC: 3.394 cumulative IPC: 1.607 (Simulation time: 00 hr 16 min 57 sec)
Heartbeat CPU 0 instructions: 138000918 cycles: 69804023 heartbeat IPC: 3.244 cumulative IPC: 1.612 (Simulation time: 00 hr 17 min 00 sec)
Heartbeat CPU 0 instructions: 138500921 cycles: 69952781 heartbeat IPC: 3.361 cumulative IPC: 1.616 (Simulation time: 00 hr 17 min 03 sec)
Heartbeat CPU 0 instructions: 139000923 cycles: 70109905 heartbeat IPC: 3.182 cumulative IPC: 1.621 (Simulation time: 00 hr 17 min 06 sec)
Heartbeat CPU 0 instructions: 139500930 cycles: 70258471 heartbeat IPC: 3.366 cumulative IPC: 1.626 (Simulation time: 00 hr 17 min 08 sec)
Heartbeat CPU 0 instructions: 140000937 cycles: 70411808 heartbeat IPC: 3.261 cumulative IPC: 1.63 (Simulation time: 00 hr 17 min 11 sec)
Heartbeat CPU 0 instructions: 140500940 cycles: 70567745 heartbeat IPC: 3.206 cumulative IPC: 1.635 (Simulation time: 00 hr 17 min 14 sec)
Heartbeat CPU 0 instructions: 141000943 cycles: 70728512 heartbeat IPC: 3.11 cumulative IPC: 1.639 (Simulation time: 00 hr 17 min 17 sec)
Heartbeat CPU 0 instructions: 141500945 cycles: 70887709 heartbeat IPC: 3.141 cumulative IPC: 1.643 (Simulation time: 00 hr 17 min 20 sec)
Heartbeat CPU 0 instructions: 142000951 cycles: 71180004 heartbeat IPC: 1.711 cumulative IPC: 1.644 (Simulation time: 00 hr 17 min 24 sec)
Heartbeat CPU 0 instructions: 142500954 cycles: 71527416 heartbeat IPC: 1.439 cumulative IPC: 1.642 (Simulation time: 00 hr 17 min 28 sec)
Heartbeat CPU 0 instructions: 143000956 cycles: 71773332 heartbeat IPC: 2.033 cumulative IPC: 1.644 (Simulation time: 00 hr 17 min 32 sec)
Heartbeat CPU 0 instructions: 143500957 cycles: 72009653 heartbeat IPC: 2.116 cumulative IPC: 1.646 (Simulation time: 00 hr 17 min 35 sec)
Heartbeat CPU 0 instructions: 144000958 cycles: 72240510 heartbeat IPC: 2.166 cumulative IPC: 1.648 (Simulation time: 00 hr 17 min 39 sec)
Heartbeat CPU 0 instructions: 144500959 cycles: 72470384 heartbeat IPC: 2.175 cumulative IPC: 1.65 (Simulation time: 00 hr 17 min 42 sec)
Heartbeat CPU 0 instructions: 145000960 cycles: 72706302 heartbeat IPC: 2.119 cumulative IPC: 1.652 (Simulation time: 00 hr 17 min 46 sec)
Heartbeat CPU 0 instructions: 145500961 cycles: 72952815 heartbeat IPC: 2.028 cumulative IPC: 1.654 (Simulation time: 00 hr 17 min 49 sec)
Heartbeat CPU 0 instructions: 146000961 cycles: 73292343 heartbeat IPC: 1.473 cumulative IPC: 1.653 (Simulation time: 00 hr 17 min 54 sec)
Heartbeat CPU 0 instructions: 146500966 cycles: 73658143 heartbeat IPC: 1.367 cumulative IPC: 1.651 (Simulation time: 00 hr 17 min 59 sec)
Heartbeat CPU 0 instructions: 147000967 cycles: 73786195 heartbeat IPC: 3.905 cumulative IPC: 1.656 (Simulation time: 00 hr 18 min 02 sec)
Heartbeat CPU 0 instructions: 147500974 cycles: 73911524 heartbeat IPC: 3.99 cumulative IPC: 1.661 (Simulation time: 00 hr 18 min 04 sec)
Heartbeat CPU 0 instructions: 148000975 cycles: 74039177 heartbeat IPC: 3.917 cumulative IPC: 1.666 (Simulation time: 00 hr 18 min 06 sec)
Heartbeat CPU 0 instructions: 148500978 cycles: 74160943 heartbeat IPC: 4.106 cumulative IPC: 1.671 (Simulation time: 00 hr 18 min 09 sec)
Heartbeat CPU 0 instructions: 149000980 cycles: 74301728 heartbeat IPC: 3.552 cumulative IPC: 1.675 (Simulation time: 00 hr 18 min 11 sec)
Heartbeat CPU 0 instructions: 149500984 cycles: 74437015 heartbeat IPC: 3.696 cumulative IPC: 1.68 (Simulation time: 00 hr 18 min 14 sec)
Heartbeat CPU 0 instructions: 150000989 cycles: 74579290 heartbeat IPC: 3.514 cumulative IPC: 1.684 (Simulation time: 00 hr 18 min 16 sec)
Heartbeat CPU 0 instructions: 150500990 cycles: 74810218 heartbeat IPC: 2.165 cumulative IPC: 1.686 (Simulation time: 00 hr 18 min 19 sec)
Heartbeat CPU 0 instructions: 151000997 cycles: 75073267 heartbeat IPC: 1.901 cumulative IPC: 1.687 (Simulation time: 00 hr 18 min 23 sec)
Heartbeat CPU 0 instructions: 151501004 cycles: 75328711 heartbeat IPC: 1.957 cumulative IPC: 1.688 (Simulation time: 00 hr 18 min 27 sec)
Heartbeat CPU 0 instructions: 152001004 cycles: 75563489 heartbeat IPC: 2.13 cumulative IPC: 1.69 (Simulation time: 00 hr 18 min 30 sec)
Heartbeat CPU 0 instructions: 152501004 cycles: 75810071 heartbeat IPC: 2.028 cumulative IPC: 1.691 (Simulation time: 00 hr 18 min 34 sec)
Heartbeat CPU 0 instructions: 153001007 cycles: 76063220 heartbeat IPC: 1.975 cumulative IPC: 1.692 (Simulation time: 00 hr 18 min 38 sec)
Heartbeat CPU 0 instructions: 153501008 cycles: 76320890 heartbeat IPC: 1.94 cumulative IPC: 1.693 (Simulation time: 00 hr 18 min 42 sec)
Heartbeat CPU 0 instructions: 154001012 cycles: 76568300 heartbeat IPC: 2.021 cumulative IPC: 1.695 (Simulation time: 00 hr 18 min 46 sec)
Heartbeat CPU 0 instructions: 154501012 cycles: 76817151 heartbeat IPC: 2.009 cumulative IPC: 1.696 (Simulation time: 00 hr 18 min 49 sec)
Heartbeat CPU 0 instructions: 155001017 cycles: 77072078 heartbeat IPC: 1.961 cumulative IPC: 1.697 (Simulation time: 00 hr 18 min 53 sec)
Heartbeat CPU 0 instructions: 155501019 cycles: 77329656 heartbeat IPC: 1.941 cumulative IPC: 1.698 (Simulation time: 00 hr 18 min 57 sec)
Heartbeat CPU 0 instructions: 156001023 cycles: 77598506 heartbeat IPC: 1.86 cumulative IPC: 1.699 (Simulation time: 00 hr 19 min 01 sec)
Heartbeat CPU 0 instructions: 156501028 cycles: 77830155 heartbeat IPC: 2.158 cumulative IPC: 1.701 (Simulation time: 00 hr 19 min 05 sec)
Heartbeat CPU 0 instructions: 157001033 cycles: 78528602 heartbeat IPC: 0.7159 cumulative IPC: 1.69 (Simulation time: 00 hr 19 min 14 sec)
Heartbeat CPU 0 instructions: 157501036 cycles: 79486401 heartbeat IPC: 0.522 cumulative IPC: 1.672 (Simulation time: 00 hr 19 min 26 sec)
Heartbeat CPU 0 instructions: 158001040 cycles: 79690829 heartbeat IPC: 2.446 cumulative IPC: 1.675 (Simulation time: 00 hr 19 min 29 sec)
Heartbeat CPU 0 instructions: 158501047 cycles: 79899318 heartbeat IPC: 2.398 cumulative IPC: 1.677 (Simulation time: 00 hr 19 min 32 sec)
Heartbeat CPU 0 instructions: 159001047 cycles: 80099268 heartbeat IPC: 2.501 cumulative IPC: 1.68 (Simulation time: 00 hr 19 min 36 sec)
Heartbeat CPU 0 instructions: 159501047 cycles: 80277396 heartbeat IPC: 2.807 cumulative IPC: 1.683 (Simulation time: 00 hr 19 min 39 sec)
Heartbeat CPU 0 instructions: 160001052 cycles: 80466429 heartbeat IPC: 2.645 cumulative IPC: 1.685 (Simulation time: 00 hr 19 min 42 sec)
Heartbeat CPU 0 instructions: 160501054 cycles: 80667301 heartbeat IPC: 2.489 cumulative IPC: 1.688 (Simulation time: 00 hr 19 min 45 sec)
Heartbeat CPU 0 instructions: 161001057 cycles: 80859461 heartbeat IPC: 2.602 cumulative IPC: 1.691 (Simulation time: 00 hr 19 min 48 sec)
Heartbeat CPU 0 instructions: 161501063 cycles: 81039738 heartbeat IPC: 2.774 cumulative IPC: 1.694 (Simulation time: 00 hr 19 min 52 sec)
Heartbeat CPU 0 instructions: 162001063 cycles: 81223215 heartbeat IPC: 2.725 cumulative IPC: 1.696 (Simulation time: 00 hr 19 min 55 sec)
Heartbeat CPU 0 instructions: 162501069 cycles: 81405926 heartbeat IPC: 2.737 cumulative IPC: 1.699 (Simulation time: 00 hr 19 min 58 sec)
Heartbeat CPU 0 instructions: 163001072 cycles: 81593242 heartbeat IPC: 2.669 cumulative IPC: 1.702 (Simulation time: 00 hr 20 min 01 sec)
Heartbeat CPU 0 instructions: 163501076 cycles: 81789448 heartbeat IPC: 2.548 cumulative IPC: 1.705 (Simulation time: 00 hr 20 min 04 sec)
Heartbeat CPU 0 instructions: 164001076 cycles: 82131692 heartbeat IPC: 1.461 cumulative IPC: 1.703 (Simulation time: 00 hr 20 min 08 sec)
Heartbeat CPU 0 instructions: 164501079 cycles: 82783989 heartbeat IPC: 0.7665 cumulative IPC: 1.694 (Simulation time: 00 hr 20 min 17 sec)
Heartbeat CPU 0 instructions: 165001080 cycles: 83193812 heartbeat IPC: 1.22 cumulative IPC: 1.691 (Simulation time: 00 hr 20 min 22 sec)
Heartbeat CPU 0 instructions: 165501081 cycles: 83448475 heartbeat IPC: 1.963 cumulative IPC: 1.692 (Simulation time: 00 hr 20 min 26 sec)
Heartbeat CPU 0 instructions: 166001081 cycles: 83700121 heartbeat IPC: 1.987 cumulative IPC: 1.693 (Simulation time: 00 hr 20 min 29 sec)
Heartbeat CPU 0 instructions: 166501086 cycles: 83940774 heartbeat IPC: 2.078 cumulative IPC: 1.695 (Simulation time: 00 hr 20 min 33 sec)
Heartbeat CPU 0 instructions: 167001089 cycles: 84173521 heartbeat IPC: 2.148 cumulative IPC: 1.696 (Simulation time: 00 hr 20 min 36 sec)
Heartbeat CPU 0 instructions: 167501090 cycles: 84416938 heartbeat IPC: 2.054 cumulative IPC: 1.698 (Simulation time: 00 hr 20 min 40 sec)
Heartbeat CPU 0 instructions: 168001091 cycles: 84677925 heartbeat IPC: 1.916 cumulative IPC: 1.698 (Simulation time: 00 hr 20 min 44 sec)
Heartbeat CPU 0 instructions: 168501092 cycles: 84944562 heartbeat IPC: 1.875 cumulative IPC: 1.699 (Simulation time: 00 hr 20 min 48 sec)
Heartbeat CPU 0 instructions: 169001093 cycles: 85205060 heartbeat IPC: 1.919 cumulative IPC: 1.7 (Simulation time: 00 hr 20 min 52 sec)
Heartbeat CPU 0 instructions: 169501099 cycles: 85464099 heartbeat IPC: 1.93 cumulative IPC: 1.701 (Simulation time: 00 hr 20 min 55 sec)
Heartbeat CPU 0 instructions: 170001100 cycles: 85718087 heartbeat IPC: 1.969 cumulative IPC: 1.702 (Simulation time: 00 hr 20 min 59 sec)
Heartbeat CPU 0 instructions: 170501101 cycles: 85976974 heartbeat IPC: 1.931 cumulative IPC: 1.703 (Simulation time: 00 hr 21 min 03 sec)
Heartbeat CPU 0 instructions: 171001102 cycles: 86243736 heartbeat IPC: 1.874 cumulative IPC: 1.703 (Simulation time: 00 hr 21 min 07 sec)
Heartbeat CPU 0 instructions: 171501103 cycles: 86679891 heartbeat IPC: 1.146 cumulative IPC: 1.7 (Simulation time: 00 hr 21 min 13 sec)
Heartbeat CPU 0 instructions: 172001105 cycles: 87520937 heartbeat IPC: 0.5945 cumulative IPC: 1.687 (Simulation time: 00 hr 21 min 24 sec)
Heartbeat CPU 0 instructions: 172501107 cycles: 88305469 heartbeat IPC: 0.6373 cumulative IPC: 1.676 (Simulation time: 00 hr 21 min 33 sec)
Heartbeat CPU 0 instructions: 173001107 cycles: 88496404 heartbeat IPC: 2.619 cumulative IPC: 1.678 (Simulation time: 00 hr 21 min 37 sec)
Heartbeat CPU 0 instructions: 173501110 cycles: 88700943 heartbeat IPC: 2.445 cumulative IPC: 1.68 (Simulation time: 00 hr 21 min 40 sec)
Heartbeat CPU 0 instructions: 174001111 cycles: 88901548 heartbeat IPC: 2.492 cumulative IPC: 1.683 (Simulation time: 00 hr 21 min 43 sec)
Heartbeat CPU 0 instructions: 174501112 cycles: 89089379 heartbeat IPC: 2.662 cumulative IPC: 1.685 (Simulation time: 00 hr 21 min 46 sec)
Heartbeat CPU 0 instructions: 175001119 cycles: 89305331 heartbeat IPC: 2.315 cumulative IPC: 1.687 (Simulation time: 00 hr 21 min 50 sec)
Heartbeat CPU 0 instructions: 175501120 cycles: 89528629 heartbeat IPC: 2.239 cumulative IPC: 1.688 (Simulation time: 00 hr 21 min 53 sec)
Heartbeat CPU 0 instructions: 176001127 cycles: 89727910 heartbeat IPC: 2.509 cumulative IPC: 1.691 (Simulation time: 00 hr 21 min 57 sec)
Heartbeat CPU 0 instructions: 176501129 cycles: 89923541 heartbeat IPC: 2.556 cumulative IPC: 1.693 (Simulation time: 00 hr 22 min 00 sec)
Heartbeat CPU 0 instructions: 177001130 cycles: 90115524 heartbeat IPC: 2.604 cumulative IPC: 1.695 (Simulation time: 00 hr 22 min 03 sec)
Heartbeat CPU 0 instructions: 177501131 cycles: 90306127 heartbeat IPC: 2.623 cumulative IPC: 1.698 (Simulation time: 00 hr 22 min 06 sec)
Heartbeat CPU 0 instructions: 178001132 cycles: 90499618 heartbeat IPC: 2.584 cumulative IPC: 1.7 (Simulation time: 00 hr 22 min 09 sec)
Heartbeat CPU 0 instructions: 178501133 cycles: 90704436 heartbeat IPC: 2.441 cumulative IPC: 1.702 (Simulation time: 00 hr 22 min 13 sec)
Heartbeat CPU 0 instructions: 179001133 cycles: 90884974 heartbeat IPC: 2.77 cumulative IPC: 1.704 (Simulation time: 00 hr 22 min 16 sec)
Heartbeat CPU 0 instructions: 179501134 cycles: 91404777 heartbeat IPC: 0.9619 cumulative IPC: 1.699 (Simulation time: 00 hr 22 min 22 sec)
Heartbeat CPU 0 instructions: 180001137 cycles: 92162305 heartbeat IPC: 0.66 cumulative IPC: 1.689 (Simulation time: 00 hr 22 min 31 sec)
Heartbeat CPU 0 instructions: 180501144 cycles: 92507650 heartbeat IPC: 1.448 cumulative IPC: 1.688 (Simulation time: 00 hr 22 min 36 sec)
Heartbeat CPU 0 instructions: 181001151 cycles: 92752671 heartbeat IPC: 2.041 cumulative IPC: 1.689 (Simulation time: 00 hr 22 min 40 sec)
Heartbeat CPU 0 instructions: 181501152 cycles: 92995199 heartbeat IPC: 2.062 cumulative IPC: 1.69 (Simulation time: 00 hr 22 min 44 sec)
Heartbeat CPU 0 instructions: 182001152 cycles: 93236537 heartbeat IPC: 2.072 cumulative IPC: 1.692 (Simulation time: 00 hr 22 min 47 sec)
Heartbeat CPU 0 instructions: 182501158 cycles: 93488230 heartbeat IPC: 1.987 cumulative IPC: 1.693 (Simulation time: 00 hr 22 min 51 sec)
Heartbeat CPU 0 instructions: 183001158 cycles: 93741526 heartbeat IPC: 1.974 cumulative IPC: 1.693 (Simulation time: 00 hr 22 min 54 sec)
Heartbeat CPU 0 instructions: 183501165 cycles: 93986847 heartbeat IPC: 2.038 cumulative IPC: 1.694 (Simulation time: 00 hr 22 min 58 sec)
Heartbeat CPU 0 instructions: 184001172 cycles: 94239646 heartbeat IPC: 1.978 cumulative IPC: 1.695 (Simulation time: 00 hr 23 min 02 sec)
Heartbeat CPU 0 instructions: 184501176 cycles: 94493953 heartbeat IPC: 1.966 cumulative IPC: 1.696 (Simulation time: 00 hr 23 min 06 sec)
Heartbeat CPU 0 instructions: 185001176 cycles: 94791529 heartbeat IPC: 1.68 cumulative IPC: 1.696 (Simulation time: 00 hr 23 min 10 sec)
Heartbeat CPU 0 instructions: 185501179 cycles: 95458809 heartbeat IPC: 0.7493 cumulative IPC: 1.688 (Simulation time: 00 hr 23 min 19 sec)
Heartbeat CPU 0 instructions: 186001182 cycles: 95953886 heartbeat IPC: 1.01 cumulative IPC: 1.684 (Simulation time: 00 hr 23 min 25 sec)
Heartbeat CPU 0 instructions: 186501188 cycles: 96111844 heartbeat IPC: 3.165 cumulative IPC: 1.687 (Simulation time: 00 hr 23 min 28 sec)
Heartbeat CPU 0 instructions: 187001195 cycles: 96270098 heartbeat IPC: 3.16 cumulative IPC: 1.69 (Simulation time: 00 hr 23 min 31 sec)
Heartbeat CPU 0 instructions: 187501200 cycles: 96425258 heartbeat IPC: 3.223 cumulative IPC: 1.693 (Simulation time: 00 hr 23 min 34 sec)
Heartbeat CPU 0 instructions: 188001200 cycles: 96599995 heartbeat IPC: 2.861 cumulative IPC: 1.695 (Simulation time: 00 hr 23 min 37 sec)
Heartbeat CPU 0 instructions: 188501202 cycles: 96757135 heartbeat IPC: 3.182 cumulative IPC: 1.698 (Simulation time: 00 hr 23 min 40 sec)
Heartbeat CPU 0 instructions: 189001202 cycles: 96936417 heartbeat IPC: 2.789 cumulative IPC: 1.701 (Simulation time: 00 hr 23 min 43 sec)
Heartbeat CPU 0 instructions: 189501209 cycles: 97094841 heartbeat IPC: 3.156 cumulative IPC: 1.703 (Simulation time: 00 hr 23 min 46 sec)
Heartbeat CPU 0 instructions: 190001216 cycles: 97252502 heartbeat IPC: 3.171 cumulative IPC: 1.706 (Simulation time: 00 hr 23 min 48 sec)
Heartbeat CPU 0 instructions: 190501223 cycles: 97427567 heartbeat IPC: 2.856 cumulative IPC: 1.709 (Simulation time: 00 hr 23 min 51 sec)
Heartbeat CPU 0 instructions: 191001229 cycles: 97713777 heartbeat IPC: 1.747 cumulative IPC: 1.709 (Simulation time: 00 hr 23 min 55 sec)
Heartbeat CPU 0 instructions: 191501235 cycles: 98161375 heartbeat IPC: 1.117 cumulative IPC: 1.706 (Simulation time: 00 hr 24 min 01 sec)
Heartbeat CPU 0 instructions: 192001239 cycles: 98418323 heartbeat IPC: 1.946 cumulative IPC: 1.706 (Simulation time: 00 hr 24 min 05 sec)
Heartbeat CPU 0 instructions: 192501241 cycles: 98656028 heartbeat IPC: 2.103 cumulative IPC: 1.708 (Simulation time: 00 hr 24 min 08 sec)
Heartbeat CPU 0 instructions: 193001248 cycles: 98892602 heartbeat IPC: 2.114 cumulative IPC: 1.709 (Simulation time: 00 hr 24 min 12 sec)
Heartbeat CPU 0 instructions: 193501255 cycles: 99131654 heartbeat IPC: 2.092 cumulative IPC: 1.71 (Simulation time: 00 hr 24 min 15 sec)
Heartbeat CPU 0 instructions: 194001261 cycles: 99370765 heartbeat IPC: 2.091 cumulative IPC: 1.711 (Simulation time: 00 hr 24 min 19 sec)
Heartbeat CPU 0 instructions: 194501261 cycles: 99626458 heartbeat IPC: 1.955 cumulative IPC: 1.712 (Simulation time: 00 hr 24 min 22 sec)
Heartbeat CPU 0 instructions: 195001263 cycles: 99872162 heartbeat IPC: 2.035 cumulative IPC: 1.713 (Simulation time: 00 hr 24 min 26 sec)
Heartbeat CPU 0 instructions: 195501268 cycles: 100124702 heartbeat IPC: 1.98 cumulative IPC: 1.713 (Simulation time: 00 hr 24 min 30 sec)
Heartbeat CPU 0 instructions: 196001269 cycles: 100383784 heartbeat IPC: 1.93 cumulative IPC: 1.714 (Simulation time: 00 hr 24 min 34 sec)
Heartbeat CPU 0 instructions: 196501272 cycles: 100677987 heartbeat IPC: 1.7 cumulative IPC: 1.714 (Simulation time: 00 hr 24 min 38 sec)
Heartbeat CPU 0 instructions: 197001272 cycles: 101362495 heartbeat IPC: 0.7305 cumulative IPC: 1.706 (Simulation time: 00 hr 24 min 47 sec)
Heartbeat CPU 0 instructions: 197501275 cycles: 101896446 heartbeat IPC: 0.9364 cumulative IPC: 1.701 (Simulation time: 00 hr 24 min 54 sec)
Heartbeat CPU 0 instructions: 198001282 cycles: 102057306 heartbeat IPC: 3.108 cumulative IPC: 1.704 (Simulation time: 00 hr 24 min 57 sec)
Heartbeat CPU 0 instructions: 198501283 cycles: 102222371 heartbeat IPC: 3.029 cumulative IPC: 1.707 (Simulation time: 00 hr 25 min 00 sec)
Heartbeat CPU 0 instructions: 199001288 cycles: 102377342 heartbeat IPC: 3.226 cumulative IPC: 1.709 (Simulation time: 00 hr 25 min 03 sec)
Heartbeat CPU 0 instructions: 199501291 cycles: 102554102 heartbeat IPC: 2.829 cumulative IPC: 1.711 (Simulation time: 00 hr 25 min 06 sec)
Heartbeat CPU 0 instructions: 200001297 cycles: 102727781 heartbeat IPC: 2.879 cumulative IPC: 1.714 (Simulation time: 00 hr 25 min 09 sec)
Heartbeat CPU 0 instructions: 200501304 cycles: 102891702 heartbeat IPC: 3.05 cumulative IPC: 1.716 (Simulation time: 00 hr 25 min 12 sec)
Heartbeat CPU 0 instructions: 201001304 cycles: 103064068 heartbeat IPC: 2.901 cumulative IPC: 1.719 (Simulation time: 00 hr 25 min 15 sec)
Heartbeat CPU 0 instructions: 201501309 cycles: 103222396 heartbeat IPC: 3.158 cumulative IPC: 1.721 (Simulation time: 00 hr 25 min 17 sec)
Heartbeat CPU 0 instructions: 202001316 cycles: 103395419 heartbeat IPC: 2.89 cumulative IPC: 1.723 (Simulation time: 00 hr 25 min 20 sec)
Heartbeat CPU 0 instructions: 202501318 cycles: 103605068 heartbeat IPC: 2.385 cumulative IPC: 1.725 (Simulation time: 00 hr 25 min 23 sec)
Heartbeat CPU 0 instructions: 203001325 cycles: 104053207 heartbeat IPC: 1.116 cumulative IPC: 1.722 (Simulation time: 00 hr 25 min 29 sec)
Heartbeat CPU 0 instructions: 203501327 cycles: 104380197 heartbeat IPC: 1.529 cumulative IPC: 1.721 (Simulation time: 00 hr 25 min 34 sec)
Heartbeat CPU 0 instructions: 204001331 cycles: 104624374 heartbeat IPC: 2.048 cumulative IPC: 1.722 (Simulation time: 00 hr 25 min 37 sec)
Heartbeat CPU 0 instructions: 204501332 cycles: 104867741 heartbeat IPC: 2.055 cumulative IPC: 1.723 (Simulation time: 00 hr 25 min 41 sec)
Heartbeat CPU 0 instructions: 205001333 cycles: 105105005 heartbeat IPC: 2.107 cumulative IPC: 1.724 (Simulation time: 00 hr 25 min 44 sec)
Heartbeat CPU 0 instructions: 205501333 cycles: 105342571 heartbeat IPC: 2.105 cumulative IPC: 1.725 (Simulation time: 00 hr 25 min 48 sec)
Heartbeat CPU 0 instructions: 206001339 cycles: 105586301 heartbeat IPC: 2.051 cumulative IPC: 1.726 (Simulation time: 00 hr 25 min 51 sec)
Heartbeat CPU 0 instructions: 206501341 cycles: 105825245 heartbeat IPC: 2.093 cumulative IPC: 1.727 (Simulation time: 00 hr 25 min 55 sec)
Heartbeat CPU 0 instructions: 207001348 cycles: 106078843 heartbeat IPC: 1.972 cumulative IPC: 1.728 (Simulation time: 00 hr 25 min 59 sec)
Heartbeat CPU 0 instructions: 207501348 cycles: 106336364 heartbeat IPC: 1.942 cumulative IPC: 1.728 (Simulation time: 00 hr 26 min 03 sec)
Heartbeat CPU 0 instructions: 208001354 cycles: 106599580 heartbeat IPC: 1.9 cumulative IPC: 1.729 (Simulation time: 00 hr 26 min 07 sec)
Heartbeat CPU 0 instructions: 208501359 cycles: 106985004 heartbeat IPC: 1.297 cumulative IPC: 1.727 (Simulation time: 00 hr 26 min 12 sec)
Heartbeat CPU 0 instructions: 209001364 cycles: 107770354 heartbeat IPC: 0.6367 cumulative IPC: 1.718 (Simulation time: 00 hr 26 min 22 sec)
Heartbeat CPU 0 instructions: 209501367 cycles: 108141198 heartbeat IPC: 1.348 cumulative IPC: 1.716 (Simulation time: 00 hr 26 min 27 sec)
Heartbeat CPU 0 instructions: 210001372 cycles: 108312532 heartbeat IPC: 2.918 cumulative IPC: 1.718 (Simulation time: 00 hr 26 min 30 sec)
Heartbeat CPU 0 instructions: 210501375 cycles: 108486601 heartbeat IPC: 2.872 cumulative IPC: 1.721 (Simulation time: 00 hr 26 min 33 sec)
Heartbeat CPU 0 instructions: 211001375 cycles: 108648193 heartbeat IPC: 3.094 cumulative IPC: 1.723 (Simulation time: 00 hr 26 min 36 sec)
Heartbeat CPU 0 instructions: 211501375 cycles: 108815173 heartbeat IPC: 2.994 cumulative IPC: 1.725 (Simulation time: 00 hr 26 min 39 sec)
Heartbeat CPU 0 instructions: 212001379 cycles: 108986137 heartbeat IPC: 2.925 cumulative IPC: 1.727 (Simulation time: 00 hr 26 min 42 sec)
Heartbeat CPU 0 instructions: 212501383 cycles: 109151720 heartbeat IPC: 3.02 cumulative IPC: 1.73 (Simulation time: 00 hr 26 min 45 sec)
Heartbeat CPU 0 instructions: 213001387 cycles: 109330825 heartbeat IPC: 2.792 cumulative IPC: 1.732 (Simulation time: 00 hr 26 min 48 sec)
Heartbeat CPU 0 instructions: 213501387 cycles: 109493987 heartbeat IPC: 3.064 cumulative IPC: 1.734 (Simulation time: 00 hr 26 min 51 sec)
Heartbeat CPU 0 instructions: 214001388 cycles: 109672412 heartbeat IPC: 2.802 cumulative IPC: 1.736 (Simulation time: 00 hr 26 min 54 sec)
Heartbeat CPU 0 instructions: 214501391 cycles: 109902018 heartbeat IPC: 2.178 cumulative IPC: 1.737 (Simulation time: 00 hr 26 min 57 sec)
Heartbeat CPU 0 instructions: 215001395 cycles: 110327253 heartbeat IPC: 1.176 cumulative IPC: 1.735 (Simulation time: 00 hr 27 min 02 sec)
Heartbeat CPU 0 instructions: 215501400 cycles: 110694569 heartbeat IPC: 1.361 cumulative IPC: 1.733 (Simulation time: 00 hr 27 min 07 sec)
Heartbeat CPU 0 instructions: 216001402 cycles: 110942833 heartbeat IPC: 2.014 cumulative IPC: 1.734 (Simulation time: 00 hr 27 min 11 sec)
Heartbeat CPU 0 instructions: 216501407 cycles: 111181918 heartbeat IPC: 2.091 cumulative IPC: 1.735 (Simulation time: 00 hr 27 min 15 sec)
Heartbeat CPU 0 instructions: 217001412 cycles: 111420424 heartbeat IPC: 2.096 cumulative IPC: 1.736 (Simulation time: 00 hr 27 min 18 sec)
Heartbeat CPU 0 instructions: 217501417 cycles: 111655181 heartbeat IPC: 2.13 cumulative IPC: 1.737 (Simulation time: 00 hr 27 min 22 sec)
Heartbeat CPU 0 instructions: 218001422 cycles: 111896785 heartbeat IPC: 2.07 cumulative IPC: 1.737 (Simulation time: 00 hr 27 min 25 sec)
Heartbeat CPU 0 instructions: 218501424 cycles: 112151530 heartbeat IPC: 1.963 cumulative IPC: 1.738 (Simulation time: 00 hr 27 min 29 sec)
Heartbeat CPU 0 instructions: 219001426 cycles: 112404484 heartbeat IPC: 1.977 cumulative IPC: 1.739 (Simulation time: 00 hr 27 min 33 sec)
Heartbeat CPU 0 instructions: 219501427 cycles: 112668959 heartbeat IPC: 1.891 cumulative IPC: 1.739 (Simulation time: 00 hr 27 min 37 sec)
Heartbeat CPU 0 instructions: 220001427 cycles: 112915253 heartbeat IPC: 2.03 cumulative IPC: 1.74 (Simulation time: 00 hr 27 min 40 sec)
Heartbeat CPU 0 instructions: 220501433 cycles: 113422705 heartbeat IPC: 0.9853 cumulative IPC: 1.736 (Simulation time: 00 hr 27 min 47 sec)
Heartbeat CPU 0 instructions: 221001437 cycles: 114220975 heartbeat IPC: 0.6264 cumulative IPC: 1.727 (Simulation time: 00 hr 27 min 57 sec)
Heartbeat CPU 0 instructions: 221501441 cycles: 114374708 heartbeat IPC: 3.252 cumulative IPC: 1.729 (Simulation time: 00 hr 28 min 00 sec)
Heartbeat CPU 0 instructions: 222001443 cycles: 114547093 heartbeat IPC: 2.9 cumulative IPC: 1.731 (Simulation time: 00 hr 28 min 03 sec)
Heartbeat CPU 0 instructions: 222501448 cycles: 114704568 heartbeat IPC: 3.175 cumulative IPC: 1.734 (Simulation time: 00 hr 28 min 06 sec)
Heartbeat CPU 0 instructions: 223001453 cycles: 114858408 heartbeat IPC: 3.25 cumulative IPC: 1.736 (Simulation time: 00 hr 28 min 09 sec)
Heartbeat CPU 0 instructions: 223501453 cycles: 115022732 heartbeat IPC: 3.043 cumulative IPC: 1.738 (Simulation time: 00 hr 28 min 12 sec)
Heartbeat CPU 0 instructions: 224001460 cycles: 115177235 heartbeat IPC: 3.236 cumulative IPC: 1.74 (Simulation time: 00 hr 28 min 14 sec)
Heartbeat CPU 0 instructions: 224501461 cycles: 115359763 heartbeat IPC: 2.739 cumulative IPC: 1.742 (Simulation time: 00 hr 28 min 17 sec)
Heartbeat CPU 0 instructions: 225001466 cycles: 115516624 heartbeat IPC: 3.188 cumulative IPC: 1.745 (Simulation time: 00 hr 28 min 20 sec)
Heartbeat CPU 0 instructions: 225501471 cycles: 115682845 heartbeat IPC: 3.008 cumulative IPC: 1.747 (Simulation time: 00 hr 28 min 23 sec)
Heartbeat CPU 0 instructions: 226001476 cycles: 115868780 heartbeat IPC: 2.689 cumulative IPC: 1.748 (Simulation time: 00 hr 28 min 26 sec)
Heartbeat CPU 0 instructions: 226501483 cycles: 116215537 heartbeat IPC: 1.442 cumulative IPC: 1.747 (Simulation time: 00 hr 28 min 31 sec)
Heartbeat CPU 0 instructions: 227001488 cycles: 116628608 heartbeat IPC: 1.21 cumulative IPC: 1.745 (Simulation time: 00 hr 28 min 36 sec)
Heartbeat CPU 0 instructions: 227501489 cycles: 116865281 heartbeat IPC: 2.113 cumulative IPC: 1.746 (Simulation time: 00 hr 28 min 40 sec)
Heartbeat CPU 0 instructions: 228001491 cycles: 117101870 heartbeat IPC: 2.113 cumulative IPC: 1.747 (Simulation time: 00 hr 28 min 43 sec)
Heartbeat CPU 0 instructions: 228501491 cycles: 117337986 heartbeat IPC: 2.118 cumulative IPC: 1.748 (Simulation time: 00 hr 28 min 47 sec)
Heartbeat CPU 0 instructions: 229001492 cycles: 117577739 heartbeat IPC: 2.085 cumulative IPC: 1.748 (Simulation time: 00 hr 28 min 50 sec)
Heartbeat CPU 0 instructions: 229501496 cycles: 117811242 heartbeat IPC: 2.141 cumulative IPC: 1.749 (Simulation time: 00 hr 28 min 54 sec)
Heartbeat CPU 0 instructions: 230001497 cycles: 118049542 heartbeat IPC: 2.098 cumulative IPC: 1.75 (Simulation time: 00 hr 28 min 57 sec)
Heartbeat CPU 0 instructions: 230501503 cycles: 118314744 heartbeat IPC: 1.885 cumulative IPC: 1.751 (Simulation time: 00 hr 29 min 01 sec)
Heartbeat CPU 0 instructions: 231001504 cycles: 118579097 heartbeat IPC: 1.891 cumulative IPC: 1.751 (Simulation time: 00 hr 29 min 05 sec)
Heartbeat CPU 0 instructions: 231501506 cycles: 118842195 heartbeat IPC: 1.9 cumulative IPC: 1.751 (Simulation time: 00 hr 29 min 09 sec)
Heartbeat CPU 0 instructions: 232001512 cycles: 119202430 heartbeat IPC: 1.388 cumulative IPC: 1.75 (Simulation time: 00 hr 29 min 14 sec)
Heartbeat CPU 0 instructions: 232501512 cycles: 119967231 heartbeat IPC: 0.6538 cumulative IPC: 1.742 (Simulation time: 00 hr 29 min 24 sec)
Heartbeat CPU 0 instructions: 233001517 cycles: 120356810 heartbeat IPC: 1.283 cumulative IPC: 1.74 (Simulation time: 00 hr 29 min 29 sec)
Heartbeat CPU 0 instructions: 233501520 cycles: 120521193 heartbeat IPC: 3.042 cumulative IPC: 1.742 (Simulation time: 00 hr 29 min 32 sec)
Heartbeat CPU 0 instructions: 234001526 cycles: 120701451 heartbeat IPC: 2.774 cumulative IPC: 1.744 (Simulation time: 00 hr 29 min 35 sec)
Heartbeat CPU 0 instructions: 234501533 cycles: 120863013 heartbeat IPC: 3.095 cumulative IPC: 1.746 (Simulation time: 00 hr 29 min 38 sec)
Heartbeat CPU 0 instructions: 235001537 cycles: 121031401 heartbeat IPC: 2.969 cumulative IPC: 1.748 (Simulation time: 00 hr 29 min 41 sec)
Heartbeat CPU 0 instructions: 235501542 cycles: 121191661 heartbeat IPC: 3.12 cumulative IPC: 1.75 (Simulation time: 00 hr 29 min 44 sec)
Heartbeat CPU 0 instructions: 236001545 cycles: 121369154 heartbeat IPC: 2.817 cumulative IPC: 1.752 (Simulation time: 00 hr 29 min 47 sec)
Heartbeat CPU 0 instructions: 236501546 cycles: 121531158 heartbeat IPC: 3.086 cumulative IPC: 1.754 (Simulation time: 00 hr 29 min 50 sec)
Heartbeat CPU 0 instructions: 237001549 cycles: 121695464 heartbeat IPC: 3.043 cumulative IPC: 1.756 (Simulation time: 00 hr 29 min 53 sec)
Heartbeat CPU 0 instructions: 237501553 cycles: 121871058 heartbeat IPC: 2.848 cumulative IPC: 1.758 (Simulation time: 00 hr 29 min 56 sec)
Heartbeat CPU 0 instructions: 238001558 cycles: 122139072 heartbeat IPC: 1.866 cumulative IPC: 1.758 (Simulation time: 00 hr 29 min 59 sec)
Heartbeat CPU 0 instructions: 238501562 cycles: 122613942 heartbeat IPC: 1.053 cumulative IPC: 1.755 (Simulation time: 00 hr 30 min 05 sec)
Heartbeat CPU 0 instructions: 239001565 cycles: 122884662 heartbeat IPC: 1.847 cumulative IPC: 1.755 (Simulation time: 00 hr 30 min 09 sec)
Heartbeat CPU 0 instructions: 239501570 cycles: 123130763 heartbeat IPC: 2.032 cumulative IPC: 1.756 (Simulation time: 00 hr 30 min 13 sec)
Heartbeat CPU 0 instructions: 240001573 cycles: 123362307 heartbeat IPC: 2.159 cumulative IPC: 1.757 (Simulation time: 00 hr 30 min 16 sec)
Heartbeat CPU 0 instructions: 240501578 cycles: 123598419 heartbeat IPC: 2.118 cumulative IPC: 1.757 (Simulation time: 00 hr 30 min 20 sec)
Heartbeat CPU 0 instructions: 241001578 cycles: 123833753 heartbeat IPC: 2.125 cumulative IPC: 1.758 (Simulation time: 00 hr 30 min 23 sec)
Heartbeat CPU 0 instructions: 241501578 cycles: 124082840 heartbeat IPC: 2.007 cumulative IPC: 1.759 (Simulation time: 00 hr 30 min 27 sec)
Heartbeat CPU 0 instructions: 242001579 cycles: 124334325 heartbeat IPC: 1.988 cumulative IPC: 1.759 (Simulation time: 00 hr 30 min 31 sec)
Heartbeat CPU 0 instructions: 242501583 cycles: 124586798 heartbeat IPC: 1.98 cumulative IPC: 1.76 (Simulation time: 00 hr 30 min 34 sec)
Heartbeat CPU 0 instructions: 243001588 cycles: 124836913 heartbeat IPC: 1.999 cumulative IPC: 1.76 (Simulation time: 00 hr 30 min 38 sec)
Heartbeat CPU 0 instructions: 243501589 cycles: 125101171 heartbeat IPC: 1.892 cumulative IPC: 1.761 (Simulation time: 00 hr 30 min 42 sec)
Heartbeat CPU 0 instructions: 244001590 cycles: 125363539 heartbeat IPC: 1.906 cumulative IPC: 1.761 (Simulation time: 00 hr 30 min 46 sec)
Heartbeat CPU 0 instructions: 244501595 cycles: 125959322 heartbeat IPC: 0.8392 cumulative IPC: 1.756 (Simulation time: 00 hr 30 min 54 sec)
Heartbeat CPU 0 instructions: 245001601 cycles: 126841074 heartbeat IPC: 0.5671 cumulative IPC: 1.747 (Simulation time: 00 hr 31 min 05 sec)
Heartbeat CPU 0 instructions: 245501602 cycles: 127048182 heartbeat IPC: 2.414 cumulative IPC: 1.748 (Simulation time: 00 hr 31 min 08 sec)
Heartbeat CPU 0 instructions: 246001604 cycles: 127235442 heartbeat IPC: 2.67 cumulative IPC: 1.749 (Simulation time: 00 hr 31 min 11 sec)
Heartbeat CPU 0 instructions: 246501605 cycles: 127407868 heartbeat IPC: 2.9 cumulative IPC: 1.751 (Simulation time: 00 hr 31 min 14 sec)
Heartbeat CPU 0 instructions: 247001610 cycles: 127566043 heartbeat IPC: 3.161 cumulative IPC: 1.753 (Simulation time: 00 hr 31 min 17 sec)
Heartbeat CPU 0 instructions: 247501610 cycles: 127765853 heartbeat IPC: 2.502 cumulative IPC: 1.755 (Simulation time: 00 hr 31 min 20 sec)
Heartbeat CPU 0 instructions: 248001612 cycles: 127952888 heartbeat IPC: 2.673 cumulative IPC: 1.756 (Simulation time: 00 hr 31 min 24 sec)
Heartbeat CPU 0 instructions: 248501618 cycles: 128132144 heartbeat IPC: 2.789 cumulative IPC: 1.758 (Simulation time: 00 hr 31 min 27 sec)
Heartbeat CPU 0 instructions: 249001623 cycles: 128309829 heartbeat IPC: 2.814 cumulative IPC: 1.759 (Simulation time: 00 hr 31 min 30 sec)
Heartbeat CPU 0 instructions: 249501630 cycles: 128489332 heartbeat IPC: 2.786 cumulative IPC: 1.761 (Simulation time: 00 hr 31 min 33 sec)
*** Reached end of trace: (0, "/local-ssd/ben/dpc4-traces/Graph/Ligra/ligra_Components-Shortcut.com-lj.ungraph.gcc_6.3.0_O3.drop_17000M.length_250M.champsimtrace.xz")
Simulation finished CPU 0 instructions: 200000005 cycles: 113463322 cumulative IPC: 1.763 (Simulation time: 00 hr 31 min 36 sec)
Simulation complete CPU 0 instructions: 200000005 cycles: 113463322 cumulative IPC: 1.763 (Simulation time: 00 hr 31 min 36 sec)

ChampSim completed all CPUs

=== Simulation ===
CPU 0 runs /local-ssd/ben/dpc4-traces/Graph/Ligra/ligra_Components-Shortcut.com-lj.ungraph.gcc_6.3.0_O3.drop_17000M.length_250M.champsimtrace.xz

Region of Interest Statistics

CPU 0 cumulative IPC: 1.763 instructions: 200000005 cycles: 113463322
CPU 0 Branch Prediction Accuracy: 99.03% MPKI: 0.9837 Average ROB Occupancy at Mispredict: 184.9
Branch type MPKI
BRANCH_DIRECT_JUMP: 0
BRANCH_INDIRECT: 0
BRANCH_CONDITIONAL: 0.9836
BRANCH_DIRECT_CALL: 0
BRANCH_INDIRECT_CALL: 0
BRANCH_RETURN: 0.000155

cpu0->cpu0_STLB TOTAL        ACCESS:     106268 HIT:      86294 MISS:      19974 MSHR_MERGE:          0
cpu0->cpu0_STLB LOAD         ACCESS:     106268 HIT:      86294 MISS:      19974 MSHR_MERGE:          0
cpu0->cpu0_STLB RFO          ACCESS:          0 HIT:          0 MISS:          0 MSHR_MERGE:          0
cpu0->cpu0_STLB PREFETCH     ACCESS:          0 HIT:          0 MISS:          0 MSHR_MERGE:          0
cpu0->cpu0_STLB WRITE        ACCESS:          0 HIT:          0 MISS:          0 MSHR_MERGE:          0
cpu0->cpu0_STLB TRANSLATION  ACCESS:          0 HIT:          0 MISS:          0 MSHR_MERGE:          0
cpu0->cpu0_STLB PREFETCH REQUESTED:          0 ISSUED:          0 USEFUL:          0 USELESS:          0
cpu0->cpu0_STLB AVERAGE MISS LATENCY: 254.9 cycles
cpu0->cpu0_L2C TOTAL        ACCESS:    7266677 HIT:    3420527 MISS:    3846150 MSHR_MERGE:          0
cpu0->cpu0_L2C LOAD         ACCESS:    1485059 HIT:     842572 MISS:     642487 MSHR_MERGE:          0
cpu0->cpu0_L2C RFO          ACCESS:    2220509 HIT:     231387 MISS:    1989122 MSHR_MERGE:          0
cpu0->cpu0_L2C PREFETCH     ACCESS:    1325935 HIT:     114454 MISS:    1211481 MSHR_MERGE:          0
cpu0->cpu0_L2C WRITE        ACCESS:    2229592 HIT:    2229564 MISS:         28 MSHR_MERGE:          0
cpu0->cpu0_L2C TRANSLATION  ACCESS:       5582 HIT:       2550 MISS:       3032 MSHR_MERGE:          0
cpu0->cpu0_L2C PREFETCH REQUESTED:          0 ISSUED:          0 USEFUL:          0 USELESS:          0
cpu0->cpu0_L2C AVERAGE MISS LATENCY: 278.2 cycles
cpu0->cpu0_L1I TOTAL        ACCESS:   26092279 HIT:   26092279 MISS:          0 MSHR_MERGE:          0
cpu0->cpu0_L1I LOAD         ACCESS:   26092279 HIT:   26092279 MISS:          0 MSHR_MERGE:          0
cpu0->cpu0_L1I RFO          ACCESS:          0 HIT:          0 MISS:          0 MSHR_MERGE:          0
cpu0->cpu0_L1I PREFETCH     ACCESS:          0 HIT:          0 MISS:          0 MSHR_MERGE:          0
cpu0->cpu0_L1I WRITE        ACCESS:          0 HIT:          0 MISS:          0 MSHR_MERGE:          0
cpu0->cpu0_L1I TRANSLATION  ACCESS:          0 HIT:          0 MISS:          0 MSHR_MERGE:          0
cpu0->cpu0_L1I PREFETCH REQUESTED:          0 ISSUED:          0 USEFUL:          0 USELESS:          0
cpu0->cpu0_L1I AVERAGE MISS LATENCY: - cycles
cpu0->cpu0_L1D TOTAL        ACCESS:   57600261 HIT:   39157466 MISS:   18442795 MSHR_MERGE:   13405619
cpu0->cpu0_L1D LOAD         ACCESS:   16074042 HIT:   12991168 MISS:    3082874 MSHR_MERGE:    1597805
cpu0->cpu0_L1D RFO          ACCESS:          0 HIT:          0 MISS:          0 MSHR_MERGE:          0
cpu0->cpu0_L1D PREFETCH     ACCESS:    1927421 HIT:     468761 MISS:    1458660 MSHR_MERGE:     132725
cpu0->cpu0_L1D WRITE        ACCESS:   39560613 HIT:   25666830 MISS:   13893783 MSHR_MERGE:   11673194
cpu0->cpu0_L1D TRANSLATION  ACCESS:      38185 HIT:      30707 MISS:       7478 MSHR_MERGE:       1895
cpu0->cpu0_L1D PREFETCH REQUESTED:    2833125 ISSUED:    1927418 USEFUL:    1279136 USELESS:      46805
cpu0->cpu0_L1D AVERAGE MISS LATENCY: 202.7 cycles
cpu0->cpu0_ITLB TOTAL        ACCESS:   25801717 HIT:   25801717 MISS:          0 MSHR_MERGE:          0
cpu0->cpu0_ITLB LOAD         ACCESS:   25801717 HIT:   25801717 MISS:          0 MSHR_MERGE:          0
cpu0->cpu0_ITLB RFO          ACCESS:          0 HIT:          0 MISS:          0 MSHR_MERGE:          0
cpu0->cpu0_ITLB PREFETCH     ACCESS:          0 HIT:          0 MISS:          0 MSHR_MERGE:          0
cpu0->cpu0_ITLB WRITE        ACCESS:          0 HIT:          0 MISS:          0 MSHR_MERGE:          0
cpu0->cpu0_ITLB TRANSLATION  ACCESS:          0 HIT:          0 MISS:          0 MSHR_MERGE:          0
cpu0->cpu0_ITLB PREFETCH REQUESTED:          0 ISSUED:          0 USEFUL:          0 USELESS:          0
cpu0->cpu0_ITLB AVERAGE MISS LATENCY: - cycles
cpu0->cpu0_DTLB TOTAL        ACCESS:   51664033 HIT:   51264258 MISS:     399775 MSHR_MERGE:     293507
cpu0->cpu0_DTLB LOAD         ACCESS:   51664033 HIT:   51264258 MISS:     399775 MSHR_MERGE:     293507
cpu0->cpu0_DTLB RFO          ACCESS:          0 HIT:          0 MISS:          0 MSHR_MERGE:          0
cpu0->cpu0_DTLB PREFETCH     ACCESS:          0 HIT:          0 MISS:          0 MSHR_MERGE:          0
cpu0->cpu0_DTLB WRITE        ACCESS:          0 HIT:          0 MISS:          0 MSHR_MERGE:          0
cpu0->cpu0_DTLB TRANSLATION  ACCESS:          0 HIT:          0 MISS:          0 MSHR_MERGE:          0
cpu0->cpu0_DTLB PREFETCH REQUESTED:          0 ISSUED:          0 USEFUL:          0 USELESS:          0
cpu0->cpu0_DTLB AVERAGE MISS LATENCY: 53.09 cycles
cpu0->LLC TOTAL        ACCESS:    5914190 HIT:    1864832 MISS:    4049358 MSHR_MERGE:          0
cpu0->LLC LOAD         ACCESS:     642487 HIT:     436852 MISS:     205635 MSHR_MERGE:          0
cpu0->LLC RFO          ACCESS:    1989121 HIT:     477900 MISS:    1511221 MSHR_MERGE:          0
cpu0->LLC PREFETCH     ACCESS:    1211481 HIT:     368642 MISS:     842839 MSHR_MERGE:          0
cpu0->LLC WRITE        ACCESS:    2068069 HIT:     581435 MISS:    1486634 MSHR_MERGE:          0
cpu0->LLC TRANSLATION  ACCESS:       3032 HIT:          3 MISS:       3029 MSHR_MERGE:          0
cpu0->LLC PREFETCH REQUESTED:          0 ISSUED:          0 USEFUL:          0 USELESS:          0
cpu0->LLC AVERAGE MISS LATENCY: 217.8 cycles

DRAM Statistics

Channel 0 RQ ROW_BUFFER_HIT:     170885
  ROW_BUFFER_MISS:    2389448
  AVG DBUS CONGESTED CYCLE: 14.22
Channel 0 WQ ROW_BUFFER_HIT:     225727
  ROW_BUFFER_MISS:    1342449
  FULL:     296028
Channel 0 REFRESHES ISSUED:       9455
