[VMEM] WARNING: physical memory size is smaller than virtual memory size.

*** ChampSim Multicore Out-of-Order Simulator ***
Warmup Instructions: 50000000
Simulation Instructions: 200000000
Number of CPUs: 1
Page size: 4096
Core 0: /local-ssd/ben/dpc4-traces/gtraces_v2/tahoe_0001.champsim.gz
 L1D Berti prefetcher
Off-chip DRAM Size: 64 GiB Channels: 1 Width: 64-bit Data Rate: 4807 MT/s
[BTB] WARNING: target of return is a lower address than the corresponding call. This is usually a problem with your trace.
[BTB] WARNING: target of return is a lower address than the corresponding call. This is usually a problem with your trace.
[BTB] WARNING: target of return is a lower address than the corresponding call. This is usually a problem with your trace.
[BTB] WARNING: target of return is a lower address than the corresponding call. This is usually a problem with your trace.
[BTB] WARNING: target of return is a lower address than the corresponding call. This is usually a problem with your trace.
[BTB] WARNING: target of return is a lower address than the corresponding call. This is usually a problem with your trace.
[BTB] WARNING: target of return is a lower address than the corresponding call. This is usually a problem with your trace.
[BTB] WARNING: target of return is a lower address than the corresponding call. This is usually a problem with your trace.
[BTB] WARNING: target of return is a lower address than the corresponding call. This is usually a problem with your trace.
[BTB] WARNING: target of return is a lower address than the corresponding call. This is usually a problem with your trace.
Heartbeat CPU 0 instructions: 500004 cycles: 297267 heartbeat IPC: 1.682 cumulative IPC: 1.682 (Simulation time: 00 hr 00 min 05 sec)
Heartbeat CPU 0 instructions: 1000007 cycles: 423033 heartbeat IPC: 3.976 cumulative IPC: 2.364 (Simulation time: 00 hr 00 min 07 sec)
Heartbeat CPU 0 instructions: 1500010 cycles: 543980 heartbeat IPC: 4.134 cumulative IPC: 2.757 (Simulation time: 00 hr 00 min 09 sec)
Heartbeat CPU 0 instructions: 2000012 cycles: 668277 heartbeat IPC: 4.023 cumulative IPC: 2.993 (Simulation time: 00 hr 00 min 11 sec)
Heartbeat CPU 0 instructions: 2500019 cycles: 788780 heartbeat IPC: 4.149 cumulative IPC: 3.169 (Simulation time: 00 hr 00 min 13 sec)
Heartbeat CPU 0 instructions: 3000026 cycles: 901565 heartbeat IPC: 4.433 cumulative IPC: 3.328 (Simulation time: 00 hr 00 min 15 sec)
Heartbeat CPU 0 instructions: 3500028 cycles: 1003893 heartbeat IPC: 4.886 cumulative IPC: 3.486 (Simulation time: 00 hr 00 min 17 sec)
Heartbeat CPU 0 instructions: 4000032 cycles: 1105872 heartbeat IPC: 4.903 cumulative IPC: 3.617 (Simulation time: 00 hr 00 min 19 sec)
Heartbeat CPU 0 instructions: 4500036 cycles: 1210675 heartbeat IPC: 4.771 cumulative IPC: 3.717 (Simulation time: 00 hr 00 min 21 sec)
Heartbeat CPU 0 instructions: 5000042 cycles: 1316545 heartbeat IPC: 4.723 cumulative IPC: 3.798 (Simulation time: 00 hr 00 min 24 sec)
Heartbeat CPU 0 instructions: 5500046 cycles: 1419408 heartbeat IPC: 4.861 cumulative IPC: 3.875 (Simulation time: 00 hr 00 min 26 sec)
Heartbeat CPU 0 instructions: 6000049 cycles: 1521886 heartbeat IPC: 4.879 cumulative IPC: 3.943 (Simulation time: 00 hr 00 min 28 sec)
Heartbeat CPU 0 instructions: 6500052 cycles: 1624207 heartbeat IPC: 4.887 cumulative IPC: 4.002 (Simulation time: 00 hr 00 min 30 sec)
Heartbeat CPU 0 instructions: 7000058 cycles: 1726326 heartbeat IPC: 4.896 cumulative IPC: 4.055 (Simulation time: 00 hr 00 min 32 sec)
Heartbeat CPU 0 instructions: 7500061 cycles: 1830210 heartbeat IPC: 4.813 cumulative IPC: 4.098 (Simulation time: 00 hr 00 min 34 sec)
Heartbeat CPU 0 instructions: 8000068 cycles: 1932230 heartbeat IPC: 4.901 cumulative IPC: 4.14 (Simulation time: 00 hr 00 min 36 sec)
Heartbeat CPU 0 instructions: 8500072 cycles: 2034730 heartbeat IPC: 4.878 cumulative IPC: 4.177 (Simulation time: 00 hr 00 min 39 sec)
Heartbeat CPU 0 instructions: 9000079 cycles: 2138561 heartbeat IPC: 4.816 cumulative IPC: 4.208 (Simulation time: 00 hr 00 min 41 sec)
Heartbeat CPU 0 instructions: 9500082 cycles: 2301852 heartbeat IPC: 3.062 cumulative IPC: 4.127 (Simulation time: 00 hr 00 min 44 sec)
Heartbeat CPU 0 instructions: 10000088 cycles: 2507681 heartbeat IPC: 2.429 cumulative IPC: 3.988 (Simulation time: 00 hr 00 min 47 sec)
Heartbeat CPU 0 instructions: 10500093 cycles: 2712876 heartbeat IPC: 2.437 cumulative IPC: 3.87 (Simulation time: 00 hr 00 min 50 sec)
Heartbeat CPU 0 instructions: 11000100 cycles: 2850526 heartbeat IPC: 3.632 cumulative IPC: 3.859 (Simulation time: 00 hr 00 min 52 sec)
Heartbeat CPU 0 instructions: 11500100 cycles: 3004108 heartbeat IPC: 3.256 cumulative IPC: 3.828 (Simulation time: 00 hr 00 min 55 sec)
Heartbeat CPU 0 instructions: 12000107 cycles: 3128988 heartbeat IPC: 4.004 cumulative IPC: 3.835 (Simulation time: 00 hr 00 min 57 sec)
Heartbeat CPU 0 instructions: 12500111 cycles: 3331577 heartbeat IPC: 2.468 cumulative IPC: 3.752 (Simulation time: 00 hr 01 min 01 sec)
Heartbeat CPU 0 instructions: 13000115 cycles: 3497300 heartbeat IPC: 3.017 cumulative IPC: 3.717 (Simulation time: 00 hr 01 min 04 sec)
Heartbeat CPU 0 instructions: 13500121 cycles: 3607789 heartbeat IPC: 4.525 cumulative IPC: 3.742 (Simulation time: 00 hr 01 min 06 sec)
Heartbeat CPU 0 instructions: 14000128 cycles: 3713538 heartbeat IPC: 4.728 cumulative IPC: 3.77 (Simulation time: 00 hr 01 min 08 sec)
Heartbeat CPU 0 instructions: 14500135 cycles: 3837956 heartbeat IPC: 4.019 cumulative IPC: 3.778 (Simulation time: 00 hr 01 min 10 sec)
Heartbeat CPU 0 instructions: 15000137 cycles: 3966323 heartbeat IPC: 3.895 cumulative IPC: 3.782 (Simulation time: 00 hr 01 min 12 sec)
Heartbeat CPU 0 instructions: 15500144 cycles: 4097251 heartbeat IPC: 3.819 cumulative IPC: 3.783 (Simulation time: 00 hr 01 min 15 sec)
Heartbeat CPU 0 instructions: 16000148 cycles: 4204756 heartbeat IPC: 4.651 cumulative IPC: 3.805 (Simulation time: 00 hr 01 min 17 sec)
Heartbeat CPU 0 instructions: 16500152 cycles: 4316735 heartbeat IPC: 4.465 cumulative IPC: 3.822 (Simulation time: 00 hr 01 min 18 sec)
Heartbeat CPU 0 instructions: 17000159 cycles: 4503448 heartbeat IPC: 2.678 cumulative IPC: 3.775 (Simulation time: 00 hr 01 min 22 sec)
Heartbeat CPU 0 instructions: 17500163 cycles: 4633559 heartbeat IPC: 3.843 cumulative IPC: 3.777 (Simulation time: 00 hr 01 min 24 sec)
Heartbeat CPU 0 instructions: 18000164 cycles: 4776283 heartbeat IPC: 3.503 cumulative IPC: 3.769 (Simulation time: 00 hr 01 min 26 sec)
Heartbeat CPU 0 instructions: 18500165 cycles: 4893317 heartbeat IPC: 4.272 cumulative IPC: 3.781 (Simulation time: 00 hr 01 min 29 sec)
Heartbeat CPU 0 instructions: 19000168 cycles: 5031025 heartbeat IPC: 3.631 cumulative IPC: 3.777 (Simulation time: 00 hr 01 min 31 sec)
Heartbeat CPU 0 instructions: 19500169 cycles: 5161493 heartbeat IPC: 3.832 cumulative IPC: 3.778 (Simulation time: 00 hr 01 min 33 sec)
Heartbeat CPU 0 instructions: 20000174 cycles: 5312925 heartbeat IPC: 3.302 cumulative IPC: 3.764 (Simulation time: 00 hr 01 min 36 sec)
Heartbeat CPU 0 instructions: 20500180 cycles: 5448883 heartbeat IPC: 3.678 cumulative IPC: 3.762 (Simulation time: 00 hr 01 min 38 sec)
Heartbeat CPU 0 instructions: 21000187 cycles: 5622870 heartbeat IPC: 2.874 cumulative IPC: 3.735 (Simulation time: 00 hr 01 min 41 sec)
Heartbeat CPU 0 instructions: 21500192 cycles: 5732810 heartbeat IPC: 4.548 cumulative IPC: 3.75 (Simulation time: 00 hr 01 min 43 sec)
Heartbeat CPU 0 instructions: 22000196 cycles: 5918767 heartbeat IPC: 2.689 cumulative IPC: 3.717 (Simulation time: 00 hr 01 min 46 sec)
Heartbeat CPU 0 instructions: 22500200 cycles: 6102197 heartbeat IPC: 2.726 cumulative IPC: 3.687 (Simulation time: 00 hr 01 min 49 sec)
Heartbeat CPU 0 instructions: 23000200 cycles: 6279730 heartbeat IPC: 2.816 cumulative IPC: 3.663 (Simulation time: 00 hr 01 min 52 sec)
Heartbeat CPU 0 instructions: 23500201 cycles: 6432739 heartbeat IPC: 3.268 cumulative IPC: 3.653 (Simulation time: 00 hr 01 min 55 sec)
Heartbeat CPU 0 instructions: 24000201 cycles: 6581317 heartbeat IPC: 3.365 cumulative IPC: 3.647 (Simulation time: 00 hr 01 min 57 sec)
Heartbeat CPU 0 instructions: 24500208 cycles: 6703242 heartbeat IPC: 4.101 cumulative IPC: 3.655 (Simulation time: 00 hr 02 min 00 sec)
Heartbeat CPU 0 instructions: 25000209 cycles: 6833253 heartbeat IPC: 3.846 cumulative IPC: 3.659 (Simulation time: 00 hr 02 min 02 sec)
Heartbeat CPU 0 instructions: 25500213 cycles: 6972290 heartbeat IPC: 3.596 cumulative IPC: 3.657 (Simulation time: 00 hr 02 min 05 sec)
Heartbeat CPU 0 instructions: 26000219 cycles: 7098719 heartbeat IPC: 3.955 cumulative IPC: 3.663 (Simulation time: 00 hr 02 min 07 sec)
Heartbeat CPU 0 instructions: 26500226 cycles: 7285021 heartbeat IPC: 2.684 cumulative IPC: 3.638 (Simulation time: 00 hr 02 min 11 sec)
Heartbeat CPU 0 instructions: 27000233 cycles: 7466395 heartbeat IPC: 2.757 cumulative IPC: 3.616 (Simulation time: 00 hr 02 min 13 sec)
Heartbeat CPU 0 instructions: 27500234 cycles: 7626553 heartbeat IPC: 3.122 cumulative IPC: 3.606 (Simulation time: 00 hr 02 min 16 sec)
Heartbeat CPU 0 instructions: 28000235 cycles: 7781960 heartbeat IPC: 3.217 cumulative IPC: 3.598 (Simulation time: 00 hr 02 min 18 sec)
Heartbeat CPU 0 instructions: 28500242 cycles: 7947774 heartbeat IPC: 3.015 cumulative IPC: 3.586 (Simulation time: 00 hr 02 min 21 sec)
Heartbeat CPU 0 instructions: 29000243 cycles: 8100486 heartbeat IPC: 3.274 cumulative IPC: 3.58 (Simulation time: 00 hr 02 min 24 sec)
Heartbeat CPU 0 instructions: 29500245 cycles: 8266763 heartbeat IPC: 3.007 cumulative IPC: 3.569 (Simulation time: 00 hr 02 min 27 sec)
Heartbeat CPU 0 instructions: 30000251 cycles: 8391829 heartbeat IPC: 3.998 cumulative IPC: 3.575 (Simulation time: 00 hr 02 min 29 sec)
Heartbeat CPU 0 instructions: 30500251 cycles: 8524073 heartbeat IPC: 3.781 cumulative IPC: 3.578 (Simulation time: 00 hr 02 min 32 sec)
Heartbeat CPU 0 instructions: 31000251 cycles: 8649006 heartbeat IPC: 4.002 cumulative IPC: 3.584 (Simulation time: 00 hr 02 min 34 sec)
Heartbeat CPU 0 instructions: 31500256 cycles: 8793753 heartbeat IPC: 3.454 cumulative IPC: 3.582 (Simulation time: 00 hr 02 min 36 sec)
Heartbeat CPU 0 instructions: 32000256 cycles: 8907487 heartbeat IPC: 4.396 cumulative IPC: 3.593 (Simulation time: 00 hr 02 min 38 sec)
Heartbeat CPU 0 instructions: 32500257 cycles: 9017744 heartbeat IPC: 4.535 cumulative IPC: 3.604 (Simulation time: 00 hr 02 min 41 sec)
Heartbeat CPU 0 instructions: 33000258 cycles: 9166726 heartbeat IPC: 3.356 cumulative IPC: 3.6 (Simulation time: 00 hr 02 min 43 sec)
Heartbeat CPU 0 instructions: 33500258 cycles: 9295573 heartbeat IPC: 3.881 cumulative IPC: 3.604 (Simulation time: 00 hr 02 min 45 sec)
Heartbeat CPU 0 instructions: 34000264 cycles: 9427840 heartbeat IPC: 3.78 cumulative IPC: 3.606 (Simulation time: 00 hr 02 min 48 sec)
Heartbeat CPU 0 instructions: 34500268 cycles: 9549616 heartbeat IPC: 4.106 cumulative IPC: 3.613 (Simulation time: 00 hr 02 min 50 sec)
Heartbeat CPU 0 instructions: 35000271 cycles: 9699993 heartbeat IPC: 3.325 cumulative IPC: 3.608 (Simulation time: 00 hr 02 min 52 sec)
Heartbeat CPU 0 instructions: 35500271 cycles: 9873785 heartbeat IPC: 2.877 cumulative IPC: 3.595 (Simulation time: 00 hr 02 min 55 sec)
Heartbeat CPU 0 instructions: 36000271 cycles: 10037670 heartbeat IPC: 3.051 cumulative IPC: 3.587 (Simulation time: 00 hr 02 min 58 sec)
Heartbeat CPU 0 instructions: 36500271 cycles: 10184052 heartbeat IPC: 3.416 cumulative IPC: 3.584 (Simulation time: 00 hr 03 min 01 sec)
Heartbeat CPU 0 instructions: 37000276 cycles: 10303842 heartbeat IPC: 4.174 cumulative IPC: 3.591 (Simulation time: 00 hr 03 min 03 sec)
Heartbeat CPU 0 instructions: 37500279 cycles: 10410258 heartbeat IPC: 4.699 cumulative IPC: 3.602 (Simulation time: 00 hr 03 min 05 sec)
Heartbeat CPU 0 instructions: 38000279 cycles: 10531200 heartbeat IPC: 4.134 cumulative IPC: 3.608 (Simulation time: 00 hr 03 min 07 sec)
Heartbeat CPU 0 instructions: 38500280 cycles: 10645615 heartbeat IPC: 4.37 cumulative IPC: 3.617 (Simulation time: 00 hr 03 min 09 sec)
Heartbeat CPU 0 instructions: 39000281 cycles: 10762052 heartbeat IPC: 4.294 cumulative IPC: 3.624 (Simulation time: 00 hr 03 min 11 sec)
Heartbeat CPU 0 instructions: 39500281 cycles: 10875467 heartbeat IPC: 4.409 cumulative IPC: 3.632 (Simulation time: 00 hr 03 min 14 sec)
Heartbeat CPU 0 instructions: 40000288 cycles: 10988148 heartbeat IPC: 4.437 cumulative IPC: 3.64 (Simulation time: 00 hr 03 min 16 sec)
Heartbeat CPU 0 instructions: 40500291 cycles: 11120250 heartbeat IPC: 3.785 cumulative IPC: 3.642 (Simulation time: 00 hr 03 min 18 sec)
Heartbeat CPU 0 instructions: 41000298 cycles: 11263918 heartbeat IPC: 3.48 cumulative IPC: 3.64 (Simulation time: 00 hr 03 min 21 sec)
Heartbeat CPU 0 instructions: 41500302 cycles: 11375402 heartbeat IPC: 4.485 cumulative IPC: 3.648 (Simulation time: 00 hr 03 min 23 sec)
Heartbeat CPU 0 instructions: 42000303 cycles: 11518954 heartbeat IPC: 3.483 cumulative IPC: 3.646 (Simulation time: 00 hr 03 min 25 sec)
Heartbeat CPU 0 instructions: 42500309 cycles: 11678112 heartbeat IPC: 3.142 cumulative IPC: 3.639 (Simulation time: 00 hr 03 min 28 sec)
Heartbeat CPU 0 instructions: 43000313 cycles: 11818685 heartbeat IPC: 3.557 cumulative IPC: 3.638 (Simulation time: 00 hr 03 min 31 sec)
Heartbeat CPU 0 instructions: 43500313 cycles: 11924934 heartbeat IPC: 4.706 cumulative IPC: 3.648 (Simulation time: 00 hr 03 min 33 sec)
Heartbeat CPU 0 instructions: 44000319 cycles: 12030608 heartbeat IPC: 4.732 cumulative IPC: 3.657 (Simulation time: 00 hr 03 min 35 sec)
Heartbeat CPU 0 instructions: 44500319 cycles: 12135097 heartbeat IPC: 4.785 cumulative IPC: 3.667 (Simulation time: 00 hr 03 min 37 sec)
Heartbeat CPU 0 instructions: 45000320 cycles: 12237692 heartbeat IPC: 4.874 cumulative IPC: 3.677 (Simulation time: 00 hr 03 min 39 sec)
Heartbeat CPU 0 instructions: 45500323 cycles: 12365756 heartbeat IPC: 3.904 cumulative IPC: 3.68 (Simulation time: 00 hr 03 min 42 sec)
Heartbeat CPU 0 instructions: 46000323 cycles: 12531871 heartbeat IPC: 3.01 cumulative IPC: 3.671 (Simulation time: 00 hr 03 min 44 sec)
Heartbeat CPU 0 instructions: 46500328 cycles: 12670437 heartbeat IPC: 3.608 cumulative IPC: 3.67 (Simulation time: 00 hr 03 min 47 sec)
Heartbeat CPU 0 instructions: 47000333 cycles: 12828287 heartbeat IPC: 3.168 cumulative IPC: 3.664 (Simulation time: 00 hr 03 min 50 sec)
Heartbeat CPU 0 instructions: 47500339 cycles: 12975624 heartbeat IPC: 3.394 cumulative IPC: 3.661 (Simulation time: 00 hr 03 min 52 sec)
Heartbeat CPU 0 instructions: 48000339 cycles: 13115267 heartbeat IPC: 3.581 cumulative IPC: 3.66 (Simulation time: 00 hr 03 min 55 sec)
Heartbeat CPU 0 instructions: 48500343 cycles: 13260038 heartbeat IPC: 3.454 cumulative IPC: 3.658 (Simulation time: 00 hr 03 min 57 sec)
Heartbeat CPU 0 instructions: 49000347 cycles: 13402059 heartbeat IPC: 3.521 cumulative IPC: 3.656 (Simulation time: 00 hr 04 min 00 sec)
Heartbeat CPU 0 instructions: 49500347 cycles: 13556594 heartbeat IPC: 3.236 cumulative IPC: 3.651 (Simulation time: 00 hr 04 min 03 sec)
Warmup halting CPU 0 at instruction 50000001 cycle 13659557 for remainder of phase
Warmup finished CPU 0 instructions: 50000001 cycles: 13659557 cumulative IPC: 3.66 (Simulation time: 00 hr 04 min 04 sec)
Warmup complete CPU 0 instructions: 50000001 cycles: 13659557 cumulative IPC: 3.66 (Simulation time: 00 hr 04 min 04 sec)
Heartbeat CPU 0 instructions: 50000347 cycles: 13659658 heartbeat IPC: 4.851 cumulative IPC: 3.426 (Simulation time: 00 hr 04 min 04 sec)
Heartbeat CPU 0 instructions: 50500350 cycles: 15147791 heartbeat IPC: 0.336 cumulative IPC: 0.3362 (Simulation time: 00 hr 04 min 15 sec)
Heartbeat CPU 0 instructions: 51000350 cycles: 15713229 heartbeat IPC: 0.8843 cumulative IPC: 0.4871 (Simulation time: 00 hr 04 min 20 sec)
Heartbeat CPU 0 instructions: 51500351 cycles: 16013180 heartbeat IPC: 1.667 cumulative IPC: 0.6375 (Simulation time: 00 hr 04 min 23 sec)
Heartbeat CPU 0 instructions: 52000352 cycles: 16339783 heartbeat IPC: 1.531 cumulative IPC: 0.7463 (Simulation time: 00 hr 04 min 26 sec)
Heartbeat CPU 0 instructions: 52500356 cycles: 16638349 heartbeat IPC: 1.675 cumulative IPC: 0.8394 (Simulation time: 00 hr 04 min 30 sec)
Heartbeat CPU 0 instructions: 53000357 cycles: 16948079 heartbeat IPC: 1.614 cumulative IPC: 0.9124 (Simulation time: 00 hr 04 min 33 sec)
Heartbeat CPU 0 instructions: 53500357 cycles: 17243569 heartbeat IPC: 1.692 cumulative IPC: 0.9767 (Simulation time: 00 hr 04 min 36 sec)
Heartbeat CPU 0 instructions: 54000361 cycles: 17536530 heartbeat IPC: 1.707 cumulative IPC: 1.032 (Simulation time: 00 hr 04 min 39 sec)
Heartbeat CPU 0 instructions: 54500361 cycles: 17833682 heartbeat IPC: 1.683 cumulative IPC: 1.078 (Simulation time: 00 hr 04 min 43 sec)
Heartbeat CPU 0 instructions: 55000363 cycles: 18143172 heartbeat IPC: 1.616 cumulative IPC: 1.115 (Simulation time: 00 hr 04 min 46 sec)
Heartbeat CPU 0 instructions: 55500367 cycles: 18447019 heartbeat IPC: 1.646 cumulative IPC: 1.149 (Simulation time: 00 hr 04 min 49 sec)
Heartbeat CPU 0 instructions: 56000370 cycles: 18734354 heartbeat IPC: 1.74 cumulative IPC: 1.182 (Simulation time: 00 hr 04 min 52 sec)
Heartbeat CPU 0 instructions: 56500371 cycles: 19028883 heartbeat IPC: 1.698 cumulative IPC: 1.211 (Simulation time: 00 hr 04 min 56 sec)
Heartbeat CPU 0 instructions: 57000371 cycles: 19333473 heartbeat IPC: 1.642 cumulative IPC: 1.234 (Simulation time: 00 hr 04 min 59 sec)
Heartbeat CPU 0 instructions: 57500371 cycles: 19629747 heartbeat IPC: 1.688 cumulative IPC: 1.256 (Simulation time: 00 hr 05 min 02 sec)
Heartbeat CPU 0 instructions: 58000374 cycles: 19917195 heartbeat IPC: 1.739 cumulative IPC: 1.278 (Simulation time: 00 hr 05 min 05 sec)
Heartbeat CPU 0 instructions: 58500379 cycles: 20207367 heartbeat IPC: 1.723 cumulative IPC: 1.298 (Simulation time: 00 hr 05 min 09 sec)
Heartbeat CPU 0 instructions: 59000381 cycles: 20511217 heartbeat IPC: 1.646 cumulative IPC: 1.314 (Simulation time: 00 hr 05 min 12 sec)
Heartbeat CPU 0 instructions: 59500382 cycles: 20806264 heartbeat IPC: 1.695 cumulative IPC: 1.329 (Simulation time: 00 hr 05 min 15 sec)
Heartbeat CPU 0 instructions: 60000386 cycles: 21102447 heartbeat IPC: 1.688 cumulative IPC: 1.344 (Simulation time: 00 hr 05 min 18 sec)
Heartbeat CPU 0 instructions: 60500388 cycles: 21396144 heartbeat IPC: 1.702 cumulative IPC: 1.357 (Simulation time: 00 hr 05 min 22 sec)
Heartbeat CPU 0 instructions: 61000390 cycles: 21690826 heartbeat IPC: 1.697 cumulative IPC: 1.37 (Simulation time: 00 hr 05 min 25 sec)
Heartbeat CPU 0 instructions: 61500396 cycles: 23548100 heartbeat IPC: 0.2692 cumulative IPC: 1.163 (Simulation time: 00 hr 05 min 37 sec)
Heartbeat CPU 0 instructions: 62000396 cycles: 25432499 heartbeat IPC: 0.2653 cumulative IPC: 1.019 (Simulation time: 00 hr 05 min 50 sec)
Heartbeat CPU 0 instructions: 62500398 cycles: 27092893 heartbeat IPC: 0.3011 cumulative IPC: 0.9306 (Simulation time: 00 hr 06 min 02 sec)
Heartbeat CPU 0 instructions: 63000405 cycles: 29201263 heartbeat IPC: 0.2372 cumulative IPC: 0.8365 (Simulation time: 00 hr 06 min 16 sec)
Heartbeat CPU 0 instructions: 63500408 cycles: 30408263 heartbeat IPC: 0.4143 cumulative IPC: 0.8061 (Simulation time: 00 hr 06 min 25 sec)
Heartbeat CPU 0 instructions: 64000410 cycles: 32372335 heartbeat IPC: 0.2546 cumulative IPC: 0.7482 (Simulation time: 00 hr 06 min 39 sec)
Heartbeat CPU 0 instructions: 64500410 cycles: 34814155 heartbeat IPC: 0.2048 cumulative IPC: 0.6854 (Simulation time: 00 hr 06 min 56 sec)
Heartbeat CPU 0 instructions: 65000412 cycles: 36223544 heartbeat IPC: 0.3548 cumulative IPC: 0.6648 (Simulation time: 00 hr 07 min 06 sec)
Heartbeat CPU 0 instructions: 65500415 cycles: 36672255 heartbeat IPC: 1.114 cumulative IPC: 0.6736 (Simulation time: 00 hr 07 min 10 sec)
Heartbeat CPU 0 instructions: 66000417 cycles: 37274996 heartbeat IPC: 0.8295 cumulative IPC: 0.6775 (Simulation time: 00 hr 07 min 16 sec)
Heartbeat CPU 0 instructions: 66500417 cycles: 37809524 heartbeat IPC: 0.9354 cumulative IPC: 0.6832 (Simulation time: 00 hr 07 min 20 sec)
Heartbeat CPU 0 instructions: 67000419 cycles: 39538786 heartbeat IPC: 0.2891 cumulative IPC: 0.6569 (Simulation time: 00 hr 07 min 32 sec)
Heartbeat CPU 0 instructions: 67500419 cycles: 41216218 heartbeat IPC: 0.2981 cumulative IPC: 0.6351 (Simulation time: 00 hr 07 min 44 sec)
Heartbeat CPU 0 instructions: 68000426 cycles: 42534316 heartbeat IPC: 0.3793 cumulative IPC: 0.6234 (Simulation time: 00 hr 07 min 54 sec)
Heartbeat CPU 0 instructions: 68500426 cycles: 44346673 heartbeat IPC: 0.2759 cumulative IPC: 0.6029 (Simulation time: 00 hr 08 min 06 sec)
Heartbeat CPU 0 instructions: 69000427 cycles: 45425415 heartbeat IPC: 0.4635 cumulative IPC: 0.5981 (Simulation time: 00 hr 08 min 15 sec)
Heartbeat CPU 0 instructions: 69500428 cycles: 46239166 heartbeat IPC: 0.6144 cumulative IPC: 0.5985 (Simulation time: 00 hr 08 min 21 sec)
Heartbeat CPU 0 instructions: 70000431 cycles: 46733830 heartbeat IPC: 1.011 cumulative IPC: 0.6047 (Simulation time: 00 hr 08 min 26 sec)
Heartbeat CPU 0 instructions: 70500431 cycles: 47688683 heartbeat IPC: 0.5236 cumulative IPC: 0.6024 (Simulation time: 00 hr 08 min 34 sec)
Heartbeat CPU 0 instructions: 71000433 cycles: 48859256 heartbeat IPC: 0.4271 cumulative IPC: 0.5966 (Simulation time: 00 hr 08 min 42 sec)
Heartbeat CPU 0 instructions: 71500434 cycles: 49693825 heartbeat IPC: 0.5991 cumulative IPC: 0.5967 (Simulation time: 00 hr 08 min 48 sec)
Heartbeat CPU 0 instructions: 72000436 cycles: 51338330 heartbeat IPC: 0.304 cumulative IPC: 0.5839 (Simulation time: 00 hr 09 min 01 sec)
Heartbeat CPU 0 instructions: 72500443 cycles: 53173444 heartbeat IPC: 0.2725 cumulative IPC: 0.5694 (Simulation time: 00 hr 09 min 13 sec)
Heartbeat CPU 0 instructions: 73000445 cycles: 54555491 heartbeat IPC: 0.3618 cumulative IPC: 0.5624 (Simulation time: 00 hr 09 min 23 sec)
Heartbeat CPU 0 instructions: 73500445 cycles: 55535468 heartbeat IPC: 0.5102 cumulative IPC: 0.5612 (Simulation time: 00 hr 09 min 31 sec)
Heartbeat CPU 0 instructions: 74000447 cycles: 56078152 heartbeat IPC: 0.9214 cumulative IPC: 0.5658 (Simulation time: 00 hr 09 min 36 sec)
Heartbeat CPU 0 instructions: 74500452 cycles: 57213091 heartbeat IPC: 0.4406 cumulative IPC: 0.5625 (Simulation time: 00 hr 09 min 44 sec)
Heartbeat CPU 0 instructions: 75000455 cycles: 60167171 heartbeat IPC: 0.1693 cumulative IPC: 0.5376 (Simulation time: 00 hr 10 min 04 sec)
Heartbeat CPU 0 instructions: 75500455 cycles: 61798308 heartbeat IPC: 0.3065 cumulative IPC: 0.5297 (Simulation time: 00 hr 10 min 15 sec)
Heartbeat CPU 0 instructions: 76000459 cycles: 63035340 heartbeat IPC: 0.4042 cumulative IPC: 0.5266 (Simulation time: 00 hr 10 min 25 sec)
Heartbeat CPU 0 instructions: 76500463 cycles: 64024991 heartbeat IPC: 0.5052 cumulative IPC: 0.5262 (Simulation time: 00 hr 10 min 33 sec)
Heartbeat CPU 0 instructions: 77000466 cycles: 65995817 heartbeat IPC: 0.2537 cumulative IPC: 0.5159 (Simulation time: 00 hr 10 min 46 sec)
Heartbeat CPU 0 instructions: 77500469 cycles: 67286310 heartbeat IPC: 0.3875 cumulative IPC: 0.5128 (Simulation time: 00 hr 10 min 56 sec)
Heartbeat CPU 0 instructions: 78000469 cycles: 68780589 heartbeat IPC: 0.3346 cumulative IPC: 0.508 (Simulation time: 00 hr 11 min 07 sec)
Heartbeat CPU 0 instructions: 78500475 cycles: 70424730 heartbeat IPC: 0.3041 cumulative IPC: 0.5021 (Simulation time: 00 hr 11 min 18 sec)
Heartbeat CPU 0 instructions: 79000481 cycles: 71134624 heartbeat IPC: 0.7043 cumulative IPC: 0.5046 (Simulation time: 00 hr 11 min 24 sec)
Heartbeat CPU 0 instructions: 79500486 cycles: 71851740 heartbeat IPC: 0.6972 cumulative IPC: 0.5069 (Simulation time: 00 hr 11 min 30 sec)
Heartbeat CPU 0 instructions: 80000486 cycles: 72035786 heartbeat IPC: 2.717 cumulative IPC: 0.5139 (Simulation time: 00 hr 11 min 32 sec)
Heartbeat CPU 0 instructions: 80500487 cycles: 72198430 heartbeat IPC: 3.074 cumulative IPC: 0.521 (Simulation time: 00 hr 11 min 35 sec)
Heartbeat CPU 0 instructions: 81000489 cycles: 72357123 heartbeat IPC: 3.151 cumulative IPC: 0.5281 (Simulation time: 00 hr 11 min 37 sec)
Heartbeat CPU 0 instructions: 81500492 cycles: 72527846 heartbeat IPC: 2.929 cumulative IPC: 0.5351 (Simulation time: 00 hr 11 min 40 sec)
Heartbeat CPU 0 instructions: 82000494 cycles: 72695992 heartbeat IPC: 2.974 cumulative IPC: 0.542 (Simulation time: 00 hr 11 min 42 sec)
Heartbeat CPU 0 instructions: 82500495 cycles: 72861311 heartbeat IPC: 3.024 cumulative IPC: 0.549 (Simulation time: 00 hr 11 min 44 sec)
Heartbeat CPU 0 instructions: 83000495 cycles: 73027543 heartbeat IPC: 3.008 cumulative IPC: 0.5559 (Simulation time: 00 hr 11 min 47 sec)
Heartbeat CPU 0 instructions: 83500495 cycles: 73189677 heartbeat IPC: 3.084 cumulative IPC: 0.5627 (Simulation time: 00 hr 11 min 49 sec)
Heartbeat CPU 0 instructions: 84000497 cycles: 73359096 heartbeat IPC: 2.951 cumulative IPC: 0.5695 (Simulation time: 00 hr 11 min 52 sec)
Heartbeat CPU 0 instructions: 84500497 cycles: 73536169 heartbeat IPC: 2.824 cumulative IPC: 0.5762 (Simulation time: 00 hr 11 min 54 sec)
Heartbeat CPU 0 instructions: 85000497 cycles: 73707611 heartbeat IPC: 2.916 cumulative IPC: 0.5829 (Simulation time: 00 hr 11 min 57 sec)
Heartbeat CPU 0 instructions: 85500500 cycles: 73879064 heartbeat IPC: 2.916 cumulative IPC: 0.5895 (Simulation time: 00 hr 11 min 59 sec)
Heartbeat CPU 0 instructions: 86000504 cycles: 74051301 heartbeat IPC: 2.903 cumulative IPC: 0.5961 (Simulation time: 00 hr 12 min 02 sec)
Heartbeat CPU 0 instructions: 86500507 cycles: 74223491 heartbeat IPC: 2.904 cumulative IPC: 0.6027 (Simulation time: 00 hr 12 min 04 sec)
Heartbeat CPU 0 instructions: 87000507 cycles: 74400157 heartbeat IPC: 2.83 cumulative IPC: 0.6092 (Simulation time: 00 hr 12 min 07 sec)
Heartbeat CPU 0 instructions: 87500510 cycles: 74583212 heartbeat IPC: 2.731 cumulative IPC: 0.6155 (Simulation time: 00 hr 12 min 09 sec)
Heartbeat CPU 0 instructions: 88000515 cycles: 74758170 heartbeat IPC: 2.858 cumulative IPC: 0.622 (Simulation time: 00 hr 12 min 12 sec)
Heartbeat CPU 0 instructions: 88500516 cycles: 74948448 heartbeat IPC: 2.628 cumulative IPC: 0.6282 (Simulation time: 00 hr 12 min 14 sec)
Heartbeat CPU 0 instructions: 89000520 cycles: 75284333 heartbeat IPC: 1.489 cumulative IPC: 0.6329 (Simulation time: 00 hr 12 min 18 sec)
Heartbeat CPU 0 instructions: 89500520 cycles: 75510372 heartbeat IPC: 2.212 cumulative IPC: 0.6386 (Simulation time: 00 hr 12 min 21 sec)
Heartbeat CPU 0 instructions: 90000527 cycles: 75707283 heartbeat IPC: 2.539 cumulative IPC: 0.6447 (Simulation time: 00 hr 12 min 23 sec)
Heartbeat CPU 0 instructions: 90500527 cycles: 77560671 heartbeat IPC: 0.2698 cumulative IPC: 0.6338 (Simulation time: 00 hr 12 min 38 sec)
Heartbeat CPU 0 instructions: 91000528 cycles: 80272898 heartbeat IPC: 0.1844 cumulative IPC: 0.6155 (Simulation time: 00 hr 12 min 56 sec)
Heartbeat CPU 0 instructions: 91500528 cycles: 81842854 heartbeat IPC: 0.3185 cumulative IPC: 0.6087 (Simulation time: 00 hr 13 min 08 sec)
Heartbeat CPU 0 instructions: 92000528 cycles: 83412017 heartbeat IPC: 0.3186 cumulative IPC: 0.6021 (Simulation time: 00 hr 13 min 19 sec)
Heartbeat CPU 0 instructions: 92500529 cycles: 85757556 heartbeat IPC: 0.2132 cumulative IPC: 0.5895 (Simulation time: 00 hr 13 min 35 sec)
Heartbeat CPU 0 instructions: 93000532 cycles: 87111204 heartbeat IPC: 0.3694 cumulative IPC: 0.5854 (Simulation time: 00 hr 13 min 45 sec)
Heartbeat CPU 0 instructions: 93500532 cycles: 89026544 heartbeat IPC: 0.2611 cumulative IPC: 0.5772 (Simulation time: 00 hr 13 min 58 sec)
Heartbeat CPU 0 instructions: 94000536 cycles: 89927723 heartbeat IPC: 0.5548 cumulative IPC: 0.5769 (Simulation time: 00 hr 14 min 05 sec)
Heartbeat CPU 0 instructions: 94500540 cycles: 90407138 heartbeat IPC: 1.043 cumulative IPC: 0.5798 (Simulation time: 00 hr 14 min 10 sec)
Heartbeat CPU 0 instructions: 95000542 cycles: 91976687 heartbeat IPC: 0.3186 cumulative IPC: 0.5746 (Simulation time: 00 hr 14 min 21 sec)
Heartbeat CPU 0 instructions: 95500542 cycles: 92506302 heartbeat IPC: 0.9441 cumulative IPC: 0.5771 (Simulation time: 00 hr 14 min 25 sec)
Heartbeat CPU 0 instructions: 96000543 cycles: 92885119 heartbeat IPC: 1.32 cumulative IPC: 0.5806 (Simulation time: 00 hr 14 min 29 sec)
Heartbeat CPU 0 instructions: 96500544 cycles: 93154444 heartbeat IPC: 1.856 cumulative IPC: 0.585 (Simulation time: 00 hr 14 min 32 sec)
Heartbeat CPU 0 instructions: 97000549 cycles: 93842910 heartbeat IPC: 0.7263 cumulative IPC: 0.5862 (Simulation time: 00 hr 14 min 38 sec)
Heartbeat CPU 0 instructions: 97500549 cycles: 95876879 heartbeat IPC: 0.2458 cumulative IPC: 0.5777 (Simulation time: 00 hr 14 min 53 sec)
Heartbeat CPU 0 instructions: 98000552 cycles: 97040566 heartbeat IPC: 0.4297 cumulative IPC: 0.5757 (Simulation time: 00 hr 15 min 01 sec)
Heartbeat CPU 0 instructions: 98500554 cycles: 97797269 heartbeat IPC: 0.6608 cumulative IPC: 0.5764 (Simulation time: 00 hr 15 min 07 sec)
Heartbeat CPU 0 instructions: 99000554 cycles: 98978116 heartbeat IPC: 0.4234 cumulative IPC: 0.5743 (Simulation time: 00 hr 15 min 16 sec)
Heartbeat CPU 0 instructions: 99500557 cycles: 99899536 heartbeat IPC: 0.5426 cumulative IPC: 0.574 (Simulation time: 00 hr 15 min 23 sec)
Heartbeat CPU 0 instructions: 100000562 cycles: 100746509 heartbeat IPC: 0.5903 cumulative IPC: 0.5741 (Simulation time: 00 hr 15 min 30 sec)
Heartbeat CPU 0 instructions: 100500563 cycles: 101584536 heartbeat IPC: 0.5966 cumulative IPC: 0.5744 (Simulation time: 00 hr 15 min 36 sec)
Heartbeat CPU 0 instructions: 101000564 cycles: 103204517 heartbeat IPC: 0.3086 cumulative IPC: 0.5696 (Simulation time: 00 hr 15 min 48 sec)
Heartbeat CPU 0 instructions: 101500566 cycles: 105020962 heartbeat IPC: 0.2753 cumulative IPC: 0.5637 (Simulation time: 00 hr 16 min 00 sec)
Heartbeat CPU 0 instructions: 102000567 cycles: 105773479 heartbeat IPC: 0.6644 cumulative IPC: 0.5645 (Simulation time: 00 hr 16 min 06 sec)
Heartbeat CPU 0 instructions: 102500570 cycles: 107008614 heartbeat IPC: 0.4048 cumulative IPC: 0.5624 (Simulation time: 00 hr 16 min 16 sec)
Heartbeat CPU 0 instructions: 103000577 cycles: 107876643 heartbeat IPC: 0.576 cumulative IPC: 0.5625 (Simulation time: 00 hr 16 min 22 sec)
Heartbeat CPU 0 instructions: 103500577 cycles: 108161231 heartbeat IPC: 1.757 cumulative IPC: 0.5661 (Simulation time: 00 hr 16 min 26 sec)
Heartbeat CPU 0 instructions: 104000580 cycles: 109632389 heartbeat IPC: 0.3399 cumulative IPC: 0.5627 (Simulation time: 00 hr 16 min 37 sec)
Heartbeat CPU 0 instructions: 104500582 cycles: 110233937 heartbeat IPC: 0.8312 cumulative IPC: 0.5643 (Simulation time: 00 hr 16 min 43 sec)
Heartbeat CPU 0 instructions: 105000588 cycles: 110804731 heartbeat IPC: 0.876 cumulative IPC: 0.5662 (Simulation time: 00 hr 16 min 49 sec)
Heartbeat CPU 0 instructions: 105500595 cycles: 111245751 heartbeat IPC: 1.134 cumulative IPC: 0.5687 (Simulation time: 00 hr 16 min 55 sec)
Heartbeat CPU 0 instructions: 106000597 cycles: 111638821 heartbeat IPC: 1.272 cumulative IPC: 0.5716 (Simulation time: 00 hr 17 min 00 sec)
Heartbeat CPU 0 instructions: 106500598 cycles: 112050065 heartbeat IPC: 1.216 cumulative IPC: 0.5742 (Simulation time: 00 hr 17 min 05 sec)
Heartbeat CPU 0 instructions: 107000599 cycles: 112452793 heartbeat IPC: 1.242 cumulative IPC: 0.577 (Simulation time: 00 hr 17 min 10 sec)
Heartbeat CPU 0 instructions: 107500600 cycles: 112848466 heartbeat IPC: 1.264 cumulative IPC: 0.5797 (Simulation time: 00 hr 17 min 15 sec)
Heartbeat CPU 0 instructions: 108000605 cycles: 113242484 heartbeat IPC: 1.269 cumulative IPC: 0.5824 (Simulation time: 00 hr 17 min 20 sec)
Heartbeat CPU 0 instructions: 108500605 cycles: 114189407 heartbeat IPC: 0.528 cumulative IPC: 0.5819 (Simulation time: 00 hr 17 min 28 sec)
Heartbeat CPU 0 instructions: 109000606 cycles: 115192297 heartbeat IPC: 0.4986 cumulative IPC: 0.5811 (Simulation time: 00 hr 17 min 35 sec)
Heartbeat CPU 0 instructions: 109500609 cycles: 115750505 heartbeat IPC: 0.8957 cumulative IPC: 0.5828 (Simulation time: 00 hr 17 min 40 sec)
Heartbeat CPU 0 instructions: 110000611 cycles: 117143348 heartbeat IPC: 0.359 cumulative IPC: 0.5798 (Simulation time: 00 hr 17 min 50 sec)
Heartbeat CPU 0 instructions: 110500613 cycles: 117600054 heartbeat IPC: 1.095 cumulative IPC: 0.5821 (Simulation time: 00 hr 17 min 54 sec)
Heartbeat CPU 0 instructions: 111000613 cycles: 117964964 heartbeat IPC: 1.37 cumulative IPC: 0.5848 (Simulation time: 00 hr 17 min 57 sec)
Heartbeat CPU 0 instructions: 111500613 cycles: 118225043 heartbeat IPC: 1.922 cumulative IPC: 0.5882 (Simulation time: 00 hr 18 min 00 sec)
Heartbeat CPU 0 instructions: 112000617 cycles: 118862676 heartbeat IPC: 0.7842 cumulative IPC: 0.5893 (Simulation time: 00 hr 18 min 06 sec)
Heartbeat CPU 0 instructions: 112500622 cycles: 120664525 heartbeat IPC: 0.2775 cumulative IPC: 0.5841 (Simulation time: 00 hr 18 min 17 sec)
Heartbeat CPU 0 instructions: 113000622 cycles: 122486063 heartbeat IPC: 0.2745 cumulative IPC: 0.5789 (Simulation time: 00 hr 18 min 30 sec)
Heartbeat CPU 0 instructions: 113500622 cycles: 123285588 heartbeat IPC: 0.6254 cumulative IPC: 0.5792 (Simulation time: 00 hr 18 min 36 sec)
Heartbeat CPU 0 instructions: 114000628 cycles: 124873078 heartbeat IPC: 0.315 cumulative IPC: 0.5755 (Simulation time: 00 hr 18 min 47 sec)
Heartbeat CPU 0 instructions: 114500632 cycles: 125882886 heartbeat IPC: 0.4951 cumulative IPC: 0.5748 (Simulation time: 00 hr 18 min 55 sec)
Heartbeat CPU 0 instructions: 115000632 cycles: 127538639 heartbeat IPC: 0.302 cumulative IPC: 0.5708 (Simulation time: 00 hr 19 min 06 sec)
Heartbeat CPU 0 instructions: 115500634 cycles: 128671262 heartbeat IPC: 0.4415 cumulative IPC: 0.5695 (Simulation time: 00 hr 19 min 14 sec)
Heartbeat CPU 0 instructions: 116000640 cycles: 129979320 heartbeat IPC: 0.3823 cumulative IPC: 0.5674 (Simulation time: 00 hr 19 min 24 sec)
Heartbeat CPU 0 instructions: 116500641 cycles: 130815707 heartbeat IPC: 0.5978 cumulative IPC: 0.5676 (Simulation time: 00 hr 19 min 30 sec)
Heartbeat CPU 0 instructions: 117000642 cycles: 131228737 heartbeat IPC: 1.211 cumulative IPC: 0.5699 (Simulation time: 00 hr 19 min 34 sec)
Heartbeat CPU 0 instructions: 117500643 cycles: 131488453 heartbeat IPC: 1.925 cumulative IPC: 0.5729 (Simulation time: 00 hr 19 min 37 sec)
Heartbeat CPU 0 instructions: 118000643 cycles: 132049940 heartbeat IPC: 0.8905 cumulative IPC: 0.5744 (Simulation time: 00 hr 19 min 42 sec)
Heartbeat CPU 0 instructions: 118500644 cycles: 133699523 heartbeat IPC: 0.3031 cumulative IPC: 0.5706 (Simulation time: 00 hr 19 min 54 sec)
Heartbeat CPU 0 instructions: 119000644 cycles: 135338208 heartbeat IPC: 0.3051 cumulative IPC: 0.5671 (Simulation time: 00 hr 20 min 05 sec)
Heartbeat CPU 0 instructions: 119500645 cycles: 137113140 heartbeat IPC: 0.2817 cumulative IPC: 0.563 (Simulation time: 00 hr 20 min 17 sec)
Heartbeat CPU 0 instructions: 120000647 cycles: 139049478 heartbeat IPC: 0.2582 cumulative IPC: 0.5583 (Simulation time: 00 hr 20 min 30 sec)
Heartbeat CPU 0 instructions: 120500648 cycles: 139846257 heartbeat IPC: 0.6275 cumulative IPC: 0.5587 (Simulation time: 00 hr 20 min 36 sec)
Heartbeat CPU 0 instructions: 121000649 cycles: 141145590 heartbeat IPC: 0.3848 cumulative IPC: 0.5569 (Simulation time: 00 hr 20 min 45 sec)
Heartbeat CPU 0 instructions: 121500649 cycles: 141561588 heartbeat IPC: 1.202 cumulative IPC: 0.559 (Simulation time: 00 hr 20 min 49 sec)
Heartbeat CPU 0 instructions: 122000649 cycles: 141928099 heartbeat IPC: 1.364 cumulative IPC: 0.5613 (Simulation time: 00 hr 20 min 53 sec)
Heartbeat CPU 0 instructions: 122500650 cycles: 142170466 heartbeat IPC: 2.063 cumulative IPC: 0.5642 (Simulation time: 00 hr 20 min 55 sec)
Heartbeat CPU 0 instructions: 123000655 cycles: 142739013 heartbeat IPC: 0.8794 cumulative IPC: 0.5655 (Simulation time: 00 hr 21 min 00 sec)
Heartbeat CPU 0 instructions: 123500655 cycles: 143704355 heartbeat IPC: 0.518 cumulative IPC: 0.5652 (Simulation time: 00 hr 21 min 08 sec)
Heartbeat CPU 0 instructions: 124000655 cycles: 145599536 heartbeat IPC: 0.2638 cumulative IPC: 0.5609 (Simulation time: 00 hr 21 min 20 sec)
Heartbeat CPU 0 instructions: 124500656 cycles: 148293404 heartbeat IPC: 0.1856 cumulative IPC: 0.5534 (Simulation time: 00 hr 21 min 38 sec)
Heartbeat CPU 0 instructions: 125000662 cycles: 149712336 heartbeat IPC: 0.3524 cumulative IPC: 0.5513 (Simulation time: 00 hr 21 min 48 sec)
Heartbeat CPU 0 instructions: 125500664 cycles: 151216538 heartbeat IPC: 0.3324 cumulative IPC: 0.5489 (Simulation time: 00 hr 22 min 00 sec)
Heartbeat CPU 0 instructions: 126000670 cycles: 152613741 heartbeat IPC: 0.3579 cumulative IPC: 0.5469 (Simulation time: 00 hr 22 min 11 sec)
Heartbeat CPU 0 instructions: 126500672 cycles: 153829474 heartbeat IPC: 0.4113 cumulative IPC: 0.5458 (Simulation time: 00 hr 22 min 21 sec)
Heartbeat CPU 0 instructions: 127000674 cycles: 154997683 heartbeat IPC: 0.428 cumulative IPC: 0.5448 (Simulation time: 00 hr 22 min 31 sec)
Heartbeat CPU 0 instructions: 127500676 cycles: 156277989 heartbeat IPC: 0.3905 cumulative IPC: 0.5434 (Simulation time: 00 hr 22 min 42 sec)
Heartbeat CPU 0 instructions: 128000683 cycles: 157378108 heartbeat IPC: 0.4545 cumulative IPC: 0.5427 (Simulation time: 00 hr 22 min 52 sec)
Heartbeat CPU 0 instructions: 128500687 cycles: 158665693 heartbeat IPC: 0.3883 cumulative IPC: 0.5414 (Simulation time: 00 hr 23 min 03 sec)
Heartbeat CPU 0 instructions: 129000688 cycles: 159929901 heartbeat IPC: 0.3955 cumulative IPC: 0.5401 (Simulation time: 00 hr 23 min 14 sec)
Heartbeat CPU 0 instructions: 129500690 cycles: 161259486 heartbeat IPC: 0.3761 cumulative IPC: 0.5386 (Simulation time: 00 hr 23 min 25 sec)
Heartbeat CPU 0 instructions: 130000690 cycles: 162390203 heartbeat IPC: 0.4422 cumulative IPC: 0.5379 (Simulation time: 00 hr 23 min 35 sec)
Heartbeat CPU 0 instructions: 130500695 cycles: 163839708 heartbeat IPC: 0.3449 cumulative IPC: 0.536 (Simulation time: 00 hr 23 min 48 sec)
Heartbeat CPU 0 instructions: 131000697 cycles: 165063071 heartbeat IPC: 0.4087 cumulative IPC: 0.535 (Simulation time: 00 hr 23 min 59 sec)
Heartbeat CPU 0 instructions: 131500698 cycles: 167234083 heartbeat IPC: 0.2303 cumulative IPC: 0.5307 (Simulation time: 00 hr 24 min 16 sec)
Heartbeat CPU 0 instructions: 132000698 cycles: 170701160 heartbeat IPC: 0.1442 cumulative IPC: 0.5222 (Simulation time: 00 hr 24 min 38 sec)
Heartbeat CPU 0 instructions: 132500699 cycles: 171590172 heartbeat IPC: 0.5624 cumulative IPC: 0.5224 (Simulation time: 00 hr 24 min 45 sec)
Heartbeat CPU 0 instructions: 133000702 cycles: 172195703 heartbeat IPC: 0.8257 cumulative IPC: 0.5235 (Simulation time: 00 hr 24 min 52 sec)
Heartbeat CPU 0 instructions: 133500702 cycles: 173097895 heartbeat IPC: 0.5542 cumulative IPC: 0.5237 (Simulation time: 00 hr 25 min 00 sec)
Heartbeat CPU 0 instructions: 134000708 cycles: 174035308 heartbeat IPC: 0.5334 cumulative IPC: 0.5238 (Simulation time: 00 hr 25 min 08 sec)
Heartbeat CPU 0 instructions: 134500710 cycles: 175198586 heartbeat IPC: 0.4298 cumulative IPC: 0.5231 (Simulation time: 00 hr 25 min 18 sec)
Heartbeat CPU 0 instructions: 135000710 cycles: 177002702 heartbeat IPC: 0.2771 cumulative IPC: 0.5204 (Simulation time: 00 hr 25 min 30 sec)
Heartbeat CPU 0 instructions: 135500715 cycles: 178913937 heartbeat IPC: 0.2616 cumulative IPC: 0.5174 (Simulation time: 00 hr 25 min 42 sec)
Heartbeat CPU 0 instructions: 136000715 cycles: 179528851 heartbeat IPC: 0.8131 cumulative IPC: 0.5185 (Simulation time: 00 hr 25 min 47 sec)
Heartbeat CPU 0 instructions: 136500721 cycles: 181101727 heartbeat IPC: 0.3179 cumulative IPC: 0.5166 (Simulation time: 00 hr 25 min 57 sec)
Heartbeat CPU 0 instructions: 137000722 cycles: 182223857 heartbeat IPC: 0.4456 cumulative IPC: 0.5161 (Simulation time: 00 hr 26 min 04 sec)
Heartbeat CPU 0 instructions: 137500728 cycles: 183965769 heartbeat IPC: 0.287 cumulative IPC: 0.5138 (Simulation time: 00 hr 26 min 16 sec)
Heartbeat CPU 0 instructions: 138000731 cycles: 184880090 heartbeat IPC: 0.5469 cumulative IPC: 0.514 (Simulation time: 00 hr 26 min 23 sec)
Heartbeat CPU 0 instructions: 138500734 cycles: 185661682 heartbeat IPC: 0.6397 cumulative IPC: 0.5145 (Simulation time: 00 hr 26 min 28 sec)
Heartbeat CPU 0 instructions: 139000739 cycles: 187019394 heartbeat IPC: 0.3683 cumulative IPC: 0.5134 (Simulation time: 00 hr 26 min 38 sec)
Heartbeat CPU 0 instructions: 139500740 cycles: 187816683 heartbeat IPC: 0.6271 cumulative IPC: 0.5139 (Simulation time: 00 hr 26 min 44 sec)
Heartbeat CPU 0 instructions: 140000746 cycles: 189907580 heartbeat IPC: 0.2391 cumulative IPC: 0.5106 (Simulation time: 00 hr 26 min 57 sec)
Heartbeat CPU 0 instructions: 140500746 cycles: 191220201 heartbeat IPC: 0.3809 cumulative IPC: 0.5097 (Simulation time: 00 hr 27 min 06 sec)
Heartbeat CPU 0 instructions: 141000748 cycles: 191851218 heartbeat IPC: 0.7924 cumulative IPC: 0.5107 (Simulation time: 00 hr 27 min 10 sec)
Heartbeat CPU 0 instructions: 141500749 cycles: 192455547 heartbeat IPC: 0.8274 cumulative IPC: 0.5118 (Simulation time: 00 hr 27 min 15 sec)
Heartbeat CPU 0 instructions: 142000749 cycles: 192965936 heartbeat IPC: 0.9796 cumulative IPC: 0.5131 (Simulation time: 00 hr 27 min 19 sec)
Heartbeat CPU 0 instructions: 142500750 cycles: 193509207 heartbeat IPC: 0.9204 cumulative IPC: 0.5143 (Simulation time: 00 hr 27 min 23 sec)
Heartbeat CPU 0 instructions: 143000750 cycles: 194186574 heartbeat IPC: 0.7382 cumulative IPC: 0.5152 (Simulation time: 00 hr 27 min 28 sec)
Heartbeat CPU 0 instructions: 143500750 cycles: 194682536 heartbeat IPC: 1.008 cumulative IPC: 0.5165 (Simulation time: 00 hr 27 min 32 sec)
Heartbeat CPU 0 instructions: 144000752 cycles: 195978375 heartbeat IPC: 0.3859 cumulative IPC: 0.5156 (Simulation time: 00 hr 27 min 40 sec)
Heartbeat CPU 0 instructions: 144500752 cycles: 197522350 heartbeat IPC: 0.3238 cumulative IPC: 0.514 (Simulation time: 00 hr 27 min 50 sec)
Heartbeat CPU 0 instructions: 145000755 cycles: 198964000 heartbeat IPC: 0.3468 cumulative IPC: 0.5127 (Simulation time: 00 hr 27 min 59 sec)
Heartbeat CPU 0 instructions: 145500762 cycles: 200652964 heartbeat IPC: 0.296 cumulative IPC: 0.5107 (Simulation time: 00 hr 28 min 09 sec)
Heartbeat CPU 0 instructions: 146000762 cycles: 201016657 heartbeat IPC: 1.375 cumulative IPC: 0.5124 (Simulation time: 00 hr 28 min 13 sec)
Heartbeat CPU 0 instructions: 146500762 cycles: 202221811 heartbeat IPC: 0.4149 cumulative IPC: 0.5118 (Simulation time: 00 hr 28 min 20 sec)
Heartbeat CPU 0 instructions: 147000762 cycles: 203005257 heartbeat IPC: 0.6382 cumulative IPC: 0.5123 (Simulation time: 00 hr 28 min 26 sec)
Heartbeat CPU 0 instructions: 147500763 cycles: 203896087 heartbeat IPC: 0.5613 cumulative IPC: 0.5125 (Simulation time: 00 hr 28 min 32 sec)
Heartbeat CPU 0 instructions: 148000763 cycles: 204315955 heartbeat IPC: 1.191 cumulative IPC: 0.514 (Simulation time: 00 hr 28 min 35 sec)
Heartbeat CPU 0 instructions: 148500764 cycles: 205508202 heartbeat IPC: 0.4194 cumulative IPC: 0.5134 (Simulation time: 00 hr 28 min 43 sec)
Heartbeat CPU 0 instructions: 149000764 cycles: 207399580 heartbeat IPC: 0.2644 cumulative IPC: 0.511 (Simulation time: 00 hr 28 min 55 sec)
Heartbeat CPU 0 instructions: 149500767 cycles: 208857672 heartbeat IPC: 0.3429 cumulative IPC: 0.5097 (Simulation time: 00 hr 29 min 04 sec)
Heartbeat CPU 0 instructions: 150000774 cycles: 209589341 heartbeat IPC: 0.6834 cumulative IPC: 0.5104 (Simulation time: 00 hr 29 min 11 sec)
Heartbeat CPU 0 instructions: 150500775 cycles: 210180672 heartbeat IPC: 0.8456 cumulative IPC: 0.5114 (Simulation time: 00 hr 29 min 17 sec)
Heartbeat CPU 0 instructions: 151000777 cycles: 211957762 heartbeat IPC: 0.2814 cumulative IPC: 0.5093 (Simulation time: 00 hr 29 min 28 sec)
Heartbeat CPU 0 instructions: 151500777 cycles: 213028948 heartbeat IPC: 0.4668 cumulative IPC: 0.5091 (Simulation time: 00 hr 29 min 35 sec)
Heartbeat CPU 0 instructions: 152000777 cycles: 214664421 heartbeat IPC: 0.3057 cumulative IPC: 0.5075 (Simulation time: 00 hr 29 min 45 sec)
Heartbeat CPU 0 instructions: 152500777 cycles: 215587198 heartbeat IPC: 0.5418 cumulative IPC: 0.5076 (Simulation time: 00 hr 29 min 51 sec)
Heartbeat CPU 0 instructions: 153000780 cycles: 218338555 heartbeat IPC: 0.1817 cumulative IPC: 0.5032 (Simulation time: 00 hr 30 min 07 sec)
Heartbeat CPU 0 instructions: 153500780 cycles: 219588741 heartbeat IPC: 0.3999 cumulative IPC: 0.5026 (Simulation time: 00 hr 30 min 16 sec)
Heartbeat CPU 0 instructions: 154000780 cycles: 219991360 heartbeat IPC: 1.242 cumulative IPC: 0.504 (Simulation time: 00 hr 30 min 19 sec)
Heartbeat CPU 0 instructions: 154500786 cycles: 221104059 heartbeat IPC: 0.4494 cumulative IPC: 0.5038 (Simulation time: 00 hr 30 min 27 sec)
Heartbeat CPU 0 instructions: 155000787 cycles: 222298905 heartbeat IPC: 0.4185 cumulative IPC: 0.5033 (Simulation time: 00 hr 30 min 35 sec)
Heartbeat CPU 0 instructions: 155500787 cycles: 224116779 heartbeat IPC: 0.275 cumulative IPC: 0.5013 (Simulation time: 00 hr 30 min 45 sec)
Heartbeat CPU 0 instructions: 156000787 cycles: 225151991 heartbeat IPC: 0.483 cumulative IPC: 0.5012 (Simulation time: 00 hr 30 min 52 sec)
Heartbeat CPU 0 instructions: 156500788 cycles: 225869077 heartbeat IPC: 0.6973 cumulative IPC: 0.5019 (Simulation time: 00 hr 30 min 58 sec)
Heartbeat CPU 0 instructions: 157000793 cycles: 226469525 heartbeat IPC: 0.8327 cumulative IPC: 0.5028 (Simulation time: 00 hr 31 min 04 sec)
Heartbeat CPU 0 instructions: 157500799 cycles: 228464613 heartbeat IPC: 0.2506 cumulative IPC: 0.5005 (Simulation time: 00 hr 31 min 18 sec)
Heartbeat CPU 0 instructions: 158000799 cycles: 229566049 heartbeat IPC: 0.454 cumulative IPC: 0.5002 (Simulation time: 00 hr 31 min 30 sec)
Heartbeat CPU 0 instructions: 158500804 cycles: 231176453 heartbeat IPC: 0.3105 cumulative IPC: 0.4988 (Simulation time: 00 hr 31 min 49 sec)
Heartbeat CPU 0 instructions: 159000807 cycles: 232249484 heartbeat IPC: 0.466 cumulative IPC: 0.4987 (Simulation time: 00 hr 31 min 57 sec)
Heartbeat CPU 0 instructions: 159500810 cycles: 233261004 heartbeat IPC: 0.4943 cumulative IPC: 0.4986 (Simulation time: 00 hr 32 min 04 sec)
Heartbeat CPU 0 instructions: 160000811 cycles: 235830779 heartbeat IPC: 0.1946 cumulative IPC: 0.4951 (Simulation time: 00 hr 32 min 20 sec)
Heartbeat CPU 0 instructions: 160500818 cycles: 237814380 heartbeat IPC: 0.2521 cumulative IPC: 0.493 (Simulation time: 00 hr 32 min 33 sec)
Heartbeat CPU 0 instructions: 161000820 cycles: 239719611 heartbeat IPC: 0.2624 cumulative IPC: 0.491 (Simulation time: 00 hr 32 min 45 sec)
Heartbeat CPU 0 instructions: 161500823 cycles: 240510952 heartbeat IPC: 0.6318 cumulative IPC: 0.4915 (Simulation time: 00 hr 32 min 51 sec)
Heartbeat CPU 0 instructions: 162000823 cycles: 241440306 heartbeat IPC: 0.538 cumulative IPC: 0.4917 (Simulation time: 00 hr 32 min 59 sec)
Heartbeat CPU 0 instructions: 162500823 cycles: 243420765 heartbeat IPC: 0.2525 cumulative IPC: 0.4896 (Simulation time: 00 hr 33 min 10 sec)
Heartbeat CPU 0 instructions: 163000823 cycles: 244771578 heartbeat IPC: 0.3701 cumulative IPC: 0.4889 (Simulation time: 00 hr 33 min 18 sec)
Heartbeat CPU 0 instructions: 163500830 cycles: 246425343 heartbeat IPC: 0.3023 cumulative IPC: 0.4876 (Simulation time: 00 hr 33 min 28 sec)
Heartbeat CPU 0 instructions: 164000830 cycles: 248890822 heartbeat IPC: 0.2028 cumulative IPC: 0.4846 (Simulation time: 00 hr 33 min 42 sec)
Heartbeat CPU 0 instructions: 164500833 cycles: 250308623 heartbeat IPC: 0.3527 cumulative IPC: 0.4838 (Simulation time: 00 hr 33 min 51 sec)
Heartbeat CPU 0 instructions: 165000833 cycles: 251528838 heartbeat IPC: 0.4098 cumulative IPC: 0.4835 (Simulation time: 00 hr 33 min 59 sec)
Heartbeat CPU 0 instructions: 165500833 cycles: 252794910 heartbeat IPC: 0.3949 cumulative IPC: 0.483 (Simulation time: 00 hr 34 min 07 sec)
Heartbeat CPU 0 instructions: 166000840 cycles: 254309652 heartbeat IPC: 0.3301 cumulative IPC: 0.482 (Simulation time: 00 hr 34 min 16 sec)
Heartbeat CPU 0 instructions: 166500841 cycles: 255560894 heartbeat IPC: 0.3996 cumulative IPC: 0.4816 (Simulation time: 00 hr 34 min 23 sec)
Heartbeat CPU 0 instructions: 167000841 cycles: 256236657 heartbeat IPC: 0.7399 cumulative IPC: 0.4823 (Simulation time: 00 hr 34 min 28 sec)
Heartbeat CPU 0 instructions: 167500846 cycles: 257139701 heartbeat IPC: 0.5537 cumulative IPC: 0.4826 (Simulation time: 00 hr 34 min 34 sec)
Heartbeat CPU 0 instructions: 168000850 cycles: 257612458 heartbeat IPC: 1.058 cumulative IPC: 0.4837 (Simulation time: 00 hr 34 min 38 sec)
Heartbeat CPU 0 instructions: 168500851 cycles: 258845969 heartbeat IPC: 0.4053 cumulative IPC: 0.4833 (Simulation time: 00 hr 34 min 45 sec)
Heartbeat CPU 0 instructions: 169000851 cycles: 260223836 heartbeat IPC: 0.3629 cumulative IPC: 0.4826 (Simulation time: 00 hr 34 min 54 sec)
Heartbeat CPU 0 instructions: 169500851 cycles: 261173229 heartbeat IPC: 0.5267 cumulative IPC: 0.4828 (Simulation time: 00 hr 35 min 00 sec)
Heartbeat CPU 0 instructions: 170000853 cycles: 262603568 heartbeat IPC: 0.3496 cumulative IPC: 0.482 (Simulation time: 00 hr 35 min 09 sec)
Heartbeat CPU 0 instructions: 170500855 cycles: 263317012 heartbeat IPC: 0.7008 cumulative IPC: 0.4827 (Simulation time: 00 hr 35 min 14 sec)
Heartbeat CPU 0 instructions: 171000860 cycles: 263552201 heartbeat IPC: 2.126 cumulative IPC: 0.4842 (Simulation time: 00 hr 35 min 16 sec)
Heartbeat CPU 0 instructions: 171500866 cycles: 263769371 heartbeat IPC: 2.302 cumulative IPC: 0.4858 (Simulation time: 00 hr 35 min 18 sec)
Heartbeat CPU 0 instructions: 172000868 cycles: 264230633 heartbeat IPC: 1.084 cumulative IPC: 0.4869 (Simulation time: 00 hr 35 min 21 sec)
Heartbeat CPU 0 instructions: 172500873 cycles: 266141227 heartbeat IPC: 0.2617 cumulative IPC: 0.4852 (Simulation time: 00 hr 35 min 32 sec)
Heartbeat CPU 0 instructions: 173000873 cycles: 267550628 heartbeat IPC: 0.3548 cumulative IPC: 0.4845 (Simulation time: 00 hr 35 min 41 sec)
Heartbeat CPU 0 instructions: 173500875 cycles: 268992812 heartbeat IPC: 0.3467 cumulative IPC: 0.4837 (Simulation time: 00 hr 35 min 50 sec)
Heartbeat CPU 0 instructions: 174000877 cycles: 270904314 heartbeat IPC: 0.2616 cumulative IPC: 0.482 (Simulation time: 00 hr 36 min 01 sec)
Heartbeat CPU 0 instructions: 174500880 cycles: 272952764 heartbeat IPC: 0.2441 cumulative IPC: 0.4802 (Simulation time: 00 hr 36 min 13 sec)
Heartbeat CPU 0 instructions: 175000881 cycles: 274341699 heartbeat IPC: 0.36 cumulative IPC: 0.4795 (Simulation time: 00 hr 36 min 22 sec)
Heartbeat CPU 0 instructions: 175500881 cycles: 274961487 heartbeat IPC: 0.8067 cumulative IPC: 0.4803 (Simulation time: 00 hr 36 min 28 sec)
Heartbeat CPU 0 instructions: 176000881 cycles: 276625339 heartbeat IPC: 0.3005 cumulative IPC: 0.4792 (Simulation time: 00 hr 36 min 38 sec)
Heartbeat CPU 0 instructions: 176500882 cycles: 277574589 heartbeat IPC: 0.5267 cumulative IPC: 0.4793 (Simulation time: 00 hr 36 min 44 sec)
Heartbeat CPU 0 instructions: 177000883 cycles: 279016386 heartbeat IPC: 0.3468 cumulative IPC: 0.4786 (Simulation time: 00 hr 36 min 52 sec)
Heartbeat CPU 0 instructions: 177500884 cycles: 280317541 heartbeat IPC: 0.3843 cumulative IPC: 0.4781 (Simulation time: 00 hr 37 min 00 sec)
Heartbeat CPU 0 instructions: 178000887 cycles: 282142828 heartbeat IPC: 0.2739 cumulative IPC: 0.4768 (Simulation time: 00 hr 37 min 10 sec)
Heartbeat CPU 0 instructions: 178500888 cycles: 283195062 heartbeat IPC: 0.4752 cumulative IPC: 0.4767 (Simulation time: 00 hr 37 min 17 sec)
Heartbeat CPU 0 instructions: 179000890 cycles: 284130231 heartbeat IPC: 0.5347 cumulative IPC: 0.4769 (Simulation time: 00 hr 37 min 23 sec)
Heartbeat CPU 0 instructions: 179500890 cycles: 285831295 heartbeat IPC: 0.2939 cumulative IPC: 0.4758 (Simulation time: 00 hr 37 min 33 sec)
Heartbeat CPU 0 instructions: 180000890 cycles: 286308654 heartbeat IPC: 1.047 cumulative IPC: 0.4768 (Simulation time: 00 hr 37 min 37 sec)
Heartbeat CPU 0 instructions: 180500890 cycles: 286883462 heartbeat IPC: 0.8699 cumulative IPC: 0.4776 (Simulation time: 00 hr 37 min 41 sec)
Heartbeat CPU 0 instructions: 181000892 cycles: 287924045 heartbeat IPC: 0.4805 cumulative IPC: 0.4776 (Simulation time: 00 hr 37 min 47 sec)
Heartbeat CPU 0 instructions: 181500892 cycles: 288465200 heartbeat IPC: 0.9239 cumulative IPC: 0.4785 (Simulation time: 00 hr 37 min 51 sec)
Heartbeat CPU 0 instructions: 182000896 cycles: 289803069 heartbeat IPC: 0.3737 cumulative IPC: 0.478 (Simulation time: 00 hr 37 min 59 sec)
Heartbeat CPU 0 instructions: 182500897 cycles: 290967673 heartbeat IPC: 0.4293 cumulative IPC: 0.4778 (Simulation time: 00 hr 38 min 08 sec)
Heartbeat CPU 0 instructions: 183000899 cycles: 292076042 heartbeat IPC: 0.4511 cumulative IPC: 0.4777 (Simulation time: 00 hr 38 min 17 sec)
Heartbeat CPU 0 instructions: 183500905 cycles: 293230448 heartbeat IPC: 0.4331 cumulative IPC: 0.4775 (Simulation time: 00 hr 38 min 26 sec)
Heartbeat CPU 0 instructions: 184000905 cycles: 294041239 heartbeat IPC: 0.6167 cumulative IPC: 0.4779 (Simulation time: 00 hr 38 min 32 sec)
Heartbeat CPU 0 instructions: 184500907 cycles: 294864345 heartbeat IPC: 0.6075 cumulative IPC: 0.4783 (Simulation time: 00 hr 38 min 38 sec)
Heartbeat CPU 0 instructions: 185000911 cycles: 295939071 heartbeat IPC: 0.4652 cumulative IPC: 0.4783 (Simulation time: 00 hr 38 min 47 sec)
Heartbeat CPU 0 instructions: 185500916 cycles: 296655496 heartbeat IPC: 0.6979 cumulative IPC: 0.4788 (Simulation time: 00 hr 38 min 53 sec)
Heartbeat CPU 0 instructions: 186000916 cycles: 299626268 heartbeat IPC: 0.1683 cumulative IPC: 0.4756 (Simulation time: 00 hr 39 min 10 sec)
Heartbeat CPU 0 instructions: 186500921 cycles: 300482813 heartbeat IPC: 0.5837 cumulative IPC: 0.4759 (Simulation time: 00 hr 39 min 16 sec)
Heartbeat CPU 0 instructions: 187000927 cycles: 302314828 heartbeat IPC: 0.2729 cumulative IPC: 0.4746 (Simulation time: 00 hr 39 min 27 sec)
Heartbeat CPU 0 instructions: 187500931 cycles: 303106215 heartbeat IPC: 0.6318 cumulative IPC: 0.475 (Simulation time: 00 hr 39 min 33 sec)
Heartbeat CPU 0 instructions: 188000933 cycles: 305345548 heartbeat IPC: 0.2233 cumulative IPC: 0.4731 (Simulation time: 00 hr 39 min 46 sec)
Heartbeat CPU 0 instructions: 188500935 cycles: 306754741 heartbeat IPC: 0.3548 cumulative IPC: 0.4725 (Simulation time: 00 hr 39 min 54 sec)
Heartbeat CPU 0 instructions: 189000935 cycles: 307650488 heartbeat IPC: 0.5582 cumulative IPC: 0.4728 (Simulation time: 00 hr 40 min 00 sec)
Heartbeat CPU 0 instructions: 189500940 cycles: 309113953 heartbeat IPC: 0.3417 cumulative IPC: 0.4722 (Simulation time: 00 hr 40 min 08 sec)
Heartbeat CPU 0 instructions: 190000940 cycles: 310726293 heartbeat IPC: 0.3101 cumulative IPC: 0.4713 (Simulation time: 00 hr 40 min 17 sec)
Heartbeat CPU 0 instructions: 190500940 cycles: 312070246 heartbeat IPC: 0.372 cumulative IPC: 0.4708 (Simulation time: 00 hr 40 min 25 sec)
Heartbeat CPU 0 instructions: 191000940 cycles: 312880901 heartbeat IPC: 0.6168 cumulative IPC: 0.4712 (Simulation time: 00 hr 40 min 30 sec)
Heartbeat CPU 0 instructions: 191500940 cycles: 315068881 heartbeat IPC: 0.2285 cumulative IPC: 0.4695 (Simulation time: 00 hr 40 min 43 sec)
Heartbeat CPU 0 instructions: 192000942 cycles: 317478136 heartbeat IPC: 0.2075 cumulative IPC: 0.4674 (Simulation time: 00 hr 40 min 56 sec)
Heartbeat CPU 0 instructions: 192500945 cycles: 319193275 heartbeat IPC: 0.2915 cumulative IPC: 0.4664 (Simulation time: 00 hr 41 min 06 sec)
Heartbeat CPU 0 instructions: 193000946 cycles: 319752950 heartbeat IPC: 0.8934 cumulative IPC: 0.4672 (Simulation time: 00 hr 41 min 10 sec)
Heartbeat CPU 0 instructions: 193500946 cycles: 320723557 heartbeat IPC: 0.5151 cumulative IPC: 0.4673 (Simulation time: 00 hr 41 min 16 sec)
Heartbeat CPU 0 instructions: 194000949 cycles: 321875322 heartbeat IPC: 0.4341 cumulative IPC: 0.4672 (Simulation time: 00 hr 41 min 23 sec)
Heartbeat CPU 0 instructions: 194500952 cycles: 323045639 heartbeat IPC: 0.4272 cumulative IPC: 0.4671 (Simulation time: 00 hr 41 min 30 sec)
Heartbeat CPU 0 instructions: 195000952 cycles: 323940991 heartbeat IPC: 0.5584 cumulative IPC: 0.4673 (Simulation time: 00 hr 41 min 36 sec)
Heartbeat CPU 0 instructions: 195500953 cycles: 324364960 heartbeat IPC: 1.179 cumulative IPC: 0.4683 (Simulation time: 00 hr 41 min 39 sec)
Heartbeat CPU 0 instructions: 196000956 cycles: 324786620 heartbeat IPC: 1.186 cumulative IPC: 0.4693 (Simulation time: 00 hr 41 min 42 sec)
Heartbeat CPU 0 instructions: 196500957 cycles: 324947436 heartbeat IPC: 3.109 cumulative IPC: 0.4706 (Simulation time: 00 hr 41 min 44 sec)
Heartbeat CPU 0 instructions: 197000957 cycles: 325105760 heartbeat IPC: 3.158 cumulative IPC: 0.472 (Simulation time: 00 hr 41 min 46 sec)
Heartbeat CPU 0 instructions: 197500957 cycles: 325267564 heartbeat IPC: 3.09 cumulative IPC: 0.4734 (Simulation time: 00 hr 41 min 48 sec)
Heartbeat CPU 0 instructions: 198000958 cycles: 325434508 heartbeat IPC: 2.995 cumulative IPC: 0.4747 (Simulation time: 00 hr 41 min 50 sec)
Heartbeat CPU 0 instructions: 198500961 cycles: 325606845 heartbeat IPC: 2.901 cumulative IPC: 0.476 (Simulation time: 00 hr 41 min 52 sec)
Heartbeat CPU 0 instructions: 199000963 cycles: 325822780 heartbeat IPC: 2.316 cumulative IPC: 0.4773 (Simulation time: 00 hr 41 min 54 sec)
Heartbeat CPU 0 instructions: 199500968 cycles: 327529930 heartbeat IPC: 0.2929 cumulative IPC: 0.4763 (Simulation time: 00 hr 42 min 03 sec)
Heartbeat CPU 0 instructions: 200000972 cycles: 329093841 heartbeat IPC: 0.3197 cumulative IPC: 0.4755 (Simulation time: 00 hr 42 min 12 sec)
Heartbeat CPU 0 instructions: 200500979 cycles: 330364956 heartbeat IPC: 0.3934 cumulative IPC: 0.4752 (Simulation time: 00 hr 42 min 20 sec)
Heartbeat CPU 0 instructions: 201000979 cycles: 332047330 heartbeat IPC: 0.2972 cumulative IPC: 0.4743 (Simulation time: 00 hr 42 min 29 sec)
Heartbeat CPU 0 instructions: 201500980 cycles: 333240705 heartbeat IPC: 0.419 cumulative IPC: 0.4741 (Simulation time: 00 hr 42 min 36 sec)
Heartbeat CPU 0 instructions: 202000982 cycles: 333664364 heartbeat IPC: 1.18 cumulative IPC: 0.475 (Simulation time: 00 hr 42 min 39 sec)
Heartbeat CPU 0 instructions: 202500989 cycles: 334029314 heartbeat IPC: 1.37 cumulative IPC: 0.476 (Simulation time: 00 hr 42 min 41 sec)
Heartbeat CPU 0 instructions: 203000992 cycles: 334394533 heartbeat IPC: 1.369 cumulative IPC: 0.477 (Simulation time: 00 hr 42 min 44 sec)
Heartbeat CPU 0 instructions: 203500993 cycles: 334742970 heartbeat IPC: 1.435 cumulative IPC: 0.4781 (Simulation time: 00 hr 42 min 47 sec)
Heartbeat CPU 0 instructions: 204000997 cycles: 335100660 heartbeat IPC: 1.398 cumulative IPC: 0.4791 (Simulation time: 00 hr 42 min 49 sec)
Heartbeat CPU 0 instructions: 204500999 cycles: 335438390 heartbeat IPC: 1.48 cumulative IPC: 0.4801 (Simulation time: 00 hr 42 min 52 sec)
Heartbeat CPU 0 instructions: 205001003 cycles: 335801507 heartbeat IPC: 1.377 cumulative IPC: 0.4812 (Simulation time: 00 hr 42 min 55 sec)
Heartbeat CPU 0 instructions: 205501006 cycles: 337109409 heartbeat IPC: 0.3823 cumulative IPC: 0.4808 (Simulation time: 00 hr 43 min 02 sec)
Heartbeat CPU 0 instructions: 206001006 cycles: 338072664 heartbeat IPC: 0.5191 cumulative IPC: 0.4809 (Simulation time: 00 hr 43 min 08 sec)
Heartbeat CPU 0 instructions: 206501011 cycles: 339149786 heartbeat IPC: 0.4642 cumulative IPC: 0.4808 (Simulation time: 00 hr 43 min 15 sec)
Heartbeat CPU 0 instructions: 207001012 cycles: 340545549 heartbeat IPC: 0.3582 cumulative IPC: 0.4803 (Simulation time: 00 hr 43 min 23 sec)
Heartbeat CPU 0 instructions: 207501012 cycles: 342221850 heartbeat IPC: 0.2983 cumulative IPC: 0.4794 (Simulation time: 00 hr 43 min 32 sec)
Heartbeat CPU 0 instructions: 208001013 cycles: 343504675 heartbeat IPC: 0.3898 cumulative IPC: 0.479 (Simulation time: 00 hr 43 min 40 sec)
Heartbeat CPU 0 instructions: 208501013 cycles: 344647887 heartbeat IPC: 0.4374 cumulative IPC: 0.4789 (Simulation time: 00 hr 43 min 47 sec)
Heartbeat CPU 0 instructions: 209001013 cycles: 345935980 heartbeat IPC: 0.3882 cumulative IPC: 0.4785 (Simulation time: 00 hr 43 min 54 sec)
Heartbeat CPU 0 instructions: 209501013 cycles: 347099721 heartbeat IPC: 0.4296 cumulative IPC: 0.4783 (Simulation time: 00 hr 44 min 01 sec)
Heartbeat CPU 0 instructions: 210001019 cycles: 348596421 heartbeat IPC: 0.3341 cumulative IPC: 0.4777 (Simulation time: 00 hr 44 min 09 sec)
Heartbeat CPU 0 instructions: 210501021 cycles: 350018373 heartbeat IPC: 0.3516 cumulative IPC: 0.4772 (Simulation time: 00 hr 44 min 17 sec)
Heartbeat CPU 0 instructions: 211001023 cycles: 350960390 heartbeat IPC: 0.5308 cumulative IPC: 0.4773 (Simulation time: 00 hr 44 min 23 sec)
Heartbeat CPU 0 instructions: 211501027 cycles: 352416621 heartbeat IPC: 0.3434 cumulative IPC: 0.4767 (Simulation time: 00 hr 44 min 31 sec)
Heartbeat CPU 0 instructions: 212001034 cycles: 353895932 heartbeat IPC: 0.338 cumulative IPC: 0.4761 (Simulation time: 00 hr 44 min 39 sec)
Heartbeat CPU 0 instructions: 212501039 cycles: 355138999 heartbeat IPC: 0.4022 cumulative IPC: 0.4759 (Simulation time: 00 hr 44 min 46 sec)
Heartbeat CPU 0 instructions: 213001040 cycles: 356514474 heartbeat IPC: 0.3635 cumulative IPC: 0.4754 (Simulation time: 00 hr 44 min 54 sec)
Heartbeat CPU 0 instructions: 213501041 cycles: 357380296 heartbeat IPC: 0.5775 cumulative IPC: 0.4757 (Simulation time: 00 hr 45 min 00 sec)
Heartbeat CPU 0 instructions: 214001048 cycles: 358066384 heartbeat IPC: 0.7288 cumulative IPC: 0.4762 (Simulation time: 00 hr 45 min 04 sec)
Heartbeat CPU 0 instructions: 214501050 cycles: 360078693 heartbeat IPC: 0.2485 cumulative IPC: 0.4749 (Simulation time: 00 hr 45 min 14 sec)
Heartbeat CPU 0 instructions: 215001051 cycles: 361219288 heartbeat IPC: 0.4384 cumulative IPC: 0.4747 (Simulation time: 00 hr 45 min 21 sec)
Heartbeat CPU 0 instructions: 215501054 cycles: 362096740 heartbeat IPC: 0.5698 cumulative IPC: 0.475 (Simulation time: 00 hr 45 min 26 sec)
Heartbeat CPU 0 instructions: 216001054 cycles: 363146437 heartbeat IPC: 0.4763 cumulative IPC: 0.475 (Simulation time: 00 hr 45 min 33 sec)
Heartbeat CPU 0 instructions: 216501060 cycles: 364201703 heartbeat IPC: 0.4738 cumulative IPC: 0.475 (Simulation time: 00 hr 45 min 39 sec)
Heartbeat CPU 0 instructions: 217001062 cycles: 365015894 heartbeat IPC: 0.6141 cumulative IPC: 0.4753 (Simulation time: 00 hr 45 min 44 sec)
Heartbeat CPU 0 instructions: 217501068 cycles: 366869298 heartbeat IPC: 0.2698 cumulative IPC: 0.4742 (Simulation time: 00 hr 45 min 54 sec)
Heartbeat CPU 0 instructions: 218001068 cycles: 367902709 heartbeat IPC: 0.4838 cumulative IPC: 0.4743 (Simulation time: 00 hr 46 min 01 sec)
Heartbeat CPU 0 instructions: 218501068 cycles: 369030248 heartbeat IPC: 0.4434 cumulative IPC: 0.4742 (Simulation time: 00 hr 46 min 08 sec)
Heartbeat CPU 0 instructions: 219001069 cycles: 371081626 heartbeat IPC: 0.2437 cumulative IPC: 0.4728 (Simulation time: 00 hr 46 min 18 sec)
Heartbeat CPU 0 instructions: 219501073 cycles: 372253055 heartbeat IPC: 0.4268 cumulative IPC: 0.4727 (Simulation time: 00 hr 46 min 25 sec)
Heartbeat CPU 0 instructions: 220001073 cycles: 373780951 heartbeat IPC: 0.3272 cumulative IPC: 0.4721 (Simulation time: 00 hr 46 min 33 sec)
Heartbeat CPU 0 instructions: 220501073 cycles: 374836057 heartbeat IPC: 0.4739 cumulative IPC: 0.4721 (Simulation time: 00 hr 46 min 39 sec)
Heartbeat CPU 0 instructions: 221001073 cycles: 376020744 heartbeat IPC: 0.4221 cumulative IPC: 0.4719 (Simulation time: 00 hr 46 min 46 sec)
Heartbeat CPU 0 instructions: 221501075 cycles: 377173525 heartbeat IPC: 0.4337 cumulative IPC: 0.4718 (Simulation time: 00 hr 46 min 52 sec)
Heartbeat CPU 0 instructions: 222001076 cycles: 377821814 heartbeat IPC: 0.7713 cumulative IPC: 0.4723 (Simulation time: 00 hr 46 min 57 sec)
Heartbeat CPU 0 instructions: 222501080 cycles: 379625716 heartbeat IPC: 0.2772 cumulative IPC: 0.4714 (Simulation time: 00 hr 47 min 06 sec)
Heartbeat CPU 0 instructions: 223001081 cycles: 381818968 heartbeat IPC: 0.228 cumulative IPC: 0.4699 (Simulation time: 00 hr 47 min 18 sec)
Heartbeat CPU 0 instructions: 223501083 cycles: 383124233 heartbeat IPC: 0.3831 cumulative IPC: 0.4696 (Simulation time: 00 hr 47 min 25 sec)
Heartbeat CPU 0 instructions: 224001083 cycles: 384358449 heartbeat IPC: 0.4051 cumulative IPC: 0.4694 (Simulation time: 00 hr 47 min 32 sec)
Heartbeat CPU 0 instructions: 224501086 cycles: 384845755 heartbeat IPC: 1.026 cumulative IPC: 0.4701 (Simulation time: 00 hr 47 min 36 sec)
Heartbeat CPU 0 instructions: 225001091 cycles: 385540092 heartbeat IPC: 0.7201 cumulative IPC: 0.4706 (Simulation time: 00 hr 47 min 40 sec)
Heartbeat CPU 0 instructions: 225501091 cycles: 386049648 heartbeat IPC: 0.9812 cumulative IPC: 0.4713 (Simulation time: 00 hr 47 min 43 sec)
Heartbeat CPU 0 instructions: 226001091 cycles: 386613600 heartbeat IPC: 0.8866 cumulative IPC: 0.4719 (Simulation time: 00 hr 47 min 47 sec)
Heartbeat CPU 0 instructions: 226501092 cycles: 387118492 heartbeat IPC: 0.9903 cumulative IPC: 0.4726 (Simulation time: 00 hr 47 min 50 sec)
Heartbeat CPU 0 instructions: 227001092 cycles: 388288199 heartbeat IPC: 0.4275 cumulative IPC: 0.4725 (Simulation time: 00 hr 47 min 57 sec)
Heartbeat CPU 0 instructions: 227501092 cycles: 390925231 heartbeat IPC: 0.1896 cumulative IPC: 0.4705 (Simulation time: 00 hr 48 min 11 sec)
Heartbeat CPU 0 instructions: 228001094 cycles: 393065525 heartbeat IPC: 0.2336 cumulative IPC: 0.4692 (Simulation time: 00 hr 48 min 22 sec)
Heartbeat CPU 0 instructions: 228501099 cycles: 393744803 heartbeat IPC: 0.7361 cumulative IPC: 0.4696 (Simulation time: 00 hr 48 min 28 sec)
Heartbeat CPU 0 instructions: 229001104 cycles: 394262468 heartbeat IPC: 0.9659 cumulative IPC: 0.4703 (Simulation time: 00 hr 48 min 33 sec)
Heartbeat CPU 0 instructions: 229501109 cycles: 395854923 heartbeat IPC: 0.314 cumulative IPC: 0.4697 (Simulation time: 00 hr 48 min 41 sec)
Heartbeat CPU 0 instructions: 230001112 cycles: 397220183 heartbeat IPC: 0.3662 cumulative IPC: 0.4693 (Simulation time: 00 hr 48 min 49 sec)
Heartbeat CPU 0 instructions: 230501114 cycles: 397889359 heartbeat IPC: 0.7472 cumulative IPC: 0.4698 (Simulation time: 00 hr 48 min 54 sec)
Heartbeat CPU 0 instructions: 231001114 cycles: 398371532 heartbeat IPC: 1.037 cumulative IPC: 0.4705 (Simulation time: 00 hr 48 min 59 sec)
Heartbeat CPU 0 instructions: 231501114 cycles: 400115351 heartbeat IPC: 0.2867 cumulative IPC: 0.4697 (Simulation time: 00 hr 49 min 08 sec)
Heartbeat CPU 0 instructions: 232001116 cycles: 401721058 heartbeat IPC: 0.3114 cumulative IPC: 0.469 (Simulation time: 00 hr 49 min 18 sec)
Heartbeat CPU 0 instructions: 232501116 cycles: 402571353 heartbeat IPC: 0.588 cumulative IPC: 0.4693 (Simulation time: 00 hr 49 min 23 sec)
Heartbeat CPU 0 instructions: 233001117 cycles: 403174447 heartbeat IPC: 0.8291 cumulative IPC: 0.4698 (Simulation time: 00 hr 49 min 27 sec)
Heartbeat CPU 0 instructions: 233501117 cycles: 403559958 heartbeat IPC: 1.297 cumulative IPC: 0.4706 (Simulation time: 00 hr 49 min 30 sec)
Heartbeat CPU 0 instructions: 234001119 cycles: 404648158 heartbeat IPC: 0.4595 cumulative IPC: 0.4706 (Simulation time: 00 hr 49 min 36 sec)
Heartbeat CPU 0 instructions: 234501119 cycles: 405724099 heartbeat IPC: 0.4647 cumulative IPC: 0.4706 (Simulation time: 00 hr 49 min 42 sec)
Heartbeat CPU 0 instructions: 235001126 cycles: 407146494 heartbeat IPC: 0.3515 cumulative IPC: 0.4702 (Simulation time: 00 hr 49 min 50 sec)
Heartbeat CPU 0 instructions: 235501126 cycles: 409040424 heartbeat IPC: 0.264 cumulative IPC: 0.4692 (Simulation time: 00 hr 50 min 00 sec)
Heartbeat CPU 0 instructions: 236001127 cycles: 410379030 heartbeat IPC: 0.3735 cumulative IPC: 0.4688 (Simulation time: 00 hr 50 min 07 sec)
Heartbeat CPU 0 instructions: 236501129 cycles: 410857716 heartbeat IPC: 1.045 cumulative IPC: 0.4695 (Simulation time: 00 hr 50 min 11 sec)
Heartbeat CPU 0 instructions: 237001130 cycles: 412667605 heartbeat IPC: 0.2763 cumulative IPC: 0.4687 (Simulation time: 00 hr 50 min 21 sec)
Heartbeat CPU 0 instructions: 237501130 cycles: 414566142 heartbeat IPC: 0.2634 cumulative IPC: 0.4677 (Simulation time: 00 hr 50 min 31 sec)
Heartbeat CPU 0 instructions: 238001131 cycles: 415538537 heartbeat IPC: 0.5142 cumulative IPC: 0.4678 (Simulation time: 00 hr 50 min 37 sec)
Heartbeat CPU 0 instructions: 238501131 cycles: 415699562 heartbeat IPC: 3.105 cumulative IPC: 0.4689 (Simulation time: 00 hr 50 min 39 sec)
Heartbeat CPU 0 instructions: 239001133 cycles: 415862444 heartbeat IPC: 3.07 cumulative IPC: 0.4699 (Simulation time: 00 hr 50 min 41 sec)
Heartbeat CPU 0 instructions: 239501133 cycles: 416025982 heartbeat IPC: 3.057 cumulative IPC: 0.471 (Simulation time: 00 hr 50 min 43 sec)
Heartbeat CPU 0 instructions: 240001135 cycles: 416198617 heartbeat IPC: 2.896 cumulative IPC: 0.472 (Simulation time: 00 hr 50 min 44 sec)
Heartbeat CPU 0 instructions: 240501135 cycles: 416779241 heartbeat IPC: 0.8611 cumulative IPC: 0.4726 (Simulation time: 00 hr 50 min 48 sec)
Heartbeat CPU 0 instructions: 241001137 cycles: 418269506 heartbeat IPC: 0.3355 cumulative IPC: 0.4721 (Simulation time: 00 hr 50 min 57 sec)
Heartbeat CPU 0 instructions: 241501140 cycles: 419142388 heartbeat IPC: 0.5728 cumulative IPC: 0.4723 (Simulation time: 00 hr 51 min 03 sec)
Heartbeat CPU 0 instructions: 242001140 cycles: 420871757 heartbeat IPC: 0.2891 cumulative IPC: 0.4715 (Simulation time: 00 hr 51 min 12 sec)
Heartbeat CPU 0 instructions: 242501140 cycles: 422180726 heartbeat IPC: 0.382 cumulative IPC: 0.4712 (Simulation time: 00 hr 51 min 19 sec)
Heartbeat CPU 0 instructions: 243001144 cycles: 423790388 heartbeat IPC: 0.3106 cumulative IPC: 0.4706 (Simulation time: 00 hr 51 min 28 sec)
Heartbeat CPU 0 instructions: 243501151 cycles: 425663003 heartbeat IPC: 0.267 cumulative IPC: 0.4697 (Simulation time: 00 hr 51 min 38 sec)
Heartbeat CPU 0 instructions: 244001157 cycles: 426453850 heartbeat IPC: 0.6322 cumulative IPC: 0.47 (Simulation time: 00 hr 51 min 43 sec)
Heartbeat CPU 0 instructions: 244501159 cycles: 427556630 heartbeat IPC: 0.4534 cumulative IPC: 0.4699 (Simulation time: 00 hr 51 min 50 sec)
Heartbeat CPU 0 instructions: 245001166 cycles: 429574992 heartbeat IPC: 0.2477 cumulative IPC: 0.4688 (Simulation time: 00 hr 52 min 01 sec)
Heartbeat CPU 0 instructions: 245501166 cycles: 431347162 heartbeat IPC: 0.2821 cumulative IPC: 0.4681 (Simulation time: 00 hr 52 min 10 sec)
Heartbeat CPU 0 instructions: 246001168 cycles: 432641498 heartbeat IPC: 0.3863 cumulative IPC: 0.4678 (Simulation time: 00 hr 52 min 17 sec)
Heartbeat CPU 0 instructions: 246501170 cycles: 433680185 heartbeat IPC: 0.4814 cumulative IPC: 0.4678 (Simulation time: 00 hr 52 min 23 sec)
Heartbeat CPU 0 instructions: 247001175 cycles: 434591065 heartbeat IPC: 0.5489 cumulative IPC: 0.468 (Simulation time: 00 hr 52 min 29 sec)
Heartbeat CPU 0 instructions: 247501178 cycles: 436447234 heartbeat IPC: 0.2694 cumulative IPC: 0.4671 (Simulation time: 00 hr 52 min 39 sec)
Heartbeat CPU 0 instructions: 248001179 cycles: 437946810 heartbeat IPC: 0.3334 cumulative IPC: 0.4667 (Simulation time: 00 hr 52 min 47 sec)
Heartbeat CPU 0 instructions: 248501183 cycles: 438940825 heartbeat IPC: 0.503 cumulative IPC: 0.4668 (Simulation time: 00 hr 52 min 53 sec)
Heartbeat CPU 0 instructions: 249001183 cycles: 439505852 heartbeat IPC: 0.8849 cumulative IPC: 0.4673 (Simulation time: 00 hr 52 min 57 sec)
Heartbeat CPU 0 instructions: 249501183 cycles: 440033414 heartbeat IPC: 0.9478 cumulative IPC: 0.4679 (Simulation time: 00 hr 53 min 00 sec)
Simulation finished CPU 0 instructions: 200000000 cycles: 427443301 cumulative IPC: 0.4679 (Simulation time: 00 hr 53 min 07 sec)
Simulation complete CPU 0 instructions: 200000000 cycles: 427443301 cumulative IPC: 0.4679 (Simulation time: 00 hr 53 min 07 sec)

ChampSim completed all CPUs

=== Simulation ===
CPU 0 runs /local-ssd/ben/dpc4-traces/gtraces_v2/tahoe_0001.champsim.gz

Region of Interest Statistics

CPU 0 cumulative IPC: 0.4679 instructions: 200000000 cycles: 427443301
CPU 0 Branch Prediction Accuracy: 90.69% MPKI: 18.02 Average ROB Occupancy at Mispredict: 26.39
Branch type MPKI
BRANCH_DIRECT_JUMP: 0.754
BRANCH_INDIRECT: 0.3313
BRANCH_CONDITIONAL: 14.72
BRANCH_DIRECT_CALL: 0.889
BRANCH_INDIRECT_CALL: 0.4762
BRANCH_RETURN: 0.846

cpu0->cpu0_STLB TOTAL        ACCESS:    1899097 HIT:    1256480 MISS:     642617 MSHR_MERGE:          0
cpu0->cpu0_STLB LOAD         ACCESS:    1899097 HIT:    1256480 MISS:     642617 MSHR_MERGE:          0
cpu0->cpu0_STLB RFO          ACCESS:          0 HIT:          0 MISS:          0 MSHR_MERGE:          0
cpu0->cpu0_STLB PREFETCH     ACCESS:          0 HIT:          0 MISS:          0 MSHR_MERGE:          0
cpu0->cpu0_STLB WRITE        ACCESS:          0 HIT:          0 MISS:          0 MSHR_MERGE:          0
cpu0->cpu0_STLB TRANSLATION  ACCESS:          0 HIT:          0 MISS:          0 MSHR_MERGE:          0
cpu0->cpu0_STLB PREFETCH REQUESTED:          0 ISSUED:          0 USEFUL:          0 USELESS:          0
cpu0->cpu0_STLB AVERAGE MISS LATENCY: 139 cycles
cpu0->cpu0_L2C TOTAL        ACCESS:    7138819 HIT:    3855839 MISS:    3282980 MSHR_MERGE:          0
cpu0->cpu0_L2C LOAD         ACCESS:    3680055 HIT:    1883201 MISS:    1796854 MSHR_MERGE:          0
cpu0->cpu0_L2C RFO          ACCESS:     633732 HIT:     167271 MISS:     466461 MSHR_MERGE:          0
cpu0->cpu0_L2C PREFETCH     ACCESS:    1075511 HIT:     320967 MISS:     754544 MSHR_MERGE:          0
cpu0->cpu0_L2C WRITE        ACCESS:    1078202 HIT:    1078160 MISS:         42 MSHR_MERGE:          0
cpu0->cpu0_L2C TRANSLATION  ACCESS:     671319 HIT:     406240 MISS:     265079 MSHR_MERGE:          0
cpu0->cpu0_L2C PREFETCH REQUESTED:          0 ISSUED:          0 USEFUL:          0 USELESS:          0
cpu0->cpu0_L2C AVERAGE MISS LATENCY: 217.1 cycles
cpu0->cpu0_L1I TOTAL        ACCESS:   15641097 HIT:   13236816 MISS:    2404281 MSHR_MERGE:     442408
cpu0->cpu0_L1I LOAD         ACCESS:   15641097 HIT:   13236816 MISS:    2404281 MSHR_MERGE:     442408
cpu0->cpu0_L1I RFO          ACCESS:          0 HIT:          0 MISS:          0 MSHR_MERGE:          0
cpu0->cpu0_L1I PREFETCH     ACCESS:          0 HIT:          0 MISS:          0 MSHR_MERGE:          0
cpu0->cpu0_L1I WRITE        ACCESS:          0 HIT:          0 MISS:          0 MSHR_MERGE:          0
cpu0->cpu0_L1I TRANSLATION  ACCESS:          0 HIT:          0 MISS:          0 MSHR_MERGE:          0
cpu0->cpu0_L1I PREFETCH REQUESTED:          0 ISSUED:          0 USEFUL:          0 USELESS:          0
cpu0->cpu0_L1I AVERAGE MISS LATENCY: 92.55 cycles
cpu0->cpu0_L1D TOTAL        ACCESS:   61708880 HIT:   55247863 MISS:    6461017 MSHR_MERGE:    2362252
cpu0->cpu0_L1D LOAD         ACCESS:   35118322 HIT:   32638882 MISS:    2479440 MSHR_MERGE:     761252
cpu0->cpu0_L1D RFO          ACCESS:          0 HIT:          0 MISS:          0 MSHR_MERGE:          0
cpu0->cpu0_L1D PREFETCH     ACCESS:    1917188 HIT:     780803 MISS:    1136385 MSHR_MERGE:      60872
cpu0->cpu0_L1D WRITE        ACCESS:   23038890 HIT:   20871281 MISS:    2167609 MSHR_MERGE:    1533864
cpu0->cpu0_L1D TRANSLATION  ACCESS:    1634480 HIT:     956897 MISS:     677583 MSHR_MERGE:       6264
cpu0->cpu0_L1D PREFETCH REQUESTED:    2013132 ISSUED:    1917182 USEFUL:     543609 USELESS:     531897
cpu0->cpu0_L1D AVERAGE MISS LATENCY: 134.6 cycles
cpu0->cpu0_ITLB TOTAL        ACCESS:   13144982 HIT:   12772093 MISS:     372889 MSHR_MERGE:     159653
cpu0->cpu0_ITLB LOAD         ACCESS:   13144982 HIT:   12772093 MISS:     372889 MSHR_MERGE:     159653
cpu0->cpu0_ITLB RFO          ACCESS:          0 HIT:          0 MISS:          0 MSHR_MERGE:          0
cpu0->cpu0_ITLB PREFETCH     ACCESS:          0 HIT:          0 MISS:          0 MSHR_MERGE:          0
cpu0->cpu0_ITLB WRITE        ACCESS:          0 HIT:          0 MISS:          0 MSHR_MERGE:          0
cpu0->cpu0_ITLB TRANSLATION  ACCESS:          0 HIT:          0 MISS:          0 MSHR_MERGE:          0
cpu0->cpu0_ITLB PREFETCH REQUESTED:          0 ISSUED:          0 USEFUL:          0 USELESS:          0
cpu0->cpu0_ITLB AVERAGE MISS LATENCY: 36.4 cycles
cpu0->cpu0_DTLB TOTAL        ACCESS:   56755719 HIT:   53948364 MISS:    2807355 MSHR_MERGE:    1121494
cpu0->cpu0_DTLB LOAD         ACCESS:   56755719 HIT:   53948364 MISS:    2807355 MSHR_MERGE:    1121494
cpu0->cpu0_DTLB RFO          ACCESS:          0 HIT:          0 MISS:          0 MSHR_MERGE:          0
cpu0->cpu0_DTLB PREFETCH     ACCESS:          0 HIT:          0 MISS:          0 MSHR_MERGE:          0
cpu0->cpu0_DTLB WRITE        ACCESS:          0 HIT:          0 MISS:          0 MSHR_MERGE:          0
cpu0->cpu0_DTLB TRANSLATION  ACCESS:          0 HIT:          0 MISS:          0 MSHR_MERGE:          0
cpu0->cpu0_DTLB PREFETCH REQUESTED:          0 ISSUED:          0 USEFUL:          0 USELESS:          0
cpu0->cpu0_DTLB AVERAGE MISS LATENCY: 54.42 cycles
cpu0->LLC TOTAL        ACCESS:    4033434 HIT:     809827 MISS:    3223607 MSHR_MERGE:          0
cpu0->LLC LOAD         ACCESS:    1796853 HIT:     249378 MISS:    1547475 MSHR_MERGE:          0
cpu0->LLC RFO          ACCESS:     466461 HIT:      10629 MISS:     455832 MSHR_MERGE:          0
cpu0->LLC PREFETCH     ACCESS:     754544 HIT:      29571 MISS:     724973 MSHR_MERGE:          0
cpu0->LLC WRITE        ACCESS:     750497 HIT:     481354 MISS:     269143 MSHR_MERGE:          0
cpu0->LLC TRANSLATION  ACCESS:     265079 HIT:      38895 MISS:     226184 MSHR_MERGE:          0
cpu0->LLC PREFETCH REQUESTED:          0 ISSUED:          0 USEFUL:          0 USELESS:          0
cpu0->LLC AVERAGE MISS LATENCY: 198.4 cycles

DRAM Statistics

Channel 0 RQ ROW_BUFFER_HIT:     109966
  ROW_BUFFER_MISS:    2844281
  AVG DBUS CONGESTED CYCLE: 26.79
Channel 0 WQ ROW_BUFFER_HIT:     189263
  ROW_BUFFER_MISS:     528583
  FULL:         51
Channel 0 REFRESHES ISSUED:      35618
