[VMEM] WARNING: physical memory size is smaller than virtual memory size.

*** ChampSim Multicore Out-of-Order Simulator ***
Warmup Instructions: 50000000
Simulation Instructions: 200000000
Number of CPUs: 1
Page size: 4096
Core 0: /local-ssd/ben/dpc4-traces/gtraces_v2/sierra.a.6_0003.champsim.gz
 L1D Berti prefetcher
Off-chip DRAM Size: 64 GiB Channels: 1 Width: 64-bit Data Rate: 4807 MT/s
[BTB] WARNING: target of return is a lower address than the corresponding call. This is usually a problem with your trace.
[BTB] WARNING: target of return is a lower address than the corresponding call. This is usually a problem with your trace.
[BTB] WARNING: target of return is a lower address than the corresponding call. This is usually a problem with your trace.
[BTB] WARNING: target of return is a lower address than the corresponding call. This is usually a problem with your trace.
[BTB] WARNING: target of return is a lower address than the corresponding call. This is usually a problem with your trace.
[BTB] WARNING: target of return is a lower address than the corresponding call. This is usually a problem with your trace.
[BTB] WARNING: target of return is a lower address than the corresponding call. This is usually a problem with your trace.
[BTB] WARNING: target of return is a lower address than the corresponding call. This is usually a problem with your trace.
[BTB] WARNING: target of return is a lower address than the corresponding call. This is usually a problem with your trace.
[BTB] WARNING: target of return is a lower address than the corresponding call. This is usually a problem with your trace.
Heartbeat CPU 0 instructions: 500001 cycles: 273322 heartbeat IPC: 1.829 cumulative IPC: 1.829 (Simulation time: 00 hr 00 min 05 sec)
Heartbeat CPU 0 instructions: 1000007 cycles: 458378 heartbeat IPC: 2.702 cumulative IPC: 2.182 (Simulation time: 00 hr 00 min 08 sec)
Heartbeat CPU 0 instructions: 1500009 cycles: 640434 heartbeat IPC: 2.746 cumulative IPC: 2.342 (Simulation time: 00 hr 00 min 11 sec)
Heartbeat CPU 0 instructions: 2000013 cycles: 815016 heartbeat IPC: 2.864 cumulative IPC: 2.454 (Simulation time: 00 hr 00 min 14 sec)
Heartbeat CPU 0 instructions: 2500019 cycles: 966949 heartbeat IPC: 3.291 cumulative IPC: 2.585 (Simulation time: 00 hr 00 min 17 sec)
Heartbeat CPU 0 instructions: 3000019 cycles: 1116522 heartbeat IPC: 3.343 cumulative IPC: 2.687 (Simulation time: 00 hr 00 min 20 sec)
Heartbeat CPU 0 instructions: 3500024 cycles: 1325383 heartbeat IPC: 2.394 cumulative IPC: 2.641 (Simulation time: 00 hr 00 min 23 sec)
Heartbeat CPU 0 instructions: 4000031 cycles: 1515016 heartbeat IPC: 2.637 cumulative IPC: 2.64 (Simulation time: 00 hr 00 min 27 sec)
Heartbeat CPU 0 instructions: 4500032 cycles: 1659289 heartbeat IPC: 3.466 cumulative IPC: 2.712 (Simulation time: 00 hr 00 min 30 sec)
Heartbeat CPU 0 instructions: 5000035 cycles: 1789828 heartbeat IPC: 3.83 cumulative IPC: 2.794 (Simulation time: 00 hr 00 min 32 sec)
Heartbeat CPU 0 instructions: 5500036 cycles: 1946241 heartbeat IPC: 3.197 cumulative IPC: 2.826 (Simulation time: 00 hr 00 min 35 sec)
Heartbeat CPU 0 instructions: 6000036 cycles: 2136270 heartbeat IPC: 2.631 cumulative IPC: 2.809 (Simulation time: 00 hr 00 min 39 sec)
Heartbeat CPU 0 instructions: 6500041 cycles: 2333704 heartbeat IPC: 2.533 cumulative IPC: 2.785 (Simulation time: 00 hr 00 min 42 sec)
Heartbeat CPU 0 instructions: 7000041 cycles: 2477161 heartbeat IPC: 3.485 cumulative IPC: 2.826 (Simulation time: 00 hr 00 min 44 sec)
Heartbeat CPU 0 instructions: 7500047 cycles: 2643115 heartbeat IPC: 3.013 cumulative IPC: 2.838 (Simulation time: 00 hr 00 min 47 sec)
Heartbeat CPU 0 instructions: 8000051 cycles: 2813368 heartbeat IPC: 2.937 cumulative IPC: 2.844 (Simulation time: 00 hr 00 min 50 sec)
Heartbeat CPU 0 instructions: 8500052 cycles: 2955962 heartbeat IPC: 3.506 cumulative IPC: 2.876 (Simulation time: 00 hr 00 min 53 sec)
Heartbeat CPU 0 instructions: 9000057 cycles: 3099551 heartbeat IPC: 3.482 cumulative IPC: 2.904 (Simulation time: 00 hr 00 min 56 sec)
Heartbeat CPU 0 instructions: 9500058 cycles: 3226531 heartbeat IPC: 3.938 cumulative IPC: 2.944 (Simulation time: 00 hr 00 min 59 sec)
Heartbeat CPU 0 instructions: 10000060 cycles: 3363381 heartbeat IPC: 3.654 cumulative IPC: 2.973 (Simulation time: 00 hr 01 min 01 sec)
Heartbeat CPU 0 instructions: 10500064 cycles: 3497027 heartbeat IPC: 3.741 cumulative IPC: 3.003 (Simulation time: 00 hr 01 min 04 sec)
Heartbeat CPU 0 instructions: 11000070 cycles: 3627561 heartbeat IPC: 3.83 cumulative IPC: 3.032 (Simulation time: 00 hr 01 min 07 sec)
Heartbeat CPU 0 instructions: 11500075 cycles: 3753034 heartbeat IPC: 3.985 cumulative IPC: 3.064 (Simulation time: 00 hr 01 min 10 sec)
Heartbeat CPU 0 instructions: 12000076 cycles: 3880184 heartbeat IPC: 3.932 cumulative IPC: 3.093 (Simulation time: 00 hr 01 min 12 sec)
Heartbeat CPU 0 instructions: 12500080 cycles: 4013454 heartbeat IPC: 3.752 cumulative IPC: 3.115 (Simulation time: 00 hr 01 min 15 sec)
Heartbeat CPU 0 instructions: 13000080 cycles: 4152897 heartbeat IPC: 3.586 cumulative IPC: 3.13 (Simulation time: 00 hr 01 min 18 sec)
Heartbeat CPU 0 instructions: 13500080 cycles: 4291924 heartbeat IPC: 3.596 cumulative IPC: 3.145 (Simulation time: 00 hr 01 min 20 sec)
Heartbeat CPU 0 instructions: 14000085 cycles: 4420014 heartbeat IPC: 3.904 cumulative IPC: 3.167 (Simulation time: 00 hr 01 min 23 sec)
Heartbeat CPU 0 instructions: 14500085 cycles: 4543611 heartbeat IPC: 4.045 cumulative IPC: 3.191 (Simulation time: 00 hr 01 min 26 sec)
Heartbeat CPU 0 instructions: 15000088 cycles: 4688656 heartbeat IPC: 3.447 cumulative IPC: 3.199 (Simulation time: 00 hr 01 min 29 sec)
Heartbeat CPU 0 instructions: 15500092 cycles: 4812264 heartbeat IPC: 4.045 cumulative IPC: 3.221 (Simulation time: 00 hr 01 min 31 sec)
Heartbeat CPU 0 instructions: 16000094 cycles: 4944494 heartbeat IPC: 3.781 cumulative IPC: 3.236 (Simulation time: 00 hr 01 min 34 sec)
Heartbeat CPU 0 instructions: 16500100 cycles: 5073745 heartbeat IPC: 3.868 cumulative IPC: 3.252 (Simulation time: 00 hr 01 min 36 sec)
Heartbeat CPU 0 instructions: 17000100 cycles: 5231766 heartbeat IPC: 3.164 cumulative IPC: 3.249 (Simulation time: 00 hr 01 min 39 sec)
Heartbeat CPU 0 instructions: 17500104 cycles: 5383998 heartbeat IPC: 3.284 cumulative IPC: 3.25 (Simulation time: 00 hr 01 min 42 sec)
Heartbeat CPU 0 instructions: 18000111 cycles: 5543194 heartbeat IPC: 3.141 cumulative IPC: 3.247 (Simulation time: 00 hr 01 min 45 sec)
Heartbeat CPU 0 instructions: 18500117 cycles: 5692195 heartbeat IPC: 3.356 cumulative IPC: 3.25 (Simulation time: 00 hr 01 min 48 sec)
Heartbeat CPU 0 instructions: 19000124 cycles: 5827859 heartbeat IPC: 3.686 cumulative IPC: 3.26 (Simulation time: 00 hr 01 min 51 sec)
Heartbeat CPU 0 instructions: 19500129 cycles: 5970089 heartbeat IPC: 3.515 cumulative IPC: 3.266 (Simulation time: 00 hr 01 min 54 sec)
Heartbeat CPU 0 instructions: 20000136 cycles: 6115019 heartbeat IPC: 3.45 cumulative IPC: 3.271 (Simulation time: 00 hr 01 min 56 sec)
Heartbeat CPU 0 instructions: 20500141 cycles: 6271581 heartbeat IPC: 3.194 cumulative IPC: 3.269 (Simulation time: 00 hr 01 min 59 sec)
Heartbeat CPU 0 instructions: 21000146 cycles: 6415858 heartbeat IPC: 3.466 cumulative IPC: 3.273 (Simulation time: 00 hr 02 min 02 sec)
Heartbeat CPU 0 instructions: 21500150 cycles: 6545367 heartbeat IPC: 3.861 cumulative IPC: 3.285 (Simulation time: 00 hr 02 min 05 sec)
Heartbeat CPU 0 instructions: 22000151 cycles: 6675725 heartbeat IPC: 3.836 cumulative IPC: 3.296 (Simulation time: 00 hr 02 min 07 sec)
Heartbeat CPU 0 instructions: 22500151 cycles: 6804557 heartbeat IPC: 3.881 cumulative IPC: 3.307 (Simulation time: 00 hr 02 min 10 sec)
Heartbeat CPU 0 instructions: 23000158 cycles: 6950207 heartbeat IPC: 3.433 cumulative IPC: 3.309 (Simulation time: 00 hr 02 min 12 sec)
Heartbeat CPU 0 instructions: 23500162 cycles: 7098774 heartbeat IPC: 3.366 cumulative IPC: 3.31 (Simulation time: 00 hr 02 min 15 sec)
Heartbeat CPU 0 instructions: 24000167 cycles: 7236600 heartbeat IPC: 3.628 cumulative IPC: 3.316 (Simulation time: 00 hr 02 min 18 sec)
Heartbeat CPU 0 instructions: 24500173 cycles: 7375141 heartbeat IPC: 3.609 cumulative IPC: 3.322 (Simulation time: 00 hr 02 min 21 sec)
Heartbeat CPU 0 instructions: 25000178 cycles: 7503961 heartbeat IPC: 3.881 cumulative IPC: 3.332 (Simulation time: 00 hr 02 min 23 sec)
Heartbeat CPU 0 instructions: 25500180 cycles: 7628986 heartbeat IPC: 3.999 cumulative IPC: 3.343 (Simulation time: 00 hr 02 min 26 sec)
Heartbeat CPU 0 instructions: 26000186 cycles: 7764625 heartbeat IPC: 3.686 cumulative IPC: 3.349 (Simulation time: 00 hr 02 min 29 sec)
Heartbeat CPU 0 instructions: 26500190 cycles: 7900081 heartbeat IPC: 3.691 cumulative IPC: 3.354 (Simulation time: 00 hr 02 min 31 sec)
Heartbeat CPU 0 instructions: 27000194 cycles: 8040120 heartbeat IPC: 3.57 cumulative IPC: 3.358 (Simulation time: 00 hr 02 min 34 sec)
Heartbeat CPU 0 instructions: 27500198 cycles: 8177860 heartbeat IPC: 3.63 cumulative IPC: 3.363 (Simulation time: 00 hr 02 min 37 sec)
Heartbeat CPU 0 instructions: 28000198 cycles: 8307149 heartbeat IPC: 3.867 cumulative IPC: 3.371 (Simulation time: 00 hr 02 min 39 sec)
Heartbeat CPU 0 instructions: 28500200 cycles: 8438685 heartbeat IPC: 3.801 cumulative IPC: 3.377 (Simulation time: 00 hr 02 min 42 sec)
Heartbeat CPU 0 instructions: 29000201 cycles: 8579574 heartbeat IPC: 3.549 cumulative IPC: 3.38 (Simulation time: 00 hr 02 min 45 sec)
Heartbeat CPU 0 instructions: 29500204 cycles: 8716702 heartbeat IPC: 3.646 cumulative IPC: 3.384 (Simulation time: 00 hr 02 min 47 sec)
Heartbeat CPU 0 instructions: 30000206 cycles: 8850393 heartbeat IPC: 3.74 cumulative IPC: 3.39 (Simulation time: 00 hr 02 min 50 sec)
Heartbeat CPU 0 instructions: 30500207 cycles: 8980725 heartbeat IPC: 3.836 cumulative IPC: 3.396 (Simulation time: 00 hr 02 min 52 sec)
Heartbeat CPU 0 instructions: 31000212 cycles: 9111108 heartbeat IPC: 3.835 cumulative IPC: 3.402 (Simulation time: 00 hr 02 min 55 sec)
Heartbeat CPU 0 instructions: 31500213 cycles: 9238600 heartbeat IPC: 3.922 cumulative IPC: 3.41 (Simulation time: 00 hr 02 min 57 sec)
Heartbeat CPU 0 instructions: 32000218 cycles: 9393309 heartbeat IPC: 3.232 cumulative IPC: 3.407 (Simulation time: 00 hr 03 min 00 sec)
Heartbeat CPU 0 instructions: 32500223 cycles: 9527347 heartbeat IPC: 3.73 cumulative IPC: 3.411 (Simulation time: 00 hr 03 min 03 sec)
Heartbeat CPU 0 instructions: 33000224 cycles: 9657669 heartbeat IPC: 3.837 cumulative IPC: 3.417 (Simulation time: 00 hr 03 min 05 sec)
Heartbeat CPU 0 instructions: 33500224 cycles: 9793442 heartbeat IPC: 3.683 cumulative IPC: 3.421 (Simulation time: 00 hr 03 min 08 sec)
Heartbeat CPU 0 instructions: 34000226 cycles: 9930394 heartbeat IPC: 3.651 cumulative IPC: 3.424 (Simulation time: 00 hr 03 min 11 sec)
Heartbeat CPU 0 instructions: 34500233 cycles: 10071864 heartbeat IPC: 3.534 cumulative IPC: 3.425 (Simulation time: 00 hr 03 min 14 sec)
Heartbeat CPU 0 instructions: 35000239 cycles: 10207669 heartbeat IPC: 3.682 cumulative IPC: 3.429 (Simulation time: 00 hr 03 min 16 sec)
Heartbeat CPU 0 instructions: 35500242 cycles: 10335932 heartbeat IPC: 3.898 cumulative IPC: 3.435 (Simulation time: 00 hr 03 min 19 sec)
Heartbeat CPU 0 instructions: 36000243 cycles: 10469758 heartbeat IPC: 3.736 cumulative IPC: 3.438 (Simulation time: 00 hr 03 min 22 sec)
Heartbeat CPU 0 instructions: 36500248 cycles: 10603073 heartbeat IPC: 3.751 cumulative IPC: 3.442 (Simulation time: 00 hr 03 min 24 sec)
Heartbeat CPU 0 instructions: 37000249 cycles: 10739116 heartbeat IPC: 3.675 cumulative IPC: 3.445 (Simulation time: 00 hr 03 min 27 sec)
Heartbeat CPU 0 instructions: 37500250 cycles: 10866483 heartbeat IPC: 3.926 cumulative IPC: 3.451 (Simulation time: 00 hr 03 min 30 sec)
Heartbeat CPU 0 instructions: 38000251 cycles: 10993419 heartbeat IPC: 3.939 cumulative IPC: 3.457 (Simulation time: 00 hr 03 min 32 sec)
Heartbeat CPU 0 instructions: 38500257 cycles: 11128586 heartbeat IPC: 3.699 cumulative IPC: 3.46 (Simulation time: 00 hr 03 min 35 sec)
Heartbeat CPU 0 instructions: 39000261 cycles: 11261563 heartbeat IPC: 3.76 cumulative IPC: 3.463 (Simulation time: 00 hr 03 min 38 sec)
Heartbeat CPU 0 instructions: 39500264 cycles: 11405575 heartbeat IPC: 3.472 cumulative IPC: 3.463 (Simulation time: 00 hr 03 min 40 sec)
Heartbeat CPU 0 instructions: 40000266 cycles: 11544653 heartbeat IPC: 3.595 cumulative IPC: 3.465 (Simulation time: 00 hr 03 min 43 sec)
Heartbeat CPU 0 instructions: 40500266 cycles: 11669168 heartbeat IPC: 4.016 cumulative IPC: 3.471 (Simulation time: 00 hr 03 min 45 sec)
Heartbeat CPU 0 instructions: 41000272 cycles: 11812714 heartbeat IPC: 3.483 cumulative IPC: 3.471 (Simulation time: 00 hr 03 min 48 sec)
Heartbeat CPU 0 instructions: 41500277 cycles: 11947002 heartbeat IPC: 3.723 cumulative IPC: 3.474 (Simulation time: 00 hr 03 min 51 sec)
Heartbeat CPU 0 instructions: 42000279 cycles: 12070285 heartbeat IPC: 4.056 cumulative IPC: 3.48 (Simulation time: 00 hr 03 min 53 sec)
Heartbeat CPU 0 instructions: 42500281 cycles: 12203333 heartbeat IPC: 3.758 cumulative IPC: 3.483 (Simulation time: 00 hr 03 min 56 sec)
Heartbeat CPU 0 instructions: 43000288 cycles: 12345407 heartbeat IPC: 3.519 cumulative IPC: 3.483 (Simulation time: 00 hr 03 min 59 sec)
Heartbeat CPU 0 instructions: 43500295 cycles: 12484278 heartbeat IPC: 3.601 cumulative IPC: 3.484 (Simulation time: 00 hr 04 min 01 sec)
Heartbeat CPU 0 instructions: 44000295 cycles: 12617063 heartbeat IPC: 3.765 cumulative IPC: 3.487 (Simulation time: 00 hr 04 min 04 sec)
Heartbeat CPU 0 instructions: 44500295 cycles: 12755593 heartbeat IPC: 3.609 cumulative IPC: 3.489 (Simulation time: 00 hr 04 min 06 sec)
Heartbeat CPU 0 instructions: 45000295 cycles: 12889776 heartbeat IPC: 3.726 cumulative IPC: 3.491 (Simulation time: 00 hr 04 min 09 sec)
Heartbeat CPU 0 instructions: 45500298 cycles: 13021143 heartbeat IPC: 3.806 cumulative IPC: 3.494 (Simulation time: 00 hr 04 min 12 sec)
Heartbeat CPU 0 instructions: 46000305 cycles: 13165138 heartbeat IPC: 3.472 cumulative IPC: 3.494 (Simulation time: 00 hr 04 min 15 sec)
Heartbeat CPU 0 instructions: 46500307 cycles: 13293244 heartbeat IPC: 3.903 cumulative IPC: 3.498 (Simulation time: 00 hr 04 min 17 sec)
Heartbeat CPU 0 instructions: 47000312 cycles: 13420690 heartbeat IPC: 3.923 cumulative IPC: 3.502 (Simulation time: 00 hr 04 min 20 sec)
Heartbeat CPU 0 instructions: 47500317 cycles: 13542615 heartbeat IPC: 4.101 cumulative IPC: 3.507 (Simulation time: 00 hr 04 min 22 sec)
Heartbeat CPU 0 instructions: 48000322 cycles: 13674521 heartbeat IPC: 3.791 cumulative IPC: 3.51 (Simulation time: 00 hr 04 min 25 sec)
Heartbeat CPU 0 instructions: 48500325 cycles: 13790535 heartbeat IPC: 4.31 cumulative IPC: 3.517 (Simulation time: 00 hr 04 min 27 sec)
Heartbeat CPU 0 instructions: 49000331 cycles: 13916595 heartbeat IPC: 3.966 cumulative IPC: 3.521 (Simulation time: 00 hr 04 min 30 sec)
Heartbeat CPU 0 instructions: 49500333 cycles: 14049347 heartbeat IPC: 3.766 cumulative IPC: 3.523 (Simulation time: 00 hr 04 min 33 sec)
Warmup halting CPU 0 at instruction 50000002 cycle 14177567 for remainder of phase
Warmup finished CPU 0 instructions: 50000002 cycles: 14177567 cumulative IPC: 3.527 (Simulation time: 00 hr 04 min 35 sec)
Warmup complete CPU 0 instructions: 50000002 cycles: 14177567 cumulative IPC: 3.527 (Simulation time: 00 hr 04 min 35 sec)
Heartbeat CPU 0 instructions: 50000336 cycles: 14177995 heartbeat IPC: 3.887 cumulative IPC: 0.7804 (Simulation time: 00 hr 04 min 35 sec)
Heartbeat CPU 0 instructions: 50500342 cycles: 15391474 heartbeat IPC: 0.412 cumulative IPC: 0.4122 (Simulation time: 00 hr 04 min 45 sec)
Heartbeat CPU 0 instructions: 51000343 cycles: 16559319 heartbeat IPC: 0.4281 cumulative IPC: 0.42 (Simulation time: 00 hr 04 min 54 sec)
Heartbeat CPU 0 instructions: 51500348 cycles: 17382092 heartbeat IPC: 0.6077 cumulative IPC: 0.4682 (Simulation time: 00 hr 05 min 00 sec)
Heartbeat CPU 0 instructions: 52000350 cycles: 18716602 heartbeat IPC: 0.3747 cumulative IPC: 0.4407 (Simulation time: 00 hr 05 min 10 sec)
Heartbeat CPU 0 instructions: 52500350 cycles: 19941131 heartbeat IPC: 0.4083 cumulative IPC: 0.4338 (Simulation time: 00 hr 05 min 19 sec)
Heartbeat CPU 0 instructions: 53000350 cycles: 20957201 heartbeat IPC: 0.4921 cumulative IPC: 0.4426 (Simulation time: 00 hr 05 min 28 sec)
Heartbeat CPU 0 instructions: 53500356 cycles: 22342078 heartbeat IPC: 0.361 cumulative IPC: 0.4287 (Simulation time: 00 hr 05 min 38 sec)
Heartbeat CPU 0 instructions: 54000356 cycles: 23687889 heartbeat IPC: 0.3715 cumulative IPC: 0.4206 (Simulation time: 00 hr 05 min 48 sec)
Heartbeat CPU 0 instructions: 54500357 cycles: 25860203 heartbeat IPC: 0.2302 cumulative IPC: 0.3852 (Simulation time: 00 hr 06 min 04 sec)
Heartbeat CPU 0 instructions: 55000357 cycles: 27627462 heartbeat IPC: 0.2829 cumulative IPC: 0.3718 (Simulation time: 00 hr 06 min 16 sec)
Heartbeat CPU 0 instructions: 55500364 cycles: 28859321 heartbeat IPC: 0.4059 cumulative IPC: 0.3746 (Simulation time: 00 hr 06 min 26 sec)
Heartbeat CPU 0 instructions: 56000364 cycles: 29740060 heartbeat IPC: 0.5677 cumulative IPC: 0.3856 (Simulation time: 00 hr 06 min 33 sec)
Heartbeat CPU 0 instructions: 56500365 cycles: 30853059 heartbeat IPC: 0.4492 cumulative IPC: 0.3898 (Simulation time: 00 hr 06 min 42 sec)
Heartbeat CPU 0 instructions: 57000369 cycles: 31959674 heartbeat IPC: 0.4518 cumulative IPC: 0.3937 (Simulation time: 00 hr 06 min 50 sec)
Heartbeat CPU 0 instructions: 57500375 cycles: 33551174 heartbeat IPC: 0.3142 cumulative IPC: 0.3871 (Simulation time: 00 hr 07 min 02 sec)
Heartbeat CPU 0 instructions: 58000381 cycles: 33930286 heartbeat IPC: 1.319 cumulative IPC: 0.405 (Simulation time: 00 hr 07 min 06 sec)
Heartbeat CPU 0 instructions: 58500381 cycles: 34284854 heartbeat IPC: 1.41 cumulative IPC: 0.4228 (Simulation time: 00 hr 07 min 10 sec)
Heartbeat CPU 0 instructions: 59000386 cycles: 35209756 heartbeat IPC: 0.5406 cumulative IPC: 0.4279 (Simulation time: 00 hr 07 min 17 sec)
Heartbeat CPU 0 instructions: 59500387 cycles: 36961753 heartbeat IPC: 0.2854 cumulative IPC: 0.417 (Simulation time: 00 hr 07 min 30 sec)
Heartbeat CPU 0 instructions: 60000387 cycles: 38385961 heartbeat IPC: 0.3511 cumulative IPC: 0.4131 (Simulation time: 00 hr 07 min 40 sec)
Heartbeat CPU 0 instructions: 60500391 cycles: 38922275 heartbeat IPC: 0.9323 cumulative IPC: 0.4243 (Simulation time: 00 hr 07 min 45 sec)
Heartbeat CPU 0 instructions: 61000391 cycles: 39333781 heartbeat IPC: 1.215 cumulative IPC: 0.4373 (Simulation time: 00 hr 07 min 49 sec)
Heartbeat CPU 0 instructions: 61500391 cycles: 40626750 heartbeat IPC: 0.3867 cumulative IPC: 0.4348 (Simulation time: 00 hr 07 min 58 sec)
Heartbeat CPU 0 instructions: 62000395 cycles: 42046771 heartbeat IPC: 0.3521 cumulative IPC: 0.4306 (Simulation time: 00 hr 08 min 09 sec)
Heartbeat CPU 0 instructions: 62500401 cycles: 43681019 heartbeat IPC: 0.306 cumulative IPC: 0.4237 (Simulation time: 00 hr 08 min 21 sec)
Heartbeat CPU 0 instructions: 63000402 cycles: 44692330 heartbeat IPC: 0.4944 cumulative IPC: 0.426 (Simulation time: 00 hr 08 min 28 sec)
Heartbeat CPU 0 instructions: 63500403 cycles: 45968441 heartbeat IPC: 0.3918 cumulative IPC: 0.4247 (Simulation time: 00 hr 08 min 38 sec)
Heartbeat CPU 0 instructions: 64000403 cycles: 47133402 heartbeat IPC: 0.4292 cumulative IPC: 0.4248 (Simulation time: 00 hr 08 min 47 sec)
Heartbeat CPU 0 instructions: 64500406 cycles: 48302582 heartbeat IPC: 0.4277 cumulative IPC: 0.4249 (Simulation time: 00 hr 08 min 56 sec)
Heartbeat CPU 0 instructions: 65000406 cycles: 49308485 heartbeat IPC: 0.4971 cumulative IPC: 0.427 (Simulation time: 00 hr 09 min 04 sec)
Heartbeat CPU 0 instructions: 65500406 cycles: 50340227 heartbeat IPC: 0.4846 cumulative IPC: 0.4286 (Simulation time: 00 hr 09 min 12 sec)
Heartbeat CPU 0 instructions: 66000407 cycles: 51265553 heartbeat IPC: 0.5404 cumulative IPC: 0.4314 (Simulation time: 00 hr 09 min 20 sec)
Heartbeat CPU 0 instructions: 66500410 cycles: 52374849 heartbeat IPC: 0.4507 cumulative IPC: 0.432 (Simulation time: 00 hr 09 min 28 sec)
Heartbeat CPU 0 instructions: 67000417 cycles: 53445935 heartbeat IPC: 0.4668 cumulative IPC: 0.4329 (Simulation time: 00 hr 09 min 36 sec)
Heartbeat CPU 0 instructions: 67500417 cycles: 55159792 heartbeat IPC: 0.2917 cumulative IPC: 0.427 (Simulation time: 00 hr 09 min 49 sec)
Heartbeat CPU 0 instructions: 68000417 cycles: 56427492 heartbeat IPC: 0.3944 cumulative IPC: 0.426 (Simulation time: 00 hr 09 min 58 sec)
Heartbeat CPU 0 instructions: 68500419 cycles: 57495025 heartbeat IPC: 0.4684 cumulative IPC: 0.4271 (Simulation time: 00 hr 10 min 07 sec)
Heartbeat CPU 0 instructions: 69000423 cycles: 58420024 heartbeat IPC: 0.5405 cumulative IPC: 0.4295 (Simulation time: 00 hr 10 min 14 sec)
Heartbeat CPU 0 instructions: 69500423 cycles: 59259342 heartbeat IPC: 0.5957 cumulative IPC: 0.4326 (Simulation time: 00 hr 10 min 21 sec)
Heartbeat CPU 0 instructions: 70000423 cycles: 60439705 heartbeat IPC: 0.4236 cumulative IPC: 0.4323 (Simulation time: 00 hr 10 min 30 sec)
Heartbeat CPU 0 instructions: 70500427 cycles: 61719266 heartbeat IPC: 0.3908 cumulative IPC: 0.4312 (Simulation time: 00 hr 10 min 40 sec)
Heartbeat CPU 0 instructions: 71000430 cycles: 62323289 heartbeat IPC: 0.8278 cumulative IPC: 0.4362 (Simulation time: 00 hr 10 min 45 sec)
Heartbeat CPU 0 instructions: 71500431 cycles: 62651300 heartbeat IPC: 1.524 cumulative IPC: 0.4435 (Simulation time: 00 hr 10 min 48 sec)
Heartbeat CPU 0 instructions: 72000434 cycles: 63347525 heartbeat IPC: 0.7182 cumulative IPC: 0.4474 (Simulation time: 00 hr 10 min 54 sec)
Heartbeat CPU 0 instructions: 72500436 cycles: 64071061 heartbeat IPC: 0.6911 cumulative IPC: 0.451 (Simulation time: 00 hr 11 min 01 sec)
Heartbeat CPU 0 instructions: 73000436 cycles: 65456631 heartbeat IPC: 0.3609 cumulative IPC: 0.4485 (Simulation time: 00 hr 11 min 11 sec)
Heartbeat CPU 0 instructions: 73500439 cycles: 66537329 heartbeat IPC: 0.4627 cumulative IPC: 0.4488 (Simulation time: 00 hr 11 min 19 sec)
Heartbeat CPU 0 instructions: 74000440 cycles: 68227486 heartbeat IPC: 0.2958 cumulative IPC: 0.444 (Simulation time: 00 hr 11 min 31 sec)
Heartbeat CPU 0 instructions: 74500440 cycles: 69256172 heartbeat IPC: 0.4861 cumulative IPC: 0.4448 (Simulation time: 00 hr 11 min 39 sec)
Heartbeat CPU 0 instructions: 75000442 cycles: 70569821 heartbeat IPC: 0.3806 cumulative IPC: 0.4433 (Simulation time: 00 hr 11 min 49 sec)
Heartbeat CPU 0 instructions: 75500442 cycles: 73040116 heartbeat IPC: 0.2024 cumulative IPC: 0.4332 (Simulation time: 00 hr 12 min 06 sec)
Heartbeat CPU 0 instructions: 76000449 cycles: 74300909 heartbeat IPC: 0.3966 cumulative IPC: 0.4325 (Simulation time: 00 hr 12 min 15 sec)
Heartbeat CPU 0 instructions: 76500449 cycles: 75294834 heartbeat IPC: 0.5031 cumulative IPC: 0.4336 (Simulation time: 00 hr 12 min 23 sec)
Heartbeat CPU 0 instructions: 77000452 cycles: 77254861 heartbeat IPC: 0.2551 cumulative IPC: 0.4281 (Simulation time: 00 hr 12 min 36 sec)
Heartbeat CPU 0 instructions: 77500457 cycles: 78377484 heartbeat IPC: 0.4454 cumulative IPC: 0.4284 (Simulation time: 00 hr 12 min 44 sec)
Heartbeat CPU 0 instructions: 78000464 cycles: 79295112 heartbeat IPC: 0.5449 cumulative IPC: 0.43 (Simulation time: 00 hr 12 min 51 sec)
Heartbeat CPU 0 instructions: 78500468 cycles: 80725344 heartbeat IPC: 0.3496 cumulative IPC: 0.4283 (Simulation time: 00 hr 13 min 01 sec)
Heartbeat CPU 0 instructions: 79000470 cycles: 81963208 heartbeat IPC: 0.4039 cumulative IPC: 0.4278 (Simulation time: 00 hr 13 min 11 sec)
Heartbeat CPU 0 instructions: 79500476 cycles: 82904505 heartbeat IPC: 0.5312 cumulative IPC: 0.4292 (Simulation time: 00 hr 13 min 18 sec)
Heartbeat CPU 0 instructions: 80000482 cycles: 83665665 heartbeat IPC: 0.6569 cumulative IPC: 0.4317 (Simulation time: 00 hr 13 min 24 sec)
Heartbeat CPU 0 instructions: 80500486 cycles: 84484554 heartbeat IPC: 0.6106 cumulative IPC: 0.4338 (Simulation time: 00 hr 13 min 30 sec)
Heartbeat CPU 0 instructions: 81000486 cycles: 85378418 heartbeat IPC: 0.5594 cumulative IPC: 0.4354 (Simulation time: 00 hr 13 min 37 sec)
Heartbeat CPU 0 instructions: 81500488 cycles: 86263665 heartbeat IPC: 0.5648 cumulative IPC: 0.437 (Simulation time: 00 hr 13 min 44 sec)
Heartbeat CPU 0 instructions: 82000494 cycles: 87651060 heartbeat IPC: 0.3604 cumulative IPC: 0.4355 (Simulation time: 00 hr 13 min 54 sec)
Heartbeat CPU 0 instructions: 82500500 cycles: 89063033 heartbeat IPC: 0.3541 cumulative IPC: 0.434 (Simulation time: 00 hr 14 min 05 sec)
Heartbeat CPU 0 instructions: 83000505 cycles: 90232638 heartbeat IPC: 0.4275 cumulative IPC: 0.4339 (Simulation time: 00 hr 14 min 13 sec)
Heartbeat CPU 0 instructions: 83500505 cycles: 91202612 heartbeat IPC: 0.5155 cumulative IPC: 0.4349 (Simulation time: 00 hr 14 min 21 sec)
Heartbeat CPU 0 instructions: 84000505 cycles: 92363128 heartbeat IPC: 0.4308 cumulative IPC: 0.4349 (Simulation time: 00 hr 14 min 29 sec)
Heartbeat CPU 0 instructions: 84500512 cycles: 93472469 heartbeat IPC: 0.4507 cumulative IPC: 0.4351 (Simulation time: 00 hr 14 min 37 sec)
Heartbeat CPU 0 instructions: 85000512 cycles: 94524883 heartbeat IPC: 0.4751 cumulative IPC: 0.4356 (Simulation time: 00 hr 14 min 45 sec)
Heartbeat CPU 0 instructions: 85500513 cycles: 95901121 heartbeat IPC: 0.3633 cumulative IPC: 0.4344 (Simulation time: 00 hr 14 min 55 sec)
Heartbeat CPU 0 instructions: 86000513 cycles: 97251223 heartbeat IPC: 0.3703 cumulative IPC: 0.4334 (Simulation time: 00 hr 15 min 05 sec)
Heartbeat CPU 0 instructions: 86500514 cycles: 99094960 heartbeat IPC: 0.2712 cumulative IPC: 0.4298 (Simulation time: 00 hr 15 min 17 sec)
Heartbeat CPU 0 instructions: 87000515 cycles: 100539939 heartbeat IPC: 0.346 cumulative IPC: 0.4284 (Simulation time: 00 hr 15 min 27 sec)
Heartbeat CPU 0 instructions: 87500515 cycles: 101568847 heartbeat IPC: 0.486 cumulative IPC: 0.4291 (Simulation time: 00 hr 15 min 35 sec)
Heartbeat CPU 0 instructions: 88000519 cycles: 102642478 heartbeat IPC: 0.4657 cumulative IPC: 0.4296 (Simulation time: 00 hr 15 min 43 sec)
Heartbeat CPU 0 instructions: 88500521 cycles: 104356758 heartbeat IPC: 0.2917 cumulative IPC: 0.4269 (Simulation time: 00 hr 15 min 55 sec)
Heartbeat CPU 0 instructions: 89000524 cycles: 106114523 heartbeat IPC: 0.2845 cumulative IPC: 0.4242 (Simulation time: 00 hr 16 min 07 sec)
Heartbeat CPU 0 instructions: 89500528 cycles: 107522958 heartbeat IPC: 0.355 cumulative IPC: 0.4232 (Simulation time: 00 hr 16 min 17 sec)
Heartbeat CPU 0 instructions: 90000530 cycles: 108761300 heartbeat IPC: 0.4038 cumulative IPC: 0.4229 (Simulation time: 00 hr 16 min 26 sec)
Heartbeat CPU 0 instructions: 90500532 cycles: 110316596 heartbeat IPC: 0.3215 cumulative IPC: 0.4213 (Simulation time: 00 hr 16 min 37 sec)
Heartbeat CPU 0 instructions: 91000535 cycles: 111546280 heartbeat IPC: 0.4066 cumulative IPC: 0.4211 (Simulation time: 00 hr 16 min 45 sec)
Heartbeat CPU 0 instructions: 91500540 cycles: 112949320 heartbeat IPC: 0.3564 cumulative IPC: 0.4202 (Simulation time: 00 hr 16 min 55 sec)
Heartbeat CPU 0 instructions: 92000540 cycles: 114550649 heartbeat IPC: 0.3122 cumulative IPC: 0.4184 (Simulation time: 00 hr 17 min 06 sec)
Heartbeat CPU 0 instructions: 92500541 cycles: 116532992 heartbeat IPC: 0.2522 cumulative IPC: 0.4152 (Simulation time: 00 hr 17 min 20 sec)
Heartbeat CPU 0 instructions: 93000541 cycles: 118074579 heartbeat IPC: 0.3243 cumulative IPC: 0.4139 (Simulation time: 00 hr 17 min 30 sec)
Heartbeat CPU 0 instructions: 93500541 cycles: 118916366 heartbeat IPC: 0.594 cumulative IPC: 0.4153 (Simulation time: 00 hr 17 min 37 sec)
Heartbeat CPU 0 instructions: 94000542 cycles: 119730118 heartbeat IPC: 0.6144 cumulative IPC: 0.4169 (Simulation time: 00 hr 17 min 43 sec)
Heartbeat CPU 0 instructions: 94500548 cycles: 120698352 heartbeat IPC: 0.5164 cumulative IPC: 0.4178 (Simulation time: 00 hr 17 min 50 sec)
Heartbeat CPU 0 instructions: 95000551 cycles: 121980633 heartbeat IPC: 0.3899 cumulative IPC: 0.4174 (Simulation time: 00 hr 17 min 59 sec)
Heartbeat CPU 0 instructions: 95500557 cycles: 124255685 heartbeat IPC: 0.2198 cumulative IPC: 0.4133 (Simulation time: 00 hr 18 min 13 sec)
Heartbeat CPU 0 instructions: 96000560 cycles: 125427308 heartbeat IPC: 0.4268 cumulative IPC: 0.4135 (Simulation time: 00 hr 18 min 22 sec)
Heartbeat CPU 0 instructions: 96500563 cycles: 126441016 heartbeat IPC: 0.4932 cumulative IPC: 0.4142 (Simulation time: 00 hr 18 min 29 sec)
Heartbeat CPU 0 instructions: 97000564 cycles: 127542749 heartbeat IPC: 0.4538 cumulative IPC: 0.4146 (Simulation time: 00 hr 18 min 37 sec)
Heartbeat CPU 0 instructions: 97500564 cycles: 128359941 heartbeat IPC: 0.6119 cumulative IPC: 0.416 (Simulation time: 00 hr 18 min 43 sec)
Heartbeat CPU 0 instructions: 98000571 cycles: 129220186 heartbeat IPC: 0.5812 cumulative IPC: 0.4172 (Simulation time: 00 hr 18 min 49 sec)
Heartbeat CPU 0 instructions: 98500576 cycles: 130752882 heartbeat IPC: 0.3262 cumulative IPC: 0.416 (Simulation time: 00 hr 18 min 59 sec)
Heartbeat CPU 0 instructions: 99000576 cycles: 132404235 heartbeat IPC: 0.3028 cumulative IPC: 0.4145 (Simulation time: 00 hr 19 min 11 sec)
Heartbeat CPU 0 instructions: 99500580 cycles: 133785759 heartbeat IPC: 0.3619 cumulative IPC: 0.4139 (Simulation time: 00 hr 19 min 20 sec)
Heartbeat CPU 0 instructions: 100000580 cycles: 135248337 heartbeat IPC: 0.3419 cumulative IPC: 0.413 (Simulation time: 00 hr 19 min 30 sec)
Heartbeat CPU 0 instructions: 100500583 cycles: 136583571 heartbeat IPC: 0.3745 cumulative IPC: 0.4126 (Simulation time: 00 hr 19 min 40 sec)
Heartbeat CPU 0 instructions: 101000583 cycles: 138157156 heartbeat IPC: 0.3177 cumulative IPC: 0.4114 (Simulation time: 00 hr 19 min 50 sec)
Heartbeat CPU 0 instructions: 101500583 cycles: 138989759 heartbeat IPC: 0.6005 cumulative IPC: 0.4126 (Simulation time: 00 hr 19 min 57 sec)
Heartbeat CPU 0 instructions: 102000583 cycles: 139927383 heartbeat IPC: 0.5333 cumulative IPC: 0.4135 (Simulation time: 00 hr 20 min 04 sec)
Heartbeat CPU 0 instructions: 102500583 cycles: 141772402 heartbeat IPC: 0.271 cumulative IPC: 0.4115 (Simulation time: 00 hr 20 min 16 sec)
Heartbeat CPU 0 instructions: 103000583 cycles: 142919404 heartbeat IPC: 0.4359 cumulative IPC: 0.4117 (Simulation time: 00 hr 20 min 24 sec)
Heartbeat CPU 0 instructions: 103500586 cycles: 143898784 heartbeat IPC: 0.5105 cumulative IPC: 0.4124 (Simulation time: 00 hr 20 min 31 sec)
Heartbeat CPU 0 instructions: 104000587 cycles: 144286027 heartbeat IPC: 1.291 cumulative IPC: 0.415 (Simulation time: 00 hr 20 min 34 sec)
Heartbeat CPU 0 instructions: 104500587 cycles: 144679511 heartbeat IPC: 1.271 cumulative IPC: 0.4176 (Simulation time: 00 hr 20 min 38 sec)
Heartbeat CPU 0 instructions: 105000587 cycles: 145078342 heartbeat IPC: 1.254 cumulative IPC: 0.4202 (Simulation time: 00 hr 20 min 41 sec)
Heartbeat CPU 0 instructions: 105500587 cycles: 146801990 heartbeat IPC: 0.2901 cumulative IPC: 0.4185 (Simulation time: 00 hr 20 min 53 sec)
Heartbeat CPU 0 instructions: 106000587 cycles: 147464630 heartbeat IPC: 0.7546 cumulative IPC: 0.4202 (Simulation time: 00 hr 20 min 58 sec)
Heartbeat CPU 0 instructions: 106500588 cycles: 148908329 heartbeat IPC: 0.3463 cumulative IPC: 0.4194 (Simulation time: 00 hr 21 min 07 sec)
Heartbeat CPU 0 instructions: 107000591 cycles: 150184357 heartbeat IPC: 0.3918 cumulative IPC: 0.4191 (Simulation time: 00 hr 21 min 16 sec)
Heartbeat CPU 0 instructions: 107500592 cycles: 151314179 heartbeat IPC: 0.4425 cumulative IPC: 0.4193 (Simulation time: 00 hr 21 min 24 sec)
Heartbeat CPU 0 instructions: 108000597 cycles: 152169445 heartbeat IPC: 0.5846 cumulative IPC: 0.4203 (Simulation time: 00 hr 21 min 31 sec)
Heartbeat CPU 0 instructions: 108500597 cycles: 153473486 heartbeat IPC: 0.3834 cumulative IPC: 0.42 (Simulation time: 00 hr 21 min 40 sec)
Heartbeat CPU 0 instructions: 109000597 cycles: 154832526 heartbeat IPC: 0.3679 cumulative IPC: 0.4195 (Simulation time: 00 hr 21 min 49 sec)
Heartbeat CPU 0 instructions: 109500600 cycles: 156696186 heartbeat IPC: 0.2683 cumulative IPC: 0.4175 (Simulation time: 00 hr 22 min 01 sec)
Heartbeat CPU 0 instructions: 110000607 cycles: 157893076 heartbeat IPC: 0.4178 cumulative IPC: 0.4175 (Simulation time: 00 hr 22 min 09 sec)
Heartbeat CPU 0 instructions: 110500607 cycles: 158835422 heartbeat IPC: 0.5306 cumulative IPC: 0.4182 (Simulation time: 00 hr 22 min 16 sec)
Heartbeat CPU 0 instructions: 111000607 cycles: 160287950 heartbeat IPC: 0.3442 cumulative IPC: 0.4175 (Simulation time: 00 hr 22 min 26 sec)
Heartbeat CPU 0 instructions: 111500607 cycles: 161896100 heartbeat IPC: 0.3109 cumulative IPC: 0.4163 (Simulation time: 00 hr 22 min 36 sec)
Heartbeat CPU 0 instructions: 112000609 cycles: 163192868 heartbeat IPC: 0.3856 cumulative IPC: 0.4161 (Simulation time: 00 hr 22 min 45 sec)
Heartbeat CPU 0 instructions: 112500609 cycles: 164652851 heartbeat IPC: 0.3425 cumulative IPC: 0.4154 (Simulation time: 00 hr 22 min 55 sec)
Heartbeat CPU 0 instructions: 113000609 cycles: 165654537 heartbeat IPC: 0.4992 cumulative IPC: 0.4159 (Simulation time: 00 hr 23 min 02 sec)
Heartbeat CPU 0 instructions: 113500611 cycles: 166559029 heartbeat IPC: 0.5528 cumulative IPC: 0.4167 (Simulation time: 00 hr 23 min 08 sec)
Heartbeat CPU 0 instructions: 114000611 cycles: 168295339 heartbeat IPC: 0.288 cumulative IPC: 0.4153 (Simulation time: 00 hr 23 min 19 sec)
Heartbeat CPU 0 instructions: 114500612 cycles: 170048445 heartbeat IPC: 0.2852 cumulative IPC: 0.4138 (Simulation time: 00 hr 23 min 30 sec)
Heartbeat CPU 0 instructions: 115000617 cycles: 171507586 heartbeat IPC: 0.3427 cumulative IPC: 0.4131 (Simulation time: 00 hr 23 min 40 sec)
Heartbeat CPU 0 instructions: 115500617 cycles: 172683948 heartbeat IPC: 0.425 cumulative IPC: 0.4132 (Simulation time: 00 hr 23 min 48 sec)
Heartbeat CPU 0 instructions: 116000617 cycles: 173746376 heartbeat IPC: 0.4706 cumulative IPC: 0.4136 (Simulation time: 00 hr 23 min 55 sec)
Heartbeat CPU 0 instructions: 116500618 cycles: 175193900 heartbeat IPC: 0.3454 cumulative IPC: 0.413 (Simulation time: 00 hr 24 min 05 sec)
Heartbeat CPU 0 instructions: 117000620 cycles: 176604532 heartbeat IPC: 0.3545 cumulative IPC: 0.4125 (Simulation time: 00 hr 24 min 14 sec)
Heartbeat CPU 0 instructions: 117500623 cycles: 178484949 heartbeat IPC: 0.2659 cumulative IPC: 0.4108 (Simulation time: 00 hr 24 min 26 sec)
Heartbeat CPU 0 instructions: 118000630 cycles: 180174895 heartbeat IPC: 0.2959 cumulative IPC: 0.4096 (Simulation time: 00 hr 24 min 36 sec)
Heartbeat CPU 0 instructions: 118500633 cycles: 181262935 heartbeat IPC: 0.4595 cumulative IPC: 0.41 (Simulation time: 00 hr 24 min 44 sec)
Heartbeat CPU 0 instructions: 119000639 cycles: 182519087 heartbeat IPC: 0.398 cumulative IPC: 0.4099 (Simulation time: 00 hr 24 min 53 sec)
Heartbeat CPU 0 instructions: 119500646 cycles: 183887355 heartbeat IPC: 0.3654 cumulative IPC: 0.4095 (Simulation time: 00 hr 25 min 02 sec)
Heartbeat CPU 0 instructions: 120000646 cycles: 184833187 heartbeat IPC: 0.5286 cumulative IPC: 0.4102 (Simulation time: 00 hr 25 min 08 sec)
Heartbeat CPU 0 instructions: 120500652 cycles: 186024781 heartbeat IPC: 0.4196 cumulative IPC: 0.4103 (Simulation time: 00 hr 25 min 16 sec)
Heartbeat CPU 0 instructions: 121000653 cycles: 186628289 heartbeat IPC: 0.8285 cumulative IPC: 0.4117 (Simulation time: 00 hr 25 min 21 sec)
Heartbeat CPU 0 instructions: 121500655 cycles: 187667938 heartbeat IPC: 0.4809 cumulative IPC: 0.4121 (Simulation time: 00 hr 25 min 28 sec)
Heartbeat CPU 0 instructions: 122000655 cycles: 189426769 heartbeat IPC: 0.2843 cumulative IPC: 0.4108 (Simulation time: 00 hr 25 min 39 sec)
Heartbeat CPU 0 instructions: 122500655 cycles: 191194700 heartbeat IPC: 0.2828 cumulative IPC: 0.4096 (Simulation time: 00 hr 25 min 50 sec)
Heartbeat CPU 0 instructions: 123000659 cycles: 192355924 heartbeat IPC: 0.4306 cumulative IPC: 0.4097 (Simulation time: 00 hr 25 min 58 sec)
Heartbeat CPU 0 instructions: 123500659 cycles: 193545559 heartbeat IPC: 0.4203 cumulative IPC: 0.4098 (Simulation time: 00 hr 26 min 06 sec)
Heartbeat CPU 0 instructions: 124000660 cycles: 195027279 heartbeat IPC: 0.3374 cumulative IPC: 0.4092 (Simulation time: 00 hr 26 min 16 sec)
Heartbeat CPU 0 instructions: 124500660 cycles: 196124642 heartbeat IPC: 0.4556 cumulative IPC: 0.4095 (Simulation time: 00 hr 26 min 24 sec)
Heartbeat CPU 0 instructions: 125000667 cycles: 197199282 heartbeat IPC: 0.4653 cumulative IPC: 0.4098 (Simulation time: 00 hr 26 min 31 sec)
Heartbeat CPU 0 instructions: 125500669 cycles: 198554406 heartbeat IPC: 0.369 cumulative IPC: 0.4095 (Simulation time: 00 hr 26 min 40 sec)
Heartbeat CPU 0 instructions: 126000670 cycles: 200419618 heartbeat IPC: 0.2681 cumulative IPC: 0.4081 (Simulation time: 00 hr 26 min 52 sec)
Heartbeat CPU 0 instructions: 126500670 cycles: 201172867 heartbeat IPC: 0.6638 cumulative IPC: 0.4091 (Simulation time: 00 hr 26 min 57 sec)
Heartbeat CPU 0 instructions: 127000670 cycles: 203007135 heartbeat IPC: 0.2726 cumulative IPC: 0.4078 (Simulation time: 00 hr 27 min 09 sec)
Heartbeat CPU 0 instructions: 127500672 cycles: 204203525 heartbeat IPC: 0.4179 cumulative IPC: 0.4078 (Simulation time: 00 hr 27 min 17 sec)
Heartbeat CPU 0 instructions: 128000674 cycles: 204908805 heartbeat IPC: 0.7089 cumulative IPC: 0.409 (Simulation time: 00 hr 27 min 22 sec)
Heartbeat CPU 0 instructions: 128500677 cycles: 205253463 heartbeat IPC: 1.451 cumulative IPC: 0.4108 (Simulation time: 00 hr 27 min 25 sec)
Heartbeat CPU 0 instructions: 129000681 cycles: 205564039 heartbeat IPC: 1.61 cumulative IPC: 0.4128 (Simulation time: 00 hr 27 min 28 sec)
Heartbeat CPU 0 instructions: 129500681 cycles: 206706453 heartbeat IPC: 0.4377 cumulative IPC: 0.4129 (Simulation time: 00 hr 27 min 35 sec)
Heartbeat CPU 0 instructions: 130000682 cycles: 208536225 heartbeat IPC: 0.2733 cumulative IPC: 0.4116 (Simulation time: 00 hr 27 min 46 sec)
Heartbeat CPU 0 instructions: 130500683 cycles: 210333758 heartbeat IPC: 0.2782 cumulative IPC: 0.4104 (Simulation time: 00 hr 27 min 57 sec)
Heartbeat CPU 0 instructions: 131000686 cycles: 211327156 heartbeat IPC: 0.5033 cumulative IPC: 0.4109 (Simulation time: 00 hr 28 min 04 sec)
Heartbeat CPU 0 instructions: 131500689 cycles: 212685553 heartbeat IPC: 0.3681 cumulative IPC: 0.4106 (Simulation time: 00 hr 28 min 13 sec)
Heartbeat CPU 0 instructions: 132000692 cycles: 214244933 heartbeat IPC: 0.3206 cumulative IPC: 0.4099 (Simulation time: 00 hr 28 min 22 sec)
Heartbeat CPU 0 instructions: 132500693 cycles: 215273740 heartbeat IPC: 0.486 cumulative IPC: 0.4103 (Simulation time: 00 hr 28 min 30 sec)
Heartbeat CPU 0 instructions: 133000693 cycles: 216191169 heartbeat IPC: 0.545 cumulative IPC: 0.4109 (Simulation time: 00 hr 28 min 36 sec)
Heartbeat CPU 0 instructions: 133500693 cycles: 218065876 heartbeat IPC: 0.2667 cumulative IPC: 0.4095 (Simulation time: 00 hr 28 min 47 sec)
Heartbeat CPU 0 instructions: 134000693 cycles: 219967726 heartbeat IPC: 0.2629 cumulative IPC: 0.4082 (Simulation time: 00 hr 28 min 58 sec)
Heartbeat CPU 0 instructions: 134500693 cycles: 221281134 heartbeat IPC: 0.3807 cumulative IPC: 0.408 (Simulation time: 00 hr 29 min 06 sec)
Heartbeat CPU 0 instructions: 135000693 cycles: 222621425 heartbeat IPC: 0.3731 cumulative IPC: 0.4078 (Simulation time: 00 hr 29 min 15 sec)
Heartbeat CPU 0 instructions: 135500700 cycles: 224719858 heartbeat IPC: 0.2383 cumulative IPC: 0.4061 (Simulation time: 00 hr 29 min 29 sec)
Heartbeat CPU 0 instructions: 136000701 cycles: 226612378 heartbeat IPC: 0.2642 cumulative IPC: 0.4048 (Simulation time: 00 hr 29 min 42 sec)
Heartbeat CPU 0 instructions: 136500708 cycles: 228449362 heartbeat IPC: 0.2722 cumulative IPC: 0.4037 (Simulation time: 00 hr 29 min 54 sec)
Heartbeat CPU 0 instructions: 137000708 cycles: 230190244 heartbeat IPC: 0.2872 cumulative IPC: 0.4028 (Simulation time: 00 hr 30 min 05 sec)
Heartbeat CPU 0 instructions: 137500708 cycles: 231830020 heartbeat IPC: 0.3049 cumulative IPC: 0.402 (Simulation time: 00 hr 30 min 15 sec)
Heartbeat CPU 0 instructions: 138000712 cycles: 233550902 heartbeat IPC: 0.2906 cumulative IPC: 0.4011 (Simulation time: 00 hr 30 min 25 sec)
Heartbeat CPU 0 instructions: 138500712 cycles: 235627351 heartbeat IPC: 0.2408 cumulative IPC: 0.3996 (Simulation time: 00 hr 30 min 37 sec)
Heartbeat CPU 0 instructions: 139000715 cycles: 236669064 heartbeat IPC: 0.48 cumulative IPC: 0.4 (Simulation time: 00 hr 30 min 43 sec)
Heartbeat CPU 0 instructions: 139500718 cycles: 238168293 heartbeat IPC: 0.3335 cumulative IPC: 0.3996 (Simulation time: 00 hr 30 min 52 sec)
Heartbeat CPU 0 instructions: 140000719 cycles: 240104320 heartbeat IPC: 0.2583 cumulative IPC: 0.3984 (Simulation time: 00 hr 31 min 03 sec)
Heartbeat CPU 0 instructions: 140500720 cycles: 241826383 heartbeat IPC: 0.2904 cumulative IPC: 0.3975 (Simulation time: 00 hr 31 min 13 sec)
Heartbeat CPU 0 instructions: 141000721 cycles: 243527013 heartbeat IPC: 0.294 cumulative IPC: 0.3968 (Simulation time: 00 hr 31 min 23 sec)
Heartbeat CPU 0 instructions: 141500721 cycles: 245965633 heartbeat IPC: 0.205 cumulative IPC: 0.3948 (Simulation time: 00 hr 31 min 36 sec)
Heartbeat CPU 0 instructions: 142000727 cycles: 247173970 heartbeat IPC: 0.4138 cumulative IPC: 0.3949 (Simulation time: 00 hr 31 min 44 sec)
Heartbeat CPU 0 instructions: 142500727 cycles: 248210106 heartbeat IPC: 0.4826 cumulative IPC: 0.3952 (Simulation time: 00 hr 31 min 50 sec)
Heartbeat CPU 0 instructions: 143000730 cycles: 249248847 heartbeat IPC: 0.4814 cumulative IPC: 0.3956 (Simulation time: 00 hr 31 min 57 sec)
Heartbeat CPU 0 instructions: 143500733 cycles: 250572084 heartbeat IPC: 0.3779 cumulative IPC: 0.3955 (Simulation time: 00 hr 32 min 05 sec)
Heartbeat CPU 0 instructions: 144000735 cycles: 251570849 heartbeat IPC: 0.5006 cumulative IPC: 0.396 (Simulation time: 00 hr 32 min 12 sec)
Heartbeat CPU 0 instructions: 144500735 cycles: 252805917 heartbeat IPC: 0.4048 cumulative IPC: 0.396 (Simulation time: 00 hr 32 min 20 sec)
Heartbeat CPU 0 instructions: 145000740 cycles: 254018506 heartbeat IPC: 0.4123 cumulative IPC: 0.3961 (Simulation time: 00 hr 32 min 27 sec)
Heartbeat CPU 0 instructions: 145500740 cycles: 254890260 heartbeat IPC: 0.5736 cumulative IPC: 0.3967 (Simulation time: 00 hr 32 min 33 sec)
Heartbeat CPU 0 instructions: 146000740 cycles: 256559287 heartbeat IPC: 0.2996 cumulative IPC: 0.3961 (Simulation time: 00 hr 32 min 43 sec)
Heartbeat CPU 0 instructions: 146500740 cycles: 258031845 heartbeat IPC: 0.3395 cumulative IPC: 0.3957 (Simulation time: 00 hr 32 min 52 sec)
Heartbeat CPU 0 instructions: 147000740 cycles: 259486079 heartbeat IPC: 0.3438 cumulative IPC: 0.3954 (Simulation time: 00 hr 33 min 01 sec)
Heartbeat CPU 0 instructions: 147500746 cycles: 260783160 heartbeat IPC: 0.3855 cumulative IPC: 0.3954 (Simulation time: 00 hr 33 min 09 sec)
Heartbeat CPU 0 instructions: 148000746 cycles: 262481749 heartbeat IPC: 0.2944 cumulative IPC: 0.3947 (Simulation time: 00 hr 33 min 19 sec)
Heartbeat CPU 0 instructions: 148500748 cycles: 263223668 heartbeat IPC: 0.6739 cumulative IPC: 0.3955 (Simulation time: 00 hr 33 min 24 sec)
Heartbeat CPU 0 instructions: 149000749 cycles: 263691362 heartbeat IPC: 1.069 cumulative IPC: 0.3968 (Simulation time: 00 hr 33 min 27 sec)
Heartbeat CPU 0 instructions: 149500751 cycles: 264019172 heartbeat IPC: 1.525 cumulative IPC: 0.3983 (Simulation time: 00 hr 33 min 30 sec)
Heartbeat CPU 0 instructions: 150000751 cycles: 264389809 heartbeat IPC: 1.349 cumulative IPC: 0.3997 (Simulation time: 00 hr 33 min 33 sec)
Heartbeat CPU 0 instructions: 150500756 cycles: 266587985 heartbeat IPC: 0.2275 cumulative IPC: 0.3982 (Simulation time: 00 hr 33 min 45 sec)
Heartbeat CPU 0 instructions: 151000756 cycles: 267219998 heartbeat IPC: 0.7911 cumulative IPC: 0.3991 (Simulation time: 00 hr 33 min 50 sec)
Heartbeat CPU 0 instructions: 151500756 cycles: 267535540 heartbeat IPC: 1.585 cumulative IPC: 0.4006 (Simulation time: 00 hr 33 min 53 sec)
Heartbeat CPU 0 instructions: 152000763 cycles: 267925765 heartbeat IPC: 1.281 cumulative IPC: 0.402 (Simulation time: 00 hr 33 min 56 sec)
Heartbeat CPU 0 instructions: 152500764 cycles: 268275401 heartbeat IPC: 1.43 cumulative IPC: 0.4034 (Simulation time: 00 hr 33 min 59 sec)
Heartbeat CPU 0 instructions: 153000766 cycles: 268627752 heartbeat IPC: 1.419 cumulative IPC: 0.4048 (Simulation time: 00 hr 34 min 01 sec)
Heartbeat CPU 0 instructions: 153500766 cycles: 268941921 heartbeat IPC: 1.592 cumulative IPC: 0.4063 (Simulation time: 00 hr 34 min 04 sec)
Heartbeat CPU 0 instructions: 154000767 cycles: 269266760 heartbeat IPC: 1.539 cumulative IPC: 0.4077 (Simulation time: 00 hr 34 min 07 sec)
Heartbeat CPU 0 instructions: 154500767 cycles: 269597503 heartbeat IPC: 1.512 cumulative IPC: 0.4091 (Simulation time: 00 hr 34 min 10 sec)
Heartbeat CPU 0 instructions: 155000769 cycles: 269928784 heartbeat IPC: 1.509 cumulative IPC: 0.4106 (Simulation time: 00 hr 34 min 12 sec)
Heartbeat CPU 0 instructions: 155500775 cycles: 270239489 heartbeat IPC: 1.609 cumulative IPC: 0.412 (Simulation time: 00 hr 34 min 15 sec)
Heartbeat CPU 0 instructions: 156000778 cycles: 270590881 heartbeat IPC: 1.423 cumulative IPC: 0.4134 (Simulation time: 00 hr 34 min 18 sec)
Heartbeat CPU 0 instructions: 156500781 cycles: 271176251 heartbeat IPC: 0.8542 cumulative IPC: 0.4144 (Simulation time: 00 hr 34 min 22 sec)
Heartbeat CPU 0 instructions: 157000787 cycles: 271501092 heartbeat IPC: 1.539 cumulative IPC: 0.4158 (Simulation time: 00 hr 34 min 24 sec)
Heartbeat CPU 0 instructions: 157500787 cycles: 271835169 heartbeat IPC: 1.497 cumulative IPC: 0.4172 (Simulation time: 00 hr 34 min 27 sec)
Heartbeat CPU 0 instructions: 158000788 cycles: 272147348 heartbeat IPC: 1.602 cumulative IPC: 0.4187 (Simulation time: 00 hr 34 min 30 sec)
Heartbeat CPU 0 instructions: 158500790 cycles: 272463151 heartbeat IPC: 1.583 cumulative IPC: 0.4201 (Simulation time: 00 hr 34 min 32 sec)
Heartbeat CPU 0 instructions: 159000794 cycles: 272781254 heartbeat IPC: 1.572 cumulative IPC: 0.4215 (Simulation time: 00 hr 34 min 35 sec)
Heartbeat CPU 0 instructions: 159500794 cycles: 273074306 heartbeat IPC: 1.706 cumulative IPC: 0.423 (Simulation time: 00 hr 34 min 37 sec)
Heartbeat CPU 0 instructions: 160000797 cycles: 273274033 heartbeat IPC: 2.503 cumulative IPC: 0.4246 (Simulation time: 00 hr 34 min 39 sec)
Heartbeat CPU 0 instructions: 160500797 cycles: 274288101 heartbeat IPC: 0.4931 cumulative IPC: 0.4248 (Simulation time: 00 hr 34 min 45 sec)
Heartbeat CPU 0 instructions: 161000798 cycles: 275178339 heartbeat IPC: 0.5616 cumulative IPC: 0.4253 (Simulation time: 00 hr 34 min 51 sec)
Heartbeat CPU 0 instructions: 161500800 cycles: 275940179 heartbeat IPC: 0.6563 cumulative IPC: 0.426 (Simulation time: 00 hr 34 min 56 sec)
Heartbeat CPU 0 instructions: 162000800 cycles: 276912492 heartbeat IPC: 0.5142 cumulative IPC: 0.4263 (Simulation time: 00 hr 35 min 02 sec)
Heartbeat CPU 0 instructions: 162500801 cycles: 278253153 heartbeat IPC: 0.373 cumulative IPC: 0.426 (Simulation time: 00 hr 35 min 11 sec)
Heartbeat CPU 0 instructions: 163000801 cycles: 280676578 heartbeat IPC: 0.2063 cumulative IPC: 0.424 (Simulation time: 00 hr 35 min 24 sec)
Heartbeat CPU 0 instructions: 163500805 cycles: 281891135 heartbeat IPC: 0.4117 cumulative IPC: 0.424 (Simulation time: 00 hr 35 min 32 sec)
Heartbeat CPU 0 instructions: 164000806 cycles: 283153201 heartbeat IPC: 0.3962 cumulative IPC: 0.4238 (Simulation time: 00 hr 35 min 39 sec)
Heartbeat CPU 0 instructions: 164500807 cycles: 284018377 heartbeat IPC: 0.5779 cumulative IPC: 0.4243 (Simulation time: 00 hr 35 min 45 sec)
Heartbeat CPU 0 instructions: 165000807 cycles: 285754220 heartbeat IPC: 0.288 cumulative IPC: 0.4235 (Simulation time: 00 hr 35 min 55 sec)
Heartbeat CPU 0 instructions: 165500813 cycles: 286707675 heartbeat IPC: 0.5244 cumulative IPC: 0.4238 (Simulation time: 00 hr 36 min 01 sec)
Heartbeat CPU 0 instructions: 166000818 cycles: 288047071 heartbeat IPC: 0.3733 cumulative IPC: 0.4236 (Simulation time: 00 hr 36 min 09 sec)
Heartbeat CPU 0 instructions: 166500819 cycles: 288961575 heartbeat IPC: 0.5467 cumulative IPC: 0.424 (Simulation time: 00 hr 36 min 15 sec)
Heartbeat CPU 0 instructions: 167000819 cycles: 290114489 heartbeat IPC: 0.4337 cumulative IPC: 0.424 (Simulation time: 00 hr 36 min 22 sec)
Heartbeat CPU 0 instructions: 167500819 cycles: 291004640 heartbeat IPC: 0.5617 cumulative IPC: 0.4245 (Simulation time: 00 hr 36 min 28 sec)
Heartbeat CPU 0 instructions: 168000825 cycles: 292910686 heartbeat IPC: 0.2623 cumulative IPC: 0.4233 (Simulation time: 00 hr 36 min 39 sec)
Heartbeat CPU 0 instructions: 168500830 cycles: 294826641 heartbeat IPC: 0.261 cumulative IPC: 0.4222 (Simulation time: 00 hr 36 min 50 sec)
Heartbeat CPU 0 instructions: 169000835 cycles: 295852861 heartbeat IPC: 0.4872 cumulative IPC: 0.4225 (Simulation time: 00 hr 36 min 56 sec)
Heartbeat CPU 0 instructions: 169500838 cycles: 297637551 heartbeat IPC: 0.2802 cumulative IPC: 0.4216 (Simulation time: 00 hr 37 min 06 sec)
Heartbeat CPU 0 instructions: 170000841 cycles: 298973745 heartbeat IPC: 0.3742 cumulative IPC: 0.4214 (Simulation time: 00 hr 37 min 14 sec)
Heartbeat CPU 0 instructions: 170500842 cycles: 300467721 heartbeat IPC: 0.3347 cumulative IPC: 0.4209 (Simulation time: 00 hr 37 min 22 sec)
Heartbeat CPU 0 instructions: 171000845 cycles: 302355860 heartbeat IPC: 0.2648 cumulative IPC: 0.4199 (Simulation time: 00 hr 37 min 33 sec)
Heartbeat CPU 0 instructions: 171500847 cycles: 303661012 heartbeat IPC: 0.3831 cumulative IPC: 0.4197 (Simulation time: 00 hr 37 min 41 sec)
Heartbeat CPU 0 instructions: 172000848 cycles: 305018518 heartbeat IPC: 0.3683 cumulative IPC: 0.4195 (Simulation time: 00 hr 37 min 48 sec)
Heartbeat CPU 0 instructions: 172500849 cycles: 306605484 heartbeat IPC: 0.3151 cumulative IPC: 0.4189 (Simulation time: 00 hr 37 min 57 sec)
Heartbeat CPU 0 instructions: 173000849 cycles: 307626144 heartbeat IPC: 0.4899 cumulative IPC: 0.4192 (Simulation time: 00 hr 38 min 03 sec)
Heartbeat CPU 0 instructions: 173500853 cycles: 308556571 heartbeat IPC: 0.5374 cumulative IPC: 0.4195 (Simulation time: 00 hr 38 min 09 sec)
Heartbeat CPU 0 instructions: 174000854 cycles: 309681050 heartbeat IPC: 0.4447 cumulative IPC: 0.4196 (Simulation time: 00 hr 38 min 16 sec)
Heartbeat CPU 0 instructions: 174500854 cycles: 311164153 heartbeat IPC: 0.3371 cumulative IPC: 0.4192 (Simulation time: 00 hr 38 min 24 sec)
Heartbeat CPU 0 instructions: 175000855 cycles: 312032021 heartbeat IPC: 0.5761 cumulative IPC: 0.4197 (Simulation time: 00 hr 38 min 30 sec)
Heartbeat CPU 0 instructions: 175500855 cycles: 313368086 heartbeat IPC: 0.3742 cumulative IPC: 0.4195 (Simulation time: 00 hr 38 min 38 sec)
Heartbeat CPU 0 instructions: 176000855 cycles: 314447490 heartbeat IPC: 0.4632 cumulative IPC: 0.4196 (Simulation time: 00 hr 38 min 44 sec)
Heartbeat CPU 0 instructions: 176500855 cycles: 315435892 heartbeat IPC: 0.5059 cumulative IPC: 0.4199 (Simulation time: 00 hr 38 min 50 sec)
Heartbeat CPU 0 instructions: 177000855 cycles: 316608145 heartbeat IPC: 0.4265 cumulative IPC: 0.4199 (Simulation time: 00 hr 38 min 57 sec)
Heartbeat CPU 0 instructions: 177500859 cycles: 317497022 heartbeat IPC: 0.5625 cumulative IPC: 0.4204 (Simulation time: 00 hr 39 min 03 sec)
Heartbeat CPU 0 instructions: 178000859 cycles: 318623557 heartbeat IPC: 0.4438 cumulative IPC: 0.4204 (Simulation time: 00 hr 39 min 09 sec)
Heartbeat CPU 0 instructions: 178500859 cycles: 319578424 heartbeat IPC: 0.5236 cumulative IPC: 0.4208 (Simulation time: 00 hr 39 min 15 sec)
Heartbeat CPU 0 instructions: 179000859 cycles: 320966949 heartbeat IPC: 0.3601 cumulative IPC: 0.4205 (Simulation time: 00 hr 39 min 23 sec)
Heartbeat CPU 0 instructions: 179500860 cycles: 321798367 heartbeat IPC: 0.6014 cumulative IPC: 0.421 (Simulation time: 00 hr 39 min 29 sec)
Heartbeat CPU 0 instructions: 180000861 cycles: 322580435 heartbeat IPC: 0.6393 cumulative IPC: 0.4215 (Simulation time: 00 hr 39 min 34 sec)
Heartbeat CPU 0 instructions: 180500865 cycles: 323283000 heartbeat IPC: 0.7117 cumulative IPC: 0.4222 (Simulation time: 00 hr 39 min 38 sec)
Heartbeat CPU 0 instructions: 181000867 cycles: 324753293 heartbeat IPC: 0.3401 cumulative IPC: 0.4218 (Simulation time: 00 hr 39 min 47 sec)
Heartbeat CPU 0 instructions: 181500867 cycles: 326077891 heartbeat IPC: 0.3775 cumulative IPC: 0.4216 (Simulation time: 00 hr 39 min 54 sec)
Heartbeat CPU 0 instructions: 182000870 cycles: 327204415 heartbeat IPC: 0.4438 cumulative IPC: 0.4217 (Simulation time: 00 hr 40 min 01 sec)
Heartbeat CPU 0 instructions: 182500870 cycles: 329023894 heartbeat IPC: 0.2748 cumulative IPC: 0.4208 (Simulation time: 00 hr 40 min 11 sec)
Heartbeat CPU 0 instructions: 183000873 cycles: 330040807 heartbeat IPC: 0.4917 cumulative IPC: 0.4211 (Simulation time: 00 hr 40 min 17 sec)
Heartbeat CPU 0 instructions: 183500873 cycles: 332307008 heartbeat IPC: 0.2206 cumulative IPC: 0.4196 (Simulation time: 00 hr 40 min 30 sec)
Heartbeat CPU 0 instructions: 184000879 cycles: 333477430 heartbeat IPC: 0.4272 cumulative IPC: 0.4197 (Simulation time: 00 hr 40 min 37 sec)
Heartbeat CPU 0 instructions: 184500879 cycles: 334603342 heartbeat IPC: 0.4441 cumulative IPC: 0.4198 (Simulation time: 00 hr 40 min 43 sec)
Heartbeat CPU 0 instructions: 185000881 cycles: 335702679 heartbeat IPC: 0.4548 cumulative IPC: 0.4199 (Simulation time: 00 hr 40 min 50 sec)
Heartbeat CPU 0 instructions: 185500883 cycles: 336898798 heartbeat IPC: 0.418 cumulative IPC: 0.4199 (Simulation time: 00 hr 40 min 57 sec)
Heartbeat CPU 0 instructions: 186000883 cycles: 337731906 heartbeat IPC: 0.6002 cumulative IPC: 0.4203 (Simulation time: 00 hr 41 min 02 sec)
Heartbeat CPU 0 instructions: 186500888 cycles: 338800605 heartbeat IPC: 0.4679 cumulative IPC: 0.4205 (Simulation time: 00 hr 41 min 09 sec)
Heartbeat CPU 0 instructions: 187000894 cycles: 339735542 heartbeat IPC: 0.5348 cumulative IPC: 0.4208 (Simulation time: 00 hr 41 min 14 sec)
Heartbeat CPU 0 instructions: 187500899 cycles: 340816179 heartbeat IPC: 0.4627 cumulative IPC: 0.421 (Simulation time: 00 hr 41 min 21 sec)
Heartbeat CPU 0 instructions: 188000901 cycles: 341741706 heartbeat IPC: 0.5402 cumulative IPC: 0.4213 (Simulation time: 00 hr 41 min 27 sec)
Heartbeat CPU 0 instructions: 188500901 cycles: 343527403 heartbeat IPC: 0.28 cumulative IPC: 0.4205 (Simulation time: 00 hr 41 min 37 sec)
Heartbeat CPU 0 instructions: 189000906 cycles: 344410653 heartbeat IPC: 0.5661 cumulative IPC: 0.4209 (Simulation time: 00 hr 41 min 42 sec)
Heartbeat CPU 0 instructions: 189500909 cycles: 344794791 heartbeat IPC: 1.302 cumulative IPC: 0.4219 (Simulation time: 00 hr 41 min 45 sec)
Heartbeat CPU 0 instructions: 190000909 cycles: 345614009 heartbeat IPC: 0.6103 cumulative IPC: 0.4224 (Simulation time: 00 hr 41 min 50 sec)
Heartbeat CPU 0 instructions: 190500909 cycles: 348493705 heartbeat IPC: 0.1736 cumulative IPC: 0.4203 (Simulation time: 00 hr 42 min 05 sec)
Heartbeat CPU 0 instructions: 191000910 cycles: 349694764 heartbeat IPC: 0.4163 cumulative IPC: 0.4202 (Simulation time: 00 hr 42 min 13 sec)
Heartbeat CPU 0 instructions: 191500910 cycles: 351227018 heartbeat IPC: 0.3263 cumulative IPC: 0.4198 (Simulation time: 00 hr 42 min 21 sec)
Heartbeat CPU 0 instructions: 192000913 cycles: 352479796 heartbeat IPC: 0.3991 cumulative IPC: 0.4197 (Simulation time: 00 hr 42 min 28 sec)
Heartbeat CPU 0 instructions: 192500913 cycles: 353645025 heartbeat IPC: 0.4291 cumulative IPC: 0.4198 (Simulation time: 00 hr 42 min 35 sec)
Heartbeat CPU 0 instructions: 193000913 cycles: 355046132 heartbeat IPC: 0.3569 cumulative IPC: 0.4195 (Simulation time: 00 hr 42 min 44 sec)
Heartbeat CPU 0 instructions: 193500914 cycles: 356064395 heartbeat IPC: 0.491 cumulative IPC: 0.4197 (Simulation time: 00 hr 42 min 50 sec)
Heartbeat CPU 0 instructions: 194000918 cycles: 358286757 heartbeat IPC: 0.225 cumulative IPC: 0.4185 (Simulation time: 00 hr 43 min 02 sec)
Heartbeat CPU 0 instructions: 194500918 cycles: 359546460 heartbeat IPC: 0.3969 cumulative IPC: 0.4184 (Simulation time: 00 hr 43 min 09 sec)
Heartbeat CPU 0 instructions: 195000918 cycles: 360479437 heartbeat IPC: 0.5359 cumulative IPC: 0.4187 (Simulation time: 00 hr 43 min 15 sec)
Heartbeat CPU 0 instructions: 195500918 cycles: 361040912 heartbeat IPC: 0.8905 cumulative IPC: 0.4195 (Simulation time: 00 hr 43 min 19 sec)
Heartbeat CPU 0 instructions: 196000924 cycles: 362034950 heartbeat IPC: 0.503 cumulative IPC: 0.4197 (Simulation time: 00 hr 43 min 25 sec)
Heartbeat CPU 0 instructions: 196500924 cycles: 363912697 heartbeat IPC: 0.2663 cumulative IPC: 0.4189 (Simulation time: 00 hr 43 min 36 sec)
Heartbeat CPU 0 instructions: 197000925 cycles: 365919728 heartbeat IPC: 0.2491 cumulative IPC: 0.4179 (Simulation time: 00 hr 43 min 47 sec)
Heartbeat CPU 0 instructions: 197500925 cycles: 367081421 heartbeat IPC: 0.4304 cumulative IPC: 0.418 (Simulation time: 00 hr 43 min 54 sec)
Heartbeat CPU 0 instructions: 198000925 cycles: 369556062 heartbeat IPC: 0.202 cumulative IPC: 0.4165 (Simulation time: 00 hr 44 min 07 sec)
Heartbeat CPU 0 instructions: 198500925 cycles: 371588268 heartbeat IPC: 0.246 cumulative IPC: 0.4155 (Simulation time: 00 hr 44 min 20 sec)
Heartbeat CPU 0 instructions: 199000926 cycles: 373460053 heartbeat IPC: 0.2671 cumulative IPC: 0.4147 (Simulation time: 00 hr 44 min 32 sec)
Heartbeat CPU 0 instructions: 199500930 cycles: 375251453 heartbeat IPC: 0.2791 cumulative IPC: 0.414 (Simulation time: 00 hr 44 min 42 sec)
Heartbeat CPU 0 instructions: 200000931 cycles: 376988690 heartbeat IPC: 0.2878 cumulative IPC: 0.4134 (Simulation time: 00 hr 44 min 52 sec)
Heartbeat CPU 0 instructions: 200500933 cycles: 378727461 heartbeat IPC: 0.2876 cumulative IPC: 0.4128 (Simulation time: 00 hr 45 min 02 sec)
Heartbeat CPU 0 instructions: 201000933 cycles: 380465516 heartbeat IPC: 0.2877 cumulative IPC: 0.4122 (Simulation time: 00 hr 45 min 12 sec)
Heartbeat CPU 0 instructions: 201500936 cycles: 381842578 heartbeat IPC: 0.3631 cumulative IPC: 0.4121 (Simulation time: 00 hr 45 min 20 sec)
Heartbeat CPU 0 instructions: 202000938 cycles: 383577049 heartbeat IPC: 0.2883 cumulative IPC: 0.4115 (Simulation time: 00 hr 45 min 30 sec)
Heartbeat CPU 0 instructions: 202500940 cycles: 385364599 heartbeat IPC: 0.2797 cumulative IPC: 0.4108 (Simulation time: 00 hr 45 min 40 sec)
Heartbeat CPU 0 instructions: 203000941 cycles: 387663504 heartbeat IPC: 0.2175 cumulative IPC: 0.4097 (Simulation time: 00 hr 45 min 53 sec)
Heartbeat CPU 0 instructions: 203500942 cycles: 389990051 heartbeat IPC: 0.2149 cumulative IPC: 0.4085 (Simulation time: 00 hr 46 min 05 sec)
Heartbeat CPU 0 instructions: 204000942 cycles: 391805024 heartbeat IPC: 0.2755 cumulative IPC: 0.4078 (Simulation time: 00 hr 46 min 14 sec)
Heartbeat CPU 0 instructions: 204500942 cycles: 392704779 heartbeat IPC: 0.5557 cumulative IPC: 0.4082 (Simulation time: 00 hr 46 min 20 sec)
Heartbeat CPU 0 instructions: 205000942 cycles: 393984001 heartbeat IPC: 0.3909 cumulative IPC: 0.4081 (Simulation time: 00 hr 46 min 27 sec)
Heartbeat CPU 0 instructions: 205500948 cycles: 396034831 heartbeat IPC: 0.2438 cumulative IPC: 0.4072 (Simulation time: 00 hr 46 min 39 sec)
Heartbeat CPU 0 instructions: 206000948 cycles: 398116110 heartbeat IPC: 0.2402 cumulative IPC: 0.4063 (Simulation time: 00 hr 46 min 50 sec)
Heartbeat CPU 0 instructions: 206500949 cycles: 398975213 heartbeat IPC: 0.582 cumulative IPC: 0.4067 (Simulation time: 00 hr 46 min 55 sec)
Heartbeat CPU 0 instructions: 207000954 cycles: 400139372 heartbeat IPC: 0.4295 cumulative IPC: 0.4068 (Simulation time: 00 hr 47 min 02 sec)
Heartbeat CPU 0 instructions: 207500954 cycles: 401251283 heartbeat IPC: 0.4497 cumulative IPC: 0.4069 (Simulation time: 00 hr 47 min 09 sec)
Heartbeat CPU 0 instructions: 208000956 cycles: 402662097 heartbeat IPC: 0.3544 cumulative IPC: 0.4067 (Simulation time: 00 hr 47 min 17 sec)
Heartbeat CPU 0 instructions: 208500956 cycles: 404655495 heartbeat IPC: 0.2508 cumulative IPC: 0.4059 (Simulation time: 00 hr 47 min 28 sec)
Heartbeat CPU 0 instructions: 209000956 cycles: 406823999 heartbeat IPC: 0.2306 cumulative IPC: 0.4049 (Simulation time: 00 hr 47 min 40 sec)
Heartbeat CPU 0 instructions: 209500958 cycles: 407976861 heartbeat IPC: 0.4337 cumulative IPC: 0.405 (Simulation time: 00 hr 47 min 47 sec)
Heartbeat CPU 0 instructions: 210000964 cycles: 408706442 heartbeat IPC: 0.6853 cumulative IPC: 0.4055 (Simulation time: 00 hr 47 min 52 sec)
Heartbeat CPU 0 instructions: 210500971 cycles: 409127369 heartbeat IPC: 1.188 cumulative IPC: 0.4064 (Simulation time: 00 hr 47 min 55 sec)
Heartbeat CPU 0 instructions: 211000974 cycles: 411132356 heartbeat IPC: 0.2494 cumulative IPC: 0.4056 (Simulation time: 00 hr 48 min 06 sec)
Heartbeat CPU 0 instructions: 211500976 cycles: 412924276 heartbeat IPC: 0.279 cumulative IPC: 0.405 (Simulation time: 00 hr 48 min 16 sec)
Heartbeat CPU 0 instructions: 212000981 cycles: 414769891 heartbeat IPC: 0.2709 cumulative IPC: 0.4044 (Simulation time: 00 hr 48 min 25 sec)
Heartbeat CPU 0 instructions: 212500981 cycles: 415831589 heartbeat IPC: 0.4709 cumulative IPC: 0.4046 (Simulation time: 00 hr 48 min 32 sec)
Heartbeat CPU 0 instructions: 213000981 cycles: 417600533 heartbeat IPC: 0.2827 cumulative IPC: 0.404 (Simulation time: 00 hr 48 min 42 sec)
Heartbeat CPU 0 instructions: 213500982 cycles: 418234867 heartbeat IPC: 0.7882 cumulative IPC: 0.4046 (Simulation time: 00 hr 48 min 46 sec)
Heartbeat CPU 0 instructions: 214000982 cycles: 419937632 heartbeat IPC: 0.2936 cumulative IPC: 0.4042 (Simulation time: 00 hr 48 min 56 sec)
Heartbeat CPU 0 instructions: 214500988 cycles: 420867345 heartbeat IPC: 0.5378 cumulative IPC: 0.4045 (Simulation time: 00 hr 49 min 01 sec)
Heartbeat CPU 0 instructions: 215000994 cycles: 422452795 heartbeat IPC: 0.3154 cumulative IPC: 0.4041 (Simulation time: 00 hr 49 min 10 sec)
Heartbeat CPU 0 instructions: 215500994 cycles: 423826205 heartbeat IPC: 0.3641 cumulative IPC: 0.404 (Simulation time: 00 hr 49 min 18 sec)
Heartbeat CPU 0 instructions: 216000997 cycles: 424844131 heartbeat IPC: 0.4912 cumulative IPC: 0.4042 (Simulation time: 00 hr 49 min 24 sec)
Heartbeat CPU 0 instructions: 216500997 cycles: 426126416 heartbeat IPC: 0.3899 cumulative IPC: 0.4042 (Simulation time: 00 hr 49 min 32 sec)
Heartbeat CPU 0 instructions: 217000998 cycles: 428137708 heartbeat IPC: 0.2486 cumulative IPC: 0.4034 (Simulation time: 00 hr 49 min 43 sec)
Heartbeat CPU 0 instructions: 217500999 cycles: 428909894 heartbeat IPC: 0.6475 cumulative IPC: 0.4039 (Simulation time: 00 hr 49 min 48 sec)
Heartbeat CPU 0 instructions: 218000999 cycles: 429993610 heartbeat IPC: 0.4614 cumulative IPC: 0.404 (Simulation time: 00 hr 49 min 54 sec)
Heartbeat CPU 0 instructions: 218501002 cycles: 430805089 heartbeat IPC: 0.6162 cumulative IPC: 0.4044 (Simulation time: 00 hr 50 min 00 sec)
Heartbeat CPU 0 instructions: 219001002 cycles: 431794485 heartbeat IPC: 0.5054 cumulative IPC: 0.4047 (Simulation time: 00 hr 50 min 06 sec)
Heartbeat CPU 0 instructions: 219501005 cycles: 432716560 heartbeat IPC: 0.5423 cumulative IPC: 0.405 (Simulation time: 00 hr 50 min 11 sec)
Heartbeat CPU 0 instructions: 220001009 cycles: 433613825 heartbeat IPC: 0.5573 cumulative IPC: 0.4053 (Simulation time: 00 hr 50 min 17 sec)
Heartbeat CPU 0 instructions: 220501010 cycles: 435133655 heartbeat IPC: 0.329 cumulative IPC: 0.405 (Simulation time: 00 hr 50 min 25 sec)
Heartbeat CPU 0 instructions: 221001010 cycles: 435893914 heartbeat IPC: 0.6577 cumulative IPC: 0.4055 (Simulation time: 00 hr 50 min 30 sec)
Heartbeat CPU 0 instructions: 221501016 cycles: 437084947 heartbeat IPC: 0.4198 cumulative IPC: 0.4055 (Simulation time: 00 hr 50 min 37 sec)
Heartbeat CPU 0 instructions: 222001016 cycles: 437960622 heartbeat IPC: 0.571 cumulative IPC: 0.4059 (Simulation time: 00 hr 50 min 43 sec)
Heartbeat CPU 0 instructions: 222501022 cycles: 438703469 heartbeat IPC: 0.6731 cumulative IPC: 0.4063 (Simulation time: 00 hr 50 min 48 sec)
Heartbeat CPU 0 instructions: 223001022 cycles: 440194910 heartbeat IPC: 0.3352 cumulative IPC: 0.4061 (Simulation time: 00 hr 50 min 56 sec)
Heartbeat CPU 0 instructions: 223501022 cycles: 441144952 heartbeat IPC: 0.5263 cumulative IPC: 0.4064 (Simulation time: 00 hr 51 min 02 sec)
Heartbeat CPU 0 instructions: 224001029 cycles: 442141826 heartbeat IPC: 0.5016 cumulative IPC: 0.4066 (Simulation time: 00 hr 51 min 08 sec)
Heartbeat CPU 0 instructions: 224501029 cycles: 443124235 heartbeat IPC: 0.509 cumulative IPC: 0.4068 (Simulation time: 00 hr 51 min 14 sec)
Heartbeat CPU 0 instructions: 225001030 cycles: 444500992 heartbeat IPC: 0.3632 cumulative IPC: 0.4067 (Simulation time: 00 hr 51 min 22 sec)
Heartbeat CPU 0 instructions: 225501030 cycles: 445392731 heartbeat IPC: 0.5607 cumulative IPC: 0.407 (Simulation time: 00 hr 51 min 27 sec)
Heartbeat CPU 0 instructions: 226001035 cycles: 446656081 heartbeat IPC: 0.3958 cumulative IPC: 0.407 (Simulation time: 00 hr 51 min 35 sec)
Heartbeat CPU 0 instructions: 226501038 cycles: 447625569 heartbeat IPC: 0.5157 cumulative IPC: 0.4072 (Simulation time: 00 hr 51 min 41 sec)
Heartbeat CPU 0 instructions: 227001044 cycles: 448504377 heartbeat IPC: 0.569 cumulative IPC: 0.4075 (Simulation time: 00 hr 51 min 46 sec)
Heartbeat CPU 0 instructions: 227501047 cycles: 449599798 heartbeat IPC: 0.4564 cumulative IPC: 0.4077 (Simulation time: 00 hr 51 min 53 sec)
Heartbeat CPU 0 instructions: 228001047 cycles: 450569335 heartbeat IPC: 0.5157 cumulative IPC: 0.4079 (Simulation time: 00 hr 51 min 59 sec)
Heartbeat CPU 0 instructions: 228501049 cycles: 451810444 heartbeat IPC: 0.4029 cumulative IPC: 0.4079 (Simulation time: 00 hr 52 min 06 sec)
Heartbeat CPU 0 instructions: 229001054 cycles: 453152632 heartbeat IPC: 0.3725 cumulative IPC: 0.4078 (Simulation time: 00 hr 52 min 14 sec)
Heartbeat CPU 0 instructions: 229501055 cycles: 454425474 heartbeat IPC: 0.3928 cumulative IPC: 0.4077 (Simulation time: 00 hr 52 min 21 sec)
Heartbeat CPU 0 instructions: 230001057 cycles: 455298851 heartbeat IPC: 0.5725 cumulative IPC: 0.4081 (Simulation time: 00 hr 52 min 27 sec)
Heartbeat CPU 0 instructions: 230501059 cycles: 457226404 heartbeat IPC: 0.2594 cumulative IPC: 0.4074 (Simulation time: 00 hr 52 min 38 sec)
Heartbeat CPU 0 instructions: 231001061 cycles: 458751581 heartbeat IPC: 0.3278 cumulative IPC: 0.4071 (Simulation time: 00 hr 52 min 46 sec)
Heartbeat CPU 0 instructions: 231501061 cycles: 460100532 heartbeat IPC: 0.3707 cumulative IPC: 0.407 (Simulation time: 00 hr 52 min 54 sec)
Heartbeat CPU 0 instructions: 232001062 cycles: 461018288 heartbeat IPC: 0.5448 cumulative IPC: 0.4073 (Simulation time: 00 hr 53 min 00 sec)
Heartbeat CPU 0 instructions: 232501062 cycles: 462088935 heartbeat IPC: 0.467 cumulative IPC: 0.4074 (Simulation time: 00 hr 53 min 06 sec)
Heartbeat CPU 0 instructions: 233001063 cycles: 462888406 heartbeat IPC: 0.6254 cumulative IPC: 0.4078 (Simulation time: 00 hr 53 min 12 sec)
Heartbeat CPU 0 instructions: 233501070 cycles: 464169813 heartbeat IPC: 0.3902 cumulative IPC: 0.4078 (Simulation time: 00 hr 53 min 19 sec)
Heartbeat CPU 0 instructions: 234001073 cycles: 465212465 heartbeat IPC: 0.4795 cumulative IPC: 0.408 (Simulation time: 00 hr 53 min 26 sec)
Heartbeat CPU 0 instructions: 234501073 cycles: 467012657 heartbeat IPC: 0.2777 cumulative IPC: 0.4074 (Simulation time: 00 hr 53 min 36 sec)
Heartbeat CPU 0 instructions: 235001074 cycles: 468181455 heartbeat IPC: 0.4278 cumulative IPC: 0.4075 (Simulation time: 00 hr 53 min 42 sec)
Heartbeat CPU 0 instructions: 235501075 cycles: 468898736 heartbeat IPC: 0.6971 cumulative IPC: 0.4079 (Simulation time: 00 hr 53 min 47 sec)
Heartbeat CPU 0 instructions: 236001076 cycles: 470150545 heartbeat IPC: 0.3994 cumulative IPC: 0.4079 (Simulation time: 00 hr 53 min 55 sec)
Heartbeat CPU 0 instructions: 236501076 cycles: 471720675 heartbeat IPC: 0.3184 cumulative IPC: 0.4076 (Simulation time: 00 hr 54 min 03 sec)
Heartbeat CPU 0 instructions: 237001076 cycles: 473237029 heartbeat IPC: 0.3297 cumulative IPC: 0.4074 (Simulation time: 00 hr 54 min 12 sec)
Heartbeat CPU 0 instructions: 237501077 cycles: 474010729 heartbeat IPC: 0.6462 cumulative IPC: 0.4078 (Simulation time: 00 hr 54 min 17 sec)
Heartbeat CPU 0 instructions: 238001079 cycles: 474741963 heartbeat IPC: 0.6838 cumulative IPC: 0.4082 (Simulation time: 00 hr 54 min 22 sec)
Heartbeat CPU 0 instructions: 238501082 cycles: 475893866 heartbeat IPC: 0.4341 cumulative IPC: 0.4083 (Simulation time: 00 hr 54 min 28 sec)
Heartbeat CPU 0 instructions: 239001084 cycles: 476888841 heartbeat IPC: 0.5025 cumulative IPC: 0.4085 (Simulation time: 00 hr 54 min 35 sec)
Heartbeat CPU 0 instructions: 239501084 cycles: 477827289 heartbeat IPC: 0.5328 cumulative IPC: 0.4087 (Simulation time: 00 hr 54 min 40 sec)
Heartbeat CPU 0 instructions: 240001085 cycles: 478707311 heartbeat IPC: 0.5682 cumulative IPC: 0.409 (Simulation time: 00 hr 54 min 46 sec)
Heartbeat CPU 0 instructions: 240501087 cycles: 479450675 heartbeat IPC: 0.6726 cumulative IPC: 0.4094 (Simulation time: 00 hr 54 min 51 sec)
Heartbeat CPU 0 instructions: 241001093 cycles: 480654975 heartbeat IPC: 0.4152 cumulative IPC: 0.4095 (Simulation time: 00 hr 54 min 58 sec)
Heartbeat CPU 0 instructions: 241501095 cycles: 481695450 heartbeat IPC: 0.4806 cumulative IPC: 0.4096 (Simulation time: 00 hr 55 min 04 sec)
Heartbeat CPU 0 instructions: 242001097 cycles: 482604894 heartbeat IPC: 0.5498 cumulative IPC: 0.4099 (Simulation time: 00 hr 55 min 10 sec)
Heartbeat CPU 0 instructions: 242501102 cycles: 483500030 heartbeat IPC: 0.5586 cumulative IPC: 0.4102 (Simulation time: 00 hr 55 min 16 sec)
Heartbeat CPU 0 instructions: 243001102 cycles: 484489704 heartbeat IPC: 0.5052 cumulative IPC: 0.4104 (Simulation time: 00 hr 55 min 22 sec)
Heartbeat CPU 0 instructions: 243501108 cycles: 486622975 heartbeat IPC: 0.2344 cumulative IPC: 0.4096 (Simulation time: 00 hr 55 min 34 sec)
Heartbeat CPU 0 instructions: 244001111 cycles: 488739595 heartbeat IPC: 0.2362 cumulative IPC: 0.4088 (Simulation time: 00 hr 55 min 46 sec)
Heartbeat CPU 0 instructions: 244501114 cycles: 490068267 heartbeat IPC: 0.3763 cumulative IPC: 0.4087 (Simulation time: 00 hr 55 min 53 sec)
Heartbeat CPU 0 instructions: 245001117 cycles: 490877439 heartbeat IPC: 0.6179 cumulative IPC: 0.4091 (Simulation time: 00 hr 55 min 59 sec)
Heartbeat CPU 0 instructions: 245501117 cycles: 491972692 heartbeat IPC: 0.4565 cumulative IPC: 0.4092 (Simulation time: 00 hr 56 min 05 sec)
Heartbeat CPU 0 instructions: 246001119 cycles: 494177327 heartbeat IPC: 0.2268 cumulative IPC: 0.4083 (Simulation time: 00 hr 56 min 17 sec)
Heartbeat CPU 0 instructions: 246501122 cycles: 495986477 heartbeat IPC: 0.2764 cumulative IPC: 0.4078 (Simulation time: 00 hr 56 min 27 sec)
Heartbeat CPU 0 instructions: 247001124 cycles: 497370024 heartbeat IPC: 0.3614 cumulative IPC: 0.4077 (Simulation time: 00 hr 56 min 35 sec)
Heartbeat CPU 0 instructions: 247501129 cycles: 498716629 heartbeat IPC: 0.3713 cumulative IPC: 0.4076 (Simulation time: 00 hr 56 min 43 sec)
Heartbeat CPU 0 instructions: 248001135 cycles: 500585357 heartbeat IPC: 0.2676 cumulative IPC: 0.4071 (Simulation time: 00 hr 56 min 53 sec)
Heartbeat CPU 0 instructions: 248501136 cycles: 502043000 heartbeat IPC: 0.343 cumulative IPC: 0.4069 (Simulation time: 00 hr 57 min 02 sec)
Heartbeat CPU 0 instructions: 249001136 cycles: 503438705 heartbeat IPC: 0.3582 cumulative IPC: 0.4067 (Simulation time: 00 hr 57 min 10 sec)
Heartbeat CPU 0 instructions: 249501139 cycles: 505055463 heartbeat IPC: 0.3093 cumulative IPC: 0.4064 (Simulation time: 00 hr 57 min 19 sec)
Simulation finished CPU 0 instructions: 200000000 cycles: 492395079 cumulative IPC: 0.4062 (Simulation time: 00 hr 57 min 27 sec)
Simulation complete CPU 0 instructions: 200000000 cycles: 492395079 cumulative IPC: 0.4062 (Simulation time: 00 hr 57 min 27 sec)

ChampSim completed all CPUs

=== Simulation ===
CPU 0 runs /local-ssd/ben/dpc4-traces/gtraces_v2/sierra.a.6_0003.champsim.gz

Region of Interest Statistics

CPU 0 cumulative IPC: 0.4062 instructions: 200000000 cycles: 492395079
CPU 0 Branch Prediction Accuracy: 87.34% MPKI: 25.29 Average ROB Occupancy at Mispredict: 18.74
Branch type MPKI
BRANCH_DIRECT_JUMP: 2.063
BRANCH_INDIRECT: 0.256
BRANCH_CONDITIONAL: 20.09
BRANCH_DIRECT_CALL: 1.444
BRANCH_INDIRECT_CALL: 0.3285
BRANCH_RETURN: 1.099

cpu0->cpu0_STLB TOTAL        ACCESS:    3487135 HIT:    2628471 MISS:     858664 MSHR_MERGE:          0
cpu0->cpu0_STLB LOAD         ACCESS:    3487135 HIT:    2628471 MISS:     858664 MSHR_MERGE:          0
cpu0->cpu0_STLB RFO          ACCESS:          0 HIT:          0 MISS:          0 MSHR_MERGE:          0
cpu0->cpu0_STLB PREFETCH     ACCESS:          0 HIT:          0 MISS:          0 MSHR_MERGE:          0
cpu0->cpu0_STLB WRITE        ACCESS:          0 HIT:          0 MISS:          0 MSHR_MERGE:          0
cpu0->cpu0_STLB TRANSLATION  ACCESS:          0 HIT:          0 MISS:          0 MSHR_MERGE:          0
cpu0->cpu0_STLB PREFETCH REQUESTED:          0 ISSUED:          0 USEFUL:          0 USELESS:          0
cpu0->cpu0_STLB AVERAGE MISS LATENCY: 111.5 cycles
cpu0->cpu0_L2C TOTAL        ACCESS:   15413845 HIT:   11354000 MISS:    4059845 MSHR_MERGE:          0
cpu0->cpu0_L2C LOAD         ACCESS:   10063623 HIT:    7783468 MISS:    2280155 MSHR_MERGE:          0
cpu0->cpu0_L2C RFO          ACCESS:     958083 HIT:     535212 MISS:     422871 MSHR_MERGE:          0
cpu0->cpu0_L2C PREFETCH     ACCESS:    1565793 HIT:     553692 MISS:    1012101 MSHR_MERGE:          0
cpu0->cpu0_L2C WRITE        ACCESS:    1897816 HIT:    1897728 MISS:         88 MSHR_MERGE:          0
cpu0->cpu0_L2C TRANSLATION  ACCESS:     928530 HIT:     583900 MISS:     344630 MSHR_MERGE:          0
cpu0->cpu0_L2C PREFETCH REQUESTED:          0 ISSUED:          0 USEFUL:          0 USELESS:          0
cpu0->cpu0_L2C AVERAGE MISS LATENCY: 192.6 cycles
cpu0->cpu0_L1I TOTAL        ACCESS:   22363250 HIT:   12763443 MISS:    9599807 MSHR_MERGE:    2379204
cpu0->cpu0_L1I LOAD         ACCESS:   22363250 HIT:   12763443 MISS:    9599807 MSHR_MERGE:    2379204
cpu0->cpu0_L1I RFO          ACCESS:          0 HIT:          0 MISS:          0 MSHR_MERGE:          0
cpu0->cpu0_L1I PREFETCH     ACCESS:          0 HIT:          0 MISS:          0 MSHR_MERGE:          0
cpu0->cpu0_L1I WRITE        ACCESS:          0 HIT:          0 MISS:          0 MSHR_MERGE:          0
cpu0->cpu0_L1I TRANSLATION  ACCESS:          0 HIT:          0 MISS:          0 MSHR_MERGE:          0
cpu0->cpu0_L1I PREFETCH REQUESTED:          0 ISSUED:          0 USEFUL:          0 USELESS:          0
cpu0->cpu0_L1I AVERAGE MISS LATENCY: 32.74 cycles
cpu0->cpu0_L1D TOTAL        ACCESS:   64546575 HIT:   55193571 MISS:    9353004 MSHR_MERGE:    3057515
cpu0->cpu0_L1D LOAD         ACCESS:   34895327 HIT:   31193837 MISS:    3701490 MSHR_MERGE:     858442
cpu0->cpu0_L1D RFO          ACCESS:          0 HIT:          0 MISS:          0 MSHR_MERGE:          0
cpu0->cpu0_L1D PREFETCH     ACCESS:    2805504 HIT:    1159764 MISS:    1645740 MSHR_MERGE:      79939
cpu0->cpu0_L1D WRITE        ACCESS:   24612246 HIT:   21540794 MISS:    3071452 MSHR_MERGE:    2113342
cpu0->cpu0_L1D TRANSLATION  ACCESS:    2233498 HIT:    1299176 MISS:     934322 MSHR_MERGE:       5792
cpu0->cpu0_L1D PREFETCH REQUESTED:    2820105 ISSUED:    2805498 USEFUL:     551597 USELESS:    1014190
cpu0->cpu0_L1D AVERAGE MISS LATENCY: 94.49 cycles
cpu0->cpu0_ITLB TOTAL        ACCESS:   18129763 HIT:   17119640 MISS:    1010123 MSHR_MERGE:     472628
cpu0->cpu0_ITLB LOAD         ACCESS:   18129763 HIT:   17119640 MISS:    1010123 MSHR_MERGE:     472628
cpu0->cpu0_ITLB RFO          ACCESS:          0 HIT:          0 MISS:          0 MSHR_MERGE:          0
cpu0->cpu0_ITLB PREFETCH     ACCESS:          0 HIT:          0 MISS:          0 MSHR_MERGE:          0
cpu0->cpu0_ITLB WRITE        ACCESS:          0 HIT:          0 MISS:          0 MSHR_MERGE:          0
cpu0->cpu0_ITLB TRANSLATION  ACCESS:          0 HIT:          0 MISS:          0 MSHR_MERGE:          0
cpu0->cpu0_ITLB PREFETCH REQUESTED:          0 ISSUED:          0 USEFUL:          0 USELESS:          0
cpu0->cpu0_ITLB AVERAGE MISS LATENCY: 17.45 cycles
cpu0->cpu0_DTLB TOTAL        ACCESS:   59464480 HIT:   54803521 MISS:    4660959 MSHR_MERGE:    1711319
cpu0->cpu0_DTLB LOAD         ACCESS:   59464480 HIT:   54803521 MISS:    4660959 MSHR_MERGE:    1711319
cpu0->cpu0_DTLB RFO          ACCESS:          0 HIT:          0 MISS:          0 MSHR_MERGE:          0
cpu0->cpu0_DTLB PREFETCH     ACCESS:          0 HIT:          0 MISS:          0 MSHR_MERGE:          0
cpu0->cpu0_DTLB WRITE        ACCESS:          0 HIT:          0 MISS:          0 MSHR_MERGE:          0
cpu0->cpu0_DTLB TRANSLATION  ACCESS:          0 HIT:          0 MISS:          0 MSHR_MERGE:          0
cpu0->cpu0_DTLB PREFETCH REQUESTED:          0 ISSUED:          0 USEFUL:          0 USELESS:          0
cpu0->cpu0_DTLB AVERAGE MISS LATENCY: 35.49 cycles
cpu0->LLC TOTAL        ACCESS:    4979837 HIT:    1393505 MISS:    3586332 MSHR_MERGE:          0
cpu0->LLC LOAD         ACCESS:    2280155 HIT:     530080 MISS:    1750075 MSHR_MERGE:          0
cpu0->LLC RFO          ACCESS:     422871 HIT:      31006 MISS:     391865 MSHR_MERGE:          0
cpu0->LLC PREFETCH     ACCESS:    1012101 HIT:      58175 MISS:     953926 MSHR_MERGE:          0
cpu0->LLC WRITE        ACCESS:     920080 HIT:     681312 MISS:     238768 MSHR_MERGE:          0
cpu0->LLC TRANSLATION  ACCESS:     344630 HIT:      92932 MISS:     251698 MSHR_MERGE:          0
cpu0->LLC PREFETCH REQUESTED:          0 ISSUED:          0 USEFUL:          0 USELESS:          0
cpu0->LLC AVERAGE MISS LATENCY: 198.2 cycles

DRAM Statistics

Channel 0 RQ ROW_BUFFER_HIT:     106308
  ROW_BUFFER_MISS:    3241209
  AVG DBUS CONGESTED CYCLE: 28.02
Channel 0 WQ ROW_BUFFER_HIT:     238560
  ROW_BUFFER_MISS:     611406
  FULL:          0
Channel 0 REFRESHES ISSUED:      41030
