[VMEM] WARNING: physical memory size is smaller than virtual memory size.

*** ChampSim Multicore Out-of-Order Simulator ***
Warmup Instructions: 50000000
Simulation Instructions: 200000000
Number of CPUs: 1
Page size: 4096
Core 0: /local-ssd/ben/dpc4-traces/SPEC17/621.wrf_s-6673B.champsimtrace.xz
 L1D Berti prefetcher
Off-chip DRAM Size: 64 GiB Channels: 1 Width: 64-bit Data Rate: 4807 MT/s
Heartbeat CPU 0 instructions: 500003 cycles: 112255 heartbeat IPC: 4.454 cumulative IPC: 4.454 (Simulation time: 00 hr 00 min 02 sec)
Heartbeat CPU 0 instructions: 1000006 cycles: 220367 heartbeat IPC: 4.625 cumulative IPC: 4.538 (Simulation time: 00 hr 00 min 04 sec)
Heartbeat CPU 0 instructions: 1500006 cycles: 332807 heartbeat IPC: 4.447 cumulative IPC: 4.507 (Simulation time: 00 hr 00 min 06 sec)
Heartbeat CPU 0 instructions: 2000007 cycles: 448624 heartbeat IPC: 4.317 cumulative IPC: 4.458 (Simulation time: 00 hr 00 min 08 sec)
Heartbeat CPU 0 instructions: 2500010 cycles: 561088 heartbeat IPC: 4.446 cumulative IPC: 4.456 (Simulation time: 00 hr 00 min 10 sec)
Heartbeat CPU 0 instructions: 3000011 cycles: 673051 heartbeat IPC: 4.466 cumulative IPC: 4.457 (Simulation time: 00 hr 00 min 12 sec)
Heartbeat CPU 0 instructions: 3500012 cycles: 784638 heartbeat IPC: 4.481 cumulative IPC: 4.461 (Simulation time: 00 hr 00 min 15 sec)
Heartbeat CPU 0 instructions: 4000015 cycles: 896241 heartbeat IPC: 4.48 cumulative IPC: 4.463 (Simulation time: 00 hr 00 min 17 sec)
Heartbeat CPU 0 instructions: 4500016 cycles: 1008244 heartbeat IPC: 4.464 cumulative IPC: 4.463 (Simulation time: 00 hr 00 min 20 sec)
Heartbeat CPU 0 instructions: 5000021 cycles: 1120367 heartbeat IPC: 4.459 cumulative IPC: 4.463 (Simulation time: 00 hr 00 min 22 sec)
Heartbeat CPU 0 instructions: 5500022 cycles: 1232469 heartbeat IPC: 4.46 cumulative IPC: 4.463 (Simulation time: 00 hr 00 min 24 sec)
Heartbeat CPU 0 instructions: 6000022 cycles: 1344358 heartbeat IPC: 4.469 cumulative IPC: 4.463 (Simulation time: 00 hr 00 min 27 sec)
Heartbeat CPU 0 instructions: 6500029 cycles: 1456260 heartbeat IPC: 4.468 cumulative IPC: 4.464 (Simulation time: 00 hr 00 min 29 sec)
Heartbeat CPU 0 instructions: 7000031 cycles: 1568145 heartbeat IPC: 4.469 cumulative IPC: 4.464 (Simulation time: 00 hr 00 min 31 sec)
Heartbeat CPU 0 instructions: 7500037 cycles: 1679962 heartbeat IPC: 4.472 cumulative IPC: 4.464 (Simulation time: 00 hr 00 min 34 sec)
Heartbeat CPU 0 instructions: 8000039 cycles: 1791500 heartbeat IPC: 4.483 cumulative IPC: 4.466 (Simulation time: 00 hr 00 min 36 sec)
Heartbeat CPU 0 instructions: 8500042 cycles: 1903157 heartbeat IPC: 4.478 cumulative IPC: 4.466 (Simulation time: 00 hr 00 min 38 sec)
Heartbeat CPU 0 instructions: 9000048 cycles: 2014798 heartbeat IPC: 4.479 cumulative IPC: 4.467 (Simulation time: 00 hr 00 min 41 sec)
Heartbeat CPU 0 instructions: 9500053 cycles: 2126289 heartbeat IPC: 4.485 cumulative IPC: 4.468 (Simulation time: 00 hr 00 min 43 sec)
Heartbeat CPU 0 instructions: 10000057 cycles: 2236959 heartbeat IPC: 4.518 cumulative IPC: 4.47 (Simulation time: 00 hr 00 min 45 sec)
Heartbeat CPU 0 instructions: 10500061 cycles: 2346226 heartbeat IPC: 4.576 cumulative IPC: 4.475 (Simulation time: 00 hr 00 min 47 sec)
Heartbeat CPU 0 instructions: 11000062 cycles: 2455269 heartbeat IPC: 4.585 cumulative IPC: 4.48 (Simulation time: 00 hr 00 min 49 sec)
Heartbeat CPU 0 instructions: 11500063 cycles: 2561872 heartbeat IPC: 4.69 cumulative IPC: 4.489 (Simulation time: 00 hr 00 min 50 sec)
Heartbeat CPU 0 instructions: 12000063 cycles: 2668115 heartbeat IPC: 4.706 cumulative IPC: 4.498 (Simulation time: 00 hr 00 min 52 sec)
Heartbeat CPU 0 instructions: 12500067 cycles: 2772234 heartbeat IPC: 4.802 cumulative IPC: 4.509 (Simulation time: 00 hr 00 min 54 sec)
Heartbeat CPU 0 instructions: 13000074 cycles: 2876238 heartbeat IPC: 4.808 cumulative IPC: 4.52 (Simulation time: 00 hr 00 min 55 sec)
Heartbeat CPU 0 instructions: 13500081 cycles: 2980387 heartbeat IPC: 4.801 cumulative IPC: 4.53 (Simulation time: 00 hr 00 min 57 sec)
Heartbeat CPU 0 instructions: 14000088 cycles: 3083818 heartbeat IPC: 4.834 cumulative IPC: 4.54 (Simulation time: 00 hr 00 min 59 sec)
Heartbeat CPU 0 instructions: 14500090 cycles: 3184042 heartbeat IPC: 4.989 cumulative IPC: 4.554 (Simulation time: 00 hr 01 min 01 sec)
Heartbeat CPU 0 instructions: 15000092 cycles: 3284152 heartbeat IPC: 4.995 cumulative IPC: 4.567 (Simulation time: 00 hr 01 min 02 sec)
Heartbeat CPU 0 instructions: 15500092 cycles: 3384282 heartbeat IPC: 4.994 cumulative IPC: 4.58 (Simulation time: 00 hr 01 min 04 sec)
Heartbeat CPU 0 instructions: 16000094 cycles: 3485220 heartbeat IPC: 4.954 cumulative IPC: 4.591 (Simulation time: 00 hr 01 min 06 sec)
Heartbeat CPU 0 instructions: 16500095 cycles: 3585221 heartbeat IPC: 5 cumulative IPC: 4.602 (Simulation time: 00 hr 01 min 07 sec)
Heartbeat CPU 0 instructions: 17000100 cycles: 3685319 heartbeat IPC: 4.995 cumulative IPC: 4.613 (Simulation time: 00 hr 01 min 09 sec)
Heartbeat CPU 0 instructions: 17500106 cycles: 3792295 heartbeat IPC: 4.674 cumulative IPC: 4.615 (Simulation time: 00 hr 01 min 10 sec)
Heartbeat CPU 0 instructions: 18000111 cycles: 3892294 heartbeat IPC: 5 cumulative IPC: 4.625 (Simulation time: 00 hr 01 min 12 sec)
Heartbeat CPU 0 instructions: 18500113 cycles: 3992295 heartbeat IPC: 5 cumulative IPC: 4.634 (Simulation time: 00 hr 01 min 13 sec)
Heartbeat CPU 0 instructions: 19000114 cycles: 4092503 heartbeat IPC: 4.99 cumulative IPC: 4.643 (Simulation time: 00 hr 01 min 15 sec)
Heartbeat CPU 0 instructions: 19500121 cycles: 4192503 heartbeat IPC: 5 cumulative IPC: 4.651 (Simulation time: 00 hr 01 min 16 sec)
Heartbeat CPU 0 instructions: 20000121 cycles: 4292511 heartbeat IPC: 5 cumulative IPC: 4.659 (Simulation time: 00 hr 01 min 18 sec)
Heartbeat CPU 0 instructions: 20500124 cycles: 4392506 heartbeat IPC: 5 cumulative IPC: 4.667 (Simulation time: 00 hr 01 min 20 sec)
Heartbeat CPU 0 instructions: 21000130 cycles: 4492703 heartbeat IPC: 4.99 cumulative IPC: 4.674 (Simulation time: 00 hr 01 min 22 sec)
Heartbeat CPU 0 instructions: 21500136 cycles: 4592705 heartbeat IPC: 5 cumulative IPC: 4.681 (Simulation time: 00 hr 01 min 23 sec)
Heartbeat CPU 0 instructions: 22000143 cycles: 4692707 heartbeat IPC: 5 cumulative IPC: 4.688 (Simulation time: 00 hr 01 min 25 sec)
Heartbeat CPU 0 instructions: 22500147 cycles: 4792708 heartbeat IPC: 5 cumulative IPC: 4.695 (Simulation time: 00 hr 01 min 27 sec)
Heartbeat CPU 0 instructions: 23000147 cycles: 4892720 heartbeat IPC: 4.999 cumulative IPC: 4.701 (Simulation time: 00 hr 01 min 28 sec)
Heartbeat CPU 0 instructions: 23500153 cycles: 4997035 heartbeat IPC: 4.793 cumulative IPC: 4.703 (Simulation time: 00 hr 01 min 30 sec)
Heartbeat CPU 0 instructions: 24000158 cycles: 5100283 heartbeat IPC: 4.843 cumulative IPC: 4.706 (Simulation time: 00 hr 01 min 32 sec)
Heartbeat CPU 0 instructions: 24500160 cycles: 5203548 heartbeat IPC: 4.842 cumulative IPC: 4.708 (Simulation time: 00 hr 01 min 33 sec)
Heartbeat CPU 0 instructions: 25000166 cycles: 5306955 heartbeat IPC: 4.835 cumulative IPC: 4.711 (Simulation time: 00 hr 01 min 35 sec)
Heartbeat CPU 0 instructions: 25500168 cycles: 5410917 heartbeat IPC: 4.809 cumulative IPC: 4.713 (Simulation time: 00 hr 01 min 36 sec)
Heartbeat CPU 0 instructions: 26000168 cycles: 5514812 heartbeat IPC: 4.813 cumulative IPC: 4.715 (Simulation time: 00 hr 01 min 38 sec)
Heartbeat CPU 0 instructions: 26500172 cycles: 5618829 heartbeat IPC: 4.807 cumulative IPC: 4.716 (Simulation time: 00 hr 01 min 40 sec)
Heartbeat CPU 0 instructions: 27000175 cycles: 5723294 heartbeat IPC: 4.786 cumulative IPC: 4.718 (Simulation time: 00 hr 01 min 41 sec)
Heartbeat CPU 0 instructions: 27500181 cycles: 5828448 heartbeat IPC: 4.755 cumulative IPC: 4.718 (Simulation time: 00 hr 01 min 43 sec)
Heartbeat CPU 0 instructions: 28000185 cycles: 5933744 heartbeat IPC: 4.749 cumulative IPC: 4.719 (Simulation time: 00 hr 01 min 45 sec)
Heartbeat CPU 0 instructions: 28500186 cycles: 6038993 heartbeat IPC: 4.751 cumulative IPC: 4.719 (Simulation time: 00 hr 01 min 46 sec)
Heartbeat CPU 0 instructions: 29000193 cycles: 6144362 heartbeat IPC: 4.745 cumulative IPC: 4.72 (Simulation time: 00 hr 01 min 48 sec)
Heartbeat CPU 0 instructions: 29500193 cycles: 6249510 heartbeat IPC: 4.755 cumulative IPC: 4.72 (Simulation time: 00 hr 01 min 50 sec)
Heartbeat CPU 0 instructions: 30000197 cycles: 6354652 heartbeat IPC: 4.756 cumulative IPC: 4.721 (Simulation time: 00 hr 01 min 51 sec)
Heartbeat CPU 0 instructions: 30500197 cycles: 6459933 heartbeat IPC: 4.749 cumulative IPC: 4.721 (Simulation time: 00 hr 01 min 53 sec)
Heartbeat CPU 0 instructions: 31000204 cycles: 6565156 heartbeat IPC: 4.752 cumulative IPC: 4.722 (Simulation time: 00 hr 01 min 55 sec)
Heartbeat CPU 0 instructions: 31500206 cycles: 6672094 heartbeat IPC: 4.676 cumulative IPC: 4.721 (Simulation time: 00 hr 01 min 56 sec)
Heartbeat CPU 0 instructions: 32000210 cycles: 6779370 heartbeat IPC: 4.661 cumulative IPC: 4.72 (Simulation time: 00 hr 01 min 58 sec)
Heartbeat CPU 0 instructions: 32500212 cycles: 6886202 heartbeat IPC: 4.68 cumulative IPC: 4.72 (Simulation time: 00 hr 02 min 00 sec)
Heartbeat CPU 0 instructions: 33000214 cycles: 6993067 heartbeat IPC: 4.679 cumulative IPC: 4.719 (Simulation time: 00 hr 02 min 02 sec)
Heartbeat CPU 0 instructions: 33500218 cycles: 7099821 heartbeat IPC: 4.684 cumulative IPC: 4.718 (Simulation time: 00 hr 02 min 03 sec)
Heartbeat CPU 0 instructions: 34000219 cycles: 7249658 heartbeat IPC: 3.337 cumulative IPC: 4.69 (Simulation time: 00 hr 02 min 06 sec)
Heartbeat CPU 0 instructions: 34500220 cycles: 7369932 heartbeat IPC: 4.157 cumulative IPC: 4.681 (Simulation time: 00 hr 02 min 08 sec)
Heartbeat CPU 0 instructions: 35000226 cycles: 7483513 heartbeat IPC: 4.402 cumulative IPC: 4.677 (Simulation time: 00 hr 02 min 10 sec)
Heartbeat CPU 0 instructions: 35500233 cycles: 7597097 heartbeat IPC: 4.402 cumulative IPC: 4.673 (Simulation time: 00 hr 02 min 12 sec)
Heartbeat CPU 0 instructions: 36000234 cycles: 7719911 heartbeat IPC: 4.071 cumulative IPC: 4.663 (Simulation time: 00 hr 02 min 15 sec)
Heartbeat CPU 0 instructions: 36500237 cycles: 7874888 heartbeat IPC: 3.226 cumulative IPC: 4.635 (Simulation time: 00 hr 02 min 18 sec)
Heartbeat CPU 0 instructions: 37000240 cycles: 8041234 heartbeat IPC: 3.006 cumulative IPC: 4.601 (Simulation time: 00 hr 02 min 20 sec)
Heartbeat CPU 0 instructions: 37500241 cycles: 8177784 heartbeat IPC: 3.662 cumulative IPC: 4.586 (Simulation time: 00 hr 02 min 23 sec)
Heartbeat CPU 0 instructions: 38000245 cycles: 8281392 heartbeat IPC: 4.826 cumulative IPC: 4.589 (Simulation time: 00 hr 02 min 25 sec)
Heartbeat CPU 0 instructions: 38500251 cycles: 8399310 heartbeat IPC: 4.24 cumulative IPC: 4.584 (Simulation time: 00 hr 02 min 27 sec)
Heartbeat CPU 0 instructions: 39000258 cycles: 8542124 heartbeat IPC: 3.501 cumulative IPC: 4.566 (Simulation time: 00 hr 02 min 29 sec)
Heartbeat CPU 0 instructions: 39500261 cycles: 8644717 heartbeat IPC: 4.874 cumulative IPC: 4.569 (Simulation time: 00 hr 02 min 31 sec)
Heartbeat CPU 0 instructions: 40000263 cycles: 8747346 heartbeat IPC: 4.872 cumulative IPC: 4.573 (Simulation time: 00 hr 02 min 32 sec)
Heartbeat CPU 0 instructions: 40500266 cycles: 8850182 heartbeat IPC: 4.862 cumulative IPC: 4.576 (Simulation time: 00 hr 02 min 34 sec)
Heartbeat CPU 0 instructions: 41000268 cycles: 8952974 heartbeat IPC: 4.864 cumulative IPC: 4.58 (Simulation time: 00 hr 02 min 36 sec)
Heartbeat CPU 0 instructions: 41500273 cycles: 9055659 heartbeat IPC: 4.869 cumulative IPC: 4.583 (Simulation time: 00 hr 02 min 37 sec)
Heartbeat CPU 0 instructions: 42000279 cycles: 9158219 heartbeat IPC: 4.875 cumulative IPC: 4.586 (Simulation time: 00 hr 02 min 39 sec)
Heartbeat CPU 0 instructions: 42500279 cycles: 9337303 heartbeat IPC: 2.792 cumulative IPC: 4.552 (Simulation time: 00 hr 02 min 41 sec)
Heartbeat CPU 0 instructions: 43000283 cycles: 9577088 heartbeat IPC: 2.085 cumulative IPC: 4.49 (Simulation time: 00 hr 02 min 44 sec)
Heartbeat CPU 0 instructions: 43500283 cycles: 9680032 heartbeat IPC: 4.857 cumulative IPC: 4.494 (Simulation time: 00 hr 02 min 46 sec)
Heartbeat CPU 0 instructions: 44000284 cycles: 9782870 heartbeat IPC: 4.862 cumulative IPC: 4.498 (Simulation time: 00 hr 02 min 48 sec)
Heartbeat CPU 0 instructions: 44500284 cycles: 9885489 heartbeat IPC: 4.872 cumulative IPC: 4.502 (Simulation time: 00 hr 02 min 49 sec)
Heartbeat CPU 0 instructions: 45000284 cycles: 9988334 heartbeat IPC: 4.862 cumulative IPC: 4.505 (Simulation time: 00 hr 02 min 51 sec)
Heartbeat CPU 0 instructions: 45500284 cycles: 10091074 heartbeat IPC: 4.867 cumulative IPC: 4.509 (Simulation time: 00 hr 02 min 52 sec)
Heartbeat CPU 0 instructions: 46000286 cycles: 10192694 heartbeat IPC: 4.92 cumulative IPC: 4.513 (Simulation time: 00 hr 02 min 54 sec)
Heartbeat CPU 0 instructions: 46500289 cycles: 10292695 heartbeat IPC: 5 cumulative IPC: 4.518 (Simulation time: 00 hr 02 min 56 sec)
Heartbeat CPU 0 instructions: 47000293 cycles: 10392697 heartbeat IPC: 5 cumulative IPC: 4.522 (Simulation time: 00 hr 02 min 57 sec)
Heartbeat CPU 0 instructions: 47500299 cycles: 10492698 heartbeat IPC: 5 cumulative IPC: 4.527 (Simulation time: 00 hr 02 min 59 sec)
Heartbeat CPU 0 instructions: 48000301 cycles: 10598623 heartbeat IPC: 4.72 cumulative IPC: 4.529 (Simulation time: 00 hr 03 min 01 sec)
Heartbeat CPU 0 instructions: 48500306 cycles: 10705522 heartbeat IPC: 4.677 cumulative IPC: 4.53 (Simulation time: 00 hr 03 min 03 sec)
Heartbeat CPU 0 instructions: 49000313 cycles: 10812728 heartbeat IPC: 4.664 cumulative IPC: 4.532 (Simulation time: 00 hr 03 min 05 sec)
Heartbeat CPU 0 instructions: 49500314 cycles: 10919508 heartbeat IPC: 4.683 cumulative IPC: 4.533 (Simulation time: 00 hr 03 min 07 sec)
Warmup halting CPU 0 at instruction 50000002 cycle 11026324 for remainder of phase
Warmup finished CPU 0 instructions: 50000002 cycles: 11026324 cumulative IPC: 4.535 (Simulation time: 00 hr 03 min 09 sec)
Warmup complete CPU 0 instructions: 50000002 cycles: 11026324 cumulative IPC: 4.535 (Simulation time: 00 hr 03 min 09 sec)
Heartbeat CPU 0 instructions: 50000319 cycles: 11026566 heartbeat IPC: 4.67 cumulative IPC: 1.31 (Simulation time: 00 hr 03 min 09 sec)
Heartbeat CPU 0 instructions: 50500326 cycles: 11356401 heartbeat IPC: 1.516 cumulative IPC: 1.516 (Simulation time: 00 hr 03 min 13 sec)
Heartbeat CPU 0 instructions: 51000330 cycles: 11676501 heartbeat IPC: 1.562 cumulative IPC: 1.539 (Simulation time: 00 hr 03 min 18 sec)
Heartbeat CPU 0 instructions: 51500332 cycles: 11996583 heartbeat IPC: 1.562 cumulative IPC: 1.546 (Simulation time: 00 hr 03 min 22 sec)
Heartbeat CPU 0 instructions: 52000337 cycles: 12417330 heartbeat IPC: 1.188 cumulative IPC: 1.438 (Simulation time: 00 hr 03 min 27 sec)
Heartbeat CPU 0 instructions: 52500342 cycles: 12689638 heartbeat IPC: 1.836 cumulative IPC: 1.503 (Simulation time: 00 hr 03 min 31 sec)
Heartbeat CPU 0 instructions: 53000342 cycles: 12948219 heartbeat IPC: 1.934 cumulative IPC: 1.561 (Simulation time: 00 hr 03 min 35 sec)
Heartbeat CPU 0 instructions: 53500345 cycles: 13209048 heartbeat IPC: 1.917 cumulative IPC: 1.604 (Simulation time: 00 hr 03 min 39 sec)
Heartbeat CPU 0 instructions: 54000347 cycles: 13467697 heartbeat IPC: 1.933 cumulative IPC: 1.639 (Simulation time: 00 hr 03 min 42 sec)
Heartbeat CPU 0 instructions: 54500354 cycles: 13740319 heartbeat IPC: 1.834 cumulative IPC: 1.658 (Simulation time: 00 hr 03 min 46 sec)
Heartbeat CPU 0 instructions: 55000359 cycles: 14008871 heartbeat IPC: 1.862 cumulative IPC: 1.677 (Simulation time: 00 hr 03 min 50 sec)
Heartbeat CPU 0 instructions: 55500361 cycles: 14284338 heartbeat IPC: 1.815 cumulative IPC: 1.688 (Simulation time: 00 hr 03 min 54 sec)
Heartbeat CPU 0 instructions: 56000364 cycles: 14659171 heartbeat IPC: 1.334 cumulative IPC: 1.652 (Simulation time: 00 hr 04 min 00 sec)
Heartbeat CPU 0 instructions: 56500370 cycles: 15245652 heartbeat IPC: 0.8526 cumulative IPC: 1.541 (Simulation time: 00 hr 04 min 07 sec)
Heartbeat CPU 0 instructions: 57000377 cycles: 15582006 heartbeat IPC: 1.487 cumulative IPC: 1.537 (Simulation time: 00 hr 04 min 11 sec)
Heartbeat CPU 0 instructions: 57500380 cycles: 15931577 heartbeat IPC: 1.43 cumulative IPC: 1.529 (Simulation time: 00 hr 04 min 16 sec)
Heartbeat CPU 0 instructions: 58000383 cycles: 16281868 heartbeat IPC: 1.427 cumulative IPC: 1.522 (Simulation time: 00 hr 04 min 21 sec)
Heartbeat CPU 0 instructions: 58500383 cycles: 16744475 heartbeat IPC: 1.081 cumulative IPC: 1.487 (Simulation time: 00 hr 04 min 27 sec)
Heartbeat CPU 0 instructions: 59000389 cycles: 17055857 heartbeat IPC: 1.606 cumulative IPC: 1.493 (Simulation time: 00 hr 04 min 31 sec)
Heartbeat CPU 0 instructions: 59500389 cycles: 17366878 heartbeat IPC: 1.608 cumulative IPC: 1.498 (Simulation time: 00 hr 04 min 35 sec)
Heartbeat CPU 0 instructions: 60000395 cycles: 17668420 heartbeat IPC: 1.658 cumulative IPC: 1.506 (Simulation time: 00 hr 04 min 39 sec)
Heartbeat CPU 0 instructions: 60500395 cycles: 17987765 heartbeat IPC: 1.566 cumulative IPC: 1.508 (Simulation time: 00 hr 04 min 44 sec)
Heartbeat CPU 0 instructions: 61000397 cycles: 18301237 heartbeat IPC: 1.595 cumulative IPC: 1.512 (Simulation time: 00 hr 04 min 48 sec)
Heartbeat CPU 0 instructions: 61500399 cycles: 18619835 heartbeat IPC: 1.569 cumulative IPC: 1.515 (Simulation time: 00 hr 04 min 52 sec)
Heartbeat CPU 0 instructions: 62000400 cycles: 18941277 heartbeat IPC: 1.555 cumulative IPC: 1.516 (Simulation time: 00 hr 04 min 56 sec)
Heartbeat CPU 0 instructions: 62500405 cycles: 19275149 heartbeat IPC: 1.498 cumulative IPC: 1.515 (Simulation time: 00 hr 05 min 01 sec)
Heartbeat CPU 0 instructions: 63000410 cycles: 19600799 heartbeat IPC: 1.535 cumulative IPC: 1.516 (Simulation time: 00 hr 05 min 05 sec)
Heartbeat CPU 0 instructions: 63500410 cycles: 19928552 heartbeat IPC: 1.526 cumulative IPC: 1.517 (Simulation time: 00 hr 05 min 10 sec)
Heartbeat CPU 0 instructions: 64000413 cycles: 20243268 heartbeat IPC: 1.589 cumulative IPC: 1.519 (Simulation time: 00 hr 05 min 14 sec)
Heartbeat CPU 0 instructions: 64500420 cycles: 20573281 heartbeat IPC: 1.515 cumulative IPC: 1.519 (Simulation time: 00 hr 05 min 18 sec)
Heartbeat CPU 0 instructions: 65000421 cycles: 20902694 heartbeat IPC: 1.518 cumulative IPC: 1.519 (Simulation time: 00 hr 05 min 23 sec)
Heartbeat CPU 0 instructions: 65500421 cycles: 21225910 heartbeat IPC: 1.547 cumulative IPC: 1.52 (Simulation time: 00 hr 05 min 27 sec)
Heartbeat CPU 0 instructions: 66000426 cycles: 21546723 heartbeat IPC: 1.559 cumulative IPC: 1.521 (Simulation time: 00 hr 05 min 31 sec)
Heartbeat CPU 0 instructions: 66500428 cycles: 22099052 heartbeat IPC: 0.9053 cumulative IPC: 1.49 (Simulation time: 00 hr 05 min 37 sec)
Heartbeat CPU 0 instructions: 67000435 cycles: 22940625 heartbeat IPC: 0.5941 cumulative IPC: 1.427 (Simulation time: 00 hr 05 min 47 sec)
Heartbeat CPU 0 instructions: 67500438 cycles: 23759577 heartbeat IPC: 0.6105 cumulative IPC: 1.374 (Simulation time: 00 hr 05 min 57 sec)
Heartbeat CPU 0 instructions: 68000438 cycles: 24465331 heartbeat IPC: 0.7085 cumulative IPC: 1.339 (Simulation time: 00 hr 06 min 05 sec)
Heartbeat CPU 0 instructions: 68500438 cycles: 25167596 heartbeat IPC: 0.712 cumulative IPC: 1.308 (Simulation time: 00 hr 06 min 14 sec)
Heartbeat CPU 0 instructions: 69000440 cycles: 25837107 heartbeat IPC: 0.7468 cumulative IPC: 1.283 (Simulation time: 00 hr 06 min 22 sec)
Heartbeat CPU 0 instructions: 69500440 cycles: 26296915 heartbeat IPC: 1.087 cumulative IPC: 1.277 (Simulation time: 00 hr 06 min 28 sec)
Heartbeat CPU 0 instructions: 70000440 cycles: 26581697 heartbeat IPC: 1.756 cumulative IPC: 1.286 (Simulation time: 00 hr 06 min 32 sec)
Heartbeat CPU 0 instructions: 70500440 cycles: 26883269 heartbeat IPC: 1.658 cumulative IPC: 1.293 (Simulation time: 00 hr 06 min 36 sec)
Heartbeat CPU 0 instructions: 71000443 cycles: 27196171 heartbeat IPC: 1.598 cumulative IPC: 1.299 (Simulation time: 00 hr 06 min 40 sec)
Heartbeat CPU 0 instructions: 71500450 cycles: 27499933 heartbeat IPC: 1.646 cumulative IPC: 1.305 (Simulation time: 00 hr 06 min 44 sec)
Heartbeat CPU 0 instructions: 72000451 cycles: 27805337 heartbeat IPC: 1.637 cumulative IPC: 1.311 (Simulation time: 00 hr 06 min 48 sec)
Heartbeat CPU 0 instructions: 72500457 cycles: 28092966 heartbeat IPC: 1.738 cumulative IPC: 1.318 (Simulation time: 00 hr 06 min 52 sec)
Heartbeat CPU 0 instructions: 73000461 cycles: 28357608 heartbeat IPC: 1.889 cumulative IPC: 1.327 (Simulation time: 00 hr 06 min 55 sec)
Heartbeat CPU 0 instructions: 73500468 cycles: 28612160 heartbeat IPC: 1.964 cumulative IPC: 1.336 (Simulation time: 00 hr 06 min 59 sec)
Heartbeat CPU 0 instructions: 74000470 cycles: 28868539 heartbeat IPC: 1.95 cumulative IPC: 1.345 (Simulation time: 00 hr 07 min 02 sec)
Heartbeat CPU 0 instructions: 74500476 cycles: 29177255 heartbeat IPC: 1.62 cumulative IPC: 1.35 (Simulation time: 00 hr 07 min 06 sec)
Heartbeat CPU 0 instructions: 75000478 cycles: 29493905 heartbeat IPC: 1.579 cumulative IPC: 1.354 (Simulation time: 00 hr 07 min 10 sec)
Heartbeat CPU 0 instructions: 75500485 cycles: 29795496 heartbeat IPC: 1.658 cumulative IPC: 1.359 (Simulation time: 00 hr 07 min 14 sec)
Heartbeat CPU 0 instructions: 76000490 cycles: 30111450 heartbeat IPC: 1.583 cumulative IPC: 1.362 (Simulation time: 00 hr 07 min 18 sec)
Heartbeat CPU 0 instructions: 76500491 cycles: 30435871 heartbeat IPC: 1.541 cumulative IPC: 1.365 (Simulation time: 00 hr 07 min 22 sec)
Heartbeat CPU 0 instructions: 77000494 cycles: 30753542 heartbeat IPC: 1.574 cumulative IPC: 1.369 (Simulation time: 00 hr 07 min 26 sec)
Heartbeat CPU 0 instructions: 77500494 cycles: 31066891 heartbeat IPC: 1.596 cumulative IPC: 1.372 (Simulation time: 00 hr 07 min 30 sec)
Heartbeat CPU 0 instructions: 78000494 cycles: 31383884 heartbeat IPC: 1.577 cumulative IPC: 1.375 (Simulation time: 00 hr 07 min 34 sec)
Heartbeat CPU 0 instructions: 78500494 cycles: 31837628 heartbeat IPC: 1.102 cumulative IPC: 1.369 (Simulation time: 00 hr 07 min 39 sec)
Heartbeat CPU 0 instructions: 79000500 cycles: 32096940 heartbeat IPC: 1.928 cumulative IPC: 1.376 (Simulation time: 00 hr 07 min 43 sec)
Heartbeat CPU 0 instructions: 79500505 cycles: 32351428 heartbeat IPC: 1.965 cumulative IPC: 1.383 (Simulation time: 00 hr 07 min 47 sec)
Heartbeat CPU 0 instructions: 80000505 cycles: 32611358 heartbeat IPC: 1.924 cumulative IPC: 1.39 (Simulation time: 00 hr 07 min 50 sec)
Heartbeat CPU 0 instructions: 80500510 cycles: 32872248 heartbeat IPC: 1.917 cumulative IPC: 1.396 (Simulation time: 00 hr 07 min 54 sec)
Heartbeat CPU 0 instructions: 81000511 cycles: 33133177 heartbeat IPC: 1.916 cumulative IPC: 1.402 (Simulation time: 00 hr 07 min 58 sec)
Heartbeat CPU 0 instructions: 81500514 cycles: 33394437 heartbeat IPC: 1.914 cumulative IPC: 1.408 (Simulation time: 00 hr 08 min 02 sec)
Heartbeat CPU 0 instructions: 82000514 cycles: 33671119 heartbeat IPC: 1.807 cumulative IPC: 1.413 (Simulation time: 00 hr 08 min 06 sec)
Heartbeat CPU 0 instructions: 82500518 cycles: 33952117 heartbeat IPC: 1.779 cumulative IPC: 1.418 (Simulation time: 00 hr 08 min 10 sec)
Heartbeat CPU 0 instructions: 83000525 cycles: 34584093 heartbeat IPC: 0.7912 cumulative IPC: 1.401 (Simulation time: 00 hr 08 min 17 sec)
Heartbeat CPU 0 instructions: 83500529 cycles: 34907202 heartbeat IPC: 1.547 cumulative IPC: 1.403 (Simulation time: 00 hr 08 min 21 sec)
Heartbeat CPU 0 instructions: 84000531 cycles: 35260151 heartbeat IPC: 1.417 cumulative IPC: 1.403 (Simulation time: 00 hr 08 min 26 sec)
Heartbeat CPU 0 instructions: 84500536 cycles: 35600875 heartbeat IPC: 1.467 cumulative IPC: 1.404 (Simulation time: 00 hr 08 min 31 sec)
Heartbeat CPU 0 instructions: 85000543 cycles: 36046646 heartbeat IPC: 1.122 cumulative IPC: 1.399 (Simulation time: 00 hr 08 min 36 sec)
Heartbeat CPU 0 instructions: 85500547 cycles: 36364553 heartbeat IPC: 1.573 cumulative IPC: 1.401 (Simulation time: 00 hr 08 min 40 sec)
Heartbeat CPU 0 instructions: 86000551 cycles: 36674099 heartbeat IPC: 1.615 cumulative IPC: 1.404 (Simulation time: 00 hr 08 min 44 sec)
Heartbeat CPU 0 instructions: 86500552 cycles: 36974389 heartbeat IPC: 1.665 cumulative IPC: 1.407 (Simulation time: 00 hr 08 min 48 sec)
Heartbeat CPU 0 instructions: 87000555 cycles: 37288746 heartbeat IPC: 1.591 cumulative IPC: 1.409 (Simulation time: 00 hr 08 min 52 sec)
Heartbeat CPU 0 instructions: 87500562 cycles: 37604129 heartbeat IPC: 1.585 cumulative IPC: 1.411 (Simulation time: 00 hr 08 min 56 sec)
Heartbeat CPU 0 instructions: 88000569 cycles: 37923896 heartbeat IPC: 1.564 cumulative IPC: 1.413 (Simulation time: 00 hr 09 min 01 sec)
Heartbeat CPU 0 instructions: 88500576 cycles: 38245740 heartbeat IPC: 1.554 cumulative IPC: 1.414 (Simulation time: 00 hr 09 min 05 sec)
Heartbeat CPU 0 instructions: 89000579 cycles: 38576213 heartbeat IPC: 1.513 cumulative IPC: 1.416 (Simulation time: 00 hr 09 min 09 sec)
Heartbeat CPU 0 instructions: 89500580 cycles: 38897563 heartbeat IPC: 1.556 cumulative IPC: 1.417 (Simulation time: 00 hr 09 min 13 sec)
Heartbeat CPU 0 instructions: 90000583 cycles: 39228875 heartbeat IPC: 1.509 cumulative IPC: 1.418 (Simulation time: 00 hr 09 min 17 sec)
Heartbeat CPU 0 instructions: 90500590 cycles: 39560574 heartbeat IPC: 1.507 cumulative IPC: 1.419 (Simulation time: 00 hr 09 min 22 sec)
Heartbeat CPU 0 instructions: 91000597 cycles: 39890007 heartbeat IPC: 1.518 cumulative IPC: 1.42 (Simulation time: 00 hr 09 min 26 sec)
Heartbeat CPU 0 instructions: 91500601 cycles: 40219536 heartbeat IPC: 1.517 cumulative IPC: 1.422 (Simulation time: 00 hr 09 min 30 sec)
Heartbeat CPU 0 instructions: 92000602 cycles: 40540507 heartbeat IPC: 1.558 cumulative IPC: 1.423 (Simulation time: 00 hr 09 min 34 sec)
Heartbeat CPU 0 instructions: 92500602 cycles: 40866095 heartbeat IPC: 1.536 cumulative IPC: 1.424 (Simulation time: 00 hr 09 min 39 sec)
Heartbeat CPU 0 instructions: 93000607 cycles: 41227734 heartbeat IPC: 1.383 cumulative IPC: 1.424 (Simulation time: 00 hr 09 min 43 sec)
Heartbeat CPU 0 instructions: 93500608 cycles: 42059039 heartbeat IPC: 0.6015 cumulative IPC: 1.402 (Simulation time: 00 hr 09 min 52 sec)
Heartbeat CPU 0 instructions: 94000615 cycles: 42839227 heartbeat IPC: 0.6409 cumulative IPC: 1.383 (Simulation time: 00 hr 10 min 01 sec)
Heartbeat CPU 0 instructions: 94500615 cycles: 43476983 heartbeat IPC: 0.784 cumulative IPC: 1.371 (Simulation time: 00 hr 10 min 09 sec)
Heartbeat CPU 0 instructions: 95000622 cycles: 44014581 heartbeat IPC: 0.9301 cumulative IPC: 1.364 (Simulation time: 00 hr 10 min 16 sec)
Heartbeat CPU 0 instructions: 95500622 cycles: 44713393 heartbeat IPC: 0.7155 cumulative IPC: 1.351 (Simulation time: 00 hr 10 min 24 sec)
Heartbeat CPU 0 instructions: 96000624 cycles: 45362586 heartbeat IPC: 0.7702 cumulative IPC: 1.34 (Simulation time: 00 hr 10 min 32 sec)
Heartbeat CPU 0 instructions: 96500626 cycles: 46094664 heartbeat IPC: 0.683 cumulative IPC: 1.326 (Simulation time: 00 hr 10 min 41 sec)
Heartbeat CPU 0 instructions: 97000630 cycles: 46628115 heartbeat IPC: 0.9373 cumulative IPC: 1.32 (Simulation time: 00 hr 10 min 48 sec)
Heartbeat CPU 0 instructions: 97500637 cycles: 47083059 heartbeat IPC: 1.099 cumulative IPC: 1.317 (Simulation time: 00 hr 10 min 54 sec)
Heartbeat CPU 0 instructions: 98000639 cycles: 47606842 heartbeat IPC: 0.9546 cumulative IPC: 1.312 (Simulation time: 00 hr 11 min 00 sec)
Heartbeat CPU 0 instructions: 98500644 cycles: 48186990 heartbeat IPC: 0.8619 cumulative IPC: 1.305 (Simulation time: 00 hr 11 min 06 sec)
Heartbeat CPU 0 instructions: 99000651 cycles: 49142600 heartbeat IPC: 0.5232 cumulative IPC: 1.286 (Simulation time: 00 hr 11 min 17 sec)
Heartbeat CPU 0 instructions: 99500652 cycles: 49990219 heartbeat IPC: 0.5899 cumulative IPC: 1.27 (Simulation time: 00 hr 11 min 27 sec)
Heartbeat CPU 0 instructions: 100000655 cycles: 50814888 heartbeat IPC: 0.6063 cumulative IPC: 1.257 (Simulation time: 00 hr 11 min 35 sec)
Heartbeat CPU 0 instructions: 100500655 cycles: 51239501 heartbeat IPC: 1.178 cumulative IPC: 1.256 (Simulation time: 00 hr 11 min 40 sec)
Heartbeat CPU 0 instructions: 101000656 cycles: 51406416 heartbeat IPC: 2.996 cumulative IPC: 1.263 (Simulation time: 00 hr 11 min 42 sec)
Heartbeat CPU 0 instructions: 101500656 cycles: 51571991 heartbeat IPC: 3.02 cumulative IPC: 1.27 (Simulation time: 00 hr 11 min 45 sec)
Heartbeat CPU 0 instructions: 102000659 cycles: 51747297 heartbeat IPC: 2.852 cumulative IPC: 1.277 (Simulation time: 00 hr 11 min 48 sec)
Heartbeat CPU 0 instructions: 102500664 cycles: 51924724 heartbeat IPC: 2.818 cumulative IPC: 1.284 (Simulation time: 00 hr 11 min 50 sec)
Heartbeat CPU 0 instructions: 103000664 cycles: 52097989 heartbeat IPC: 2.886 cumulative IPC: 1.29 (Simulation time: 00 hr 11 min 53 sec)
Heartbeat CPU 0 instructions: 103500667 cycles: 52277247 heartbeat IPC: 2.789 cumulative IPC: 1.297 (Simulation time: 00 hr 11 min 56 sec)
Heartbeat CPU 0 instructions: 104000673 cycles: 52447711 heartbeat IPC: 2.933 cumulative IPC: 1.304 (Simulation time: 00 hr 11 min 59 sec)
Heartbeat CPU 0 instructions: 104500674 cycles: 52628267 heartbeat IPC: 2.769 cumulative IPC: 1.31 (Simulation time: 00 hr 12 min 01 sec)
Heartbeat CPU 0 instructions: 105000679 cycles: 52814483 heartbeat IPC: 2.685 cumulative IPC: 1.316 (Simulation time: 00 hr 12 min 04 sec)
Heartbeat CPU 0 instructions: 105500679 cycles: 52991480 heartbeat IPC: 2.825 cumulative IPC: 1.323 (Simulation time: 00 hr 12 min 07 sec)
Heartbeat CPU 0 instructions: 106000686 cycles: 53127969 heartbeat IPC: 3.663 cumulative IPC: 1.33 (Simulation time: 00 hr 12 min 09 sec)
Heartbeat CPU 0 instructions: 106500691 cycles: 53261426 heartbeat IPC: 3.747 cumulative IPC: 1.338 (Simulation time: 00 hr 12 min 11 sec)
Heartbeat CPU 0 instructions: 107000697 cycles: 53399239 heartbeat IPC: 3.628 cumulative IPC: 1.345 (Simulation time: 00 hr 12 min 13 sec)
Heartbeat CPU 0 instructions: 107500702 cycles: 53531025 heartbeat IPC: 3.794 cumulative IPC: 1.353 (Simulation time: 00 hr 12 min 15 sec)
Heartbeat CPU 0 instructions: 108000705 cycles: 53668697 heartbeat IPC: 3.632 cumulative IPC: 1.36 (Simulation time: 00 hr 12 min 18 sec)
Heartbeat CPU 0 instructions: 108500712 cycles: 53801569 heartbeat IPC: 3.763 cumulative IPC: 1.368 (Simulation time: 00 hr 12 min 20 sec)
Heartbeat CPU 0 instructions: 109000713 cycles: 53938492 heartbeat IPC: 3.652 cumulative IPC: 1.375 (Simulation time: 00 hr 12 min 22 sec)
Heartbeat CPU 0 instructions: 109500715 cycles: 54070333 heartbeat IPC: 3.792 cumulative IPC: 1.382 (Simulation time: 00 hr 12 min 24 sec)
Heartbeat CPU 0 instructions: 110000721 cycles: 54204212 heartbeat IPC: 3.735 cumulative IPC: 1.39 (Simulation time: 00 hr 12 min 26 sec)
Heartbeat CPU 0 instructions: 110500721 cycles: 54341548 heartbeat IPC: 3.641 cumulative IPC: 1.397 (Simulation time: 00 hr 12 min 28 sec)
Heartbeat CPU 0 instructions: 111000723 cycles: 54493836 heartbeat IPC: 3.283 cumulative IPC: 1.403 (Simulation time: 00 hr 12 min 30 sec)
Heartbeat CPU 0 instructions: 111500726 cycles: 54636099 heartbeat IPC: 3.515 cumulative IPC: 1.41 (Simulation time: 00 hr 12 min 33 sec)
Heartbeat CPU 0 instructions: 112000729 cycles: 54777307 heartbeat IPC: 3.541 cumulative IPC: 1.417 (Simulation time: 00 hr 12 min 35 sec)
Heartbeat CPU 0 instructions: 112500730 cycles: 54911654 heartbeat IPC: 3.722 cumulative IPC: 1.424 (Simulation time: 00 hr 12 min 37 sec)
Heartbeat CPU 0 instructions: 113000735 cycles: 55051883 heartbeat IPC: 3.566 cumulative IPC: 1.431 (Simulation time: 00 hr 12 min 39 sec)
Heartbeat CPU 0 instructions: 113500740 cycles: 55192985 heartbeat IPC: 3.544 cumulative IPC: 1.438 (Simulation time: 00 hr 12 min 41 sec)
Heartbeat CPU 0 instructions: 114000743 cycles: 55334533 heartbeat IPC: 3.532 cumulative IPC: 1.444 (Simulation time: 00 hr 12 min 43 sec)
Heartbeat CPU 0 instructions: 114500746 cycles: 55469789 heartbeat IPC: 3.697 cumulative IPC: 1.451 (Simulation time: 00 hr 12 min 45 sec)
Heartbeat CPU 0 instructions: 115000746 cycles: 55635177 heartbeat IPC: 3.023 cumulative IPC: 1.457 (Simulation time: 00 hr 12 min 48 sec)
Heartbeat CPU 0 instructions: 115500752 cycles: 55929025 heartbeat IPC: 1.702 cumulative IPC: 1.459 (Simulation time: 00 hr 12 min 51 sec)
Heartbeat CPU 0 instructions: 116000753 cycles: 56074923 heartbeat IPC: 3.427 cumulative IPC: 1.465 (Simulation time: 00 hr 12 min 53 sec)
Heartbeat CPU 0 instructions: 116500753 cycles: 56482754 heartbeat IPC: 1.226 cumulative IPC: 1.463 (Simulation time: 00 hr 12 min 58 sec)
Heartbeat CPU 0 instructions: 117000753 cycles: 57009917 heartbeat IPC: 0.9485 cumulative IPC: 1.457 (Simulation time: 00 hr 13 min 04 sec)
Heartbeat CPU 0 instructions: 117500757 cycles: 57443491 heartbeat IPC: 1.153 cumulative IPC: 1.454 (Simulation time: 00 hr 13 min 09 sec)
Heartbeat CPU 0 instructions: 118000764 cycles: 57611185 heartbeat IPC: 2.982 cumulative IPC: 1.46 (Simulation time: 00 hr 13 min 11 sec)
Heartbeat CPU 0 instructions: 118500770 cycles: 57780002 heartbeat IPC: 2.962 cumulative IPC: 1.465 (Simulation time: 00 hr 13 min 14 sec)
Heartbeat CPU 0 instructions: 119000771 cycles: 57941792 heartbeat IPC: 3.09 cumulative IPC: 1.471 (Simulation time: 00 hr 13 min 16 sec)
Heartbeat CPU 0 instructions: 119500772 cycles: 58109006 heartbeat IPC: 2.99 cumulative IPC: 1.476 (Simulation time: 00 hr 13 min 19 sec)
Heartbeat CPU 0 instructions: 120000776 cycles: 58279652 heartbeat IPC: 2.93 cumulative IPC: 1.481 (Simulation time: 00 hr 13 min 21 sec)
Heartbeat CPU 0 instructions: 120500781 cycles: 58442767 heartbeat IPC: 3.065 cumulative IPC: 1.487 (Simulation time: 00 hr 13 min 24 sec)
Heartbeat CPU 0 instructions: 121000781 cycles: 58615265 heartbeat IPC: 2.899 cumulative IPC: 1.492 (Simulation time: 00 hr 13 min 26 sec)
Heartbeat CPU 0 instructions: 121500786 cycles: 58782128 heartbeat IPC: 2.997 cumulative IPC: 1.497 (Simulation time: 00 hr 13 min 29 sec)
Heartbeat CPU 0 instructions: 122000788 cycles: 58950078 heartbeat IPC: 2.977 cumulative IPC: 1.502 (Simulation time: 00 hr 13 min 31 sec)
Heartbeat CPU 0 instructions: 122500795 cycles: 59117487 heartbeat IPC: 2.987 cumulative IPC: 1.508 (Simulation time: 00 hr 13 min 34 sec)
Heartbeat CPU 0 instructions: 123000800 cycles: 59258939 heartbeat IPC: 3.535 cumulative IPC: 1.514 (Simulation time: 00 hr 13 min 36 sec)
Heartbeat CPU 0 instructions: 123500805 cycles: 59389972 heartbeat IPC: 3.816 cumulative IPC: 1.52 (Simulation time: 00 hr 13 min 38 sec)
Heartbeat CPU 0 instructions: 124000805 cycles: 59521177 heartbeat IPC: 3.811 cumulative IPC: 1.526 (Simulation time: 00 hr 13 min 40 sec)
Heartbeat CPU 0 instructions: 124500807 cycles: 59653488 heartbeat IPC: 3.779 cumulative IPC: 1.532 (Simulation time: 00 hr 13 min 42 sec)
Heartbeat CPU 0 instructions: 125000807 cycles: 59786380 heartbeat IPC: 3.762 cumulative IPC: 1.538 (Simulation time: 00 hr 13 min 44 sec)
Heartbeat CPU 0 instructions: 125500808 cycles: 59915459 heartbeat IPC: 3.874 cumulative IPC: 1.544 (Simulation time: 00 hr 13 min 46 sec)
Heartbeat CPU 0 instructions: 126000814 cycles: 60051630 heartbeat IPC: 3.672 cumulative IPC: 1.55 (Simulation time: 00 hr 13 min 48 sec)
Heartbeat CPU 0 instructions: 126500814 cycles: 60189440 heartbeat IPC: 3.628 cumulative IPC: 1.556 (Simulation time: 00 hr 13 min 50 sec)
Heartbeat CPU 0 instructions: 127000815 cycles: 60320183 heartbeat IPC: 3.824 cumulative IPC: 1.562 (Simulation time: 00 hr 13 min 52 sec)
Heartbeat CPU 0 instructions: 127500820 cycles: 60450260 heartbeat IPC: 3.844 cumulative IPC: 1.568 (Simulation time: 00 hr 13 min 54 sec)
Heartbeat CPU 0 instructions: 128000824 cycles: 60593832 heartbeat IPC: 3.483 cumulative IPC: 1.574 (Simulation time: 00 hr 13 min 56 sec)
Heartbeat CPU 0 instructions: 128500829 cycles: 60729921 heartbeat IPC: 3.674 cumulative IPC: 1.579 (Simulation time: 00 hr 13 min 58 sec)
Heartbeat CPU 0 instructions: 129000834 cycles: 60869374 heartbeat IPC: 3.585 cumulative IPC: 1.585 (Simulation time: 00 hr 14 min 01 sec)
Heartbeat CPU 0 instructions: 129500834 cycles: 61004693 heartbeat IPC: 3.695 cumulative IPC: 1.591 (Simulation time: 00 hr 14 min 03 sec)
Heartbeat CPU 0 instructions: 130000834 cycles: 61140464 heartbeat IPC: 3.683 cumulative IPC: 1.596 (Simulation time: 00 hr 14 min 05 sec)
Heartbeat CPU 0 instructions: 130500837 cycles: 61275923 heartbeat IPC: 3.691 cumulative IPC: 1.602 (Simulation time: 00 hr 14 min 07 sec)
Heartbeat CPU 0 instructions: 131000844 cycles: 61410537 heartbeat IPC: 3.714 cumulative IPC: 1.608 (Simulation time: 00 hr 14 min 09 sec)
Heartbeat CPU 0 instructions: 131500845 cycles: 61545228 heartbeat IPC: 3.712 cumulative IPC: 1.613 (Simulation time: 00 hr 14 min 11 sec)
Heartbeat CPU 0 instructions: 132000848 cycles: 61677098 heartbeat IPC: 3.792 cumulative IPC: 1.619 (Simulation time: 00 hr 14 min 13 sec)
Heartbeat CPU 0 instructions: 132500851 cycles: 61854520 heartbeat IPC: 2.818 cumulative IPC: 1.623 (Simulation time: 00 hr 14 min 15 sec)
Heartbeat CPU 0 instructions: 133000858 cycles: 62126596 heartbeat IPC: 1.838 cumulative IPC: 1.624 (Simulation time: 00 hr 14 min 18 sec)
Heartbeat CPU 0 instructions: 133500864 cycles: 62515487 heartbeat IPC: 1.286 cumulative IPC: 1.622 (Simulation time: 00 hr 14 min 22 sec)
Heartbeat CPU 0 instructions: 134000865 cycles: 62924506 heartbeat IPC: 1.222 cumulative IPC: 1.619 (Simulation time: 00 hr 14 min 27 sec)
Heartbeat CPU 0 instructions: 134500868 cycles: 63183242 heartbeat IPC: 1.932 cumulative IPC: 1.62 (Simulation time: 00 hr 14 min 30 sec)
Heartbeat CPU 0 instructions: 135000875 cycles: 63355912 heartbeat IPC: 2.896 cumulative IPC: 1.624 (Simulation time: 00 hr 14 min 32 sec)
Heartbeat CPU 0 instructions: 135500879 cycles: 63516263 heartbeat IPC: 3.118 cumulative IPC: 1.629 (Simulation time: 00 hr 14 min 35 sec)
Heartbeat CPU 0 instructions: 136000882 cycles: 63681718 heartbeat IPC: 3.022 cumulative IPC: 1.633 (Simulation time: 00 hr 14 min 37 sec)
Heartbeat CPU 0 instructions: 136500887 cycles: 63847648 heartbeat IPC: 3.013 cumulative IPC: 1.638 (Simulation time: 00 hr 14 min 40 sec)
Heartbeat CPU 0 instructions: 137000889 cycles: 64016172 heartbeat IPC: 2.967 cumulative IPC: 1.642 (Simulation time: 00 hr 14 min 42 sec)
Heartbeat CPU 0 instructions: 137500890 cycles: 64183151 heartbeat IPC: 2.994 cumulative IPC: 1.646 (Simulation time: 00 hr 14 min 45 sec)
Heartbeat CPU 0 instructions: 138000890 cycles: 64346879 heartbeat IPC: 3.054 cumulative IPC: 1.65 (Simulation time: 00 hr 14 min 47 sec)
Heartbeat CPU 0 instructions: 138500893 cycles: 64516492 heartbeat IPC: 2.948 cumulative IPC: 1.655 (Simulation time: 00 hr 14 min 50 sec)
Heartbeat CPU 0 instructions: 139000896 cycles: 64691477 heartbeat IPC: 2.857 cumulative IPC: 1.658 (Simulation time: 00 hr 14 min 52 sec)
Heartbeat CPU 0 instructions: 139500903 cycles: 64859020 heartbeat IPC: 2.984 cumulative IPC: 1.663 (Simulation time: 00 hr 14 min 55 sec)
Heartbeat CPU 0 instructions: 140000907 cycles: 64992249 heartbeat IPC: 3.753 cumulative IPC: 1.668 (Simulation time: 00 hr 14 min 57 sec)
Heartbeat CPU 0 instructions: 140500914 cycles: 65127800 heartbeat IPC: 3.689 cumulative IPC: 1.673 (Simulation time: 00 hr 14 min 59 sec)
Heartbeat CPU 0 instructions: 141000918 cycles: 65263837 heartbeat IPC: 3.676 cumulative IPC: 1.678 (Simulation time: 00 hr 15 min 01 sec)
Heartbeat CPU 0 instructions: 141500924 cycles: 65399043 heartbeat IPC: 3.698 cumulative IPC: 1.683 (Simulation time: 00 hr 15 min 03 sec)
Heartbeat CPU 0 instructions: 142000925 cycles: 65534832 heartbeat IPC: 3.682 cumulative IPC: 1.688 (Simulation time: 00 hr 15 min 05 sec)
Heartbeat CPU 0 instructions: 142500931 cycles: 65670980 heartbeat IPC: 3.673 cumulative IPC: 1.693 (Simulation time: 00 hr 15 min 07 sec)
Heartbeat CPU 0 instructions: 143000933 cycles: 65803399 heartbeat IPC: 3.776 cumulative IPC: 1.698 (Simulation time: 00 hr 15 min 09 sec)
Heartbeat CPU 0 instructions: 143500939 cycles: 65942322 heartbeat IPC: 3.599 cumulative IPC: 1.703 (Simulation time: 00 hr 15 min 11 sec)
Heartbeat CPU 0 instructions: 144000941 cycles: 66079324 heartbeat IPC: 3.65 cumulative IPC: 1.707 (Simulation time: 00 hr 15 min 13 sec)
Heartbeat CPU 0 instructions: 144500947 cycles: 66219985 heartbeat IPC: 3.555 cumulative IPC: 1.712 (Simulation time: 00 hr 15 min 15 sec)
Heartbeat CPU 0 instructions: 145000952 cycles: 66362838 heartbeat IPC: 3.5 cumulative IPC: 1.717 (Simulation time: 00 hr 15 min 17 sec)
Heartbeat CPU 0 instructions: 145500954 cycles: 66498790 heartbeat IPC: 3.678 cumulative IPC: 1.722 (Simulation time: 00 hr 15 min 19 sec)
Heartbeat CPU 0 instructions: 146000955 cycles: 66638608 heartbeat IPC: 3.576 cumulative IPC: 1.726 (Simulation time: 00 hr 15 min 21 sec)
Heartbeat CPU 0 instructions: 146500956 cycles: 66778814 heartbeat IPC: 3.566 cumulative IPC: 1.731 (Simulation time: 00 hr 15 min 23 sec)
Heartbeat CPU 0 instructions: 147000956 cycles: 66911024 heartbeat IPC: 3.782 cumulative IPC: 1.736 (Simulation time: 00 hr 15 min 25 sec)
Heartbeat CPU 0 instructions: 147500963 cycles: 67047861 heartbeat IPC: 3.654 cumulative IPC: 1.74 (Simulation time: 00 hr 15 min 27 sec)
Heartbeat CPU 0 instructions: 148000970 cycles: 67185131 heartbeat IPC: 3.643 cumulative IPC: 1.745 (Simulation time: 00 hr 15 min 29 sec)
Heartbeat CPU 0 instructions: 148500970 cycles: 67316528 heartbeat IPC: 3.805 cumulative IPC: 1.75 (Simulation time: 00 hr 15 min 31 sec)
Heartbeat CPU 0 instructions: 149000973 cycles: 67485867 heartbeat IPC: 2.953 cumulative IPC: 1.753 (Simulation time: 00 hr 15 min 34 sec)
Heartbeat CPU 0 instructions: 149500976 cycles: 67631753 heartbeat IPC: 3.427 cumulative IPC: 1.758 (Simulation time: 00 hr 15 min 36 sec)
Heartbeat CPU 0 instructions: 150000981 cycles: 67981439 heartbeat IPC: 1.43 cumulative IPC: 1.756 (Simulation time: 00 hr 15 min 39 sec)
Heartbeat CPU 0 instructions: 150500988 cycles: 68377816 heartbeat IPC: 1.261 cumulative IPC: 1.752 (Simulation time: 00 hr 15 min 44 sec)
Heartbeat CPU 0 instructions: 151000989 cycles: 68789803 heartbeat IPC: 1.214 cumulative IPC: 1.749 (Simulation time: 00 hr 15 min 48 sec)
Heartbeat CPU 0 instructions: 151500991 cycles: 68970052 heartbeat IPC: 2.774 cumulative IPC: 1.752 (Simulation time: 00 hr 15 min 51 sec)
Heartbeat CPU 0 instructions: 152000996 cycles: 69135936 heartbeat IPC: 3.014 cumulative IPC: 1.755 (Simulation time: 00 hr 15 min 53 sec)
Heartbeat CPU 0 instructions: 152500999 cycles: 69297271 heartbeat IPC: 3.099 cumulative IPC: 1.759 (Simulation time: 00 hr 15 min 56 sec)
Heartbeat CPU 0 instructions: 153001003 cycles: 69460314 heartbeat IPC: 3.067 cumulative IPC: 1.763 (Simulation time: 00 hr 15 min 58 sec)
Heartbeat CPU 0 instructions: 153501008 cycles: 69623482 heartbeat IPC: 3.064 cumulative IPC: 1.766 (Simulation time: 00 hr 16 min 00 sec)
Heartbeat CPU 0 instructions: 154001012 cycles: 69787583 heartbeat IPC: 3.047 cumulative IPC: 1.77 (Simulation time: 00 hr 16 min 03 sec)
Heartbeat CPU 0 instructions: 154501017 cycles: 69944046 heartbeat IPC: 3.196 cumulative IPC: 1.774 (Simulation time: 00 hr 16 min 05 sec)
Heartbeat CPU 0 instructions: 155001017 cycles: 70108471 heartbeat IPC: 3.041 cumulative IPC: 1.777 (Simulation time: 00 hr 16 min 07 sec)
Heartbeat CPU 0 instructions: 155501022 cycles: 70273241 heartbeat IPC: 3.035 cumulative IPC: 1.781 (Simulation time: 00 hr 16 min 10 sec)
Heartbeat CPU 0 instructions: 156001023 cycles: 70434788 heartbeat IPC: 3.095 cumulative IPC: 1.784 (Simulation time: 00 hr 16 min 12 sec)
Heartbeat CPU 0 instructions: 156501023 cycles: 70579309 heartbeat IPC: 3.46 cumulative IPC: 1.788 (Simulation time: 00 hr 16 min 14 sec)
Heartbeat CPU 0 instructions: 157001025 cycles: 70713574 heartbeat IPC: 3.724 cumulative IPC: 1.793 (Simulation time: 00 hr 16 min 16 sec)
Heartbeat CPU 0 instructions: 157501029 cycles: 70845467 heartbeat IPC: 3.791 cumulative IPC: 1.797 (Simulation time: 00 hr 16 min 18 sec)
Heartbeat CPU 0 instructions: 158001035 cycles: 70974961 heartbeat IPC: 3.861 cumulative IPC: 1.802 (Simulation time: 00 hr 16 min 20 sec)
Heartbeat CPU 0 instructions: 158501040 cycles: 71110285 heartbeat IPC: 3.695 cumulative IPC: 1.806 (Simulation time: 00 hr 16 min 22 sec)
Heartbeat CPU 0 instructions: 159001046 cycles: 71242581 heartbeat IPC: 3.779 cumulative IPC: 1.81 (Simulation time: 00 hr 16 min 24 sec)
Heartbeat CPU 0 instructions: 159501052 cycles: 71374716 heartbeat IPC: 3.784 cumulative IPC: 1.814 (Simulation time: 00 hr 16 min 26 sec)
Heartbeat CPU 0 instructions: 160001052 cycles: 71506910 heartbeat IPC: 3.782 cumulative IPC: 1.819 (Simulation time: 00 hr 16 min 28 sec)
Heartbeat CPU 0 instructions: 160501052 cycles: 71642663 heartbeat IPC: 3.683 cumulative IPC: 1.823 (Simulation time: 00 hr 16 min 30 sec)
Heartbeat CPU 0 instructions: 161001053 cycles: 71781581 heartbeat IPC: 3.599 cumulative IPC: 1.827 (Simulation time: 00 hr 16 min 32 sec)
Heartbeat CPU 0 instructions: 161501053 cycles: 71919305 heartbeat IPC: 3.63 cumulative IPC: 1.831 (Simulation time: 00 hr 16 min 34 sec)
Heartbeat CPU 0 instructions: 162001053 cycles: 72057771 heartbeat IPC: 3.611 cumulative IPC: 1.835 (Simulation time: 00 hr 16 min 36 sec)
Heartbeat CPU 0 instructions: 162501060 cycles: 72188260 heartbeat IPC: 3.832 cumulative IPC: 1.839 (Simulation time: 00 hr 16 min 38 sec)
Heartbeat CPU 0 instructions: 163001067 cycles: 72315019 heartbeat IPC: 3.945 cumulative IPC: 1.844 (Simulation time: 00 hr 16 min 40 sec)
Heartbeat CPU 0 instructions: 163501072 cycles: 72452184 heartbeat IPC: 3.645 cumulative IPC: 1.848 (Simulation time: 00 hr 16 min 42 sec)
Heartbeat CPU 0 instructions: 164001074 cycles: 72579151 heartbeat IPC: 3.938 cumulative IPC: 1.852 (Simulation time: 00 hr 16 min 44 sec)
Heartbeat CPU 0 instructions: 164501074 cycles: 72709531 heartbeat IPC: 3.835 cumulative IPC: 1.856 (Simulation time: 00 hr 16 min 46 sec)
Heartbeat CPU 0 instructions: 165001074 cycles: 72837691 heartbeat IPC: 3.901 cumulative IPC: 1.861 (Simulation time: 00 hr 16 min 48 sec)
Heartbeat CPU 0 instructions: 165501078 cycles: 72969100 heartbeat IPC: 3.805 cumulative IPC: 1.865 (Simulation time: 00 hr 16 min 50 sec)
Heartbeat CPU 0 instructions: 166001085 cycles: 73145183 heartbeat IPC: 2.84 cumulative IPC: 1.867 (Simulation time: 00 hr 16 min 52 sec)
Heartbeat CPU 0 instructions: 166501089 cycles: 73345278 heartbeat IPC: 2.499 cumulative IPC: 1.869 (Simulation time: 00 hr 16 min 55 sec)
Heartbeat CPU 0 instructions: 167001089 cycles: 73705331 heartbeat IPC: 1.389 cumulative IPC: 1.867 (Simulation time: 00 hr 16 min 58 sec)
Heartbeat CPU 0 instructions: 167501089 cycles: 74134333 heartbeat IPC: 1.165 cumulative IPC: 1.862 (Simulation time: 00 hr 17 min 03 sec)
Heartbeat CPU 0 instructions: 168001096 cycles: 74436911 heartbeat IPC: 1.652 cumulative IPC: 1.861 (Simulation time: 00 hr 17 min 06 sec)
Heartbeat CPU 0 instructions: 168501099 cycles: 74600519 heartbeat IPC: 3.056 cumulative IPC: 1.864 (Simulation time: 00 hr 17 min 09 sec)
Heartbeat CPU 0 instructions: 169001103 cycles: 74766969 heartbeat IPC: 3.004 cumulative IPC: 1.867 (Simulation time: 00 hr 17 min 11 sec)
Heartbeat CPU 0 instructions: 169501106 cycles: 74928892 heartbeat IPC: 3.088 cumulative IPC: 1.87 (Simulation time: 00 hr 17 min 14 sec)
Heartbeat CPU 0 instructions: 170001110 cycles: 75091115 heartbeat IPC: 3.082 cumulative IPC: 1.873 (Simulation time: 00 hr 17 min 16 sec)
Heartbeat CPU 0 instructions: 170501111 cycles: 75248528 heartbeat IPC: 3.176 cumulative IPC: 1.876 (Simulation time: 00 hr 17 min 18 sec)
Heartbeat CPU 0 instructions: 171001111 cycles: 75408647 heartbeat IPC: 3.123 cumulative IPC: 1.879 (Simulation time: 00 hr 17 min 21 sec)
Heartbeat CPU 0 instructions: 171501116 cycles: 75567727 heartbeat IPC: 3.143 cumulative IPC: 1.883 (Simulation time: 00 hr 17 min 23 sec)
Heartbeat CPU 0 instructions: 172001117 cycles: 75726797 heartbeat IPC: 3.143 cumulative IPC: 1.886 (Simulation time: 00 hr 17 min 25 sec)
Heartbeat CPU 0 instructions: 172501119 cycles: 75889714 heartbeat IPC: 3.069 cumulative IPC: 1.889 (Simulation time: 00 hr 17 min 28 sec)
Heartbeat CPU 0 instructions: 173001120 cycles: 76054589 heartbeat IPC: 3.033 cumulative IPC: 1.892 (Simulation time: 00 hr 17 min 30 sec)
Heartbeat CPU 0 instructions: 173501122 cycles: 76194513 heartbeat IPC: 3.573 cumulative IPC: 1.895 (Simulation time: 00 hr 17 min 32 sec)
Heartbeat CPU 0 instructions: 174001126 cycles: 76329071 heartbeat IPC: 3.716 cumulative IPC: 1.899 (Simulation time: 00 hr 17 min 34 sec)
Heartbeat CPU 0 instructions: 174501130 cycles: 76461123 heartbeat IPC: 3.786 cumulative IPC: 1.903 (Simulation time: 00 hr 17 min 36 sec)
Heartbeat CPU 0 instructions: 175001136 cycles: 76592719 heartbeat IPC: 3.8 cumulative IPC: 1.906 (Simulation time: 00 hr 17 min 38 sec)
Heartbeat CPU 0 instructions: 175501143 cycles: 76719466 heartbeat IPC: 3.945 cumulative IPC: 1.91 (Simulation time: 00 hr 17 min 40 sec)
Heartbeat CPU 0 instructions: 176001145 cycles: 76860797 heartbeat IPC: 3.538 cumulative IPC: 1.914 (Simulation time: 00 hr 17 min 42 sec)
Heartbeat CPU 0 instructions: 176501145 cycles: 76998353 heartbeat IPC: 3.635 cumulative IPC: 1.917 (Simulation time: 00 hr 17 min 44 sec)
Heartbeat CPU 0 instructions: 177001145 cycles: 77136270 heartbeat IPC: 3.625 cumulative IPC: 1.921 (Simulation time: 00 hr 17 min 46 sec)
Heartbeat CPU 0 instructions: 177501145 cycles: 77270432 heartbeat IPC: 3.727 cumulative IPC: 1.925 (Simulation time: 00 hr 17 min 48 sec)
Heartbeat CPU 0 instructions: 178001152 cycles: 77407726 heartbeat IPC: 3.642 cumulative IPC: 1.928 (Simulation time: 00 hr 17 min 50 sec)
Heartbeat CPU 0 instructions: 178501154 cycles: 77545475 heartbeat IPC: 3.63 cumulative IPC: 1.932 (Simulation time: 00 hr 17 min 52 sec)
Heartbeat CPU 0 instructions: 179001157 cycles: 77684379 heartbeat IPC: 3.6 cumulative IPC: 1.935 (Simulation time: 00 hr 17 min 54 sec)
Heartbeat CPU 0 instructions: 179501158 cycles: 77822762 heartbeat IPC: 3.613 cumulative IPC: 1.939 (Simulation time: 00 hr 17 min 56 sec)
Heartbeat CPU 0 instructions: 180001161 cycles: 77953202 heartbeat IPC: 3.833 cumulative IPC: 1.942 (Simulation time: 00 hr 17 min 58 sec)
Heartbeat CPU 0 instructions: 180501161 cycles: 78086420 heartbeat IPC: 3.753 cumulative IPC: 1.946 (Simulation time: 00 hr 17 min 59 sec)
Heartbeat CPU 0 instructions: 181001167 cycles: 78220972 heartbeat IPC: 3.716 cumulative IPC: 1.95 (Simulation time: 00 hr 18 min 01 sec)
Heartbeat CPU 0 instructions: 181501172 cycles: 78361023 heartbeat IPC: 3.57 cumulative IPC: 1.953 (Simulation time: 00 hr 18 min 03 sec)
Heartbeat CPU 0 instructions: 182001175 cycles: 78491389 heartbeat IPC: 3.835 cumulative IPC: 1.957 (Simulation time: 00 hr 18 min 05 sec)
Heartbeat CPU 0 instructions: 182501175 cycles: 78626118 heartbeat IPC: 3.711 cumulative IPC: 1.96 (Simulation time: 00 hr 18 min 07 sec)
Heartbeat CPU 0 instructions: 183001182 cycles: 78807308 heartbeat IPC: 2.76 cumulative IPC: 1.962 (Simulation time: 00 hr 18 min 10 sec)
Heartbeat CPU 0 instructions: 183501183 cycles: 79078515 heartbeat IPC: 1.844 cumulative IPC: 1.962 (Simulation time: 00 hr 18 min 13 sec)
Heartbeat CPU 0 instructions: 184001190 cycles: 79460058 heartbeat IPC: 1.31 cumulative IPC: 1.958 (Simulation time: 00 hr 18 min 16 sec)
Heartbeat CPU 0 instructions: 184501196 cycles: 79959743 heartbeat IPC: 1.001 cumulative IPC: 1.951 (Simulation time: 00 hr 18 min 21 sec)
Heartbeat CPU 0 instructions: 185001199 cycles: 80554158 heartbeat IPC: 0.8412 cumulative IPC: 1.942 (Simulation time: 00 hr 18 min 28 sec)
Heartbeat CPU 0 instructions: 185501200 cycles: 80856417 heartbeat IPC: 1.654 cumulative IPC: 1.94 (Simulation time: 00 hr 18 min 31 sec)
Heartbeat CPU 0 instructions: 186001203 cycles: 81162536 heartbeat IPC: 1.633 cumulative IPC: 1.939 (Simulation time: 00 hr 18 min 35 sec)
Heartbeat CPU 0 instructions: 186501203 cycles: 81468936 heartbeat IPC: 1.632 cumulative IPC: 1.938 (Simulation time: 00 hr 18 min 39 sec)
Heartbeat CPU 0 instructions: 187001203 cycles: 81774284 heartbeat IPC: 1.637 cumulative IPC: 1.936 (Simulation time: 00 hr 18 min 42 sec)
Heartbeat CPU 0 instructions: 187501204 cycles: 82080162 heartbeat IPC: 1.635 cumulative IPC: 1.935 (Simulation time: 00 hr 18 min 46 sec)
Heartbeat CPU 0 instructions: 188001205 cycles: 82380906 heartbeat IPC: 1.663 cumulative IPC: 1.934 (Simulation time: 00 hr 18 min 50 sec)
Heartbeat CPU 0 instructions: 188501206 cycles: 82682697 heartbeat IPC: 1.657 cumulative IPC: 1.933 (Simulation time: 00 hr 18 min 53 sec)
Heartbeat CPU 0 instructions: 189001208 cycles: 82985208 heartbeat IPC: 1.653 cumulative IPC: 1.932 (Simulation time: 00 hr 18 min 57 sec)
Heartbeat CPU 0 instructions: 189501209 cycles: 83291419 heartbeat IPC: 1.633 cumulative IPC: 1.93 (Simulation time: 00 hr 19 min 00 sec)
Heartbeat CPU 0 instructions: 190001209 cycles: 83597400 heartbeat IPC: 1.634 cumulative IPC: 1.929 (Simulation time: 00 hr 19 min 04 sec)
Heartbeat CPU 0 instructions: 190501216 cycles: 83901661 heartbeat IPC: 1.643 cumulative IPC: 1.928 (Simulation time: 00 hr 19 min 08 sec)
Heartbeat CPU 0 instructions: 191001216 cycles: 84207067 heartbeat IPC: 1.637 cumulative IPC: 1.927 (Simulation time: 00 hr 19 min 11 sec)
Heartbeat CPU 0 instructions: 191501217 cycles: 84507602 heartbeat IPC: 1.664 cumulative IPC: 1.926 (Simulation time: 00 hr 19 min 15 sec)
Heartbeat CPU 0 instructions: 192001223 cycles: 84807645 heartbeat IPC: 1.666 cumulative IPC: 1.925 (Simulation time: 00 hr 19 min 18 sec)
Heartbeat CPU 0 instructions: 192501223 cycles: 85108815 heartbeat IPC: 1.66 cumulative IPC: 1.924 (Simulation time: 00 hr 19 min 22 sec)
Heartbeat CPU 0 instructions: 193001223 cycles: 85414302 heartbeat IPC: 1.637 cumulative IPC: 1.922 (Simulation time: 00 hr 19 min 26 sec)
Heartbeat CPU 0 instructions: 193501224 cycles: 85720603 heartbeat IPC: 1.632 cumulative IPC: 1.921 (Simulation time: 00 hr 19 min 29 sec)
Heartbeat CPU 0 instructions: 194001224 cycles: 86026170 heartbeat IPC: 1.636 cumulative IPC: 1.92 (Simulation time: 00 hr 19 min 33 sec)
Heartbeat CPU 0 instructions: 194501224 cycles: 86331538 heartbeat IPC: 1.637 cumulative IPC: 1.919 (Simulation time: 00 hr 19 min 36 sec)
Heartbeat CPU 0 instructions: 195001224 cycles: 86631861 heartbeat IPC: 1.665 cumulative IPC: 1.918 (Simulation time: 00 hr 19 min 40 sec)
Heartbeat CPU 0 instructions: 195501225 cycles: 86932217 heartbeat IPC: 1.665 cumulative IPC: 1.917 (Simulation time: 00 hr 19 min 43 sec)
Heartbeat CPU 0 instructions: 196001225 cycles: 87233687 heartbeat IPC: 1.659 cumulative IPC: 1.916 (Simulation time: 00 hr 19 min 47 sec)
Heartbeat CPU 0 instructions: 196501225 cycles: 87538371 heartbeat IPC: 1.641 cumulative IPC: 1.915 (Simulation time: 00 hr 19 min 50 sec)
Heartbeat CPU 0 instructions: 197001225 cycles: 87846620 heartbeat IPC: 1.622 cumulative IPC: 1.914 (Simulation time: 00 hr 19 min 54 sec)
Heartbeat CPU 0 instructions: 197501227 cycles: 88153564 heartbeat IPC: 1.629 cumulative IPC: 1.912 (Simulation time: 00 hr 19 min 58 sec)
Heartbeat CPU 0 instructions: 198001227 cycles: 88459615 heartbeat IPC: 1.634 cumulative IPC: 1.911 (Simulation time: 00 hr 20 min 01 sec)
Heartbeat CPU 0 instructions: 198501229 cycles: 88761664 heartbeat IPC: 1.655 cumulative IPC: 1.91 (Simulation time: 00 hr 20 min 05 sec)
Heartbeat CPU 0 instructions: 199001231 cycles: 89065149 heartbeat IPC: 1.648 cumulative IPC: 1.909 (Simulation time: 00 hr 20 min 08 sec)
Heartbeat CPU 0 instructions: 199501231 cycles: 89368066 heartbeat IPC: 1.651 cumulative IPC: 1.908 (Simulation time: 00 hr 20 min 12 sec)
Heartbeat CPU 0 instructions: 200001233 cycles: 89674177 heartbeat IPC: 1.633 cumulative IPC: 1.907 (Simulation time: 00 hr 20 min 15 sec)
Heartbeat CPU 0 instructions: 200501234 cycles: 89979675 heartbeat IPC: 1.637 cumulative IPC: 1.906 (Simulation time: 00 hr 20 min 19 sec)
Heartbeat CPU 0 instructions: 201001234 cycles: 90285287 heartbeat IPC: 1.636 cumulative IPC: 1.905 (Simulation time: 00 hr 20 min 22 sec)
Heartbeat CPU 0 instructions: 201501240 cycles: 90592338 heartbeat IPC: 1.628 cumulative IPC: 1.904 (Simulation time: 00 hr 20 min 26 sec)
Heartbeat CPU 0 instructions: 202001240 cycles: 90893158 heartbeat IPC: 1.662 cumulative IPC: 1.903 (Simulation time: 00 hr 20 min 30 sec)
Heartbeat CPU 0 instructions: 202501241 cycles: 91195554 heartbeat IPC: 1.653 cumulative IPC: 1.902 (Simulation time: 00 hr 20 min 33 sec)
Heartbeat CPU 0 instructions: 203001243 cycles: 91497800 heartbeat IPC: 1.654 cumulative IPC: 1.901 (Simulation time: 00 hr 20 min 37 sec)
Heartbeat CPU 0 instructions: 203501243 cycles: 91803084 heartbeat IPC: 1.638 cumulative IPC: 1.9 (Simulation time: 00 hr 20 min 40 sec)
Heartbeat CPU 0 instructions: 204001243 cycles: 92110200 heartbeat IPC: 1.628 cumulative IPC: 1.899 (Simulation time: 00 hr 20 min 44 sec)
Heartbeat CPU 0 instructions: 204501246 cycles: 92415867 heartbeat IPC: 1.636 cumulative IPC: 1.898 (Simulation time: 00 hr 20 min 47 sec)
Heartbeat CPU 0 instructions: 205001246 cycles: 92722829 heartbeat IPC: 1.629 cumulative IPC: 1.897 (Simulation time: 00 hr 20 min 51 sec)
Heartbeat CPU 0 instructions: 205501246 cycles: 93024739 heartbeat IPC: 1.656 cumulative IPC: 1.896 (Simulation time: 00 hr 20 min 54 sec)
Heartbeat CPU 0 instructions: 206001250 cycles: 93326452 heartbeat IPC: 1.657 cumulative IPC: 1.896 (Simulation time: 00 hr 20 min 58 sec)
Heartbeat CPU 0 instructions: 206501257 cycles: 93628607 heartbeat IPC: 1.655 cumulative IPC: 1.895 (Simulation time: 00 hr 21 min 01 sec)
Heartbeat CPU 0 instructions: 207001261 cycles: 93934928 heartbeat IPC: 1.632 cumulative IPC: 1.894 (Simulation time: 00 hr 21 min 05 sec)
Heartbeat CPU 0 instructions: 207501265 cycles: 94243496 heartbeat IPC: 1.62 cumulative IPC: 1.893 (Simulation time: 00 hr 21 min 08 sec)
Heartbeat CPU 0 instructions: 208001267 cycles: 94548922 heartbeat IPC: 1.637 cumulative IPC: 1.892 (Simulation time: 00 hr 21 min 12 sec)
Heartbeat CPU 0 instructions: 208501267 cycles: 94854723 heartbeat IPC: 1.635 cumulative IPC: 1.891 (Simulation time: 00 hr 21 min 15 sec)
Heartbeat CPU 0 instructions: 209001267 cycles: 95156407 heartbeat IPC: 1.657 cumulative IPC: 1.89 (Simulation time: 00 hr 21 min 19 sec)
Heartbeat CPU 0 instructions: 209501268 cycles: 95459015 heartbeat IPC: 1.652 cumulative IPC: 1.889 (Simulation time: 00 hr 21 min 22 sec)
Heartbeat CPU 0 instructions: 210001275 cycles: 95759945 heartbeat IPC: 1.662 cumulative IPC: 1.888 (Simulation time: 00 hr 21 min 26 sec)
Heartbeat CPU 0 instructions: 210501279 cycles: 96067170 heartbeat IPC: 1.627 cumulative IPC: 1.887 (Simulation time: 00 hr 21 min 29 sec)
Heartbeat CPU 0 instructions: 211001279 cycles: 96374027 heartbeat IPC: 1.629 cumulative IPC: 1.886 (Simulation time: 00 hr 21 min 33 sec)
Heartbeat CPU 0 instructions: 211501280 cycles: 96679668 heartbeat IPC: 1.636 cumulative IPC: 1.886 (Simulation time: 00 hr 21 min 36 sec)
Heartbeat CPU 0 instructions: 212001283 cycles: 96985692 heartbeat IPC: 1.634 cumulative IPC: 1.885 (Simulation time: 00 hr 21 min 40 sec)
Heartbeat CPU 0 instructions: 212501289 cycles: 97288839 heartbeat IPC: 1.649 cumulative IPC: 1.884 (Simulation time: 00 hr 21 min 43 sec)
Heartbeat CPU 0 instructions: 213001289 cycles: 97591995 heartbeat IPC: 1.649 cumulative IPC: 1.883 (Simulation time: 00 hr 21 min 47 sec)
Heartbeat CPU 0 instructions: 213501294 cycles: 97892015 heartbeat IPC: 1.667 cumulative IPC: 1.882 (Simulation time: 00 hr 21 min 50 sec)
Heartbeat CPU 0 instructions: 214001294 cycles: 98197271 heartbeat IPC: 1.638 cumulative IPC: 1.881 (Simulation time: 00 hr 21 min 54 sec)
Heartbeat CPU 0 instructions: 214501294 cycles: 98505941 heartbeat IPC: 1.62 cumulative IPC: 1.88 (Simulation time: 00 hr 21 min 57 sec)
Heartbeat CPU 0 instructions: 215001294 cycles: 98812694 heartbeat IPC: 1.63 cumulative IPC: 1.88 (Simulation time: 00 hr 22 min 01 sec)
Heartbeat CPU 0 instructions: 215501294 cycles: 99117512 heartbeat IPC: 1.64 cumulative IPC: 1.879 (Simulation time: 00 hr 22 min 04 sec)
Heartbeat CPU 0 instructions: 216001295 cycles: 99420407 heartbeat IPC: 1.651 cumulative IPC: 1.878 (Simulation time: 00 hr 22 min 08 sec)
Heartbeat CPU 0 instructions: 216501295 cycles: 99723479 heartbeat IPC: 1.65 cumulative IPC: 1.877 (Simulation time: 00 hr 22 min 11 sec)
Heartbeat CPU 0 instructions: 217001295 cycles: 100025929 heartbeat IPC: 1.653 cumulative IPC: 1.876 (Simulation time: 00 hr 22 min 15 sec)
Heartbeat CPU 0 instructions: 217501295 cycles: 100331405 heartbeat IPC: 1.637 cumulative IPC: 1.876 (Simulation time: 00 hr 22 min 18 sec)
Heartbeat CPU 0 instructions: 218001296 cycles: 100636132 heartbeat IPC: 1.641 cumulative IPC: 1.875 (Simulation time: 00 hr 22 min 22 sec)
Heartbeat CPU 0 instructions: 218501296 cycles: 100944229 heartbeat IPC: 1.623 cumulative IPC: 1.874 (Simulation time: 00 hr 22 min 25 sec)
Heartbeat CPU 0 instructions: 219001296 cycles: 101252311 heartbeat IPC: 1.623 cumulative IPC: 1.873 (Simulation time: 00 hr 22 min 29 sec)
Heartbeat CPU 0 instructions: 219501296 cycles: 101554785 heartbeat IPC: 1.653 cumulative IPC: 1.872 (Simulation time: 00 hr 22 min 32 sec)
Heartbeat CPU 0 instructions: 220001296 cycles: 102008408 heartbeat IPC: 1.102 cumulative IPC: 1.869 (Simulation time: 00 hr 22 min 37 sec)
Heartbeat CPU 0 instructions: 220501298 cycles: 102993224 heartbeat IPC: 0.5077 cumulative IPC: 1.854 (Simulation time: 00 hr 22 min 47 sec)
Heartbeat CPU 0 instructions: 221001299 cycles: 103685481 heartbeat IPC: 0.7223 cumulative IPC: 1.845 (Simulation time: 00 hr 22 min 54 sec)
Heartbeat CPU 0 instructions: 221501300 cycles: 104309352 heartbeat IPC: 0.8014 cumulative IPC: 1.839 (Simulation time: 00 hr 23 min 00 sec)
Heartbeat CPU 0 instructions: 222001307 cycles: 105014238 heartbeat IPC: 0.7093 cumulative IPC: 1.83 (Simulation time: 00 hr 23 min 07 sec)
Heartbeat CPU 0 instructions: 222501312 cycles: 105234422 heartbeat IPC: 2.271 cumulative IPC: 1.831 (Simulation time: 00 hr 23 min 10 sec)
Heartbeat CPU 0 instructions: 223001315 cycles: 105421197 heartbeat IPC: 2.677 cumulative IPC: 1.833 (Simulation time: 00 hr 23 min 12 sec)
Heartbeat CPU 0 instructions: 223501318 cycles: 105616506 heartbeat IPC: 2.56 cumulative IPC: 1.834 (Simulation time: 00 hr 23 min 15 sec)
Heartbeat CPU 0 instructions: 224001321 cycles: 105811994 heartbeat IPC: 2.558 cumulative IPC: 1.836 (Simulation time: 00 hr 23 min 17 sec)
Heartbeat CPU 0 instructions: 224501324 cycles: 106005443 heartbeat IPC: 2.585 cumulative IPC: 1.837 (Simulation time: 00 hr 23 min 20 sec)
Heartbeat CPU 0 instructions: 225001331 cycles: 106202790 heartbeat IPC: 2.534 cumulative IPC: 1.839 (Simulation time: 00 hr 23 min 22 sec)
Heartbeat CPU 0 instructions: 225501333 cycles: 106473633 heartbeat IPC: 1.846 cumulative IPC: 1.839 (Simulation time: 00 hr 23 min 25 sec)
Heartbeat CPU 0 instructions: 226001339 cycles: 106750604 heartbeat IPC: 1.805 cumulative IPC: 1.839 (Simulation time: 00 hr 23 min 29 sec)
Heartbeat CPU 0 instructions: 226501346 cycles: 107010920 heartbeat IPC: 1.921 cumulative IPC: 1.839 (Simulation time: 00 hr 23 min 32 sec)
Heartbeat CPU 0 instructions: 227001349 cycles: 107285099 heartbeat IPC: 1.824 cumulative IPC: 1.839 (Simulation time: 00 hr 23 min 35 sec)
Heartbeat CPU 0 instructions: 227501350 cycles: 107547333 heartbeat IPC: 1.907 cumulative IPC: 1.839 (Simulation time: 00 hr 23 min 38 sec)
Heartbeat CPU 0 instructions: 228001355 cycles: 107805362 heartbeat IPC: 1.938 cumulative IPC: 1.839 (Simulation time: 00 hr 23 min 41 sec)
Heartbeat CPU 0 instructions: 228501360 cycles: 108088558 heartbeat IPC: 1.766 cumulative IPC: 1.839 (Simulation time: 00 hr 23 min 44 sec)
Heartbeat CPU 0 instructions: 229001366 cycles: 108413911 heartbeat IPC: 1.537 cumulative IPC: 1.838 (Simulation time: 00 hr 23 min 47 sec)
Heartbeat CPU 0 instructions: 229501373 cycles: 108730756 heartbeat IPC: 1.578 cumulative IPC: 1.837 (Simulation time: 00 hr 23 min 50 sec)
Heartbeat CPU 0 instructions: 230001377 cycles: 109064362 heartbeat IPC: 1.499 cumulative IPC: 1.836 (Simulation time: 00 hr 23 min 54 sec)
Heartbeat CPU 0 instructions: 230501380 cycles: 109412770 heartbeat IPC: 1.435 cumulative IPC: 1.835 (Simulation time: 00 hr 23 min 57 sec)
Heartbeat CPU 0 instructions: 231001385 cycles: 109741581 heartbeat IPC: 1.521 cumulative IPC: 1.834 (Simulation time: 00 hr 24 min 00 sec)
Heartbeat CPU 0 instructions: 231501386 cycles: 110045772 heartbeat IPC: 1.644 cumulative IPC: 1.833 (Simulation time: 00 hr 24 min 03 sec)
Heartbeat CPU 0 instructions: 232001386 cycles: 110348649 heartbeat IPC: 1.651 cumulative IPC: 1.832 (Simulation time: 00 hr 24 min 06 sec)
Heartbeat CPU 0 instructions: 232501389 cycles: 110731119 heartbeat IPC: 1.307 cumulative IPC: 1.83 (Simulation time: 00 hr 24 min 10 sec)
Heartbeat CPU 0 instructions: 233001390 cycles: 111160734 heartbeat IPC: 1.164 cumulative IPC: 1.828 (Simulation time: 00 hr 24 min 15 sec)
Heartbeat CPU 0 instructions: 233501392 cycles: 112024043 heartbeat IPC: 0.5792 cumulative IPC: 1.817 (Simulation time: 00 hr 24 min 24 sec)
Heartbeat CPU 0 instructions: 234001396 cycles: 112901107 heartbeat IPC: 0.5701 cumulative IPC: 1.806 (Simulation time: 00 hr 24 min 32 sec)
Heartbeat CPU 0 instructions: 234501396 cycles: 113641536 heartbeat IPC: 0.6753 cumulative IPC: 1.798 (Simulation time: 00 hr 24 min 40 sec)
Heartbeat CPU 0 instructions: 235001396 cycles: 114462849 heartbeat IPC: 0.6088 cumulative IPC: 1.789 (Simulation time: 00 hr 24 min 47 sec)
Heartbeat CPU 0 instructions: 235501396 cycles: 115992879 heartbeat IPC: 0.3268 cumulative IPC: 1.767 (Simulation time: 00 hr 25 min 00 sec)
Heartbeat CPU 0 instructions: 236001403 cycles: 116890069 heartbeat IPC: 0.5573 cumulative IPC: 1.757 (Simulation time: 00 hr 25 min 08 sec)
Heartbeat CPU 0 instructions: 236501409 cycles: 117086821 heartbeat IPC: 2.541 cumulative IPC: 1.758 (Simulation time: 00 hr 25 min 11 sec)
Heartbeat CPU 0 instructions: 237001409 cycles: 117282634 heartbeat IPC: 2.553 cumulative IPC: 1.76 (Simulation time: 00 hr 25 min 14 sec)
Heartbeat CPU 0 instructions: 237501410 cycles: 117484483 heartbeat IPC: 2.477 cumulative IPC: 1.761 (Simulation time: 00 hr 25 min 16 sec)
Heartbeat CPU 0 instructions: 238001412 cycles: 117677364 heartbeat IPC: 2.592 cumulative IPC: 1.763 (Simulation time: 00 hr 25 min 19 sec)
Heartbeat CPU 0 instructions: 238501416 cycles: 117880214 heartbeat IPC: 2.465 cumulative IPC: 1.764 (Simulation time: 00 hr 25 min 22 sec)
Heartbeat CPU 0 instructions: 239001419 cycles: 118080032 heartbeat IPC: 2.502 cumulative IPC: 1.765 (Simulation time: 00 hr 25 min 24 sec)
Heartbeat CPU 0 instructions: 239501420 cycles: 118283293 heartbeat IPC: 2.46 cumulative IPC: 1.767 (Simulation time: 00 hr 25 min 27 sec)
Heartbeat CPU 0 instructions: 240001422 cycles: 118480755 heartbeat IPC: 2.532 cumulative IPC: 1.768 (Simulation time: 00 hr 25 min 30 sec)
Heartbeat CPU 0 instructions: 240501424 cycles: 118678819 heartbeat IPC: 2.524 cumulative IPC: 1.77 (Simulation time: 00 hr 25 min 32 sec)
Heartbeat CPU 0 instructions: 241001428 cycles: 118882967 heartbeat IPC: 2.449 cumulative IPC: 1.771 (Simulation time: 00 hr 25 min 35 sec)
Heartbeat CPU 0 instructions: 241501432 cycles: 119088567 heartbeat IPC: 2.432 cumulative IPC: 1.772 (Simulation time: 00 hr 25 min 38 sec)
Heartbeat CPU 0 instructions: 242001432 cycles: 119230942 heartbeat IPC: 3.512 cumulative IPC: 1.774 (Simulation time: 00 hr 25 min 40 sec)
Heartbeat CPU 0 instructions: 242501438 cycles: 119374466 heartbeat IPC: 3.484 cumulative IPC: 1.777 (Simulation time: 00 hr 25 min 42 sec)
Heartbeat CPU 0 instructions: 243001442 cycles: 119510012 heartbeat IPC: 3.689 cumulative IPC: 1.779 (Simulation time: 00 hr 25 min 44 sec)
Heartbeat CPU 0 instructions: 243501442 cycles: 119653194 heartbeat IPC: 3.492 cumulative IPC: 1.781 (Simulation time: 00 hr 25 min 46 sec)
Heartbeat CPU 0 instructions: 244001448 cycles: 119782431 heartbeat IPC: 3.869 cumulative IPC: 1.784 (Simulation time: 00 hr 25 min 47 sec)
Heartbeat CPU 0 instructions: 244501448 cycles: 119922600 heartbeat IPC: 3.567 cumulative IPC: 1.786 (Simulation time: 00 hr 25 min 49 sec)
Heartbeat CPU 0 instructions: 245001455 cycles: 120058905 heartbeat IPC: 3.668 cumulative IPC: 1.788 (Simulation time: 00 hr 25 min 51 sec)
Heartbeat CPU 0 instructions: 245501460 cycles: 120194683 heartbeat IPC: 3.683 cumulative IPC: 1.791 (Simulation time: 00 hr 25 min 53 sec)
Heartbeat CPU 0 instructions: 246001461 cycles: 120334551 heartbeat IPC: 3.575 cumulative IPC: 1.793 (Simulation time: 00 hr 25 min 55 sec)
Heartbeat CPU 0 instructions: 246501461 cycles: 120462748 heartbeat IPC: 3.9 cumulative IPC: 1.796 (Simulation time: 00 hr 25 min 57 sec)
Heartbeat CPU 0 instructions: 247001463 cycles: 120595586 heartbeat IPC: 3.764 cumulative IPC: 1.798 (Simulation time: 00 hr 25 min 59 sec)
Heartbeat CPU 0 instructions: 247501465 cycles: 120762663 heartbeat IPC: 2.993 cumulative IPC: 1.8 (Simulation time: 00 hr 26 min 01 sec)
Heartbeat CPU 0 instructions: 248001471 cycles: 120911324 heartbeat IPC: 3.363 cumulative IPC: 1.802 (Simulation time: 00 hr 26 min 03 sec)
Heartbeat CPU 0 instructions: 248501477 cycles: 121063198 heartbeat IPC: 3.292 cumulative IPC: 1.804 (Simulation time: 00 hr 26 min 05 sec)
Heartbeat CPU 0 instructions: 249001483 cycles: 121215657 heartbeat IPC: 3.28 cumulative IPC: 1.806 (Simulation time: 00 hr 26 min 07 sec)
Heartbeat CPU 0 instructions: 249501490 cycles: 121362913 heartbeat IPC: 3.395 cumulative IPC: 1.808 (Simulation time: 00 hr 26 min 09 sec)
Simulation finished CPU 0 instructions: 200000005 cycles: 110483882 cumulative IPC: 1.81 (Simulation time: 00 hr 26 min 11 sec)
Simulation complete CPU 0 instructions: 200000005 cycles: 110483882 cumulative IPC: 1.81 (Simulation time: 00 hr 26 min 11 sec)

ChampSim completed all CPUs

=== Simulation ===
CPU 0 runs /local-ssd/ben/dpc4-traces/SPEC17/621.wrf_s-6673B.champsimtrace.xz

Region of Interest Statistics

CPU 0 cumulative IPC: 1.81 instructions: 200000005 cycles: 110483882
CPU 0 Branch Prediction Accuracy: 97.9% MPKI: 1.262 Average ROB Occupancy at Mispredict: 259.5
Branch type MPKI
BRANCH_DIRECT_JUMP: 0.000425
BRANCH_INDIRECT: 2e-05
BRANCH_CONDITIONAL: 1.257
BRANCH_DIRECT_CALL: 0.00229
BRANCH_INDIRECT_CALL: 0
BRANCH_RETURN: 0.001585

cpu0->cpu0_STLB TOTAL        ACCESS:     186337 HIT:     158633 MISS:      27704 MSHR_MERGE:          0
cpu0->cpu0_STLB LOAD         ACCESS:     186337 HIT:     158633 MISS:      27704 MSHR_MERGE:          0
cpu0->cpu0_STLB RFO          ACCESS:          0 HIT:          0 MISS:          0 MSHR_MERGE:          0
cpu0->cpu0_STLB PREFETCH     ACCESS:          0 HIT:          0 MISS:          0 MSHR_MERGE:          0
cpu0->cpu0_STLB WRITE        ACCESS:          0 HIT:          0 MISS:          0 MSHR_MERGE:          0
cpu0->cpu0_STLB TRANSLATION  ACCESS:          0 HIT:          0 MISS:          0 MSHR_MERGE:          0
cpu0->cpu0_STLB PREFETCH REQUESTED:          0 ISSUED:          0 USEFUL:          0 USELESS:          0
cpu0->cpu0_STLB AVERAGE MISS LATENCY: 111.1 cycles
cpu0->cpu0_L2C TOTAL        ACCESS:    5105628 HIT:    2716128 MISS:    2389500 MSHR_MERGE:          0
cpu0->cpu0_L2C LOAD         ACCESS:     691572 HIT:     245132 MISS:     446440 MSHR_MERGE:          0
cpu0->cpu0_L2C RFO          ACCESS:     686216 HIT:     177863 MISS:     508353 MSHR_MERGE:          0
cpu0->cpu0_L2C PREFETCH     ACCESS:    2327293 HIT:     897770 MISS:    1429523 MSHR_MERGE:          0
cpu0->cpu0_L2C WRITE        ACCESS:    1391704 HIT:    1391000 MISS:        704 MSHR_MERGE:          0
cpu0->cpu0_L2C TRANSLATION  ACCESS:       8843 HIT:       4363 MISS:       4480 MSHR_MERGE:          0
cpu0->cpu0_L2C PREFETCH REQUESTED:          0 ISSUED:          0 USEFUL:          0 USELESS:          0
cpu0->cpu0_L2C AVERAGE MISS LATENCY: 279.6 cycles
cpu0->cpu0_L1I TOTAL        ACCESS:   30491180 HIT:   30484950 MISS:       6230 MSHR_MERGE:       1817
cpu0->cpu0_L1I LOAD         ACCESS:   30491180 HIT:   30484950 MISS:       6230 MSHR_MERGE:       1817
cpu0->cpu0_L1I RFO          ACCESS:          0 HIT:          0 MISS:          0 MSHR_MERGE:          0
cpu0->cpu0_L1I PREFETCH     ACCESS:          0 HIT:          0 MISS:          0 MSHR_MERGE:          0
cpu0->cpu0_L1I WRITE        ACCESS:          0 HIT:          0 MISS:          0 MSHR_MERGE:          0
cpu0->cpu0_L1I TRANSLATION  ACCESS:          0 HIT:          0 MISS:          0 MSHR_MERGE:          0
cpu0->cpu0_L1I PREFETCH REQUESTED:          0 ISSUED:          0 USEFUL:          0 USELESS:          0
cpu0->cpu0_L1I AVERAGE MISS LATENCY: 284.4 cycles
cpu0->cpu0_L1D TOTAL        ACCESS:   43302257 HIT:   36257220 MISS:    7045037 MSHR_MERGE:    3335433
cpu0->cpu0_L1D LOAD         ACCESS:   29714807 HIT:   28118174 MISS:    1596633 MSHR_MERGE:     909467
cpu0->cpu0_L1D RFO          ACCESS:          0 HIT:          0 MISS:          0 MSHR_MERGE:          0
cpu0->cpu0_L1D PREFETCH     ACCESS:    2737358 HIT:     334613 MISS:    2402745 MSHR_MERGE:      75433
cpu0->cpu0_L1D WRITE        ACCESS:   10794992 HIT:    7758667 MISS:    3036325 MSHR_MERGE:    2350042
cpu0->cpu0_L1D TRANSLATION  ACCESS:      55100 HIT:      45766 MISS:       9334 MSHR_MERGE:        491
cpu0->cpu0_L1D PREFETCH REQUESTED:    2970642 ISSUED:    2737350 USEFUL:    2241614 USELESS:      85684
cpu0->cpu0_L1D AVERAGE MISS LATENCY: 193.2 cycles
cpu0->cpu0_ITLB TOTAL        ACCESS:   24555598 HIT:   24555135 MISS:        463 MSHR_MERGE:        294
cpu0->cpu0_ITLB LOAD         ACCESS:   24555598 HIT:   24555135 MISS:        463 MSHR_MERGE:        294
cpu0->cpu0_ITLB RFO          ACCESS:          0 HIT:          0 MISS:          0 MSHR_MERGE:          0
cpu0->cpu0_ITLB PREFETCH     ACCESS:          0 HIT:          0 MISS:          0 MSHR_MERGE:          0
cpu0->cpu0_ITLB WRITE        ACCESS:          0 HIT:          0 MISS:          0 MSHR_MERGE:          0
cpu0->cpu0_ITLB TRANSLATION  ACCESS:          0 HIT:          0 MISS:          0 MSHR_MERGE:          0
cpu0->cpu0_ITLB PREFETCH REQUESTED:          0 ISSUED:          0 USEFUL:          0 USELESS:          0
cpu0->cpu0_ITLB AVERAGE MISS LATENCY: 339.7 cycles
cpu0->cpu0_DTLB TOTAL        ACCESS:   40943358 HIT:   40620844 MISS:     322514 MSHR_MERGE:     136346
cpu0->cpu0_DTLB LOAD         ACCESS:   40943358 HIT:   40620844 MISS:     322514 MSHR_MERGE:     136346
cpu0->cpu0_DTLB RFO          ACCESS:          0 HIT:          0 MISS:          0 MSHR_MERGE:          0
cpu0->cpu0_DTLB PREFETCH     ACCESS:          0 HIT:          0 MISS:          0 MSHR_MERGE:          0
cpu0->cpu0_DTLB WRITE        ACCESS:          0 HIT:          0 MISS:          0 MSHR_MERGE:          0
cpu0->cpu0_DTLB TRANSLATION  ACCESS:          0 HIT:          0 MISS:          0 MSHR_MERGE:          0
cpu0->cpu0_DTLB PREFETCH REQUESTED:          0 ISSUED:          0 USEFUL:          0 USELESS:          0
cpu0->cpu0_DTLB AVERAGE MISS LATENCY: 21.42 cycles
cpu0->LLC TOTAL        ACCESS:    3314016 HIT:     827166 MISS:    2486850 MSHR_MERGE:          0
cpu0->LLC LOAD         ACCESS:     446440 HIT:      92766 MISS:     353674 MSHR_MERGE:          0
cpu0->LLC RFO          ACCESS:     508353 HIT:     111645 MISS:     396708 MSHR_MERGE:          0
cpu0->LLC PREFETCH     ACCESS:    1429523 HIT:     271619 MISS:    1157904 MSHR_MERGE:          0
cpu0->LLC WRITE        ACCESS:     925220 HIT:     351084 MISS:     574136 MSHR_MERGE:          0
cpu0->LLC TRANSLATION  ACCESS:       4480 HIT:         52 MISS:       4428 MSHR_MERGE:          0
cpu0->LLC PREFETCH REQUESTED:          0 ISSUED:          0 USEFUL:          0 USELESS:          0
cpu0->LLC AVERAGE MISS LATENCY: 192.8 cycles

DRAM Statistics

Channel 0 RQ ROW_BUFFER_HIT:     122400
  ROW_BUFFER_MISS:    1789540
  AVG DBUS CONGESTED CYCLE: 14.8
Channel 0 WQ ROW_BUFFER_HIT:      95761
  ROW_BUFFER_MISS:     559058
  FULL:      85922
Channel 0 REFRESHES ISSUED:       9207
