[VMEM] WARNING: physical memory size is smaller than virtual memory size.

*** ChampSim Multicore Out-of-Order Simulator ***
Warmup Instructions: 50000000
Simulation Instructions: 200000000
Number of CPUs: 1
Page size: 4096
Core 0: /local-ssd/ben/dpc4-traces/ai-ml/rwkv_trace_1.champsimtrace.gz
 L1D Berti prefetcher
Off-chip DRAM Size: 64 GiB Channels: 1 Width: 64-bit Data Rate: 4807 MT/s
Heartbeat CPU 0 instructions: 500004 cycles: 126516 heartbeat IPC: 3.952 cumulative IPC: 3.952 (Simulation time: 00 hr 00 min 03 sec)
Heartbeat CPU 0 instructions: 1000008 cycles: 228352 heartbeat IPC: 4.91 cumulative IPC: 4.379 (Simulation time: 00 hr 00 min 05 sec)
Heartbeat CPU 0 instructions: 1500009 cycles: 330017 heartbeat IPC: 4.918 cumulative IPC: 4.545 (Simulation time: 00 hr 00 min 06 sec)
Heartbeat CPU 0 instructions: 2000011 cycles: 432231 heartbeat IPC: 4.892 cumulative IPC: 4.627 (Simulation time: 00 hr 00 min 08 sec)
Heartbeat CPU 0 instructions: 2500017 cycles: 535963 heartbeat IPC: 4.82 cumulative IPC: 4.665 (Simulation time: 00 hr 00 min 10 sec)
Heartbeat CPU 0 instructions: 3000021 cycles: 646381 heartbeat IPC: 4.528 cumulative IPC: 4.641 (Simulation time: 00 hr 00 min 11 sec)
Heartbeat CPU 0 instructions: 3500021 cycles: 746381 heartbeat IPC: 5 cumulative IPC: 4.689 (Simulation time: 00 hr 00 min 13 sec)
Heartbeat CPU 0 instructions: 4000024 cycles: 848250 heartbeat IPC: 4.908 cumulative IPC: 4.716 (Simulation time: 00 hr 00 min 14 sec)
Heartbeat CPU 0 instructions: 4500029 cycles: 948254 heartbeat IPC: 5 cumulative IPC: 4.746 (Simulation time: 00 hr 00 min 16 sec)
Heartbeat CPU 0 instructions: 5000032 cycles: 1048252 heartbeat IPC: 5 cumulative IPC: 4.77 (Simulation time: 00 hr 00 min 17 sec)
Heartbeat CPU 0 instructions: 5500037 cycles: 1148254 heartbeat IPC: 5 cumulative IPC: 4.79 (Simulation time: 00 hr 00 min 19 sec)
Heartbeat CPU 0 instructions: 6000042 cycles: 1248251 heartbeat IPC: 5 cumulative IPC: 4.807 (Simulation time: 00 hr 00 min 21 sec)
Heartbeat CPU 0 instructions: 6500049 cycles: 1348369 heartbeat IPC: 4.994 cumulative IPC: 4.821 (Simulation time: 00 hr 00 min 22 sec)
Heartbeat CPU 0 instructions: 7000050 cycles: 1463120 heartbeat IPC: 4.357 cumulative IPC: 4.784 (Simulation time: 00 hr 00 min 24 sec)
Heartbeat CPU 0 instructions: 7500053 cycles: 1583720 heartbeat IPC: 4.146 cumulative IPC: 4.736 (Simulation time: 00 hr 00 min 25 sec)
Heartbeat CPU 0 instructions: 8000056 cycles: 1683722 heartbeat IPC: 5 cumulative IPC: 4.751 (Simulation time: 00 hr 00 min 27 sec)
Heartbeat CPU 0 instructions: 8500063 cycles: 1783722 heartbeat IPC: 5 cumulative IPC: 4.765 (Simulation time: 00 hr 00 min 29 sec)
Heartbeat CPU 0 instructions: 9000066 cycles: 1883722 heartbeat IPC: 5 cumulative IPC: 4.778 (Simulation time: 00 hr 00 min 30 sec)
Heartbeat CPU 0 instructions: 9500067 cycles: 1983716 heartbeat IPC: 5 cumulative IPC: 4.789 (Simulation time: 00 hr 00 min 32 sec)
Heartbeat CPU 0 instructions: 10000067 cycles: 2083717 heartbeat IPC: 5 cumulative IPC: 4.799 (Simulation time: 00 hr 00 min 34 sec)
Heartbeat CPU 0 instructions: 10500071 cycles: 2184846 heartbeat IPC: 4.944 cumulative IPC: 4.806 (Simulation time: 00 hr 00 min 35 sec)
Heartbeat CPU 0 instructions: 11000071 cycles: 2296689 heartbeat IPC: 4.471 cumulative IPC: 4.79 (Simulation time: 00 hr 00 min 37 sec)
Heartbeat CPU 0 instructions: 11500076 cycles: 2412119 heartbeat IPC: 4.332 cumulative IPC: 4.768 (Simulation time: 00 hr 00 min 39 sec)
Heartbeat CPU 0 instructions: 12000079 cycles: 2527805 heartbeat IPC: 4.322 cumulative IPC: 4.747 (Simulation time: 00 hr 00 min 41 sec)
Heartbeat CPU 0 instructions: 12500084 cycles: 2644766 heartbeat IPC: 4.275 cumulative IPC: 4.726 (Simulation time: 00 hr 00 min 43 sec)
Heartbeat CPU 0 instructions: 13000084 cycles: 2795605 heartbeat IPC: 3.315 cumulative IPC: 4.65 (Simulation time: 00 hr 00 min 46 sec)
Heartbeat CPU 0 instructions: 13500088 cycles: 3249780 heartbeat IPC: 1.101 cumulative IPC: 4.154 (Simulation time: 00 hr 00 min 54 sec)
Heartbeat CPU 0 instructions: 14000088 cycles: 3704148 heartbeat IPC: 1.1 cumulative IPC: 3.78 (Simulation time: 00 hr 01 min 02 sec)
Heartbeat CPU 0 instructions: 14500088 cycles: 4158019 heartbeat IPC: 1.102 cumulative IPC: 3.487 (Simulation time: 00 hr 01 min 09 sec)
Heartbeat CPU 0 instructions: 15000092 cycles: 4612961 heartbeat IPC: 1.099 cumulative IPC: 3.252 (Simulation time: 00 hr 01 min 17 sec)
Heartbeat CPU 0 instructions: 15500096 cycles: 5067555 heartbeat IPC: 1.1 cumulative IPC: 3.059 (Simulation time: 00 hr 01 min 25 sec)
Heartbeat CPU 0 instructions: 16000100 cycles: 5521700 heartbeat IPC: 1.101 cumulative IPC: 2.898 (Simulation time: 00 hr 01 min 33 sec)
Heartbeat CPU 0 instructions: 16500101 cycles: 5975991 heartbeat IPC: 1.101 cumulative IPC: 2.761 (Simulation time: 00 hr 01 min 40 sec)
Heartbeat CPU 0 instructions: 17000105 cycles: 6430174 heartbeat IPC: 1.101 cumulative IPC: 2.644 (Simulation time: 00 hr 01 min 48 sec)
Heartbeat CPU 0 instructions: 17500107 cycles: 6885037 heartbeat IPC: 1.099 cumulative IPC: 2.542 (Simulation time: 00 hr 01 min 56 sec)
Heartbeat CPU 0 instructions: 18000112 cycles: 7339409 heartbeat IPC: 1.1 cumulative IPC: 2.453 (Simulation time: 00 hr 02 min 04 sec)
Heartbeat CPU 0 instructions: 18500115 cycles: 7794366 heartbeat IPC: 1.099 cumulative IPC: 2.374 (Simulation time: 00 hr 02 min 12 sec)
Heartbeat CPU 0 instructions: 19000119 cycles: 8249377 heartbeat IPC: 1.099 cumulative IPC: 2.303 (Simulation time: 00 hr 02 min 19 sec)
Heartbeat CPU 0 instructions: 19500123 cycles: 8704056 heartbeat IPC: 1.1 cumulative IPC: 2.24 (Simulation time: 00 hr 02 min 27 sec)
Heartbeat CPU 0 instructions: 20000128 cycles: 9158187 heartbeat IPC: 1.101 cumulative IPC: 2.184 (Simulation time: 00 hr 02 min 35 sec)
Heartbeat CPU 0 instructions: 20500134 cycles: 9612685 heartbeat IPC: 1.1 cumulative IPC: 2.133 (Simulation time: 00 hr 02 min 43 sec)
Heartbeat CPU 0 instructions: 21000134 cycles: 10066460 heartbeat IPC: 1.102 cumulative IPC: 2.086 (Simulation time: 00 hr 02 min 50 sec)
Heartbeat CPU 0 instructions: 21500134 cycles: 10521208 heartbeat IPC: 1.1 cumulative IPC: 2.044 (Simulation time: 00 hr 02 min 58 sec)
Heartbeat CPU 0 instructions: 22000139 cycles: 10975917 heartbeat IPC: 1.1 cumulative IPC: 2.004 (Simulation time: 00 hr 03 min 06 sec)
Heartbeat CPU 0 instructions: 22500142 cycles: 11429965 heartbeat IPC: 1.101 cumulative IPC: 1.969 (Simulation time: 00 hr 03 min 14 sec)
Heartbeat CPU 0 instructions: 23000147 cycles: 11883926 heartbeat IPC: 1.101 cumulative IPC: 1.935 (Simulation time: 00 hr 03 min 22 sec)
Heartbeat CPU 0 instructions: 23500150 cycles: 12338362 heartbeat IPC: 1.1 cumulative IPC: 1.905 (Simulation time: 00 hr 03 min 29 sec)
Heartbeat CPU 0 instructions: 24000151 cycles: 12792524 heartbeat IPC: 1.101 cumulative IPC: 1.876 (Simulation time: 00 hr 03 min 37 sec)
Heartbeat CPU 0 instructions: 24500153 cycles: 13247294 heartbeat IPC: 1.099 cumulative IPC: 1.849 (Simulation time: 00 hr 03 min 45 sec)
Heartbeat CPU 0 instructions: 25000158 cycles: 13701750 heartbeat IPC: 1.1 cumulative IPC: 1.825 (Simulation time: 00 hr 03 min 53 sec)
Heartbeat CPU 0 instructions: 25500161 cycles: 14157057 heartbeat IPC: 1.098 cumulative IPC: 1.801 (Simulation time: 00 hr 04 min 01 sec)
Heartbeat CPU 0 instructions: 26000165 cycles: 14612308 heartbeat IPC: 1.098 cumulative IPC: 1.779 (Simulation time: 00 hr 04 min 08 sec)
Heartbeat CPU 0 instructions: 26500169 cycles: 15066328 heartbeat IPC: 1.101 cumulative IPC: 1.759 (Simulation time: 00 hr 04 min 16 sec)
Heartbeat CPU 0 instructions: 27000175 cycles: 15519320 heartbeat IPC: 1.104 cumulative IPC: 1.74 (Simulation time: 00 hr 04 min 24 sec)
Heartbeat CPU 0 instructions: 27500180 cycles: 15972694 heartbeat IPC: 1.103 cumulative IPC: 1.722 (Simulation time: 00 hr 04 min 32 sec)
Heartbeat CPU 0 instructions: 28000180 cycles: 16425911 heartbeat IPC: 1.103 cumulative IPC: 1.705 (Simulation time: 00 hr 04 min 40 sec)
Heartbeat CPU 0 instructions: 28500180 cycles: 16879892 heartbeat IPC: 1.101 cumulative IPC: 1.688 (Simulation time: 00 hr 04 min 48 sec)
Heartbeat CPU 0 instructions: 29000184 cycles: 17334179 heartbeat IPC: 1.101 cumulative IPC: 1.673 (Simulation time: 00 hr 04 min 55 sec)
Heartbeat CPU 0 instructions: 29500188 cycles: 17788447 heartbeat IPC: 1.101 cumulative IPC: 1.658 (Simulation time: 00 hr 05 min 03 sec)
Heartbeat CPU 0 instructions: 30000192 cycles: 18243045 heartbeat IPC: 1.1 cumulative IPC: 1.644 (Simulation time: 00 hr 05 min 11 sec)
Heartbeat CPU 0 instructions: 30500196 cycles: 18697093 heartbeat IPC: 1.101 cumulative IPC: 1.631 (Simulation time: 00 hr 05 min 19 sec)
Heartbeat CPU 0 instructions: 31000197 cycles: 19150920 heartbeat IPC: 1.102 cumulative IPC: 1.619 (Simulation time: 00 hr 05 min 27 sec)
Heartbeat CPU 0 instructions: 31500199 cycles: 19603989 heartbeat IPC: 1.104 cumulative IPC: 1.607 (Simulation time: 00 hr 05 min 35 sec)
Heartbeat CPU 0 instructions: 32000202 cycles: 20058045 heartbeat IPC: 1.101 cumulative IPC: 1.595 (Simulation time: 00 hr 05 min 43 sec)
Heartbeat CPU 0 instructions: 32500207 cycles: 20512035 heartbeat IPC: 1.101 cumulative IPC: 1.584 (Simulation time: 00 hr 05 min 50 sec)
Heartbeat CPU 0 instructions: 33000212 cycles: 20965706 heartbeat IPC: 1.102 cumulative IPC: 1.574 (Simulation time: 00 hr 05 min 58 sec)
Heartbeat CPU 0 instructions: 33500215 cycles: 21420420 heartbeat IPC: 1.1 cumulative IPC: 1.564 (Simulation time: 00 hr 06 min 06 sec)
Heartbeat CPU 0 instructions: 34000215 cycles: 21875063 heartbeat IPC: 1.1 cumulative IPC: 1.554 (Simulation time: 00 hr 06 min 14 sec)
Heartbeat CPU 0 instructions: 34500218 cycles: 22329998 heartbeat IPC: 1.099 cumulative IPC: 1.545 (Simulation time: 00 hr 06 min 22 sec)
Heartbeat CPU 0 instructions: 35000223 cycles: 22783867 heartbeat IPC: 1.102 cumulative IPC: 1.536 (Simulation time: 00 hr 06 min 30 sec)
Heartbeat CPU 0 instructions: 35500226 cycles: 23238214 heartbeat IPC: 1.1 cumulative IPC: 1.528 (Simulation time: 00 hr 06 min 38 sec)
Heartbeat CPU 0 instructions: 36000231 cycles: 23693507 heartbeat IPC: 1.098 cumulative IPC: 1.519 (Simulation time: 00 hr 06 min 46 sec)
Heartbeat CPU 0 instructions: 36500232 cycles: 24130521 heartbeat IPC: 1.144 cumulative IPC: 1.513 (Simulation time: 00 hr 06 min 52 sec)
Heartbeat CPU 0 instructions: 37000232 cycles: 24572352 heartbeat IPC: 1.132 cumulative IPC: 1.506 (Simulation time: 00 hr 06 min 59 sec)
Heartbeat CPU 0 instructions: 37500232 cycles: 24954984 heartbeat IPC: 1.307 cumulative IPC: 1.503 (Simulation time: 00 hr 07 min 05 sec)
Heartbeat CPU 0 instructions: 38000236 cycles: 25336560 heartbeat IPC: 1.31 cumulative IPC: 1.5 (Simulation time: 00 hr 07 min 10 sec)
Heartbeat CPU 0 instructions: 38500236 cycles: 25721240 heartbeat IPC: 1.3 cumulative IPC: 1.497 (Simulation time: 00 hr 07 min 16 sec)
Heartbeat CPU 0 instructions: 39000238 cycles: 26103784 heartbeat IPC: 1.307 cumulative IPC: 1.494 (Simulation time: 00 hr 07 min 22 sec)
Heartbeat CPU 0 instructions: 39500238 cycles: 26488252 heartbeat IPC: 1.3 cumulative IPC: 1.491 (Simulation time: 00 hr 07 min 28 sec)
Heartbeat CPU 0 instructions: 40000238 cycles: 26900324 heartbeat IPC: 1.213 cumulative IPC: 1.487 (Simulation time: 00 hr 07 min 34 sec)
Heartbeat CPU 0 instructions: 40500244 cycles: 27354954 heartbeat IPC: 1.1 cumulative IPC: 1.481 (Simulation time: 00 hr 07 min 41 sec)
Heartbeat CPU 0 instructions: 41000251 cycles: 27809774 heartbeat IPC: 1.099 cumulative IPC: 1.474 (Simulation time: 00 hr 07 min 48 sec)
Heartbeat CPU 0 instructions: 41500256 cycles: 28268539 heartbeat IPC: 1.09 cumulative IPC: 1.468 (Simulation time: 00 hr 07 min 55 sec)
Heartbeat CPU 0 instructions: 42000259 cycles: 28717272 heartbeat IPC: 1.114 cumulative IPC: 1.463 (Simulation time: 00 hr 08 min 01 sec)
Heartbeat CPU 0 instructions: 42500259 cycles: 29149772 heartbeat IPC: 1.156 cumulative IPC: 1.458 (Simulation time: 00 hr 08 min 09 sec)
Heartbeat CPU 0 instructions: 43000261 cycles: 29537809 heartbeat IPC: 1.289 cumulative IPC: 1.456 (Simulation time: 00 hr 08 min 14 sec)
Heartbeat CPU 0 instructions: 43500267 cycles: 29924183 heartbeat IPC: 1.294 cumulative IPC: 1.454 (Simulation time: 00 hr 08 min 20 sec)
Heartbeat CPU 0 instructions: 44000272 cycles: 30377789 heartbeat IPC: 1.102 cumulative IPC: 1.448 (Simulation time: 00 hr 08 min 27 sec)
Heartbeat CPU 0 instructions: 44500275 cycles: 30821938 heartbeat IPC: 1.126 cumulative IPC: 1.444 (Simulation time: 00 hr 08 min 34 sec)
Heartbeat CPU 0 instructions: 45000280 cycles: 31271108 heartbeat IPC: 1.113 cumulative IPC: 1.439 (Simulation time: 00 hr 08 min 41 sec)
Heartbeat CPU 0 instructions: 45500286 cycles: 31728025 heartbeat IPC: 1.094 cumulative IPC: 1.434 (Simulation time: 00 hr 08 min 48 sec)
Heartbeat CPU 0 instructions: 46000289 cycles: 32166678 heartbeat IPC: 1.14 cumulative IPC: 1.43 (Simulation time: 00 hr 08 min 55 sec)
Heartbeat CPU 0 instructions: 46500289 cycles: 32584598 heartbeat IPC: 1.196 cumulative IPC: 1.427 (Simulation time: 00 hr 09 min 01 sec)
Heartbeat CPU 0 instructions: 47000295 cycles: 32966854 heartbeat IPC: 1.308 cumulative IPC: 1.426 (Simulation time: 00 hr 09 min 07 sec)
Heartbeat CPU 0 instructions: 47500295 cycles: 33347908 heartbeat IPC: 1.312 cumulative IPC: 1.424 (Simulation time: 00 hr 09 min 13 sec)
Heartbeat CPU 0 instructions: 48000297 cycles: 33731154 heartbeat IPC: 1.305 cumulative IPC: 1.423 (Simulation time: 00 hr 09 min 19 sec)
Heartbeat CPU 0 instructions: 48500298 cycles: 34114008 heartbeat IPC: 1.306 cumulative IPC: 1.422 (Simulation time: 00 hr 09 min 25 sec)
Heartbeat CPU 0 instructions: 49000305 cycles: 34492407 heartbeat IPC: 1.321 cumulative IPC: 1.421 (Simulation time: 00 hr 09 min 31 sec)
Heartbeat CPU 0 instructions: 49500311 cycles: 34874997 heartbeat IPC: 1.307 cumulative IPC: 1.419 (Simulation time: 00 hr 09 min 36 sec)
Warmup finished CPU 0 instructions: 50000002 cycles: 35259153 cumulative IPC: 1.418 (Simulation time: 00 hr 09 min 42 sec)
Warmup complete CPU 0 instructions: 50000002 cycles: 35259153 cumulative IPC: 1.418 (Simulation time: 00 hr 09 min 42 sec)
Heartbeat CPU 0 instructions: 50000317 cycles: 35260633 heartbeat IPC: 1.297 cumulative IPC: 0.2128 (Simulation time: 00 hr 09 min 42 sec)
Heartbeat CPU 0 instructions: 50500322 cycles: 39695616 heartbeat IPC: 0.1127 cumulative IPC: 0.1128 (Simulation time: 00 hr 10 min 58 sec)
Heartbeat CPU 0 instructions: 51000328 cycles: 44480817 heartbeat IPC: 0.1045 cumulative IPC: 0.1085 (Simulation time: 00 hr 12 min 19 sec)
Heartbeat CPU 0 instructions: 51500331 cycles: 49272882 heartbeat IPC: 0.1043 cumulative IPC: 0.1071 (Simulation time: 00 hr 13 min 41 sec)
Heartbeat CPU 0 instructions: 52000335 cycles: 54050086 heartbeat IPC: 0.1047 cumulative IPC: 0.1065 (Simulation time: 00 hr 15 min 02 sec)
Heartbeat CPU 0 instructions: 52500341 cycles: 58865390 heartbeat IPC: 0.1038 cumulative IPC: 0.1059 (Simulation time: 00 hr 16 min 25 sec)
Heartbeat CPU 0 instructions: 53000345 cycles: 63644855 heartbeat IPC: 0.1046 cumulative IPC: 0.1057 (Simulation time: 00 hr 17 min 46 sec)
Heartbeat CPU 0 instructions: 53500350 cycles: 67320666 heartbeat IPC: 0.136 cumulative IPC: 0.1092 (Simulation time: 00 hr 18 min 47 sec)
Heartbeat CPU 0 instructions: 54000353 cycles: 71135423 heartbeat IPC: 0.1311 cumulative IPC: 0.1115 (Simulation time: 00 hr 20 min 01 sec)
Heartbeat CPU 0 instructions: 54500356 cycles: 75935924 heartbeat IPC: 0.1042 cumulative IPC: 0.1106 (Simulation time: 00 hr 21 min 23 sec)
Heartbeat CPU 0 instructions: 55000361 cycles: 80722020 heartbeat IPC: 0.1045 cumulative IPC: 0.11 (Simulation time: 00 hr 22 min 44 sec)
Heartbeat CPU 0 instructions: 55500367 cycles: 85479205 heartbeat IPC: 0.1051 cumulative IPC: 0.1095 (Simulation time: 00 hr 24 min 04 sec)
Heartbeat CPU 0 instructions: 56000368 cycles: 90263219 heartbeat IPC: 0.1045 cumulative IPC: 0.1091 (Simulation time: 00 hr 25 min 24 sec)
Heartbeat CPU 0 instructions: 56500374 cycles: 95014799 heartbeat IPC: 0.1052 cumulative IPC: 0.1088 (Simulation time: 00 hr 26 min 42 sec)
Heartbeat CPU 0 instructions: 57000381 cycles: 99226420 heartbeat IPC: 0.1187 cumulative IPC: 0.1094 (Simulation time: 00 hr 27 min 49 sec)
Heartbeat CPU 0 instructions: 57500387 cycles: 102881235 heartbeat IPC: 0.1368 cumulative IPC: 0.1109 (Simulation time: 00 hr 28 min 46 sec)
Heartbeat CPU 0 instructions: 58000391 cycles: 106545993 heartbeat IPC: 0.1364 cumulative IPC: 0.1122 (Simulation time: 00 hr 29 min 42 sec)
Heartbeat CPU 0 instructions: 58500397 cycles: 110224446 heartbeat IPC: 0.1359 cumulative IPC: 0.1134 (Simulation time: 00 hr 30 min 38 sec)
Heartbeat CPU 0 instructions: 59000401 cycles: 113880258 heartbeat IPC: 0.1368 cumulative IPC: 0.1145 (Simulation time: 00 hr 31 min 32 sec)
Heartbeat CPU 0 instructions: 59500408 cycles: 117568368 heartbeat IPC: 0.1356 cumulative IPC: 0.1154 (Simulation time: 00 hr 32 min 26 sec)
Heartbeat CPU 0 instructions: 60000408 cycles: 121229554 heartbeat IPC: 0.1366 cumulative IPC: 0.1163 (Simulation time: 00 hr 33 min 20 sec)
Heartbeat CPU 0 instructions: 60500408 cycles: 124913412 heartbeat IPC: 0.1357 cumulative IPC: 0.1171 (Simulation time: 00 hr 34 min 13 sec)
Heartbeat CPU 0 instructions: 61000408 cycles: 129516794 heartbeat IPC: 0.1086 cumulative IPC: 0.1167 (Simulation time: 00 hr 35 min 20 sec)
Heartbeat CPU 0 instructions: 61500412 cycles: 134307034 heartbeat IPC: 0.1044 cumulative IPC: 0.1161 (Simulation time: 00 hr 36 min 29 sec)
Heartbeat CPU 0 instructions: 62000415 cycles: 139074675 heartbeat IPC: 0.1049 cumulative IPC: 0.1156 (Simulation time: 00 hr 37 min 37 sec)
Heartbeat CPU 0 instructions: 62500420 cycles: 143872767 heartbeat IPC: 0.1042 cumulative IPC: 0.1151 (Simulation time: 00 hr 38 min 45 sec)
Heartbeat CPU 0 instructions: 63000426 cycles: 148679325 heartbeat IPC: 0.104 cumulative IPC: 0.1146 (Simulation time: 00 hr 39 min 52 sec)
Heartbeat CPU 0 instructions: 63500430 cycles: 153383224 heartbeat IPC: 0.1063 cumulative IPC: 0.1143 (Simulation time: 00 hr 40 min 57 sec)
Heartbeat CPU 0 instructions: 64000430 cycles: 157040415 heartbeat IPC: 0.1367 cumulative IPC: 0.115 (Simulation time: 00 hr 41 min 46 sec)
Heartbeat CPU 0 instructions: 64500433 cycles: 160906042 heartbeat IPC: 0.1293 cumulative IPC: 0.1154 (Simulation time: 00 hr 42 min 37 sec)
Heartbeat CPU 0 instructions: 65000433 cycles: 165710550 heartbeat IPC: 0.1041 cumulative IPC: 0.115 (Simulation time: 00 hr 43 min 40 sec)
Heartbeat CPU 0 instructions: 65500434 cycles: 170488416 heartbeat IPC: 0.1046 cumulative IPC: 0.1146 (Simulation time: 00 hr 44 min 44 sec)
Heartbeat CPU 0 instructions: 66000437 cycles: 175266787 heartbeat IPC: 0.1046 cumulative IPC: 0.1143 (Simulation time: 00 hr 45 min 47 sec)
Heartbeat CPU 0 instructions: 66500437 cycles: 180064360 heartbeat IPC: 0.1042 cumulative IPC: 0.1139 (Simulation time: 00 hr 46 min 51 sec)
Heartbeat CPU 0 instructions: 67000438 cycles: 184835525 heartbeat IPC: 0.1048 cumulative IPC: 0.1137 (Simulation time: 00 hr 47 min 54 sec)
Heartbeat CPU 0 instructions: 67500441 cycles: 188946588 heartbeat IPC: 0.1216 cumulative IPC: 0.1139 (Simulation time: 00 hr 48 min 48 sec)
Heartbeat CPU 0 instructions: 68000441 cycles: 192621812 heartbeat IPC: 0.136 cumulative IPC: 0.1144 (Simulation time: 00 hr 49 min 35 sec)
Heartbeat CPU 0 instructions: 68500448 cycles: 196291222 heartbeat IPC: 0.1363 cumulative IPC: 0.1149 (Simulation time: 00 hr 50 min 23 sec)
Heartbeat CPU 0 instructions: 69000455 cycles: 199970702 heartbeat IPC: 0.1359 cumulative IPC: 0.1154 (Simulation time: 00 hr 51 min 11 sec)
Heartbeat CPU 0 instructions: 69500456 cycles: 203626848 heartbeat IPC: 0.1368 cumulative IPC: 0.1158 (Simulation time: 00 hr 51 min 58 sec)
Heartbeat CPU 0 instructions: 70000460 cycles: 207285245 heartbeat IPC: 0.1367 cumulative IPC: 0.1163 (Simulation time: 00 hr 52 min 46 sec)
Heartbeat CPU 0 instructions: 70500464 cycles: 210948424 heartbeat IPC: 0.1365 cumulative IPC: 0.1167 (Simulation time: 00 hr 53 min 33 sec)
Heartbeat CPU 0 instructions: 71000471 cycles: 214612237 heartbeat IPC: 0.1365 cumulative IPC: 0.1171 (Simulation time: 00 hr 54 min 21 sec)
Heartbeat CPU 0 instructions: 71500471 cycles: 219281683 heartbeat IPC: 0.1071 cumulative IPC: 0.1168 (Simulation time: 00 hr 55 min 22 sec)
Heartbeat CPU 0 instructions: 72000474 cycles: 224085134 heartbeat IPC: 0.1041 cumulative IPC: 0.1165 (Simulation time: 00 hr 56 min 26 sec)
Heartbeat CPU 0 instructions: 72500476 cycles: 228842057 heartbeat IPC: 0.1051 cumulative IPC: 0.1162 (Simulation time: 00 hr 57 min 29 sec)
Heartbeat CPU 0 instructions: 73000482 cycles: 233628983 heartbeat IPC: 0.1045 cumulative IPC: 0.1159 (Simulation time: 00 hr 58 min 33 sec)
Heartbeat CPU 0 instructions: 73500485 cycles: 238400830 heartbeat IPC: 0.1048 cumulative IPC: 0.1157 (Simulation time: 00 hr 59 min 36 sec)
Heartbeat CPU 0 instructions: 74000487 cycles: 243046258 heartbeat IPC: 0.1076 cumulative IPC: 0.1155 (Simulation time: 01 hr 00 min 38 sec)
Heartbeat CPU 0 instructions: 74500489 cycles: 246691580 heartbeat IPC: 0.1372 cumulative IPC: 0.1159 (Simulation time: 01 hr 01 min 25 sec)
Heartbeat CPU 0 instructions: 75000494 cycles: 250666458 heartbeat IPC: 0.1258 cumulative IPC: 0.1161 (Simulation time: 01 hr 02 min 17 sec)
Heartbeat CPU 0 instructions: 75500496 cycles: 255441549 heartbeat IPC: 0.1047 cumulative IPC: 0.1158 (Simulation time: 01 hr 03 min 20 sec)
Heartbeat CPU 0 instructions: 76000502 cycles: 260244572 heartbeat IPC: 0.1041 cumulative IPC: 0.1156 (Simulation time: 01 hr 04 min 24 sec)
Heartbeat CPU 0 instructions: 76500504 cycles: 265017671 heartbeat IPC: 0.1048 cumulative IPC: 0.1153 (Simulation time: 01 hr 05 min 27 sec)
Heartbeat CPU 0 instructions: 77000510 cycles: 269812094 heartbeat IPC: 0.1043 cumulative IPC: 0.1151 (Simulation time: 01 hr 06 min 31 sec)
Heartbeat CPU 0 instructions: 77500512 cycles: 274600893 heartbeat IPC: 0.1044 cumulative IPC: 0.1149 (Simulation time: 01 hr 07 min 34 sec)
Heartbeat CPU 0 instructions: 78000516 cycles: 278632407 heartbeat IPC: 0.124 cumulative IPC: 0.1151 (Simulation time: 01 hr 08 min 27 sec)
Heartbeat CPU 0 instructions: 78500520 cycles: 282315039 heartbeat IPC: 0.1358 cumulative IPC: 0.1154 (Simulation time: 01 hr 09 min 15 sec)
Heartbeat CPU 0 instructions: 79000522 cycles: 285983330 heartbeat IPC: 0.1363 cumulative IPC: 0.1157 (Simulation time: 01 hr 10 min 02 sec)
Heartbeat CPU 0 instructions: 79500528 cycles: 289657498 heartbeat IPC: 0.1361 cumulative IPC: 0.116 (Simulation time: 01 hr 10 min 50 sec)
Heartbeat CPU 0 instructions: 80000530 cycles: 293337392 heartbeat IPC: 0.1359 cumulative IPC: 0.1162 (Simulation time: 01 hr 11 min 38 sec)
Heartbeat CPU 0 instructions: 80500530 cycles: 297000930 heartbeat IPC: 0.1365 cumulative IPC: 0.1165 (Simulation time: 01 hr 12 min 25 sec)
Heartbeat CPU 0 instructions: 81000530 cycles: 300662162 heartbeat IPC: 0.1366 cumulative IPC: 0.1168 (Simulation time: 01 hr 13 min 12 sec)
Heartbeat CPU 0 instructions: 81500530 cycles: 304350271 heartbeat IPC: 0.1356 cumulative IPC: 0.1171 (Simulation time: 01 hr 14 min 00 sec)
Heartbeat CPU 0 instructions: 82000533 cycles: 309043758 heartbeat IPC: 0.1065 cumulative IPC: 0.1169 (Simulation time: 01 hr 15 min 01 sec)
Heartbeat CPU 0 instructions: 82500535 cycles: 313819291 heartbeat IPC: 0.1047 cumulative IPC: 0.1167 (Simulation time: 01 hr 16 min 04 sec)
Heartbeat CPU 0 instructions: 83000535 cycles: 318547819 heartbeat IPC: 0.1057 cumulative IPC: 0.1165 (Simulation time: 01 hr 17 min 06 sec)
Heartbeat CPU 0 instructions: 83500535 cycles: 323327915 heartbeat IPC: 0.1046 cumulative IPC: 0.1163 (Simulation time: 01 hr 18 min 09 sec)
Heartbeat CPU 0 instructions: 84000538 cycles: 328081733 heartbeat IPC: 0.1052 cumulative IPC: 0.1161 (Simulation time: 01 hr 19 min 11 sec)
Heartbeat CPU 0 instructions: 84500540 cycles: 332623114 heartbeat IPC: 0.1101 cumulative IPC: 0.116 (Simulation time: 01 hr 20 min 10 sec)
Heartbeat CPU 0 instructions: 85000542 cycles: 336271978 heartbeat IPC: 0.137 cumulative IPC: 0.1163 (Simulation time: 01 hr 20 min 57 sec)
Heartbeat CPU 0 instructions: 85500543 cycles: 340307073 heartbeat IPC: 0.1239 cumulative IPC: 0.1164 (Simulation time: 01 hr 21 min 49 sec)
Heartbeat CPU 0 instructions: 86000545 cycles: 345061257 heartbeat IPC: 0.1052 cumulative IPC: 0.1162 (Simulation time: 01 hr 22 min 51 sec)
Heartbeat CPU 0 instructions: 86500550 cycles: 349820841 heartbeat IPC: 0.1051 cumulative IPC: 0.116 (Simulation time: 01 hr 23 min 53 sec)
Heartbeat CPU 0 instructions: 87000553 cycles: 354578776 heartbeat IPC: 0.1051 cumulative IPC: 0.1159 (Simulation time: 01 hr 24 min 55 sec)
Heartbeat CPU 0 instructions: 87500558 cycles: 359313344 heartbeat IPC: 0.1056 cumulative IPC: 0.1157 (Simulation time: 01 hr 25 min 58 sec)
Heartbeat CPU 0 instructions: 88000561 cycles: 364079397 heartbeat IPC: 0.1049 cumulative IPC: 0.1156 (Simulation time: 01 hr 27 min 00 sec)
Heartbeat CPU 0 instructions: 88500562 cycles: 368056542 heartbeat IPC: 0.1257 cumulative IPC: 0.1157 (Simulation time: 01 hr 27 min 51 sec)
Heartbeat CPU 0 instructions: 89000569 cycles: 371704785 heartbeat IPC: 0.1371 cumulative IPC: 0.1159 (Simulation time: 01 hr 28 min 39 sec)
Heartbeat CPU 0 instructions: 89500572 cycles: 375376303 heartbeat IPC: 0.1362 cumulative IPC: 0.1161 (Simulation time: 01 hr 29 min 26 sec)
Heartbeat CPU 0 instructions: 90000575 cycles: 379043166 heartbeat IPC: 0.1364 cumulative IPC: 0.1164 (Simulation time: 01 hr 30 min 14 sec)
Heartbeat CPU 0 instructions: 90500575 cycles: 382720574 heartbeat IPC: 0.136 cumulative IPC: 0.1166 (Simulation time: 01 hr 31 min 01 sec)
Heartbeat CPU 0 instructions: 91000581 cycles: 386392474 heartbeat IPC: 0.1362 cumulative IPC: 0.1168 (Simulation time: 01 hr 31 min 49 sec)
Heartbeat CPU 0 instructions: 91500588 cycles: 390084211 heartbeat IPC: 0.1354 cumulative IPC: 0.117 (Simulation time: 01 hr 32 min 37 sec)
Heartbeat CPU 0 instructions: 92000594 cycles: 393744846 heartbeat IPC: 0.1366 cumulative IPC: 0.1172 (Simulation time: 01 hr 33 min 24 sec)
Heartbeat CPU 0 instructions: 92500597 cycles: 398540749 heartbeat IPC: 0.1043 cumulative IPC: 0.117 (Simulation time: 01 hr 34 min 27 sec)
Heartbeat CPU 0 instructions: 93000604 cycles: 403312641 heartbeat IPC: 0.1048 cumulative IPC: 0.1168 (Simulation time: 01 hr 35 min 30 sec)
Heartbeat CPU 0 instructions: 93500607 cycles: 408113658 heartbeat IPC: 0.1041 cumulative IPC: 0.1167 (Simulation time: 01 hr 36 min 33 sec)
Heartbeat CPU 0 instructions: 94000610 cycles: 412901552 heartbeat IPC: 0.1044 cumulative IPC: 0.1165 (Simulation time: 01 hr 37 min 36 sec)
Heartbeat CPU 0 instructions: 94500615 cycles: 417668013 heartbeat IPC: 0.1049 cumulative IPC: 0.1164 (Simulation time: 01 hr 38 min 38 sec)
Heartbeat CPU 0 instructions: 95000620 cycles: 422179459 heartbeat IPC: 0.1108 cumulative IPC: 0.1163 (Simulation time: 01 hr 39 min 37 sec)
Heartbeat CPU 0 instructions: 95500620 cycles: 425832121 heartbeat IPC: 0.1369 cumulative IPC: 0.1165 (Simulation time: 01 hr 40 min 24 sec)
Heartbeat CPU 0 instructions: 96000625 cycles: 429945409 heartbeat IPC: 0.1216 cumulative IPC: 0.1165 (Simulation time: 01 hr 41 min 17 sec)
Heartbeat CPU 0 instructions: 96500626 cycles: 434725006 heartbeat IPC: 0.1046 cumulative IPC: 0.1164 (Simulation time: 01 hr 42 min 19 sec)
Heartbeat CPU 0 instructions: 97000626 cycles: 439496887 heartbeat IPC: 0.1048 cumulative IPC: 0.1163 (Simulation time: 01 hr 43 min 20 sec)
Heartbeat CPU 0 instructions: 97500630 cycles: 444290291 heartbeat IPC: 0.1043 cumulative IPC: 0.1161 (Simulation time: 01 hr 44 min 23 sec)
Heartbeat CPU 0 instructions: 98000633 cycles: 449071416 heartbeat IPC: 0.1046 cumulative IPC: 0.116 (Simulation time: 01 hr 45 min 25 sec)
Heartbeat CPU 0 instructions: 98500638 cycles: 453837536 heartbeat IPC: 0.1049 cumulative IPC: 0.1159 (Simulation time: 01 hr 46 min 27 sec)
Heartbeat CPU 0 instructions: 99000640 cycles: 457725830 heartbeat IPC: 0.1286 cumulative IPC: 0.116 (Simulation time: 01 hr 47 min 17 sec)
Heartbeat CPU 0 instructions: 99500643 cycles: 461387449 heartbeat IPC: 0.1366 cumulative IPC: 0.1162 (Simulation time: 01 hr 48 min 05 sec)
Heartbeat CPU 0 instructions: 100000649 cycles: 465053399 heartbeat IPC: 0.1364 cumulative IPC: 0.1163 (Simulation time: 01 hr 48 min 52 sec)
Heartbeat CPU 0 instructions: 100500651 cycles: 468736683 heartbeat IPC: 0.1357 cumulative IPC: 0.1165 (Simulation time: 01 hr 49 min 39 sec)
Heartbeat CPU 0 instructions: 101000652 cycles: 472414750 heartbeat IPC: 0.1359 cumulative IPC: 0.1167 (Simulation time: 01 hr 50 min 26 sec)
Heartbeat CPU 0 instructions: 101500655 cycles: 476096958 heartbeat IPC: 0.1358 cumulative IPC: 0.1168 (Simulation time: 01 hr 51 min 14 sec)
Heartbeat CPU 0 instructions: 102000661 cycles: 479764046 heartbeat IPC: 0.1363 cumulative IPC: 0.117 (Simulation time: 01 hr 52 min 01 sec)
Heartbeat CPU 0 instructions: 102500665 cycles: 483526407 heartbeat IPC: 0.1329 cumulative IPC: 0.1171 (Simulation time: 01 hr 52 min 50 sec)
Heartbeat CPU 0 instructions: 103000667 cycles: 488320472 heartbeat IPC: 0.1043 cumulative IPC: 0.117 (Simulation time: 01 hr 53 min 52 sec)
Heartbeat CPU 0 instructions: 103500672 cycles: 493079254 heartbeat IPC: 0.1051 cumulative IPC: 0.1169 (Simulation time: 01 hr 54 min 54 sec)
Heartbeat CPU 0 instructions: 104000678 cycles: 497837970 heartbeat IPC: 0.1051 cumulative IPC: 0.1167 (Simulation time: 01 hr 55 min 55 sec)
Heartbeat CPU 0 instructions: 104500681 cycles: 502601297 heartbeat IPC: 0.105 cumulative IPC: 0.1166 (Simulation time: 01 hr 56 min 57 sec)
Heartbeat CPU 0 instructions: 105000686 cycles: 507382660 heartbeat IPC: 0.1046 cumulative IPC: 0.1165 (Simulation time: 01 hr 57 min 59 sec)
Heartbeat CPU 0 instructions: 105500690 cycles: 511765462 heartbeat IPC: 0.1141 cumulative IPC: 0.1165 (Simulation time: 01 hr 58 min 56 sec)
Heartbeat CPU 0 instructions: 106000696 cycles: 515446880 heartbeat IPC: 0.1358 cumulative IPC: 0.1166 (Simulation time: 01 hr 59 min 43 sec)
Heartbeat CPU 0 instructions: 106500697 cycles: 519655446 heartbeat IPC: 0.1188 cumulative IPC: 0.1166 (Simulation time: 02 hr 00 min 37 sec)
Heartbeat CPU 0 instructions: 107000697 cycles: 524406337 heartbeat IPC: 0.1052 cumulative IPC: 0.1165 (Simulation time: 02 hr 01 min 39 sec)
Heartbeat CPU 0 instructions: 107500698 cycles: 529188410 heartbeat IPC: 0.1046 cumulative IPC: 0.1164 (Simulation time: 02 hr 02 min 41 sec)
Heartbeat CPU 0 instructions: 108000704 cycles: 533935276 heartbeat IPC: 0.1053 cumulative IPC: 0.1163 (Simulation time: 02 hr 03 min 42 sec)
Heartbeat CPU 0 instructions: 108500704 cycles: 538709306 heartbeat IPC: 0.1047 cumulative IPC: 0.1162 (Simulation time: 02 hr 04 min 44 sec)
Heartbeat CPU 0 instructions: 109000708 cycles: 543459869 heartbeat IPC: 0.1053 cumulative IPC: 0.1161 (Simulation time: 02 hr 05 min 46 sec)
Heartbeat CPU 0 instructions: 109500708 cycles: 547286994 heartbeat IPC: 0.1306 cumulative IPC: 0.1162 (Simulation time: 02 hr 06 min 35 sec)
Heartbeat CPU 0 instructions: 110000709 cycles: 550982881 heartbeat IPC: 0.1353 cumulative IPC: 0.1163 (Simulation time: 02 hr 07 min 23 sec)
Heartbeat CPU 0 instructions: 110500716 cycles: 554650432 heartbeat IPC: 0.1363 cumulative IPC: 0.1165 (Simulation time: 02 hr 08 min 11 sec)
Heartbeat CPU 0 instructions: 111000722 cycles: 558323131 heartbeat IPC: 0.1361 cumulative IPC: 0.1166 (Simulation time: 02 hr 08 min 58 sec)
Heartbeat CPU 0 instructions: 111500727 cycles: 562012665 heartbeat IPC: 0.1355 cumulative IPC: 0.1168 (Simulation time: 02 hr 09 min 45 sec)
Heartbeat CPU 0 instructions: 112000729 cycles: 565698020 heartbeat IPC: 0.1357 cumulative IPC: 0.1169 (Simulation time: 02 hr 10 min 33 sec)
Heartbeat CPU 0 instructions: 112500733 cycles: 569381129 heartbeat IPC: 0.1358 cumulative IPC: 0.117 (Simulation time: 02 hr 11 min 21 sec)
Heartbeat CPU 0 instructions: 113000736 cycles: 573219771 heartbeat IPC: 0.1303 cumulative IPC: 0.1171 (Simulation time: 02 hr 12 min 10 sec)
Heartbeat CPU 0 instructions: 113500742 cycles: 578028889 heartbeat IPC: 0.104 cumulative IPC: 0.117 (Simulation time: 02 hr 13 min 13 sec)
Heartbeat CPU 0 instructions: 114000744 cycles: 582798718 heartbeat IPC: 0.1048 cumulative IPC: 0.1169 (Simulation time: 02 hr 14 min 16 sec)
Heartbeat CPU 0 instructions: 114500748 cycles: 587597571 heartbeat IPC: 0.1042 cumulative IPC: 0.1168 (Simulation time: 02 hr 15 min 18 sec)
Heartbeat CPU 0 instructions: 115000753 cycles: 592393046 heartbeat IPC: 0.1043 cumulative IPC: 0.1167 (Simulation time: 02 hr 16 min 21 sec)
Heartbeat CPU 0 instructions: 115500753 cycles: 597164459 heartbeat IPC: 0.1048 cumulative IPC: 0.1166 (Simulation time: 02 hr 17 min 23 sec)
Heartbeat CPU 0 instructions: 116000758 cycles: 601497751 heartbeat IPC: 0.1154 cumulative IPC: 0.1166 (Simulation time: 02 hr 18 min 19 sec)
Heartbeat CPU 0 instructions: 116500765 cycles: 605167867 heartbeat IPC: 0.1362 cumulative IPC: 0.1167 (Simulation time: 02 hr 19 min 06 sec)
Heartbeat CPU 0 instructions: 117000768 cycles: 609473048 heartbeat IPC: 0.1161 cumulative IPC: 0.1167 (Simulation time: 02 hr 20 min 02 sec)
Heartbeat CPU 0 instructions: 117500770 cycles: 614255417 heartbeat IPC: 0.1046 cumulative IPC: 0.1166 (Simulation time: 02 hr 21 min 05 sec)
Heartbeat CPU 0 instructions: 118000770 cycles: 619040490 heartbeat IPC: 0.1045 cumulative IPC: 0.1165 (Simulation time: 02 hr 22 min 07 sec)
Heartbeat CPU 0 instructions: 118500777 cycles: 623805985 heartbeat IPC: 0.1049 cumulative IPC: 0.1164 (Simulation time: 02 hr 23 min 09 sec)
Heartbeat CPU 0 instructions: 119000779 cycles: 628582411 heartbeat IPC: 0.1047 cumulative IPC: 0.1163 (Simulation time: 02 hr 24 min 11 sec)
Heartbeat CPU 0 instructions: 119500781 cycles: 633368487 heartbeat IPC: 0.1045 cumulative IPC: 0.1162 (Simulation time: 02 hr 25 min 14 sec)
Heartbeat CPU 0 instructions: 120000786 cycles: 637096382 heartbeat IPC: 0.1341 cumulative IPC: 0.1163 (Simulation time: 02 hr 26 min 02 sec)
Heartbeat CPU 0 instructions: 120500788 cycles: 640808237 heartbeat IPC: 0.1347 cumulative IPC: 0.1164 (Simulation time: 02 hr 26 min 50 sec)
Heartbeat CPU 0 instructions: 121000792 cycles: 644474340 heartbeat IPC: 0.1364 cumulative IPC: 0.1165 (Simulation time: 02 hr 27 min 38 sec)
Heartbeat CPU 0 instructions: 121500795 cycles: 648152902 heartbeat IPC: 0.1359 cumulative IPC: 0.1167 (Simulation time: 02 hr 28 min 25 sec)
Heartbeat CPU 0 instructions: 122000798 cycles: 651838291 heartbeat IPC: 0.1357 cumulative IPC: 0.1168 (Simulation time: 02 hr 29 min 13 sec)
Heartbeat CPU 0 instructions: 122500804 cycles: 655498753 heartbeat IPC: 0.1366 cumulative IPC: 0.1169 (Simulation time: 02 hr 30 min 00 sec)
Heartbeat CPU 0 instructions: 123000811 cycles: 659196728 heartbeat IPC: 0.1352 cumulative IPC: 0.117 (Simulation time: 02 hr 30 min 48 sec)
Heartbeat CPU 0 instructions: 123500813 cycles: 663122334 heartbeat IPC: 0.1274 cumulative IPC: 0.1171 (Simulation time: 02 hr 31 min 39 sec)
Heartbeat CPU 0 instructions: 124000818 cycles: 667919856 heartbeat IPC: 0.1042 cumulative IPC: 0.117 (Simulation time: 02 hr 32 min 41 sec)
Heartbeat CPU 0 instructions: 124500821 cycles: 672698065 heartbeat IPC: 0.1046 cumulative IPC: 0.1169 (Simulation time: 02 hr 33 min 44 sec)
Heartbeat CPU 0 instructions: 125000826 cycles: 677484413 heartbeat IPC: 0.1045 cumulative IPC: 0.1168 (Simulation time: 02 hr 34 min 46 sec)
Heartbeat CPU 0 instructions: 125500832 cycles: 682265704 heartbeat IPC: 0.1046 cumulative IPC: 0.1167 (Simulation time: 02 hr 35 min 48 sec)
Heartbeat CPU 0 instructions: 126000834 cycles: 687022105 heartbeat IPC: 0.1051 cumulative IPC: 0.1166 (Simulation time: 02 hr 36 min 50 sec)
Heartbeat CPU 0 instructions: 126500837 cycles: 691263961 heartbeat IPC: 0.1179 cumulative IPC: 0.1166 (Simulation time: 02 hr 37 min 46 sec)
Heartbeat CPU 0 instructions: 127000843 cycles: 694925885 heartbeat IPC: 0.1365 cumulative IPC: 0.1167 (Simulation time: 02 hr 38 min 33 sec)
Heartbeat CPU 0 instructions: 127500847 cycles: 699300274 heartbeat IPC: 0.1143 cumulative IPC: 0.1167 (Simulation time: 02 hr 39 min 30 sec)
Heartbeat CPU 0 instructions: 128000850 cycles: 704058341 heartbeat IPC: 0.1051 cumulative IPC: 0.1166 (Simulation time: 02 hr 40 min 32 sec)
Heartbeat CPU 0 instructions: 128500855 cycles: 708835229 heartbeat IPC: 0.1047 cumulative IPC: 0.1165 (Simulation time: 02 hr 41 min 34 sec)
Heartbeat CPU 0 instructions: 129000858 cycles: 713598701 heartbeat IPC: 0.105 cumulative IPC: 0.1165 (Simulation time: 02 hr 42 min 36 sec)
Heartbeat CPU 0 instructions: 129500859 cycles: 718386073 heartbeat IPC: 0.1044 cumulative IPC: 0.1164 (Simulation time: 02 hr 43 min 39 sec)
Heartbeat CPU 0 instructions: 130000866 cycles: 723169202 heartbeat IPC: 0.1045 cumulative IPC: 0.1163 (Simulation time: 02 hr 44 min 41 sec)
Heartbeat CPU 0 instructions: 130500868 cycles: 726830877 heartbeat IPC: 0.1366 cumulative IPC: 0.1164 (Simulation time: 02 hr 45 min 28 sec)
Heartbeat CPU 0 instructions: 131000875 cycles: 730517603 heartbeat IPC: 0.1356 cumulative IPC: 0.1165 (Simulation time: 02 hr 46 min 16 sec)
Heartbeat CPU 0 instructions: 131500875 cycles: 734182059 heartbeat IPC: 0.1364 cumulative IPC: 0.1166 (Simulation time: 02 hr 47 min 03 sec)
Heartbeat CPU 0 instructions: 132000879 cycles: 737891069 heartbeat IPC: 0.1348 cumulative IPC: 0.1167 (Simulation time: 02 hr 47 min 51 sec)
Heartbeat CPU 0 instructions: 132500885 cycles: 741562110 heartbeat IPC: 0.1362 cumulative IPC: 0.1168 (Simulation time: 02 hr 48 min 39 sec)
Heartbeat CPU 0 instructions: 133000886 cycles: 745251196 heartbeat IPC: 0.1355 cumulative IPC: 0.1169 (Simulation time: 02 hr 49 min 26 sec)
Heartbeat CPU 0 instructions: 133500886 cycles: 748936044 heartbeat IPC: 0.1357 cumulative IPC: 0.117 (Simulation time: 02 hr 50 min 14 sec)
Heartbeat CPU 0 instructions: 134000887 cycles: 752949144 heartbeat IPC: 0.1246 cumulative IPC: 0.117 (Simulation time: 02 hr 51 min 06 sec)
Heartbeat CPU 0 instructions: 134500890 cycles: 757746059 heartbeat IPC: 0.1042 cumulative IPC: 0.117 (Simulation time: 02 hr 52 min 09 sec)
Heartbeat CPU 0 instructions: 135000895 cycles: 762548303 heartbeat IPC: 0.1041 cumulative IPC: 0.1169 (Simulation time: 02 hr 53 min 12 sec)
Heartbeat CPU 0 instructions: 135500898 cycles: 767338737 heartbeat IPC: 0.1044 cumulative IPC: 0.1168 (Simulation time: 02 hr 54 min 14 sec)
Heartbeat CPU 0 instructions: 136000903 cycles: 772125409 heartbeat IPC: 0.1045 cumulative IPC: 0.1167 (Simulation time: 02 hr 55 min 17 sec)
Heartbeat CPU 0 instructions: 136500909 cycles: 776912979 heartbeat IPC: 0.1044 cumulative IPC: 0.1166 (Simulation time: 02 hr 56 min 19 sec)
Heartbeat CPU 0 instructions: 137000909 cycles: 781088790 heartbeat IPC: 0.1197 cumulative IPC: 0.1166 (Simulation time: 02 hr 57 min 13 sec)
Heartbeat CPU 0 instructions: 137500911 cycles: 784772144 heartbeat IPC: 0.1357 cumulative IPC: 0.1167 (Simulation time: 02 hr 58 min 01 sec)
Heartbeat CPU 0 instructions: 138000912 cycles: 789212638 heartbeat IPC: 0.1126 cumulative IPC: 0.1167 (Simulation time: 02 hr 58 min 59 sec)
Heartbeat CPU 0 instructions: 138500918 cycles: 793991508 heartbeat IPC: 0.1046 cumulative IPC: 0.1166 (Simulation time: 03 hr 00 min 01 sec)
Heartbeat CPU 0 instructions: 139000920 cycles: 798791446 heartbeat IPC: 0.1042 cumulative IPC: 0.1166 (Simulation time: 03 hr 01 min 04 sec)
Heartbeat CPU 0 instructions: 139500926 cycles: 803590595 heartbeat IPC: 0.1042 cumulative IPC: 0.1165 (Simulation time: 03 hr 02 min 06 sec)
Heartbeat CPU 0 instructions: 140000928 cycles: 808371592 heartbeat IPC: 0.1046 cumulative IPC: 0.1164 (Simulation time: 03 hr 03 min 09 sec)
Heartbeat CPU 0 instructions: 140500934 cycles: 813158949 heartbeat IPC: 0.1044 cumulative IPC: 0.1163 (Simulation time: 03 hr 04 min 11 sec)
Heartbeat CPU 0 instructions: 141000935 cycles: 816774778 heartbeat IPC: 0.1383 cumulative IPC: 0.1164 (Simulation time: 03 hr 04 min 57 sec)
Heartbeat CPU 0 instructions: 141500942 cycles: 820460367 heartbeat IPC: 0.1357 cumulative IPC: 0.1165 (Simulation time: 03 hr 05 min 45 sec)
Heartbeat CPU 0 instructions: 142000943 cycles: 824162552 heartbeat IPC: 0.1351 cumulative IPC: 0.1166 (Simulation time: 03 hr 06 min 33 sec)
Heartbeat CPU 0 instructions: 142500944 cycles: 827833032 heartbeat IPC: 0.1362 cumulative IPC: 0.1167 (Simulation time: 03 hr 07 min 20 sec)
Heartbeat CPU 0 instructions: 143000944 cycles: 831519731 heartbeat IPC: 0.1356 cumulative IPC: 0.1168 (Simulation time: 03 hr 08 min 08 sec)
Heartbeat CPU 0 instructions: 143500946 cycles: 835207809 heartbeat IPC: 0.1356 cumulative IPC: 0.1169 (Simulation time: 03 hr 08 min 56 sec)
Heartbeat CPU 0 instructions: 144000946 cycles: 838886637 heartbeat IPC: 0.1359 cumulative IPC: 0.117 (Simulation time: 03 hr 09 min 43 sec)
Heartbeat CPU 0 instructions: 144500951 cycles: 842983738 heartbeat IPC: 0.122 cumulative IPC: 0.117 (Simulation time: 03 hr 10 min 36 sec)
Heartbeat CPU 0 instructions: 145000951 cycles: 847780814 heartbeat IPC: 0.1042 cumulative IPC: 0.1169 (Simulation time: 03 hr 11 min 39 sec)
Heartbeat CPU 0 instructions: 145500957 cycles: 852555366 heartbeat IPC: 0.1047 cumulative IPC: 0.1168 (Simulation time: 03 hr 12 min 41 sec)
Heartbeat CPU 0 instructions: 146000957 cycles: 857333473 heartbeat IPC: 0.1046 cumulative IPC: 0.1168 (Simulation time: 03 hr 13 min 43 sec)
Heartbeat CPU 0 instructions: 146500962 cycles: 862129637 heartbeat IPC: 0.1043 cumulative IPC: 0.1167 (Simulation time: 03 hr 14 min 46 sec)
Heartbeat CPU 0 instructions: 147000965 cycles: 866915693 heartbeat IPC: 0.1045 cumulative IPC: 0.1166 (Simulation time: 03 hr 15 min 48 sec)
Heartbeat CPU 0 instructions: 147500968 cycles: 871001449 heartbeat IPC: 0.1224 cumulative IPC: 0.1167 (Simulation time: 03 hr 16 min 41 sec)
Heartbeat CPU 0 instructions: 148000975 cycles: 874683297 heartbeat IPC: 0.1358 cumulative IPC: 0.1167 (Simulation time: 03 hr 17 min 29 sec)
Heartbeat CPU 0 instructions: 148500981 cycles: 879230741 heartbeat IPC: 0.11 cumulative IPC: 0.1167 (Simulation time: 03 hr 18 min 28 sec)
Heartbeat CPU 0 instructions: 149000987 cycles: 884016392 heartbeat IPC: 0.1045 cumulative IPC: 0.1166 (Simulation time: 03 hr 19 min 30 sec)
Heartbeat CPU 0 instructions: 149500988 cycles: 888817752 heartbeat IPC: 0.1041 cumulative IPC: 0.1166 (Simulation time: 03 hr 20 min 33 sec)
Heartbeat CPU 0 instructions: 150000991 cycles: 893602394 heartbeat IPC: 0.1045 cumulative IPC: 0.1165 (Simulation time: 03 hr 21 min 35 sec)
Heartbeat CPU 0 instructions: 150500996 cycles: 898375071 heartbeat IPC: 0.1048 cumulative IPC: 0.1164 (Simulation time: 03 hr 22 min 37 sec)
Heartbeat CPU 0 instructions: 151000999 cycles: 903164216 heartbeat IPC: 0.1044 cumulative IPC: 0.1164 (Simulation time: 03 hr 23 min 40 sec)
Heartbeat CPU 0 instructions: 151501002 cycles: 906678641 heartbeat IPC: 0.1423 cumulative IPC: 0.1165 (Simulation time: 03 hr 24 min 25 sec)
Heartbeat CPU 0 instructions: 152001006 cycles: 910361670 heartbeat IPC: 0.1358 cumulative IPC: 0.1166 (Simulation time: 03 hr 25 min 13 sec)
Heartbeat CPU 0 instructions: 152501009 cycles: 914047600 heartbeat IPC: 0.1357 cumulative IPC: 0.1166 (Simulation time: 03 hr 26 min 00 sec)
Heartbeat CPU 0 instructions: 153001015 cycles: 917732783 heartbeat IPC: 0.1357 cumulative IPC: 0.1167 (Simulation time: 03 hr 26 min 48 sec)
Heartbeat CPU 0 instructions: 153501021 cycles: 921417809 heartbeat IPC: 0.1357 cumulative IPC: 0.1168 (Simulation time: 03 hr 27 min 36 sec)
Heartbeat CPU 0 instructions: 154001024 cycles: 925097356 heartbeat IPC: 0.1359 cumulative IPC: 0.1169 (Simulation time: 03 hr 28 min 23 sec)
Heartbeat CPU 0 instructions: 154501027 cycles: 928790528 heartbeat IPC: 0.1354 cumulative IPC: 0.117 (Simulation time: 03 hr 29 min 11 sec)
Heartbeat CPU 0 instructions: 155001032 cycles: 932949161 heartbeat IPC: 0.1202 cumulative IPC: 0.117 (Simulation time: 03 hr 30 min 06 sec)
Heartbeat CPU 0 instructions: 155501034 cycles: 937745991 heartbeat IPC: 0.1042 cumulative IPC: 0.1169 (Simulation time: 03 hr 31 min 08 sec)
Heartbeat CPU 0 instructions: 156001034 cycles: 942551507 heartbeat IPC: 0.104 cumulative IPC: 0.1168 (Simulation time: 03 hr 32 min 11 sec)
Heartbeat CPU 0 instructions: 156501034 cycles: 947338161 heartbeat IPC: 0.1045 cumulative IPC: 0.1168 (Simulation time: 03 hr 33 min 14 sec)
Heartbeat CPU 0 instructions: 157001035 cycles: 952142425 heartbeat IPC: 0.1041 cumulative IPC: 0.1167 (Simulation time: 03 hr 34 min 17 sec)
Heartbeat CPU 0 instructions: 157501039 cycles: 956901763 heartbeat IPC: 0.1051 cumulative IPC: 0.1166 (Simulation time: 03 hr 35 min 19 sec)
Heartbeat CPU 0 instructions: 158001039 cycles: 960909427 heartbeat IPC: 0.1248 cumulative IPC: 0.1167 (Simulation time: 03 hr 36 min 11 sec)
Heartbeat CPU 0 instructions: 158501046 cycles: 964594030 heartbeat IPC: 0.1357 cumulative IPC: 0.1168 (Simulation time: 03 hr 36 min 59 sec)
Heartbeat CPU 0 instructions: 159001046 cycles: 969196557 heartbeat IPC: 0.1086 cumulative IPC: 0.1167 (Simulation time: 03 hr 37 min 58 sec)
Heartbeat CPU 0 instructions: 159501052 cycles: 973975697 heartbeat IPC: 0.1046 cumulative IPC: 0.1166 (Simulation time: 03 hr 39 min 01 sec)
Heartbeat CPU 0 instructions: 160001052 cycles: 978778224 heartbeat IPC: 0.1041 cumulative IPC: 0.1166 (Simulation time: 03 hr 40 min 03 sec)
Heartbeat CPU 0 instructions: 160501052 cycles: 983540470 heartbeat IPC: 0.105 cumulative IPC: 0.1165 (Simulation time: 03 hr 41 min 06 sec)
Heartbeat CPU 0 instructions: 161001053 cycles: 988327100 heartbeat IPC: 0.1045 cumulative IPC: 0.1165 (Simulation time: 03 hr 42 min 08 sec)
Heartbeat CPU 0 instructions: 161501056 cycles: 993127130 heartbeat IPC: 0.1042 cumulative IPC: 0.1164 (Simulation time: 03 hr 43 min 11 sec)
Heartbeat CPU 0 instructions: 162001056 cycles: 996564289 heartbeat IPC: 0.1455 cumulative IPC: 0.1165 (Simulation time: 03 hr 43 min 55 sec)
Heartbeat CPU 0 instructions: 162501058 cycles: 1000237533 heartbeat IPC: 0.1361 cumulative IPC: 0.1166 (Simulation time: 03 hr 44 min 42 sec)
Heartbeat CPU 0 instructions: 163001065 cycles: 1003934019 heartbeat IPC: 0.1353 cumulative IPC: 0.1167 (Simulation time: 03 hr 45 min 30 sec)
Heartbeat CPU 0 instructions: 163501068 cycles: 1007618958 heartbeat IPC: 0.1357 cumulative IPC: 0.1167 (Simulation time: 03 hr 46 min 18 sec)
Heartbeat CPU 0 instructions: 164001075 cycles: 1011290147 heartbeat IPC: 0.1362 cumulative IPC: 0.1168 (Simulation time: 03 hr 47 min 06 sec)
Heartbeat CPU 0 instructions: 164501075 cycles: 1014983640 heartbeat IPC: 0.1354 cumulative IPC: 0.1169 (Simulation time: 03 hr 47 min 53 sec)
Heartbeat CPU 0 instructions: 165001078 cycles: 1018659117 heartbeat IPC: 0.136 cumulative IPC: 0.1169 (Simulation time: 03 hr 48 min 41 sec)
Heartbeat CPU 0 instructions: 165501078 cycles: 1022905339 heartbeat IPC: 0.1178 cumulative IPC: 0.1169 (Simulation time: 03 hr 49 min 36 sec)
Heartbeat CPU 0 instructions: 166001085 cycles: 1027694098 heartbeat IPC: 0.1044 cumulative IPC: 0.1169 (Simulation time: 03 hr 50 min 39 sec)
Heartbeat CPU 0 instructions: 166501087 cycles: 1032482506 heartbeat IPC: 0.1044 cumulative IPC: 0.1168 (Simulation time: 03 hr 51 min 42 sec)
Heartbeat CPU 0 instructions: 167001093 cycles: 1037246365 heartbeat IPC: 0.105 cumulative IPC: 0.1168 (Simulation time: 03 hr 52 min 44 sec)
Heartbeat CPU 0 instructions: 167501095 cycles: 1042046516 heartbeat IPC: 0.1042 cumulative IPC: 0.1167 (Simulation time: 03 hr 53 min 46 sec)
Heartbeat CPU 0 instructions: 168001101 cycles: 1046819831 heartbeat IPC: 0.1048 cumulative IPC: 0.1167 (Simulation time: 03 hr 54 min 49 sec)
Heartbeat CPU 0 instructions: 168501103 cycles: 1050769669 heartbeat IPC: 0.1266 cumulative IPC: 0.1167 (Simulation time: 03 hr 55 min 40 sec)
Heartbeat CPU 0 instructions: 169001110 cycles: 1054463188 heartbeat IPC: 0.1354 cumulative IPC: 0.1168 (Simulation time: 03 hr 56 min 28 sec)
Heartbeat CPU 0 instructions: 169501110 cycles: 1059130966 heartbeat IPC: 0.1071 cumulative IPC: 0.1167 (Simulation time: 03 hr 57 min 29 sec)
Heartbeat CPU 0 instructions: 170001115 cycles: 1063884680 heartbeat IPC: 0.1052 cumulative IPC: 0.1167 (Simulation time: 03 hr 58 min 31 sec)
Heartbeat CPU 0 instructions: 170501118 cycles: 1068684987 heartbeat IPC: 0.1042 cumulative IPC: 0.1166 (Simulation time: 03 hr 59 min 33 sec)
Heartbeat CPU 0 instructions: 171001123 cycles: 1073472691 heartbeat IPC: 0.1044 cumulative IPC: 0.1165 (Simulation time: 04 hr 00 min 36 sec)
Heartbeat CPU 0 instructions: 171501127 cycles: 1078266688 heartbeat IPC: 0.1043 cumulative IPC: 0.1165 (Simulation time: 04 hr 01 min 38 sec)
Heartbeat CPU 0 instructions: 172001130 cycles: 1082743789 heartbeat IPC: 0.1117 cumulative IPC: 0.1165 (Simulation time: 04 hr 02 min 37 sec)
Heartbeat CPU 0 instructions: 172501132 cycles: 1086408551 heartbeat IPC: 0.1364 cumulative IPC: 0.1165 (Simulation time: 04 hr 03 min 24 sec)
Heartbeat CPU 0 instructions: 173001134 cycles: 1090096673 heartbeat IPC: 0.1356 cumulative IPC: 0.1166 (Simulation time: 04 hr 04 min 12 sec)
Heartbeat CPU 0 instructions: 173501137 cycles: 1093795547 heartbeat IPC: 0.1352 cumulative IPC: 0.1167 (Simulation time: 04 hr 05 min 00 sec)
Heartbeat CPU 0 instructions: 174001141 cycles: 1097487414 heartbeat IPC: 0.1354 cumulative IPC: 0.1167 (Simulation time: 04 hr 05 min 48 sec)
Heartbeat CPU 0 instructions: 174501141 cycles: 1101171782 heartbeat IPC: 0.1357 cumulative IPC: 0.1168 (Simulation time: 04 hr 06 min 36 sec)
Heartbeat CPU 0 instructions: 175001143 cycles: 1104843076 heartbeat IPC: 0.1362 cumulative IPC: 0.1169 (Simulation time: 04 hr 07 min 23 sec)
Heartbeat CPU 0 instructions: 175501150 cycles: 1108553729 heartbeat IPC: 0.1347 cumulative IPC: 0.1169 (Simulation time: 04 hr 08 min 11 sec)
Heartbeat CPU 0 instructions: 176001153 cycles: 1112896359 heartbeat IPC: 0.1151 cumulative IPC: 0.1169 (Simulation time: 04 hr 09 min 08 sec)
Heartbeat CPU 0 instructions: 176501153 cycles: 1117659702 heartbeat IPC: 0.105 cumulative IPC: 0.1169 (Simulation time: 04 hr 10 min 10 sec)
Heartbeat CPU 0 instructions: 177001160 cycles: 1122451152 heartbeat IPC: 0.1044 cumulative IPC: 0.1168 (Simulation time: 04 hr 11 min 12 sec)
Heartbeat CPU 0 instructions: 177501160 cycles: 1127241920 heartbeat IPC: 0.1044 cumulative IPC: 0.1168 (Simulation time: 04 hr 12 min 15 sec)
Heartbeat CPU 0 instructions: 178001164 cycles: 1132045691 heartbeat IPC: 0.1041 cumulative IPC: 0.1167 (Simulation time: 04 hr 13 min 18 sec)
Heartbeat CPU 0 instructions: 178501167 cycles: 1136827417 heartbeat IPC: 0.1046 cumulative IPC: 0.1167 (Simulation time: 04 hr 14 min 20 sec)
Heartbeat CPU 0 instructions: 179001172 cycles: 1140727442 heartbeat IPC: 0.1282 cumulative IPC: 0.1167 (Simulation time: 04 hr 15 min 10 sec)
Heartbeat CPU 0 instructions: 179501176 cycles: 1144404524 heartbeat IPC: 0.136 cumulative IPC: 0.1168 (Simulation time: 04 hr 15 min 58 sec)
Heartbeat CPU 0 instructions: 180001177 cycles: 1149166684 heartbeat IPC: 0.105 cumulative IPC: 0.1167 (Simulation time: 04 hr 17 min 00 sec)
Heartbeat CPU 0 instructions: 180501183 cycles: 1153961491 heartbeat IPC: 0.1043 cumulative IPC: 0.1167 (Simulation time: 04 hr 18 min 03 sec)
Heartbeat CPU 0 instructions: 181001184 cycles: 1158741158 heartbeat IPC: 0.1046 cumulative IPC: 0.1166 (Simulation time: 04 hr 19 min 05 sec)
Heartbeat CPU 0 instructions: 181501186 cycles: 1163537755 heartbeat IPC: 0.1042 cumulative IPC: 0.1166 (Simulation time: 04 hr 20 min 08 sec)
Heartbeat CPU 0 instructions: 182001192 cycles: 1168331587 heartbeat IPC: 0.1043 cumulative IPC: 0.1165 (Simulation time: 04 hr 21 min 11 sec)
Heartbeat CPU 0 instructions: 182501196 cycles: 1172739027 heartbeat IPC: 0.1134 cumulative IPC: 0.1165 (Simulation time: 04 hr 22 min 08 sec)
Heartbeat CPU 0 instructions: 183001202 cycles: 1176405314 heartbeat IPC: 0.1364 cumulative IPC: 0.1166 (Simulation time: 04 hr 22 min 55 sec)
Heartbeat CPU 0 instructions: 183501207 cycles: 1180089367 heartbeat IPC: 0.1357 cumulative IPC: 0.1166 (Simulation time: 04 hr 23 min 43 sec)
Heartbeat CPU 0 instructions: 184001207 cycles: 1183781482 heartbeat IPC: 0.1354 cumulative IPC: 0.1167 (Simulation time: 04 hr 24 min 31 sec)
Heartbeat CPU 0 instructions: 184501209 cycles: 1187474215 heartbeat IPC: 0.1354 cumulative IPC: 0.1167 (Simulation time: 04 hr 25 min 19 sec)
Heartbeat CPU 0 instructions: 185001209 cycles: 1191171013 heartbeat IPC: 0.1353 cumulative IPC: 0.1168 (Simulation time: 04 hr 26 min 07 sec)
Heartbeat CPU 0 instructions: 185501210 cycles: 1194835764 heartbeat IPC: 0.1364 cumulative IPC: 0.1169 (Simulation time: 04 hr 26 min 54 sec)
Heartbeat CPU 0 instructions: 186001210 cycles: 1198531491 heartbeat IPC: 0.1353 cumulative IPC: 0.1169 (Simulation time: 04 hr 27 min 42 sec)
Heartbeat CPU 0 instructions: 186501212 cycles: 1202925278 heartbeat IPC: 0.1138 cumulative IPC: 0.1169 (Simulation time: 04 hr 28 min 40 sec)
Heartbeat CPU 0 instructions: 187001218 cycles: 1207709076 heartbeat IPC: 0.1045 cumulative IPC: 0.1169 (Simulation time: 04 hr 29 min 42 sec)
Heartbeat CPU 0 instructions: 187501220 cycles: 1212487825 heartbeat IPC: 0.1046 cumulative IPC: 0.1168 (Simulation time: 04 hr 30 min 45 sec)
Heartbeat CPU 0 instructions: 188001223 cycles: 1217248759 heartbeat IPC: 0.105 cumulative IPC: 0.1168 (Simulation time: 04 hr 31 min 47 sec)
Heartbeat CPU 0 instructions: 188501224 cycles: 1222045391 heartbeat IPC: 0.1042 cumulative IPC: 0.1167 (Simulation time: 04 hr 32 min 49 sec)
Heartbeat CPU 0 instructions: 189001226 cycles: 1226848034 heartbeat IPC: 0.1041 cumulative IPC: 0.1167 (Simulation time: 04 hr 33 min 52 sec)
Heartbeat CPU 0 instructions: 189501229 cycles: 1230646247 heartbeat IPC: 0.1316 cumulative IPC: 0.1167 (Simulation time: 04 hr 34 min 41 sec)
Heartbeat CPU 0 instructions: 190001231 cycles: 1234345256 heartbeat IPC: 0.1352 cumulative IPC: 0.1168 (Simulation time: 04 hr 35 min 29 sec)
Heartbeat CPU 0 instructions: 190501232 cycles: 1239162578 heartbeat IPC: 0.1038 cumulative IPC: 0.1167 (Simulation time: 04 hr 36 min 32 sec)
Heartbeat CPU 0 instructions: 191001232 cycles: 1243942630 heartbeat IPC: 0.1046 cumulative IPC: 0.1167 (Simulation time: 04 hr 37 min 34 sec)
Heartbeat CPU 0 instructions: 191501236 cycles: 1248724259 heartbeat IPC: 0.1046 cumulative IPC: 0.1166 (Simulation time: 04 hr 38 min 37 sec)
Heartbeat CPU 0 instructions: 192001240 cycles: 1253533536 heartbeat IPC: 0.104 cumulative IPC: 0.1166 (Simulation time: 04 hr 39 min 40 sec)
Heartbeat CPU 0 instructions: 192501245 cycles: 1258307242 heartbeat IPC: 0.1047 cumulative IPC: 0.1165 (Simulation time: 04 hr 40 min 42 sec)
Heartbeat CPU 0 instructions: 193001245 cycles: 1262634787 heartbeat IPC: 0.1155 cumulative IPC: 0.1165 (Simulation time: 04 hr 41 min 38 sec)
Heartbeat CPU 0 instructions: 193501252 cycles: 1266320490 heartbeat IPC: 0.1357 cumulative IPC: 0.1166 (Simulation time: 04 hr 42 min 26 sec)
Heartbeat CPU 0 instructions: 194001257 cycles: 1269986718 heartbeat IPC: 0.1364 cumulative IPC: 0.1166 (Simulation time: 04 hr 43 min 13 sec)
Heartbeat CPU 0 instructions: 194501257 cycles: 1273689374 heartbeat IPC: 0.135 cumulative IPC: 0.1167 (Simulation time: 04 hr 44 min 01 sec)
Heartbeat CPU 0 instructions: 195001264 cycles: 1277358198 heartbeat IPC: 0.1363 cumulative IPC: 0.1167 (Simulation time: 04 hr 44 min 49 sec)
Heartbeat CPU 0 instructions: 195501270 cycles: 1281048418 heartbeat IPC: 0.1355 cumulative IPC: 0.1168 (Simulation time: 04 hr 45 min 37 sec)
Heartbeat CPU 0 instructions: 196001270 cycles: 1284753278 heartbeat IPC: 0.135 cumulative IPC: 0.1168 (Simulation time: 04 hr 46 min 25 sec)
Heartbeat CPU 0 instructions: 196501272 cycles: 1288437473 heartbeat IPC: 0.1357 cumulative IPC: 0.1169 (Simulation time: 04 hr 47 min 13 sec)
Heartbeat CPU 0 instructions: 197001272 cycles: 1292905268 heartbeat IPC: 0.1119 cumulative IPC: 0.1169 (Simulation time: 04 hr 48 min 11 sec)
Heartbeat CPU 0 instructions: 197501272 cycles: 1297698880 heartbeat IPC: 0.1043 cumulative IPC: 0.1168 (Simulation time: 04 hr 49 min 14 sec)
Heartbeat CPU 0 instructions: 198001272 cycles: 1302496947 heartbeat IPC: 0.1042 cumulative IPC: 0.1168 (Simulation time: 04 hr 50 min 17 sec)
Heartbeat CPU 0 instructions: 198501272 cycles: 1307288997 heartbeat IPC: 0.1043 cumulative IPC: 0.1167 (Simulation time: 04 hr 51 min 20 sec)
Heartbeat CPU 0 instructions: 199001275 cycles: 1312078185 heartbeat IPC: 0.1044 cumulative IPC: 0.1167 (Simulation time: 04 hr 52 min 23 sec)
Heartbeat CPU 0 instructions: 199501280 cycles: 1316882305 heartbeat IPC: 0.1041 cumulative IPC: 0.1166 (Simulation time: 04 hr 53 min 26 sec)
Heartbeat CPU 0 instructions: 200001285 cycles: 1320595285 heartbeat IPC: 0.1347 cumulative IPC: 0.1167 (Simulation time: 04 hr 54 min 14 sec)
Heartbeat CPU 0 instructions: 200501289 cycles: 1324347194 heartbeat IPC: 0.1333 cumulative IPC: 0.1168 (Simulation time: 04 hr 55 min 03 sec)
Heartbeat CPU 0 instructions: 201001289 cycles: 1329184661 heartbeat IPC: 0.1034 cumulative IPC: 0.1167 (Simulation time: 04 hr 56 min 06 sec)
Heartbeat CPU 0 instructions: 201501296 cycles: 1333958893 heartbeat IPC: 0.1047 cumulative IPC: 0.1167 (Simulation time: 04 hr 57 min 08 sec)
Heartbeat CPU 0 instructions: 202001296 cycles: 1338752319 heartbeat IPC: 0.1043 cumulative IPC: 0.1166 (Simulation time: 04 hr 58 min 11 sec)
Heartbeat CPU 0 instructions: 202501296 cycles: 1343553538 heartbeat IPC: 0.1041 cumulative IPC: 0.1166 (Simulation time: 04 hr 59 min 14 sec)
Heartbeat CPU 0 instructions: 203001299 cycles: 1348342429 heartbeat IPC: 0.1044 cumulative IPC: 0.1165 (Simulation time: 05 hr 00 min 17 sec)
Heartbeat CPU 0 instructions: 203501299 cycles: 1352613473 heartbeat IPC: 0.1171 cumulative IPC: 0.1165 (Simulation time: 05 hr 01 min 12 sec)
Heartbeat CPU 0 instructions: 204001306 cycles: 1356300506 heartbeat IPC: 0.1356 cumulative IPC: 0.1166 (Simulation time: 05 hr 02 min 00 sec)
Heartbeat CPU 0 instructions: 204501307 cycles: 1359986302 heartbeat IPC: 0.1357 cumulative IPC: 0.1166 (Simulation time: 05 hr 02 min 48 sec)
Heartbeat CPU 0 instructions: 205001313 cycles: 1363669263 heartbeat IPC: 0.1358 cumulative IPC: 0.1167 (Simulation time: 05 hr 03 min 36 sec)
Heartbeat CPU 0 instructions: 205501313 cycles: 1367353923 heartbeat IPC: 0.1357 cumulative IPC: 0.1167 (Simulation time: 05 hr 04 min 23 sec)
Heartbeat CPU 0 instructions: 206001319 cycles: 1371033328 heartbeat IPC: 0.1359 cumulative IPC: 0.1168 (Simulation time: 05 hr 05 min 11 sec)
Heartbeat CPU 0 instructions: 206501324 cycles: 1374705317 heartbeat IPC: 0.1362 cumulative IPC: 0.1168 (Simulation time: 05 hr 05 min 59 sec)
Heartbeat CPU 0 instructions: 207001331 cycles: 1378398144 heartbeat IPC: 0.1354 cumulative IPC: 0.1169 (Simulation time: 05 hr 06 min 47 sec)
Heartbeat CPU 0 instructions: 207501336 cycles: 1382951177 heartbeat IPC: 0.1098 cumulative IPC: 0.1169 (Simulation time: 05 hr 07 min 46 sec)
Heartbeat CPU 0 instructions: 208001342 cycles: 1387737111 heartbeat IPC: 0.1045 cumulative IPC: 0.1168 (Simulation time: 05 hr 08 min 49 sec)
Heartbeat CPU 0 instructions: 208501343 cycles: 1392545092 heartbeat IPC: 0.104 cumulative IPC: 0.1168 (Simulation time: 05 hr 09 min 52 sec)
Heartbeat CPU 0 instructions: 209001345 cycles: 1397323016 heartbeat IPC: 0.1046 cumulative IPC: 0.1167 (Simulation time: 05 hr 10 min 54 sec)
Heartbeat CPU 0 instructions: 209501347 cycles: 1402095831 heartbeat IPC: 0.1048 cumulative IPC: 0.1167 (Simulation time: 05 hr 11 min 57 sec)
Heartbeat CPU 0 instructions: 210001350 cycles: 1406879706 heartbeat IPC: 0.1045 cumulative IPC: 0.1167 (Simulation time: 05 hr 13 min 00 sec)
Heartbeat CPU 0 instructions: 210501356 cycles: 1410514133 heartbeat IPC: 0.1376 cumulative IPC: 0.1167 (Simulation time: 05 hr 13 min 47 sec)
Heartbeat CPU 0 instructions: 211001358 cycles: 1414363801 heartbeat IPC: 0.1299 cumulative IPC: 0.1167 (Simulation time: 05 hr 14 min 37 sec)
Heartbeat CPU 0 instructions: 211501362 cycles: 1419174399 heartbeat IPC: 0.1039 cumulative IPC: 0.1167 (Simulation time: 05 hr 15 min 40 sec)
Heartbeat CPU 0 instructions: 212001362 cycles: 1423957650 heartbeat IPC: 0.1045 cumulative IPC: 0.1167 (Simulation time: 05 hr 16 min 42 sec)
Heartbeat CPU 0 instructions: 212501366 cycles: 1428739228 heartbeat IPC: 0.1046 cumulative IPC: 0.1166 (Simulation time: 05 hr 17 min 45 sec)
Heartbeat CPU 0 instructions: 213001369 cycles: 1433517185 heartbeat IPC: 0.1046 cumulative IPC: 0.1166 (Simulation time: 05 hr 18 min 48 sec)
Heartbeat CPU 0 instructions: 213501375 cycles: 1438283053 heartbeat IPC: 0.1049 cumulative IPC: 0.1165 (Simulation time: 05 hr 19 min 50 sec)
Heartbeat CPU 0 instructions: 214001380 cycles: 1442457797 heartbeat IPC: 0.1198 cumulative IPC: 0.1165 (Simulation time: 05 hr 20 min 44 sec)
Heartbeat CPU 0 instructions: 214501380 cycles: 1446132065 heartbeat IPC: 0.1361 cumulative IPC: 0.1166 (Simulation time: 05 hr 21 min 32 sec)
Heartbeat CPU 0 instructions: 215001381 cycles: 1449823534 heartbeat IPC: 0.1354 cumulative IPC: 0.1166 (Simulation time: 05 hr 22 min 20 sec)
Heartbeat CPU 0 instructions: 215501384 cycles: 1453508292 heartbeat IPC: 0.1357 cumulative IPC: 0.1167 (Simulation time: 05 hr 23 min 08 sec)
Heartbeat CPU 0 instructions: 216001388 cycles: 1457184112 heartbeat IPC: 0.136 cumulative IPC: 0.1167 (Simulation time: 05 hr 23 min 55 sec)
Heartbeat CPU 0 instructions: 216501389 cycles: 1460870450 heartbeat IPC: 0.1356 cumulative IPC: 0.1168 (Simulation time: 05 hr 24 min 43 sec)
Heartbeat CPU 0 instructions: 217001389 cycles: 1464552671 heartbeat IPC: 0.1358 cumulative IPC: 0.1168 (Simulation time: 05 hr 25 min 31 sec)
Heartbeat CPU 0 instructions: 217501392 cycles: 1468236876 heartbeat IPC: 0.1357 cumulative IPC: 0.1169 (Simulation time: 05 hr 26 min 19 sec)
Heartbeat CPU 0 instructions: 218001393 cycles: 1472859777 heartbeat IPC: 0.1082 cumulative IPC: 0.1169 (Simulation time: 05 hr 27 min 19 sec)
Heartbeat CPU 0 instructions: 218501399 cycles: 1477645400 heartbeat IPC: 0.1045 cumulative IPC: 0.1168 (Simulation time: 05 hr 28 min 22 sec)
Heartbeat CPU 0 instructions: 219001401 cycles: 1482441623 heartbeat IPC: 0.1042 cumulative IPC: 0.1168 (Simulation time: 05 hr 29 min 25 sec)
Heartbeat CPU 0 instructions: 219501402 cycles: 1487227373 heartbeat IPC: 0.1045 cumulative IPC: 0.1167 (Simulation time: 05 hr 30 min 28 sec)
Heartbeat CPU 0 instructions: 220001405 cycles: 1492026455 heartbeat IPC: 0.1042 cumulative IPC: 0.1167 (Simulation time: 05 hr 31 min 31 sec)
Heartbeat CPU 0 instructions: 220501406 cycles: 1496728333 heartbeat IPC: 0.1063 cumulative IPC: 0.1167 (Simulation time: 05 hr 32 min 33 sec)
Heartbeat CPU 0 instructions: 221001413 cycles: 1500378187 heartbeat IPC: 0.137 cumulative IPC: 0.1167 (Simulation time: 05 hr 33 min 20 sec)
Heartbeat CPU 0 instructions: 221501413 cycles: 1504307969 heartbeat IPC: 0.1272 cumulative IPC: 0.1167 (Simulation time: 05 hr 34 min 11 sec)
Heartbeat CPU 0 instructions: 222001413 cycles: 1509112179 heartbeat IPC: 0.1041 cumulative IPC: 0.1167 (Simulation time: 05 hr 35 min 14 sec)
Heartbeat CPU 0 instructions: 222501416 cycles: 1513906040 heartbeat IPC: 0.1043 cumulative IPC: 0.1167 (Simulation time: 05 hr 36 min 17 sec)
Heartbeat CPU 0 instructions: 223001421 cycles: 1518707305 heartbeat IPC: 0.1041 cumulative IPC: 0.1166 (Simulation time: 05 hr 37 min 20 sec)
Heartbeat CPU 0 instructions: 223501423 cycles: 1523492983 heartbeat IPC: 0.1045 cumulative IPC: 0.1166 (Simulation time: 05 hr 38 min 22 sec)
Heartbeat CPU 0 instructions: 224001424 cycles: 1528302833 heartbeat IPC: 0.104 cumulative IPC: 0.1165 (Simulation time: 05 hr 39 min 25 sec)
Heartbeat CPU 0 instructions: 224501430 cycles: 1532400962 heartbeat IPC: 0.122 cumulative IPC: 0.1166 (Simulation time: 05 hr 40 min 19 sec)
Heartbeat CPU 0 instructions: 225001432 cycles: 1536081149 heartbeat IPC: 0.1359 cumulative IPC: 0.1166 (Simulation time: 05 hr 41 min 06 sec)
Heartbeat CPU 0 instructions: 225501438 cycles: 1539756172 heartbeat IPC: 0.1361 cumulative IPC: 0.1167 (Simulation time: 05 hr 41 min 54 sec)
Heartbeat CPU 0 instructions: 226001440 cycles: 1543432307 heartbeat IPC: 0.136 cumulative IPC: 0.1167 (Simulation time: 05 hr 42 min 42 sec)
Heartbeat CPU 0 instructions: 226501440 cycles: 1547117341 heartbeat IPC: 0.1357 cumulative IPC: 0.1167 (Simulation time: 05 hr 43 min 29 sec)
Heartbeat CPU 0 instructions: 227001440 cycles: 1550801893 heartbeat IPC: 0.1357 cumulative IPC: 0.1168 (Simulation time: 05 hr 44 min 17 sec)
Heartbeat CPU 0 instructions: 227501442 cycles: 1554473148 heartbeat IPC: 0.1362 cumulative IPC: 0.1168 (Simulation time: 05 hr 45 min 04 sec)
Heartbeat CPU 0 instructions: 228001445 cycles: 1558149127 heartbeat IPC: 0.136 cumulative IPC: 0.1169 (Simulation time: 05 hr 45 min 52 sec)
Heartbeat CPU 0 instructions: 228501445 cycles: 1562861546 heartbeat IPC: 0.1061 cumulative IPC: 0.1169 (Simulation time: 05 hr 46 min 53 sec)
Heartbeat CPU 0 instructions: 229001447 cycles: 1567624079 heartbeat IPC: 0.105 cumulative IPC: 0.1168 (Simulation time: 05 hr 47 min 56 sec)
Heartbeat CPU 0 instructions: 229501452 cycles: 1572396754 heartbeat IPC: 0.1048 cumulative IPC: 0.1168 (Simulation time: 05 hr 48 min 59 sec)
Heartbeat CPU 0 instructions: 230001452 cycles: 1577173956 heartbeat IPC: 0.1047 cumulative IPC: 0.1167 (Simulation time: 05 hr 50 min 01 sec)
Heartbeat CPU 0 instructions: 230501452 cycles: 1581963955 heartbeat IPC: 0.1044 cumulative IPC: 0.1167 (Simulation time: 05 hr 51 min 04 sec)
Heartbeat CPU 0 instructions: 231001455 cycles: 1586599254 heartbeat IPC: 0.1079 cumulative IPC: 0.1167 (Simulation time: 05 hr 52 min 05 sec)
Heartbeat CPU 0 instructions: 231501461 cycles: 1590268350 heartbeat IPC: 0.1363 cumulative IPC: 0.1167 (Simulation time: 05 hr 52 min 52 sec)
Heartbeat CPU 0 instructions: 232001461 cycles: 1594265126 heartbeat IPC: 0.1251 cumulative IPC: 0.1167 (Simulation time: 05 hr 53 min 44 sec)
Heartbeat CPU 0 instructions: 232501461 cycles: 1599054062 heartbeat IPC: 0.1044 cumulative IPC: 0.1167 (Simulation time: 05 hr 54 min 47 sec)
Heartbeat CPU 0 instructions: 233001461 cycles: 1603868462 heartbeat IPC: 0.1039 cumulative IPC: 0.1167 (Simulation time: 05 hr 55 min 50 sec)
Heartbeat CPU 0 instructions: 233501464 cycles: 1608660293 heartbeat IPC: 0.1043 cumulative IPC: 0.1166 (Simulation time: 05 hr 56 min 53 sec)
Heartbeat CPU 0 instructions: 234001467 cycles: 1613448047 heartbeat IPC: 0.1044 cumulative IPC: 0.1166 (Simulation time: 05 hr 57 min 56 sec)
Heartbeat CPU 0 instructions: 234501472 cycles: 1618229742 heartbeat IPC: 0.1046 cumulative IPC: 0.1166 (Simulation time: 05 hr 58 min 58 sec)
Heartbeat CPU 0 instructions: 235001479 cycles: 1622232490 heartbeat IPC: 0.1249 cumulative IPC: 0.1166 (Simulation time: 05 hr 59 min 50 sec)
Heartbeat CPU 0 instructions: 235501481 cycles: 1625929223 heartbeat IPC: 0.1353 cumulative IPC: 0.1166 (Simulation time: 06 hr 00 min 38 sec)
Heartbeat CPU 0 instructions: 236001484 cycles: 1629601980 heartbeat IPC: 0.1361 cumulative IPC: 0.1167 (Simulation time: 06 hr 01 min 26 sec)
Heartbeat CPU 0 instructions: 236501490 cycles: 1633278587 heartbeat IPC: 0.136 cumulative IPC: 0.1167 (Simulation time: 06 hr 02 min 13 sec)
Heartbeat CPU 0 instructions: 237001494 cycles: 1636956307 heartbeat IPC: 0.136 cumulative IPC: 0.1168 (Simulation time: 06 hr 03 min 01 sec)
Heartbeat CPU 0 instructions: 237501497 cycles: 1640646438 heartbeat IPC: 0.1355 cumulative IPC: 0.1168 (Simulation time: 06 hr 03 min 49 sec)
Heartbeat CPU 0 instructions: 238001500 cycles: 1644331950 heartbeat IPC: 0.1357 cumulative IPC: 0.1168 (Simulation time: 06 hr 04 min 37 sec)
Heartbeat CPU 0 instructions: 238501501 cycles: 1648007506 heartbeat IPC: 0.136 cumulative IPC: 0.1169 (Simulation time: 06 hr 05 min 25 sec)
Heartbeat CPU 0 instructions: 239001501 cycles: 1652798138 heartbeat IPC: 0.1044 cumulative IPC: 0.1168 (Simulation time: 06 hr 06 min 28 sec)
Heartbeat CPU 0 instructions: 239501507 cycles: 1657617318 heartbeat IPC: 0.1038 cumulative IPC: 0.1168 (Simulation time: 06 hr 07 min 31 sec)
Heartbeat CPU 0 instructions: 240001509 cycles: 1662413099 heartbeat IPC: 0.1043 cumulative IPC: 0.1168 (Simulation time: 06 hr 08 min 34 sec)
Heartbeat CPU 0 instructions: 240501511 cycles: 1667212466 heartbeat IPC: 0.1042 cumulative IPC: 0.1167 (Simulation time: 06 hr 09 min 37 sec)
Heartbeat CPU 0 instructions: 241001515 cycles: 1672011832 heartbeat IPC: 0.1042 cumulative IPC: 0.1167 (Simulation time: 06 hr 10 min 41 sec)
Heartbeat CPU 0 instructions: 241501521 cycles: 1676566179 heartbeat IPC: 0.1098 cumulative IPC: 0.1167 (Simulation time: 06 hr 11 min 40 sec)
Heartbeat CPU 0 instructions: 242001527 cycles: 1680238480 heartbeat IPC: 0.1362 cumulative IPC: 0.1167 (Simulation time: 06 hr 12 min 28 sec)
Heartbeat CPU 0 instructions: 242501528 cycles: 1684317132 heartbeat IPC: 0.1226 cumulative IPC: 0.1167 (Simulation time: 06 hr 13 min 21 sec)
Heartbeat CPU 0 instructions: 243001533 cycles: 1689126258 heartbeat IPC: 0.104 cumulative IPC: 0.1167 (Simulation time: 06 hr 14 min 24 sec)
Heartbeat CPU 0 instructions: 243501536 cycles: 1693927983 heartbeat IPC: 0.1041 cumulative IPC: 0.1167 (Simulation time: 06 hr 15 min 28 sec)
Heartbeat CPU 0 instructions: 244001539 cycles: 1698760545 heartbeat IPC: 0.1035 cumulative IPC: 0.1166 (Simulation time: 06 hr 16 min 32 sec)
Heartbeat CPU 0 instructions: 244501539 cycles: 1703579246 heartbeat IPC: 0.1038 cumulative IPC: 0.1166 (Simulation time: 06 hr 17 min 35 sec)
Heartbeat CPU 0 instructions: 245001540 cycles: 1708340263 heartbeat IPC: 0.105 cumulative IPC: 0.1166 (Simulation time: 06 hr 18 min 37 sec)
Heartbeat CPU 0 instructions: 245501546 cycles: 1712298176 heartbeat IPC: 0.1263 cumulative IPC: 0.1166 (Simulation time: 06 hr 19 min 29 sec)
Heartbeat CPU 0 instructions: 246001548 cycles: 1715994019 heartbeat IPC: 0.1353 cumulative IPC: 0.1166 (Simulation time: 06 hr 20 min 17 sec)
Heartbeat CPU 0 instructions: 246501550 cycles: 1719671911 heartbeat IPC: 0.1359 cumulative IPC: 0.1167 (Simulation time: 06 hr 21 min 05 sec)
Heartbeat CPU 0 instructions: 247001556 cycles: 1723369371 heartbeat IPC: 0.1352 cumulative IPC: 0.1167 (Simulation time: 06 hr 21 min 53 sec)
Heartbeat CPU 0 instructions: 247501558 cycles: 1727046878 heartbeat IPC: 0.136 cumulative IPC: 0.1167 (Simulation time: 06 hr 22 min 41 sec)
Heartbeat CPU 0 instructions: 248001565 cycles: 1730732378 heartbeat IPC: 0.1357 cumulative IPC: 0.1168 (Simulation time: 06 hr 23 min 29 sec)
Heartbeat CPU 0 instructions: 248501565 cycles: 1734412814 heartbeat IPC: 0.1359 cumulative IPC: 0.1168 (Simulation time: 06 hr 24 min 17 sec)
Heartbeat CPU 0 instructions: 249001569 cycles: 1738123751 heartbeat IPC: 0.1347 cumulative IPC: 0.1169 (Simulation time: 06 hr 25 min 05 sec)
Heartbeat CPU 0 instructions: 249501573 cycles: 1742947437 heartbeat IPC: 0.1037 cumulative IPC: 0.1168 (Simulation time: 06 hr 26 min 09 sec)
Simulation finished CPU 0 instructions: 200000002 cycles: 1712460441 cumulative IPC: 0.1168 (Simulation time: 06 hr 27 min 11 sec)
Simulation complete CPU 0 instructions: 200000002 cycles: 1712460441 cumulative IPC: 0.1168 (Simulation time: 06 hr 27 min 11 sec)

ChampSim completed all CPUs

=== Simulation ===
CPU 0 runs /local-ssd/ben/dpc4-traces/ai-ml/rwkv_trace_1.champsimtrace.gz

Region of Interest Statistics

CPU 0 cumulative IPC: 0.1168 instructions: 200000002 cycles: 1712460441
CPU 0 Branch Prediction Accuracy: 96.97% MPKI: 0.9107 Average ROB Occupancy at Mispredict: 309.3
Branch type MPKI
BRANCH_DIRECT_JUMP: 0
BRANCH_INDIRECT: 0
BRANCH_CONDITIONAL: 0.9072
BRANCH_DIRECT_CALL: 0
BRANCH_INDIRECT_CALL: 3.5e-05
BRANCH_RETURN: 0.00346

cpu0->cpu0_STLB TOTAL        ACCESS:    1023045 HIT:        284 MISS:    1022761 MSHR_MERGE:          0
cpu0->cpu0_STLB LOAD         ACCESS:    1023045 HIT:        284 MISS:    1022761 MSHR_MERGE:          0
cpu0->cpu0_STLB RFO          ACCESS:          0 HIT:          0 MISS:          0 MSHR_MERGE:          0
cpu0->cpu0_STLB PREFETCH     ACCESS:          0 HIT:          0 MISS:          0 MSHR_MERGE:          0
cpu0->cpu0_STLB WRITE        ACCESS:          0 HIT:          0 MISS:          0 MSHR_MERGE:          0
cpu0->cpu0_STLB TRANSLATION  ACCESS:          0 HIT:          0 MISS:          0 MSHR_MERGE:          0
cpu0->cpu0_STLB PREFETCH REQUESTED:          0 ISSUED:          0 USEFUL:          0 USELESS:          0
cpu0->cpu0_STLB AVERAGE MISS LATENCY: 392 cycles
cpu0->cpu0_L2C TOTAL        ACCESS:  213003547 HIT:  132128692 MISS:   80874855 MSHR_MERGE:   15487923
cpu0->cpu0_L2C LOAD         ACCESS:   32075420 HIT:   24360228 MISS:    7715192 MSHR_MERGE:    3800408
cpu0->cpu0_L2C RFO          ACCESS:   32600864 HIT:        870 MISS:   32599994 MSHR_MERGE:         18
cpu0->cpu0_L2C PREFETCH     ACCESS:  115566402 HIT:   75138156 MISS:   40428246 MSHR_MERGE:   11687497
cpu0->cpu0_L2C WRITE        ACCESS:   32629086 HIT:   32629086 MISS:          0 MSHR_MERGE:          0
cpu0->cpu0_L2C TRANSLATION  ACCESS:     131775 HIT:        352 MISS:     131423 MSHR_MERGE:          0
cpu0->cpu0_L2C PREFETCH REQUESTED:  130745198 ISSUED:  114988753 USEFUL:   28394436 USELESS:      99774
cpu0->cpu0_L2C AVERAGE MISS LATENCY: 627.1 cycles
cpu0->cpu0_L1I TOTAL        ACCESS:   43544427 HIT:   43544427 MISS:          0 MSHR_MERGE:          0
cpu0->cpu0_L1I LOAD         ACCESS:   43544427 HIT:   43544427 MISS:          0 MSHR_MERGE:          0
cpu0->cpu0_L1I RFO          ACCESS:          0 HIT:          0 MISS:          0 MSHR_MERGE:          0
cpu0->cpu0_L1I PREFETCH     ACCESS:          0 HIT:          0 MISS:          0 MSHR_MERGE:          0
cpu0->cpu0_L1I WRITE        ACCESS:          0 HIT:          0 MISS:          0 MSHR_MERGE:          0
cpu0->cpu0_L1I TRANSLATION  ACCESS:          0 HIT:          0 MISS:          0 MSHR_MERGE:          0
cpu0->cpu0_L1I PREFETCH REQUESTED:          0 ISSUED:          0 USEFUL:          0 USELESS:          0
cpu0->cpu0_L1I AVERAGE MISS LATENCY: - cycles
cpu0->cpu0_L1D TOTAL        ACCESS:  105260267 HIT:    7039211 MISS:   98221056 MSHR_MERGE:   32835352
cpu0->cpu0_L1D LOAD         ACCESS:   35296859 HIT:    3145422 MISS:   32151437 MSHR_MERGE:      76018
cpu0->cpu0_L1D RFO          ACCESS:          0 HIT:          0 MISS:          0 MSHR_MERGE:          0
cpu0->cpu0_L1D PREFETCH     ACCESS:    2692133 HIT:    2011180 MISS:     680953 MSHR_MERGE:     103309
cpu0->cpu0_L1D WRITE        ACCESS:   65404037 HIT:     214017 MISS:   65190020 MSHR_MERGE:   32589154
cpu0->cpu0_L1D TRANSLATION  ACCESS:    1867238 HIT:    1668592 MISS:     198646 MSHR_MERGE:      66871
cpu0->cpu0_L1D PREFETCH REQUESTED:   30857507 ISSUED:    2692133 USEFUL:     544451 USELESS:      33193
cpu0->cpu0_L1D AVERAGE MISS LATENCY: 401.1 cycles
cpu0->cpu0_ITLB TOTAL        ACCESS:   36539948 HIT:   36539948 MISS:          0 MSHR_MERGE:          0
cpu0->cpu0_ITLB LOAD         ACCESS:   36539948 HIT:   36539948 MISS:          0 MSHR_MERGE:          0
cpu0->cpu0_ITLB RFO          ACCESS:          0 HIT:          0 MISS:          0 MSHR_MERGE:          0
cpu0->cpu0_ITLB PREFETCH     ACCESS:          0 HIT:          0 MISS:          0 MSHR_MERGE:          0
cpu0->cpu0_ITLB WRITE        ACCESS:          0 HIT:          0 MISS:          0 MSHR_MERGE:          0
cpu0->cpu0_ITLB TRANSLATION  ACCESS:          0 HIT:          0 MISS:          0 MSHR_MERGE:          0
cpu0->cpu0_ITLB PREFETCH REQUESTED:          0 ISSUED:          0 USEFUL:          0 USELESS:          0
cpu0->cpu0_ITLB AVERAGE MISS LATENCY: - cycles
cpu0->cpu0_DTLB TOTAL        ACCESS:  102262415 HIT:   96669954 MISS:    5592461 MSHR_MERGE:    4569416
cpu0->cpu0_DTLB LOAD         ACCESS:  102262415 HIT:   96669954 MISS:    5592461 MSHR_MERGE:    4569416
cpu0->cpu0_DTLB RFO          ACCESS:          0 HIT:          0 MISS:          0 MSHR_MERGE:          0
cpu0->cpu0_DTLB PREFETCH     ACCESS:          0 HIT:          0 MISS:          0 MSHR_MERGE:          0
cpu0->cpu0_DTLB WRITE        ACCESS:          0 HIT:          0 MISS:          0 MSHR_MERGE:          0
cpu0->cpu0_DTLB TRANSLATION  ACCESS:          0 HIT:          0 MISS:          0 MSHR_MERGE:          0
cpu0->cpu0_DTLB PREFETCH REQUESTED:          0 ISSUED:          0 USEFUL:          0 USELESS:          0
cpu0->cpu0_DTLB AVERAGE MISS LATENCY: 397.9 cycles
cpu0->LLC TOTAL        ACCESS:  129626737 HIT:   25473667 MISS:  104153070 MSHR_MERGE:    8945096
cpu0->LLC LOAD         ACCESS:    3914784 HIT:    1387899 MISS:    2526885 MSHR_MERGE:     790993
cpu0->LLC RFO          ACCESS:   32599974 HIT:       1732 MISS:   32598242 MSHR_MERGE:        144
cpu0->LLC PREFETCH     ACCESS:   60351628 HIT:   21168232 MISS:   39183396 MSHR_MERGE:    8153959
cpu0->LLC WRITE        ACCESS:   32628928 HIT:    2915804 MISS:   29713124 MSHR_MERGE:          0
cpu0->LLC TRANSLATION  ACCESS:     131423 HIT:          0 MISS:     131423 MSHR_MERGE:          0
cpu0->LLC PREFETCH REQUESTED:   76289911 ISSUED:   31610848 USEFUL:   23300674 USELESS:    5197342
cpu0->LLC AVERAGE MISS LATENCY: 342.7 cycles

DRAM Statistics

Channel 0 RQ ROW_BUFFER_HIT:    3687976
  ROW_BUFFER_MISS:   61806867
  AVG DBUS CONGESTED CYCLE: 10.17
Channel 0 WQ ROW_BUFFER_HIT:    1519876
  ROW_BUFFER_MISS:   31108133
  FULL:    3572340
Channel 0 REFRESHES ISSUED:     142695
