[VMEM] WARNING: physical memory size is smaller than virtual memory size.

*** ChampSim Multicore Out-of-Order Simulator ***
Warmup Instructions: 50000000
Simulation Instructions: 200000000
Number of CPUs: 1
Page size: 4096
Core 0: /local-ssd/ben/dpc4-traces/ai-ml/vit.cpp-large-ggml-model-f16.gguf.armadillo.1.champsimtrace.gz
 L1D Berti prefetcher
Off-chip DRAM Size: 64 GiB Channels: 1 Width: 64-bit Data Rate: 4807 MT/s
Heartbeat CPU 0 instructions: 500001 cycles: 138883 heartbeat IPC: 3.6 cumulative IPC: 3.6 (Simulation time: 00 hr 00 min 03 sec)
Heartbeat CPU 0 instructions: 1000002 cycles: 268239 heartbeat IPC: 3.865 cumulative IPC: 3.728 (Simulation time: 00 hr 00 min 06 sec)
Heartbeat CPU 0 instructions: 1500004 cycles: 394707 heartbeat IPC: 3.954 cumulative IPC: 3.8 (Simulation time: 00 hr 00 min 09 sec)
Heartbeat CPU 0 instructions: 2000010 cycles: 522860 heartbeat IPC: 3.902 cumulative IPC: 3.825 (Simulation time: 00 hr 00 min 12 sec)
Heartbeat CPU 0 instructions: 2500012 cycles: 652686 heartbeat IPC: 3.851 cumulative IPC: 3.83 (Simulation time: 00 hr 00 min 15 sec)
Heartbeat CPU 0 instructions: 3000019 cycles: 785188 heartbeat IPC: 3.774 cumulative IPC: 3.821 (Simulation time: 00 hr 00 min 18 sec)
Heartbeat CPU 0 instructions: 3500020 cycles: 915184 heartbeat IPC: 3.846 cumulative IPC: 3.824 (Simulation time: 00 hr 00 min 21 sec)
Heartbeat CPU 0 instructions: 4000027 cycles: 1044630 heartbeat IPC: 3.863 cumulative IPC: 3.829 (Simulation time: 00 hr 00 min 24 sec)
Heartbeat CPU 0 instructions: 4500032 cycles: 1174106 heartbeat IPC: 3.862 cumulative IPC: 3.833 (Simulation time: 00 hr 00 min 27 sec)
Heartbeat CPU 0 instructions: 5000034 cycles: 1303428 heartbeat IPC: 3.866 cumulative IPC: 3.836 (Simulation time: 00 hr 00 min 30 sec)
Heartbeat CPU 0 instructions: 5500035 cycles: 1432800 heartbeat IPC: 3.865 cumulative IPC: 3.839 (Simulation time: 00 hr 00 min 32 sec)
Heartbeat CPU 0 instructions: 6000036 cycles: 1562140 heartbeat IPC: 3.866 cumulative IPC: 3.841 (Simulation time: 00 hr 00 min 35 sec)
Heartbeat CPU 0 instructions: 6500042 cycles: 1691393 heartbeat IPC: 3.868 cumulative IPC: 3.843 (Simulation time: 00 hr 00 min 38 sec)
Heartbeat CPU 0 instructions: 7000047 cycles: 1820689 heartbeat IPC: 3.867 cumulative IPC: 3.845 (Simulation time: 00 hr 00 min 41 sec)
Heartbeat CPU 0 instructions: 7500048 cycles: 1950243 heartbeat IPC: 3.859 cumulative IPC: 3.846 (Simulation time: 00 hr 00 min 44 sec)
Heartbeat CPU 0 instructions: 8000050 cycles: 2079857 heartbeat IPC: 3.858 cumulative IPC: 3.846 (Simulation time: 00 hr 00 min 47 sec)
Heartbeat CPU 0 instructions: 8500050 cycles: 2209083 heartbeat IPC: 3.869 cumulative IPC: 3.848 (Simulation time: 00 hr 00 min 50 sec)
Heartbeat CPU 0 instructions: 9000050 cycles: 2334479 heartbeat IPC: 3.987 cumulative IPC: 3.855 (Simulation time: 00 hr 00 min 53 sec)
Heartbeat CPU 0 instructions: 9500055 cycles: 2463627 heartbeat IPC: 3.872 cumulative IPC: 3.856 (Simulation time: 00 hr 00 min 56 sec)
Heartbeat CPU 0 instructions: 10000062 cycles: 2592852 heartbeat IPC: 3.869 cumulative IPC: 3.857 (Simulation time: 00 hr 00 min 59 sec)
Heartbeat CPU 0 instructions: 10500068 cycles: 2722191 heartbeat IPC: 3.866 cumulative IPC: 3.857 (Simulation time: 00 hr 01 min 01 sec)
Heartbeat CPU 0 instructions: 11000070 cycles: 2851436 heartbeat IPC: 3.869 cumulative IPC: 3.858 (Simulation time: 00 hr 01 min 04 sec)
Heartbeat CPU 0 instructions: 11500076 cycles: 2980715 heartbeat IPC: 3.868 cumulative IPC: 3.858 (Simulation time: 00 hr 01 min 07 sec)
Heartbeat CPU 0 instructions: 12000076 cycles: 3109948 heartbeat IPC: 3.869 cumulative IPC: 3.859 (Simulation time: 00 hr 01 min 10 sec)
Heartbeat CPU 0 instructions: 12500076 cycles: 3239403 heartbeat IPC: 3.862 cumulative IPC: 3.859 (Simulation time: 00 hr 01 min 13 sec)
Heartbeat CPU 0 instructions: 13000076 cycles: 3368701 heartbeat IPC: 3.867 cumulative IPC: 3.859 (Simulation time: 00 hr 01 min 16 sec)
Heartbeat CPU 0 instructions: 13500078 cycles: 3497874 heartbeat IPC: 3.871 cumulative IPC: 3.86 (Simulation time: 00 hr 01 min 19 sec)
Heartbeat CPU 0 instructions: 14000082 cycles: 3627076 heartbeat IPC: 3.87 cumulative IPC: 3.86 (Simulation time: 00 hr 01 min 22 sec)
Heartbeat CPU 0 instructions: 14500088 cycles: 3756506 heartbeat IPC: 3.863 cumulative IPC: 3.86 (Simulation time: 00 hr 01 min 25 sec)
Heartbeat CPU 0 instructions: 15000093 cycles: 3885650 heartbeat IPC: 3.872 cumulative IPC: 3.86 (Simulation time: 00 hr 01 min 28 sec)
Heartbeat CPU 0 instructions: 15500094 cycles: 4015308 heartbeat IPC: 3.856 cumulative IPC: 3.86 (Simulation time: 00 hr 01 min 31 sec)
Heartbeat CPU 0 instructions: 16000100 cycles: 4143406 heartbeat IPC: 3.903 cumulative IPC: 3.862 (Simulation time: 00 hr 01 min 34 sec)
Heartbeat CPU 0 instructions: 16500102 cycles: 4269777 heartbeat IPC: 3.957 cumulative IPC: 3.864 (Simulation time: 00 hr 01 min 36 sec)
Heartbeat CPU 0 instructions: 17000106 cycles: 4398997 heartbeat IPC: 3.869 cumulative IPC: 3.865 (Simulation time: 00 hr 01 min 39 sec)
Heartbeat CPU 0 instructions: 17500112 cycles: 4528422 heartbeat IPC: 3.863 cumulative IPC: 3.865 (Simulation time: 00 hr 01 min 42 sec)
Heartbeat CPU 0 instructions: 18000119 cycles: 4657373 heartbeat IPC: 3.877 cumulative IPC: 3.865 (Simulation time: 00 hr 01 min 45 sec)
Heartbeat CPU 0 instructions: 18500119 cycles: 4786621 heartbeat IPC: 3.869 cumulative IPC: 3.865 (Simulation time: 00 hr 01 min 48 sec)
Heartbeat CPU 0 instructions: 19000125 cycles: 4916056 heartbeat IPC: 3.863 cumulative IPC: 3.865 (Simulation time: 00 hr 01 min 51 sec)
Heartbeat CPU 0 instructions: 19500127 cycles: 5045617 heartbeat IPC: 3.859 cumulative IPC: 3.865 (Simulation time: 00 hr 01 min 54 sec)
Heartbeat CPU 0 instructions: 20000128 cycles: 5174966 heartbeat IPC: 3.866 cumulative IPC: 3.865 (Simulation time: 00 hr 01 min 57 sec)
Heartbeat CPU 0 instructions: 20500128 cycles: 5304104 heartbeat IPC: 3.872 cumulative IPC: 3.865 (Simulation time: 00 hr 02 min 00 sec)
Heartbeat CPU 0 instructions: 21000132 cycles: 5433374 heartbeat IPC: 3.868 cumulative IPC: 3.865 (Simulation time: 00 hr 02 min 03 sec)
Heartbeat CPU 0 instructions: 21500135 cycles: 5562954 heartbeat IPC: 3.859 cumulative IPC: 3.865 (Simulation time: 00 hr 02 min 06 sec)
Heartbeat CPU 0 instructions: 22000139 cycles: 5692370 heartbeat IPC: 3.864 cumulative IPC: 3.865 (Simulation time: 00 hr 02 min 08 sec)
Heartbeat CPU 0 instructions: 22500146 cycles: 5821766 heartbeat IPC: 3.864 cumulative IPC: 3.865 (Simulation time: 00 hr 02 min 11 sec)
Heartbeat CPU 0 instructions: 23000150 cycles: 5950980 heartbeat IPC: 3.87 cumulative IPC: 3.865 (Simulation time: 00 hr 02 min 14 sec)
Heartbeat CPU 0 instructions: 23500154 cycles: 6077626 heartbeat IPC: 3.948 cumulative IPC: 3.867 (Simulation time: 00 hr 02 min 17 sec)
Heartbeat CPU 0 instructions: 24000160 cycles: 6205748 heartbeat IPC: 3.903 cumulative IPC: 3.867 (Simulation time: 00 hr 02 min 20 sec)
Heartbeat CPU 0 instructions: 24500161 cycles: 6335086 heartbeat IPC: 3.866 cumulative IPC: 3.867 (Simulation time: 00 hr 02 min 23 sec)
Heartbeat CPU 0 instructions: 25000161 cycles: 6464383 heartbeat IPC: 3.867 cumulative IPC: 3.867 (Simulation time: 00 hr 02 min 26 sec)
Heartbeat CPU 0 instructions: 25500164 cycles: 6593436 heartbeat IPC: 3.874 cumulative IPC: 3.868 (Simulation time: 00 hr 02 min 29 sec)
Heartbeat CPU 0 instructions: 26000164 cycles: 6722722 heartbeat IPC: 3.867 cumulative IPC: 3.868 (Simulation time: 00 hr 02 min 32 sec)
Heartbeat CPU 0 instructions: 26500170 cycles: 6852010 heartbeat IPC: 3.867 cumulative IPC: 3.868 (Simulation time: 00 hr 02 min 35 sec)
Heartbeat CPU 0 instructions: 27000175 cycles: 6981305 heartbeat IPC: 3.867 cumulative IPC: 3.867 (Simulation time: 00 hr 02 min 38 sec)
Heartbeat CPU 0 instructions: 27500177 cycles: 7110708 heartbeat IPC: 3.864 cumulative IPC: 3.867 (Simulation time: 00 hr 02 min 40 sec)
Heartbeat CPU 0 instructions: 28000182 cycles: 7239885 heartbeat IPC: 3.871 cumulative IPC: 3.867 (Simulation time: 00 hr 02 min 43 sec)
Heartbeat CPU 0 instructions: 28500187 cycles: 7369112 heartbeat IPC: 3.869 cumulative IPC: 3.868 (Simulation time: 00 hr 02 min 46 sec)
Heartbeat CPU 0 instructions: 29000189 cycles: 7498215 heartbeat IPC: 3.873 cumulative IPC: 3.868 (Simulation time: 00 hr 02 min 49 sec)
Heartbeat CPU 0 instructions: 29500190 cycles: 7627884 heartbeat IPC: 3.856 cumulative IPC: 3.867 (Simulation time: 00 hr 02 min 52 sec)
Heartbeat CPU 0 instructions: 30000197 cycles: 7757633 heartbeat IPC: 3.854 cumulative IPC: 3.867 (Simulation time: 00 hr 02 min 55 sec)
Heartbeat CPU 0 instructions: 30500199 cycles: 7886763 heartbeat IPC: 3.872 cumulative IPC: 3.867 (Simulation time: 00 hr 02 min 58 sec)
Heartbeat CPU 0 instructions: 31000200 cycles: 8012031 heartbeat IPC: 3.991 cumulative IPC: 3.869 (Simulation time: 00 hr 03 min 01 sec)
Heartbeat CPU 0 instructions: 31500201 cycles: 8141174 heartbeat IPC: 3.872 cumulative IPC: 3.869 (Simulation time: 00 hr 03 min 04 sec)
Heartbeat CPU 0 instructions: 32000201 cycles: 8270501 heartbeat IPC: 3.866 cumulative IPC: 3.869 (Simulation time: 00 hr 03 min 07 sec)
Heartbeat CPU 0 instructions: 32500203 cycles: 8399446 heartbeat IPC: 3.878 cumulative IPC: 3.869 (Simulation time: 00 hr 03 min 09 sec)
Heartbeat CPU 0 instructions: 33000204 cycles: 8528607 heartbeat IPC: 3.871 cumulative IPC: 3.869 (Simulation time: 00 hr 03 min 12 sec)
Heartbeat CPU 0 instructions: 33500207 cycles: 8657991 heartbeat IPC: 3.864 cumulative IPC: 3.869 (Simulation time: 00 hr 03 min 15 sec)
Heartbeat CPU 0 instructions: 34000211 cycles: 8787147 heartbeat IPC: 3.871 cumulative IPC: 3.869 (Simulation time: 00 hr 03 min 18 sec)
Heartbeat CPU 0 instructions: 34500212 cycles: 8912585 heartbeat IPC: 3.986 cumulative IPC: 3.871 (Simulation time: 00 hr 03 min 21 sec)
Heartbeat CPU 0 instructions: 35000215 cycles: 9037884 heartbeat IPC: 3.99 cumulative IPC: 3.873 (Simulation time: 00 hr 03 min 24 sec)
Heartbeat CPU 0 instructions: 35500215 cycles: 9163149 heartbeat IPC: 3.992 cumulative IPC: 3.874 (Simulation time: 00 hr 03 min 27 sec)
Heartbeat CPU 0 instructions: 36000221 cycles: 9288517 heartbeat IPC: 3.988 cumulative IPC: 3.876 (Simulation time: 00 hr 03 min 30 sec)
Heartbeat CPU 0 instructions: 36500226 cycles: 9413706 heartbeat IPC: 3.994 cumulative IPC: 3.877 (Simulation time: 00 hr 03 min 32 sec)
Heartbeat CPU 0 instructions: 37000227 cycles: 9539832 heartbeat IPC: 3.964 cumulative IPC: 3.878 (Simulation time: 00 hr 03 min 35 sec)
Heartbeat CPU 0 instructions: 37500234 cycles: 9668347 heartbeat IPC: 3.891 cumulative IPC: 3.879 (Simulation time: 00 hr 03 min 38 sec)
Heartbeat CPU 0 instructions: 38000236 cycles: 9793692 heartbeat IPC: 3.989 cumulative IPC: 3.88 (Simulation time: 00 hr 03 min 41 sec)
Heartbeat CPU 0 instructions: 38500243 cycles: 9919352 heartbeat IPC: 3.979 cumulative IPC: 3.881 (Simulation time: 00 hr 03 min 44 sec)
Heartbeat CPU 0 instructions: 39000248 cycles: 10044801 heartbeat IPC: 3.986 cumulative IPC: 3.883 (Simulation time: 00 hr 03 min 47 sec)
Heartbeat CPU 0 instructions: 39500251 cycles: 10170094 heartbeat IPC: 3.991 cumulative IPC: 3.884 (Simulation time: 00 hr 03 min 50 sec)
Heartbeat CPU 0 instructions: 40000256 cycles: 10295416 heartbeat IPC: 3.99 cumulative IPC: 3.885 (Simulation time: 00 hr 03 min 52 sec)
Heartbeat CPU 0 instructions: 40500262 cycles: 10420731 heartbeat IPC: 3.99 cumulative IPC: 3.887 (Simulation time: 00 hr 03 min 55 sec)
Heartbeat CPU 0 instructions: 41000263 cycles: 10546145 heartbeat IPC: 3.987 cumulative IPC: 3.888 (Simulation time: 00 hr 03 min 58 sec)
Heartbeat CPU 0 instructions: 41500269 cycles: 10671383 heartbeat IPC: 3.992 cumulative IPC: 3.889 (Simulation time: 00 hr 04 min 01 sec)
Heartbeat CPU 0 instructions: 42000273 cycles: 10796765 heartbeat IPC: 3.988 cumulative IPC: 3.89 (Simulation time: 00 hr 04 min 04 sec)
Heartbeat CPU 0 instructions: 42500275 cycles: 10922153 heartbeat IPC: 3.988 cumulative IPC: 3.891 (Simulation time: 00 hr 04 min 07 sec)
Heartbeat CPU 0 instructions: 43000276 cycles: 11047446 heartbeat IPC: 3.991 cumulative IPC: 3.892 (Simulation time: 00 hr 04 min 10 sec)
Heartbeat CPU 0 instructions: 43500279 cycles: 11172778 heartbeat IPC: 3.989 cumulative IPC: 3.893 (Simulation time: 00 hr 04 min 12 sec)
Heartbeat CPU 0 instructions: 44000279 cycles: 11298179 heartbeat IPC: 3.987 cumulative IPC: 3.894 (Simulation time: 00 hr 04 min 15 sec)
Heartbeat CPU 0 instructions: 44500282 cycles: 11423442 heartbeat IPC: 3.992 cumulative IPC: 3.896 (Simulation time: 00 hr 04 min 18 sec)
Heartbeat CPU 0 instructions: 45000282 cycles: 11548859 heartbeat IPC: 3.987 cumulative IPC: 3.897 (Simulation time: 00 hr 04 min 21 sec)
Heartbeat CPU 0 instructions: 45500283 cycles: 11674276 heartbeat IPC: 3.987 cumulative IPC: 3.897 (Simulation time: 00 hr 04 min 24 sec)
Heartbeat CPU 0 instructions: 46000284 cycles: 11799613 heartbeat IPC: 3.989 cumulative IPC: 3.898 (Simulation time: 00 hr 04 min 27 sec)
Heartbeat CPU 0 instructions: 46500288 cycles: 11924999 heartbeat IPC: 3.988 cumulative IPC: 3.899 (Simulation time: 00 hr 04 min 30 sec)
Heartbeat CPU 0 instructions: 47000289 cycles: 12050471 heartbeat IPC: 3.985 cumulative IPC: 3.9 (Simulation time: 00 hr 04 min 32 sec)
Heartbeat CPU 0 instructions: 47500294 cycles: 12175917 heartbeat IPC: 3.986 cumulative IPC: 3.901 (Simulation time: 00 hr 04 min 35 sec)
Heartbeat CPU 0 instructions: 48000298 cycles: 12301253 heartbeat IPC: 3.989 cumulative IPC: 3.902 (Simulation time: 00 hr 04 min 38 sec)
Heartbeat CPU 0 instructions: 48500304 cycles: 12426643 heartbeat IPC: 3.988 cumulative IPC: 3.903 (Simulation time: 00 hr 04 min 41 sec)
Heartbeat CPU 0 instructions: 49000306 cycles: 12552059 heartbeat IPC: 3.987 cumulative IPC: 3.904 (Simulation time: 00 hr 04 min 44 sec)
Heartbeat CPU 0 instructions: 49500307 cycles: 12677470 heartbeat IPC: 3.987 cumulative IPC: 3.905 (Simulation time: 00 hr 04 min 47 sec)
Warmup finished CPU 0 instructions: 50000006 cycles: 12802801 cumulative IPC: 3.905 (Simulation time: 00 hr 04 min 50 sec)
Warmup complete CPU 0 instructions: 50000006 cycles: 12802801 cumulative IPC: 3.905 (Simulation time: 00 hr 04 min 50 sec)
Heartbeat CPU 0 instructions: 50000310 cycles: 12802839 heartbeat IPC: 3.988 cumulative IPC: 8 (Simulation time: 00 hr 04 min 50 sec)
Heartbeat CPU 0 instructions: 50500310 cycles: 12947446 heartbeat IPC: 3.458 cumulative IPC: 3.459 (Simulation time: 00 hr 04 min 52 sec)
Heartbeat CPU 0 instructions: 51000313 cycles: 13092042 heartbeat IPC: 3.458 cumulative IPC: 3.458 (Simulation time: 00 hr 04 min 55 sec)
Heartbeat CPU 0 instructions: 51500320 cycles: 13235882 heartbeat IPC: 3.476 cumulative IPC: 3.464 (Simulation time: 00 hr 04 min 58 sec)
Heartbeat CPU 0 instructions: 52000323 cycles: 13379241 heartbeat IPC: 3.488 cumulative IPC: 3.47 (Simulation time: 00 hr 05 min 01 sec)
Heartbeat CPU 0 instructions: 52500325 cycles: 13522980 heartbeat IPC: 3.479 cumulative IPC: 3.472 (Simulation time: 00 hr 05 min 04 sec)
Heartbeat CPU 0 instructions: 53000326 cycles: 13652802 heartbeat IPC: 3.851 cumulative IPC: 3.53 (Simulation time: 00 hr 05 min 06 sec)
Heartbeat CPU 0 instructions: 53500326 cycles: 13795621 heartbeat IPC: 3.501 cumulative IPC: 3.526 (Simulation time: 00 hr 05 min 09 sec)
Heartbeat CPU 0 instructions: 54000329 cycles: 13940339 heartbeat IPC: 3.455 cumulative IPC: 3.517 (Simulation time: 00 hr 05 min 12 sec)
Heartbeat CPU 0 instructions: 54500335 cycles: 14083140 heartbeat IPC: 3.501 cumulative IPC: 3.515 (Simulation time: 00 hr 05 min 15 sec)
Heartbeat CPU 0 instructions: 55000340 cycles: 14226958 heartbeat IPC: 3.477 cumulative IPC: 3.511 (Simulation time: 00 hr 05 min 18 sec)
Heartbeat CPU 0 instructions: 55500345 cycles: 14370912 heartbeat IPC: 3.473 cumulative IPC: 3.508 (Simulation time: 00 hr 05 min 21 sec)
Heartbeat CPU 0 instructions: 56000347 cycles: 14514515 heartbeat IPC: 3.482 cumulative IPC: 3.505 (Simulation time: 00 hr 05 min 24 sec)
Heartbeat CPU 0 instructions: 56500352 cycles: 14657713 heartbeat IPC: 3.492 cumulative IPC: 3.504 (Simulation time: 00 hr 05 min 26 sec)
Heartbeat CPU 0 instructions: 57000355 cycles: 14801964 heartbeat IPC: 3.466 cumulative IPC: 3.502 (Simulation time: 00 hr 05 min 29 sec)
Heartbeat CPU 0 instructions: 57500359 cycles: 14945297 heartbeat IPC: 3.488 cumulative IPC: 3.501 (Simulation time: 00 hr 05 min 32 sec)
Heartbeat CPU 0 instructions: 58000363 cycles: 15088994 heartbeat IPC: 3.48 cumulative IPC: 3.499 (Simulation time: 00 hr 05 min 35 sec)
Heartbeat CPU 0 instructions: 58500366 cycles: 15231660 heartbeat IPC: 3.505 cumulative IPC: 3.5 (Simulation time: 00 hr 05 min 38 sec)
Heartbeat CPU 0 instructions: 59000371 cycles: 15375378 heartbeat IPC: 3.479 cumulative IPC: 3.499 (Simulation time: 00 hr 05 min 41 sec)
Heartbeat CPU 0 instructions: 59500375 cycles: 15519170 heartbeat IPC: 3.477 cumulative IPC: 3.497 (Simulation time: 00 hr 05 min 44 sec)
Heartbeat CPU 0 instructions: 60000380 cycles: 15658948 heartbeat IPC: 3.577 cumulative IPC: 3.501 (Simulation time: 00 hr 05 min 46 sec)
Heartbeat CPU 0 instructions: 60500384 cycles: 15791487 heartbeat IPC: 3.773 cumulative IPC: 3.513 (Simulation time: 00 hr 05 min 49 sec)
Heartbeat CPU 0 instructions: 61000384 cycles: 15934392 heartbeat IPC: 3.499 cumulative IPC: 3.513 (Simulation time: 00 hr 05 min 52 sec)
Heartbeat CPU 0 instructions: 61500387 cycles: 16077545 heartbeat IPC: 3.493 cumulative IPC: 3.512 (Simulation time: 00 hr 05 min 55 sec)
Heartbeat CPU 0 instructions: 62000392 cycles: 16220767 heartbeat IPC: 3.491 cumulative IPC: 3.511 (Simulation time: 00 hr 05 min 58 sec)
Heartbeat CPU 0 instructions: 62500397 cycles: 16364415 heartbeat IPC: 3.481 cumulative IPC: 3.51 (Simulation time: 00 hr 06 min 00 sec)
Heartbeat CPU 0 instructions: 63000403 cycles: 16507910 heartbeat IPC: 3.484 cumulative IPC: 3.509 (Simulation time: 00 hr 06 min 03 sec)
Heartbeat CPU 0 instructions: 63500404 cycles: 16651447 heartbeat IPC: 3.483 cumulative IPC: 3.508 (Simulation time: 00 hr 06 min 06 sec)
Heartbeat CPU 0 instructions: 64000407 cycles: 16794361 heartbeat IPC: 3.499 cumulative IPC: 3.508 (Simulation time: 00 hr 06 min 09 sec)
Heartbeat CPU 0 instructions: 64500411 cycles: 16937045 heartbeat IPC: 3.504 cumulative IPC: 3.507 (Simulation time: 00 hr 06 min 12 sec)
Heartbeat CPU 0 instructions: 65000413 cycles: 17080112 heartbeat IPC: 3.495 cumulative IPC: 3.507 (Simulation time: 00 hr 06 min 15 sec)
Heartbeat CPU 0 instructions: 65500418 cycles: 17223439 heartbeat IPC: 3.489 cumulative IPC: 3.506 (Simulation time: 00 hr 06 min 18 sec)
Heartbeat CPU 0 instructions: 66000419 cycles: 17366721 heartbeat IPC: 3.49 cumulative IPC: 3.506 (Simulation time: 00 hr 06 min 20 sec)
Heartbeat CPU 0 instructions: 66500421 cycles: 17509913 heartbeat IPC: 3.492 cumulative IPC: 3.505 (Simulation time: 00 hr 06 min 23 sec)
Heartbeat CPU 0 instructions: 67000426 cycles: 17653118 heartbeat IPC: 3.492 cumulative IPC: 3.505 (Simulation time: 00 hr 06 min 26 sec)
Heartbeat CPU 0 instructions: 67500427 cycles: 17789068 heartbeat IPC: 3.678 cumulative IPC: 3.51 (Simulation time: 00 hr 06 min 29 sec)
Heartbeat CPU 0 instructions: 68000433 cycles: 17926035 heartbeat IPC: 3.651 cumulative IPC: 3.513 (Simulation time: 00 hr 06 min 32 sec)
Heartbeat CPU 0 instructions: 68500435 cycles: 18068499 heartbeat IPC: 3.51 cumulative IPC: 3.513 (Simulation time: 00 hr 06 min 35 sec)
Heartbeat CPU 0 instructions: 69000436 cycles: 18212518 heartbeat IPC: 3.472 cumulative IPC: 3.512 (Simulation time: 00 hr 06 min 38 sec)
Heartbeat CPU 0 instructions: 69500441 cycles: 18355754 heartbeat IPC: 3.491 cumulative IPC: 3.512 (Simulation time: 00 hr 06 min 40 sec)
Heartbeat CPU 0 instructions: 70000443 cycles: 18498348 heartbeat IPC: 3.506 cumulative IPC: 3.512 (Simulation time: 00 hr 06 min 43 sec)
Heartbeat CPU 0 instructions: 70500444 cycles: 18641627 heartbeat IPC: 3.49 cumulative IPC: 3.511 (Simulation time: 00 hr 06 min 46 sec)
Heartbeat CPU 0 instructions: 71000446 cycles: 18784840 heartbeat IPC: 3.491 cumulative IPC: 3.511 (Simulation time: 00 hr 06 min 49 sec)
Heartbeat CPU 0 instructions: 71500450 cycles: 18939038 heartbeat IPC: 3.243 cumulative IPC: 3.504 (Simulation time: 00 hr 06 min 52 sec)
Heartbeat CPU 0 instructions: 72000452 cycles: 19092680 heartbeat IPC: 3.254 cumulative IPC: 3.498 (Simulation time: 00 hr 06 min 55 sec)
Heartbeat CPU 0 instructions: 72500457 cycles: 19236081 heartbeat IPC: 3.487 cumulative IPC: 3.498 (Simulation time: 00 hr 06 min 58 sec)
Heartbeat CPU 0 instructions: 73000462 cycles: 19378695 heartbeat IPC: 3.506 cumulative IPC: 3.498 (Simulation time: 00 hr 07 min 01 sec)
Heartbeat CPU 0 instructions: 73500468 cycles: 19520407 heartbeat IPC: 3.528 cumulative IPC: 3.498 (Simulation time: 00 hr 07 min 03 sec)
Heartbeat CPU 0 instructions: 74000475 cycles: 19662416 heartbeat IPC: 3.521 cumulative IPC: 3.499 (Simulation time: 00 hr 07 min 06 sec)
Heartbeat CPU 0 instructions: 74500479 cycles: 19804900 heartbeat IPC: 3.509 cumulative IPC: 3.499 (Simulation time: 00 hr 07 min 09 sec)
Heartbeat CPU 0 instructions: 75000484 cycles: 19935911 heartbeat IPC: 3.817 cumulative IPC: 3.505 (Simulation time: 00 hr 07 min 12 sec)
Heartbeat CPU 0 instructions: 75500486 cycles: 20074735 heartbeat IPC: 3.602 cumulative IPC: 3.507 (Simulation time: 00 hr 07 min 15 sec)
Heartbeat CPU 0 instructions: 76000487 cycles: 20215472 heartbeat IPC: 3.553 cumulative IPC: 3.508 (Simulation time: 00 hr 07 min 17 sec)
Heartbeat CPU 0 instructions: 76500488 cycles: 20356154 heartbeat IPC: 3.554 cumulative IPC: 3.508 (Simulation time: 00 hr 07 min 20 sec)
Heartbeat CPU 0 instructions: 77000494 cycles: 20496589 heartbeat IPC: 3.56 cumulative IPC: 3.509 (Simulation time: 00 hr 07 min 23 sec)
Heartbeat CPU 0 instructions: 77500501 cycles: 20637406 heartbeat IPC: 3.551 cumulative IPC: 3.51 (Simulation time: 00 hr 07 min 26 sec)
Heartbeat CPU 0 instructions: 78000505 cycles: 20777368 heartbeat IPC: 3.572 cumulative IPC: 3.511 (Simulation time: 00 hr 07 min 29 sec)
Heartbeat CPU 0 instructions: 78500506 cycles: 20916857 heartbeat IPC: 3.585 cumulative IPC: 3.512 (Simulation time: 00 hr 07 min 31 sec)
Heartbeat CPU 0 instructions: 79000508 cycles: 21056045 heartbeat IPC: 3.592 cumulative IPC: 3.514 (Simulation time: 00 hr 07 min 34 sec)
Heartbeat CPU 0 instructions: 79500513 cycles: 21195491 heartbeat IPC: 3.586 cumulative IPC: 3.515 (Simulation time: 00 hr 07 min 37 sec)
Heartbeat CPU 0 instructions: 80000513 cycles: 21333956 heartbeat IPC: 3.611 cumulative IPC: 3.517 (Simulation time: 00 hr 07 min 40 sec)
Heartbeat CPU 0 instructions: 80500516 cycles: 21472604 heartbeat IPC: 3.606 cumulative IPC: 3.518 (Simulation time: 00 hr 07 min 43 sec)
Heartbeat CPU 0 instructions: 81000521 cycles: 21611710 heartbeat IPC: 3.594 cumulative IPC: 3.519 (Simulation time: 00 hr 07 min 45 sec)
Heartbeat CPU 0 instructions: 81500523 cycles: 21750457 heartbeat IPC: 3.604 cumulative IPC: 3.521 (Simulation time: 00 hr 07 min 48 sec)
Heartbeat CPU 0 instructions: 82000524 cycles: 21887576 heartbeat IPC: 3.646 cumulative IPC: 3.522 (Simulation time: 00 hr 07 min 51 sec)
Heartbeat CPU 0 instructions: 82500526 cycles: 22017949 heartbeat IPC: 3.835 cumulative IPC: 3.527 (Simulation time: 00 hr 07 min 54 sec)
Heartbeat CPU 0 instructions: 83000528 cycles: 22157214 heartbeat IPC: 3.59 cumulative IPC: 3.528 (Simulation time: 00 hr 07 min 56 sec)
Heartbeat CPU 0 instructions: 83500532 cycles: 22295704 heartbeat IPC: 3.61 cumulative IPC: 3.529 (Simulation time: 00 hr 07 min 59 sec)
Heartbeat CPU 0 instructions: 84000534 cycles: 22434851 heartbeat IPC: 3.593 cumulative IPC: 3.53 (Simulation time: 00 hr 08 min 02 sec)
Heartbeat CPU 0 instructions: 84500535 cycles: 22573882 heartbeat IPC: 3.596 cumulative IPC: 3.531 (Simulation time: 00 hr 08 min 05 sec)
Heartbeat CPU 0 instructions: 85000537 cycles: 22720398 heartbeat IPC: 3.413 cumulative IPC: 3.529 (Simulation time: 00 hr 08 min 08 sec)
Heartbeat CPU 0 instructions: 85500542 cycles: 22865322 heartbeat IPC: 3.45 cumulative IPC: 3.528 (Simulation time: 00 hr 08 min 11 sec)
Heartbeat CPU 0 instructions: 86000544 cycles: 23007739 heartbeat IPC: 3.511 cumulative IPC: 3.528 (Simulation time: 00 hr 08 min 14 sec)
Heartbeat CPU 0 instructions: 86500545 cycles: 23152062 heartbeat IPC: 3.464 cumulative IPC: 3.527 (Simulation time: 00 hr 08 min 16 sec)
Heartbeat CPU 0 instructions: 87000548 cycles: 23295631 heartbeat IPC: 3.483 cumulative IPC: 3.526 (Simulation time: 00 hr 08 min 19 sec)
Heartbeat CPU 0 instructions: 87500552 cycles: 23438797 heartbeat IPC: 3.492 cumulative IPC: 3.526 (Simulation time: 00 hr 08 min 22 sec)
Heartbeat CPU 0 instructions: 88000557 cycles: 23581935 heartbeat IPC: 3.493 cumulative IPC: 3.525 (Simulation time: 00 hr 08 min 25 sec)
Heartbeat CPU 0 instructions: 88500564 cycles: 23725325 heartbeat IPC: 3.487 cumulative IPC: 3.525 (Simulation time: 00 hr 08 min 28 sec)
Heartbeat CPU 0 instructions: 89000566 cycles: 23869090 heartbeat IPC: 3.478 cumulative IPC: 3.524 (Simulation time: 00 hr 08 min 31 sec)
Heartbeat CPU 0 instructions: 89500570 cycles: 24005882 heartbeat IPC: 3.655 cumulative IPC: 3.526 (Simulation time: 00 hr 08 min 34 sec)
Heartbeat CPU 0 instructions: 90000575 cycles: 24141192 heartbeat IPC: 3.695 cumulative IPC: 3.528 (Simulation time: 00 hr 08 min 36 sec)
Heartbeat CPU 0 instructions: 90500577 cycles: 24284022 heartbeat IPC: 3.501 cumulative IPC: 3.528 (Simulation time: 00 hr 08 min 39 sec)
Heartbeat CPU 0 instructions: 91000579 cycles: 24427444 heartbeat IPC: 3.486 cumulative IPC: 3.527 (Simulation time: 00 hr 08 min 42 sec)
Heartbeat CPU 0 instructions: 91500583 cycles: 24570788 heartbeat IPC: 3.488 cumulative IPC: 3.527 (Simulation time: 00 hr 08 min 45 sec)
Heartbeat CPU 0 instructions: 92000589 cycles: 24712899 heartbeat IPC: 3.518 cumulative IPC: 3.526 (Simulation time: 00 hr 08 min 48 sec)
Heartbeat CPU 0 instructions: 92500590 cycles: 24855989 heartbeat IPC: 3.494 cumulative IPC: 3.526 (Simulation time: 00 hr 08 min 51 sec)
Heartbeat CPU 0 instructions: 93000594 cycles: 24998902 heartbeat IPC: 3.499 cumulative IPC: 3.526 (Simulation time: 00 hr 08 min 53 sec)
Heartbeat CPU 0 instructions: 93500601 cycles: 25143179 heartbeat IPC: 3.466 cumulative IPC: 3.525 (Simulation time: 00 hr 08 min 56 sec)
Heartbeat CPU 0 instructions: 94000606 cycles: 25285983 heartbeat IPC: 3.501 cumulative IPC: 3.525 (Simulation time: 00 hr 08 min 59 sec)
Heartbeat CPU 0 instructions: 94500612 cycles: 25429843 heartbeat IPC: 3.476 cumulative IPC: 3.524 (Simulation time: 00 hr 09 min 02 sec)
Heartbeat CPU 0 instructions: 95000613 cycles: 25573222 heartbeat IPC: 3.487 cumulative IPC: 3.524 (Simulation time: 00 hr 09 min 05 sec)
Heartbeat CPU 0 instructions: 95500615 cycles: 25716652 heartbeat IPC: 3.486 cumulative IPC: 3.523 (Simulation time: 00 hr 09 min 08 sec)
Heartbeat CPU 0 instructions: 96000620 cycles: 25860605 heartbeat IPC: 3.473 cumulative IPC: 3.523 (Simulation time: 00 hr 09 min 11 sec)
Heartbeat CPU 0 instructions: 96500622 cycles: 26004270 heartbeat IPC: 3.48 cumulative IPC: 3.522 (Simulation time: 00 hr 09 min 14 sec)
Heartbeat CPU 0 instructions: 97000625 cycles: 26135825 heartbeat IPC: 3.801 cumulative IPC: 3.525 (Simulation time: 00 hr 09 min 16 sec)
Heartbeat CPU 0 instructions: 97500627 cycles: 26276907 heartbeat IPC: 3.544 cumulative IPC: 3.525 (Simulation time: 00 hr 09 min 19 sec)
Heartbeat CPU 0 instructions: 98000634 cycles: 26420333 heartbeat IPC: 3.486 cumulative IPC: 3.525 (Simulation time: 00 hr 09 min 22 sec)
Heartbeat CPU 0 instructions: 98500639 cycles: 26562951 heartbeat IPC: 3.506 cumulative IPC: 3.525 (Simulation time: 00 hr 09 min 25 sec)
Heartbeat CPU 0 instructions: 99000639 cycles: 26706583 heartbeat IPC: 3.481 cumulative IPC: 3.524 (Simulation time: 00 hr 09 min 28 sec)
Heartbeat CPU 0 instructions: 99500639 cycles: 26850010 heartbeat IPC: 3.486 cumulative IPC: 3.524 (Simulation time: 00 hr 09 min 31 sec)
Heartbeat CPU 0 instructions: 100000644 cycles: 26993100 heartbeat IPC: 3.494 cumulative IPC: 3.524 (Simulation time: 00 hr 09 min 33 sec)
Heartbeat CPU 0 instructions: 100500645 cycles: 27136820 heartbeat IPC: 3.479 cumulative IPC: 3.523 (Simulation time: 00 hr 09 min 36 sec)
Heartbeat CPU 0 instructions: 101000649 cycles: 27280747 heartbeat IPC: 3.474 cumulative IPC: 3.523 (Simulation time: 00 hr 09 min 39 sec)
Heartbeat CPU 0 instructions: 101500652 cycles: 27423523 heartbeat IPC: 3.502 cumulative IPC: 3.522 (Simulation time: 00 hr 09 min 42 sec)
Heartbeat CPU 0 instructions: 102000653 cycles: 27567169 heartbeat IPC: 3.481 cumulative IPC: 3.522 (Simulation time: 00 hr 09 min 45 sec)
Heartbeat CPU 0 instructions: 102500659 cycles: 27711002 heartbeat IPC: 3.476 cumulative IPC: 3.522 (Simulation time: 00 hr 09 min 48 sec)
Heartbeat CPU 0 instructions: 103000660 cycles: 27854441 heartbeat IPC: 3.486 cumulative IPC: 3.521 (Simulation time: 00 hr 09 min 51 sec)
Heartbeat CPU 0 instructions: 103500666 cycles: 27998130 heartbeat IPC: 3.48 cumulative IPC: 3.521 (Simulation time: 00 hr 09 min 54 sec)
Heartbeat CPU 0 instructions: 104000668 cycles: 28138692 heartbeat IPC: 3.557 cumulative IPC: 3.521 (Simulation time: 00 hr 09 min 57 sec)
Heartbeat CPU 0 instructions: 104500671 cycles: 28268414 heartbeat IPC: 3.854 cumulative IPC: 3.524 (Simulation time: 00 hr 09 min 59 sec)
Heartbeat CPU 0 instructions: 105000678 cycles: 28410826 heartbeat IPC: 3.511 cumulative IPC: 3.524 (Simulation time: 00 hr 10 min 02 sec)
Heartbeat CPU 0 instructions: 105500683 cycles: 28553492 heartbeat IPC: 3.505 cumulative IPC: 3.524 (Simulation time: 00 hr 10 min 05 sec)
Heartbeat CPU 0 instructions: 106000688 cycles: 28728213 heartbeat IPC: 2.862 cumulative IPC: 3.516 (Simulation time: 00 hr 10 min 08 sec)
Heartbeat CPU 0 instructions: 106500691 cycles: 28893726 heartbeat IPC: 3.021 cumulative IPC: 3.511 (Simulation time: 00 hr 10 min 11 sec)
Heartbeat CPU 0 instructions: 107000692 cycles: 29055551 heartbeat IPC: 3.09 cumulative IPC: 3.507 (Simulation time: 00 hr 10 min 14 sec)
Heartbeat CPU 0 instructions: 107500694 cycles: 29214369 heartbeat IPC: 3.148 cumulative IPC: 3.504 (Simulation time: 00 hr 10 min 17 sec)
Heartbeat CPU 0 instructions: 108000694 cycles: 29371895 heartbeat IPC: 3.174 cumulative IPC: 3.501 (Simulation time: 00 hr 10 min 21 sec)
Heartbeat CPU 0 instructions: 108500697 cycles: 29527460 heartbeat IPC: 3.214 cumulative IPC: 3.498 (Simulation time: 00 hr 10 min 24 sec)
Heartbeat CPU 0 instructions: 109000697 cycles: 29682265 heartbeat IPC: 3.23 cumulative IPC: 3.495 (Simulation time: 00 hr 10 min 27 sec)
Heartbeat CPU 0 instructions: 109500704 cycles: 29837952 heartbeat IPC: 3.212 cumulative IPC: 3.493 (Simulation time: 00 hr 10 min 30 sec)
Heartbeat CPU 0 instructions: 110000707 cycles: 30005046 heartbeat IPC: 2.992 cumulative IPC: 3.488 (Simulation time: 00 hr 10 min 33 sec)
Heartbeat CPU 0 instructions: 110500707 cycles: 30176149 heartbeat IPC: 2.922 cumulative IPC: 3.482 (Simulation time: 00 hr 10 min 36 sec)
Heartbeat CPU 0 instructions: 111000710 cycles: 30348534 heartbeat IPC: 2.901 cumulative IPC: 3.477 (Simulation time: 00 hr 10 min 39 sec)
Heartbeat CPU 0 instructions: 111500710 cycles: 30520835 heartbeat IPC: 2.902 cumulative IPC: 3.471 (Simulation time: 00 hr 10 min 43 sec)
Heartbeat CPU 0 instructions: 112000716 cycles: 30695423 heartbeat IPC: 2.864 cumulative IPC: 3.465 (Simulation time: 00 hr 10 min 46 sec)
Heartbeat CPU 0 instructions: 112500717 cycles: 30866221 heartbeat IPC: 2.927 cumulative IPC: 3.46 (Simulation time: 00 hr 10 min 49 sec)
Heartbeat CPU 0 instructions: 113000724 cycles: 31038945 heartbeat IPC: 2.895 cumulative IPC: 3.455 (Simulation time: 00 hr 10 min 53 sec)
Heartbeat CPU 0 instructions: 113500725 cycles: 31210673 heartbeat IPC: 2.912 cumulative IPC: 3.45 (Simulation time: 00 hr 10 min 56 sec)
Heartbeat CPU 0 instructions: 114000727 cycles: 31384879 heartbeat IPC: 2.87 cumulative IPC: 3.444 (Simulation time: 00 hr 10 min 59 sec)
Heartbeat CPU 0 instructions: 114500727 cycles: 31559094 heartbeat IPC: 2.87 cumulative IPC: 3.439 (Simulation time: 00 hr 11 min 02 sec)
Heartbeat CPU 0 instructions: 115000734 cycles: 31729722 heartbeat IPC: 2.93 cumulative IPC: 3.434 (Simulation time: 00 hr 11 min 06 sec)
Heartbeat CPU 0 instructions: 115500735 cycles: 31900832 heartbeat IPC: 2.922 cumulative IPC: 3.43 (Simulation time: 00 hr 11 min 09 sec)
Heartbeat CPU 0 instructions: 116000737 cycles: 32068510 heartbeat IPC: 2.982 cumulative IPC: 3.426 (Simulation time: 00 hr 11 min 12 sec)
Heartbeat CPU 0 instructions: 116500743 cycles: 32371570 heartbeat IPC: 1.65 cumulative IPC: 3.398 (Simulation time: 00 hr 11 min 17 sec)
Heartbeat CPU 0 instructions: 117000745 cycles: 32614403 heartbeat IPC: 2.059 cumulative IPC: 3.382 (Simulation time: 00 hr 11 min 21 sec)
Heartbeat CPU 0 instructions: 117500745 cycles: 32739266 heartbeat IPC: 4.004 cumulative IPC: 3.386 (Simulation time: 00 hr 11 min 23 sec)
Heartbeat CPU 0 instructions: 118000751 cycles: 32864639 heartbeat IPC: 3.988 cumulative IPC: 3.39 (Simulation time: 00 hr 11 min 25 sec)
Heartbeat CPU 0 instructions: 118500754 cycles: 32989512 heartbeat IPC: 4.004 cumulative IPC: 3.393 (Simulation time: 00 hr 11 min 27 sec)
Heartbeat CPU 0 instructions: 119000757 cycles: 33115588 heartbeat IPC: 3.966 cumulative IPC: 3.397 (Simulation time: 00 hr 11 min 29 sec)
Heartbeat CPU 0 instructions: 119500760 cycles: 33240524 heartbeat IPC: 4.002 cumulative IPC: 3.401 (Simulation time: 00 hr 11 min 30 sec)
Heartbeat CPU 0 instructions: 120000765 cycles: 33455071 heartbeat IPC: 2.331 cumulative IPC: 3.389 (Simulation time: 00 hr 11 min 34 sec)
Heartbeat CPU 0 instructions: 120500765 cycles: 33619327 heartbeat IPC: 3.044 cumulative IPC: 3.387 (Simulation time: 00 hr 11 min 37 sec)
Heartbeat CPU 0 instructions: 121000768 cycles: 33765125 heartbeat IPC: 3.429 cumulative IPC: 3.387 (Simulation time: 00 hr 11 min 39 sec)
Heartbeat CPU 0 instructions: 121500775 cycles: 33915632 heartbeat IPC: 3.322 cumulative IPC: 3.387 (Simulation time: 00 hr 11 min 42 sec)
Heartbeat CPU 0 instructions: 122000778 cycles: 34060760 heartbeat IPC: 3.445 cumulative IPC: 3.387 (Simulation time: 00 hr 11 min 44 sec)
Heartbeat CPU 0 instructions: 122500781 cycles: 34211863 heartbeat IPC: 3.309 cumulative IPC: 3.386 (Simulation time: 00 hr 11 min 46 sec)
Heartbeat CPU 0 instructions: 123000788 cycles: 34357000 heartbeat IPC: 3.445 cumulative IPC: 3.387 (Simulation time: 00 hr 11 min 49 sec)
Heartbeat CPU 0 instructions: 123500791 cycles: 34509198 heartbeat IPC: 3.285 cumulative IPC: 3.386 (Simulation time: 00 hr 11 min 51 sec)
Heartbeat CPU 0 instructions: 124000797 cycles: 34655356 heartbeat IPC: 3.421 cumulative IPC: 3.386 (Simulation time: 00 hr 11 min 53 sec)
Heartbeat CPU 0 instructions: 124500800 cycles: 34808490 heartbeat IPC: 3.265 cumulative IPC: 3.386 (Simulation time: 00 hr 11 min 56 sec)
Heartbeat CPU 0 instructions: 125000807 cycles: 34953999 heartbeat IPC: 3.436 cumulative IPC: 3.386 (Simulation time: 00 hr 11 min 58 sec)
Heartbeat CPU 0 instructions: 125500814 cycles: 35104736 heartbeat IPC: 3.317 cumulative IPC: 3.385 (Simulation time: 00 hr 12 min 01 sec)
Heartbeat CPU 0 instructions: 126000821 cycles: 35251006 heartbeat IPC: 3.418 cumulative IPC: 3.386 (Simulation time: 00 hr 12 min 03 sec)
Heartbeat CPU 0 instructions: 126500828 cycles: 35403887 heartbeat IPC: 3.271 cumulative IPC: 3.385 (Simulation time: 00 hr 12 min 05 sec)
Heartbeat CPU 0 instructions: 127000831 cycles: 35551241 heartbeat IPC: 3.393 cumulative IPC: 3.385 (Simulation time: 00 hr 12 min 08 sec)
Heartbeat CPU 0 instructions: 127500831 cycles: 35701704 heartbeat IPC: 3.323 cumulative IPC: 3.384 (Simulation time: 00 hr 12 min 10 sec)
Heartbeat CPU 0 instructions: 128000832 cycles: 35847705 heartbeat IPC: 3.425 cumulative IPC: 3.385 (Simulation time: 00 hr 12 min 13 sec)
Heartbeat CPU 0 instructions: 128500839 cycles: 36000386 heartbeat IPC: 3.275 cumulative IPC: 3.384 (Simulation time: 00 hr 12 min 15 sec)
Heartbeat CPU 0 instructions: 129000846 cycles: 36146779 heartbeat IPC: 3.416 cumulative IPC: 3.384 (Simulation time: 00 hr 12 min 17 sec)
Heartbeat CPU 0 instructions: 129500853 cycles: 36297456 heartbeat IPC: 3.318 cumulative IPC: 3.384 (Simulation time: 00 hr 12 min 20 sec)
Heartbeat CPU 0 instructions: 130000860 cycles: 36443673 heartbeat IPC: 3.42 cumulative IPC: 3.384 (Simulation time: 00 hr 12 min 22 sec)
Heartbeat CPU 0 instructions: 130500866 cycles: 36594495 heartbeat IPC: 3.315 cumulative IPC: 3.384 (Simulation time: 00 hr 12 min 25 sec)
Heartbeat CPU 0 instructions: 131000869 cycles: 36739308 heartbeat IPC: 3.453 cumulative IPC: 3.384 (Simulation time: 00 hr 12 min 27 sec)
Heartbeat CPU 0 instructions: 131500875 cycles: 36887801 heartbeat IPC: 3.367 cumulative IPC: 3.384 (Simulation time: 00 hr 12 min 29 sec)
Heartbeat CPU 0 instructions: 132000879 cycles: 37036833 heartbeat IPC: 3.355 cumulative IPC: 3.384 (Simulation time: 00 hr 12 min 32 sec)
Heartbeat CPU 0 instructions: 132500886 cycles: 37184729 heartbeat IPC: 3.381 cumulative IPC: 3.384 (Simulation time: 00 hr 12 min 34 sec)
Heartbeat CPU 0 instructions: 133000893 cycles: 37334905 heartbeat IPC: 3.329 cumulative IPC: 3.383 (Simulation time: 00 hr 12 min 37 sec)
Heartbeat CPU 0 instructions: 133500900 cycles: 37481537 heartbeat IPC: 3.41 cumulative IPC: 3.384 (Simulation time: 00 hr 12 min 39 sec)
Heartbeat CPU 0 instructions: 134000902 cycles: 37634139 heartbeat IPC: 3.277 cumulative IPC: 3.383 (Simulation time: 00 hr 12 min 41 sec)
Heartbeat CPU 0 instructions: 134500909 cycles: 37780813 heartbeat IPC: 3.409 cumulative IPC: 3.383 (Simulation time: 00 hr 12 min 44 sec)
Heartbeat CPU 0 instructions: 135000916 cycles: 37932108 heartbeat IPC: 3.305 cumulative IPC: 3.383 (Simulation time: 00 hr 12 min 46 sec)
Heartbeat CPU 0 instructions: 135500919 cycles: 38078276 heartbeat IPC: 3.421 cumulative IPC: 3.383 (Simulation time: 00 hr 12 min 49 sec)
Heartbeat CPU 0 instructions: 136000926 cycles: 38229347 heartbeat IPC: 3.31 cumulative IPC: 3.382 (Simulation time: 00 hr 12 min 51 sec)
Heartbeat CPU 0 instructions: 136500929 cycles: 38374143 heartbeat IPC: 3.453 cumulative IPC: 3.383 (Simulation time: 00 hr 12 min 53 sec)
Heartbeat CPU 0 instructions: 137000932 cycles: 38526580 heartbeat IPC: 3.28 cumulative IPC: 3.382 (Simulation time: 00 hr 12 min 56 sec)
Heartbeat CPU 0 instructions: 137500939 cycles: 38671077 heartbeat IPC: 3.46 cumulative IPC: 3.383 (Simulation time: 00 hr 12 min 58 sec)
Heartbeat CPU 0 instructions: 138000945 cycles: 38822194 heartbeat IPC: 3.309 cumulative IPC: 3.382 (Simulation time: 00 hr 13 min 01 sec)
Heartbeat CPU 0 instructions: 138500952 cycles: 38968809 heartbeat IPC: 3.41 cumulative IPC: 3.382 (Simulation time: 00 hr 13 min 03 sec)
Heartbeat CPU 0 instructions: 139000959 cycles: 39119104 heartbeat IPC: 3.327 cumulative IPC: 3.382 (Simulation time: 00 hr 13 min 05 sec)
Heartbeat CPU 0 instructions: 139500962 cycles: 39265097 heartbeat IPC: 3.425 cumulative IPC: 3.382 (Simulation time: 00 hr 13 min 08 sec)
Heartbeat CPU 0 instructions: 140000965 cycles: 39417296 heartbeat IPC: 3.285 cumulative IPC: 3.382 (Simulation time: 00 hr 13 min 10 sec)
Heartbeat CPU 0 instructions: 140500968 cycles: 39563635 heartbeat IPC: 3.417 cumulative IPC: 3.382 (Simulation time: 00 hr 13 min 12 sec)
Heartbeat CPU 0 instructions: 141000973 cycles: 39715503 heartbeat IPC: 3.292 cumulative IPC: 3.381 (Simulation time: 00 hr 13 min 15 sec)
Heartbeat CPU 0 instructions: 141500975 cycles: 39861448 heartbeat IPC: 3.426 cumulative IPC: 3.382 (Simulation time: 00 hr 13 min 17 sec)
Heartbeat CPU 0 instructions: 142000980 cycles: 40012445 heartbeat IPC: 3.311 cumulative IPC: 3.381 (Simulation time: 00 hr 13 min 20 sec)
Heartbeat CPU 0 instructions: 142500987 cycles: 40157391 heartbeat IPC: 3.45 cumulative IPC: 3.382 (Simulation time: 00 hr 13 min 22 sec)
Heartbeat CPU 0 instructions: 143000994 cycles: 40309866 heartbeat IPC: 3.279 cumulative IPC: 3.381 (Simulation time: 00 hr 13 min 24 sec)
Heartbeat CPU 0 instructions: 143500999 cycles: 40455031 heartbeat IPC: 3.444 cumulative IPC: 3.381 (Simulation time: 00 hr 13 min 27 sec)
Heartbeat CPU 0 instructions: 144001000 cycles: 40607261 heartbeat IPC: 3.285 cumulative IPC: 3.381 (Simulation time: 00 hr 13 min 29 sec)
Heartbeat CPU 0 instructions: 144501003 cycles: 40752669 heartbeat IPC: 3.439 cumulative IPC: 3.381 (Simulation time: 00 hr 13 min 32 sec)
Heartbeat CPU 0 instructions: 145001008 cycles: 40904169 heartbeat IPC: 3.3 cumulative IPC: 3.381 (Simulation time: 00 hr 13 min 34 sec)
Heartbeat CPU 0 instructions: 145501012 cycles: 41049386 heartbeat IPC: 3.443 cumulative IPC: 3.381 (Simulation time: 00 hr 13 min 36 sec)
Heartbeat CPU 0 instructions: 146001015 cycles: 41201536 heartbeat IPC: 3.286 cumulative IPC: 3.38 (Simulation time: 00 hr 13 min 39 sec)
Heartbeat CPU 0 instructions: 146501022 cycles: 41347600 heartbeat IPC: 3.423 cumulative IPC: 3.381 (Simulation time: 00 hr 13 min 41 sec)
Heartbeat CPU 0 instructions: 147001025 cycles: 41499974 heartbeat IPC: 3.281 cumulative IPC: 3.38 (Simulation time: 00 hr 13 min 43 sec)
Heartbeat CPU 0 instructions: 147501032 cycles: 41645520 heartbeat IPC: 3.435 cumulative IPC: 3.38 (Simulation time: 00 hr 13 min 46 sec)
Heartbeat CPU 0 instructions: 148001034 cycles: 41793569 heartbeat IPC: 3.377 cumulative IPC: 3.38 (Simulation time: 00 hr 13 min 48 sec)
Heartbeat CPU 0 instructions: 148501034 cycles: 41932236 heartbeat IPC: 3.606 cumulative IPC: 3.381 (Simulation time: 00 hr 13 min 51 sec)
Heartbeat CPU 0 instructions: 149001036 cycles: 42074628 heartbeat IPC: 3.511 cumulative IPC: 3.382 (Simulation time: 00 hr 13 min 53 sec)
Heartbeat CPU 0 instructions: 149501042 cycles: 42214755 heartbeat IPC: 3.568 cumulative IPC: 3.383 (Simulation time: 00 hr 13 min 55 sec)
Heartbeat CPU 0 instructions: 150001049 cycles: 42357948 heartbeat IPC: 3.492 cumulative IPC: 3.384 (Simulation time: 00 hr 13 min 57 sec)
Heartbeat CPU 0 instructions: 150501054 cycles: 42497868 heartbeat IPC: 3.574 cumulative IPC: 3.384 (Simulation time: 00 hr 14 min 00 sec)
Heartbeat CPU 0 instructions: 151001059 cycles: 42640278 heartbeat IPC: 3.511 cumulative IPC: 3.385 (Simulation time: 00 hr 14 min 02 sec)
Heartbeat CPU 0 instructions: 151501062 cycles: 42780768 heartbeat IPC: 3.559 cumulative IPC: 3.386 (Simulation time: 00 hr 14 min 04 sec)
Heartbeat CPU 0 instructions: 152001069 cycles: 42921977 heartbeat IPC: 3.541 cumulative IPC: 3.387 (Simulation time: 00 hr 14 min 07 sec)
Heartbeat CPU 0 instructions: 152501075 cycles: 43061112 heartbeat IPC: 3.594 cumulative IPC: 3.388 (Simulation time: 00 hr 14 min 09 sec)
Heartbeat CPU 0 instructions: 153001082 cycles: 43204237 heartbeat IPC: 3.493 cumulative IPC: 3.388 (Simulation time: 00 hr 14 min 11 sec)
Heartbeat CPU 0 instructions: 153501085 cycles: 43344094 heartbeat IPC: 3.575 cumulative IPC: 3.389 (Simulation time: 00 hr 14 min 14 sec)
Heartbeat CPU 0 instructions: 154001092 cycles: 43485251 heartbeat IPC: 3.542 cumulative IPC: 3.39 (Simulation time: 00 hr 14 min 16 sec)
Heartbeat CPU 0 instructions: 154501099 cycles: 43625568 heartbeat IPC: 3.563 cumulative IPC: 3.39 (Simulation time: 00 hr 14 min 18 sec)
Heartbeat CPU 0 instructions: 155001102 cycles: 43766175 heartbeat IPC: 3.556 cumulative IPC: 3.391 (Simulation time: 00 hr 14 min 21 sec)
Heartbeat CPU 0 instructions: 155501105 cycles: 43909529 heartbeat IPC: 3.488 cumulative IPC: 3.392 (Simulation time: 00 hr 14 min 23 sec)
Heartbeat CPU 0 instructions: 156001107 cycles: 44048566 heartbeat IPC: 3.596 cumulative IPC: 3.392 (Simulation time: 00 hr 14 min 25 sec)
Heartbeat CPU 0 instructions: 156501114 cycles: 44191674 heartbeat IPC: 3.494 cumulative IPC: 3.393 (Simulation time: 00 hr 14 min 28 sec)
Heartbeat CPU 0 instructions: 157001117 cycles: 44332410 heartbeat IPC: 3.553 cumulative IPC: 3.394 (Simulation time: 00 hr 14 min 30 sec)
Heartbeat CPU 0 instructions: 157501120 cycles: 44476792 heartbeat IPC: 3.463 cumulative IPC: 3.394 (Simulation time: 00 hr 14 min 32 sec)
Heartbeat CPU 0 instructions: 158001126 cycles: 44617220 heartbeat IPC: 3.561 cumulative IPC: 3.395 (Simulation time: 00 hr 14 min 34 sec)
Heartbeat CPU 0 instructions: 158501130 cycles: 44761597 heartbeat IPC: 3.463 cumulative IPC: 3.395 (Simulation time: 00 hr 14 min 37 sec)
Heartbeat CPU 0 instructions: 159001133 cycles: 44900842 heartbeat IPC: 3.591 cumulative IPC: 3.396 (Simulation time: 00 hr 14 min 39 sec)
Heartbeat CPU 0 instructions: 159501134 cycles: 45044274 heartbeat IPC: 3.486 cumulative IPC: 3.396 (Simulation time: 00 hr 14 min 41 sec)
Heartbeat CPU 0 instructions: 160001138 cycles: 45184159 heartbeat IPC: 3.574 cumulative IPC: 3.397 (Simulation time: 00 hr 14 min 44 sec)
Heartbeat CPU 0 instructions: 160501141 cycles: 45326153 heartbeat IPC: 3.521 cumulative IPC: 3.398 (Simulation time: 00 hr 14 min 46 sec)
Heartbeat CPU 0 instructions: 161001148 cycles: 45466336 heartbeat IPC: 3.567 cumulative IPC: 3.398 (Simulation time: 00 hr 14 min 48 sec)
Heartbeat CPU 0 instructions: 161501149 cycles: 45608851 heartbeat IPC: 3.508 cumulative IPC: 3.399 (Simulation time: 00 hr 14 min 51 sec)
Heartbeat CPU 0 instructions: 162001150 cycles: 45748100 heartbeat IPC: 3.591 cumulative IPC: 3.4 (Simulation time: 00 hr 14 min 53 sec)
Heartbeat CPU 0 instructions: 162501157 cycles: 45892645 heartbeat IPC: 3.459 cumulative IPC: 3.4 (Simulation time: 00 hr 14 min 55 sec)
Heartbeat CPU 0 instructions: 163001157 cycles: 46032098 heartbeat IPC: 3.585 cumulative IPC: 3.401 (Simulation time: 00 hr 14 min 58 sec)
Heartbeat CPU 0 instructions: 163501158 cycles: 46175201 heartbeat IPC: 3.494 cumulative IPC: 3.401 (Simulation time: 00 hr 15 min 00 sec)
Heartbeat CPU 0 instructions: 164001161 cycles: 46313733 heartbeat IPC: 3.609 cumulative IPC: 3.402 (Simulation time: 00 hr 15 min 02 sec)
Heartbeat CPU 0 instructions: 164501162 cycles: 46458060 heartbeat IPC: 3.464 cumulative IPC: 3.402 (Simulation time: 00 hr 15 min 05 sec)
Heartbeat CPU 0 instructions: 165001167 cycles: 46597880 heartbeat IPC: 3.576 cumulative IPC: 3.403 (Simulation time: 00 hr 15 min 07 sec)
Heartbeat CPU 0 instructions: 165501174 cycles: 46742333 heartbeat IPC: 3.461 cumulative IPC: 3.403 (Simulation time: 00 hr 15 min 09 sec)
Heartbeat CPU 0 instructions: 166001175 cycles: 46880998 heartbeat IPC: 3.606 cumulative IPC: 3.404 (Simulation time: 00 hr 15 min 12 sec)
Heartbeat CPU 0 instructions: 166501178 cycles: 47024096 heartbeat IPC: 3.494 cumulative IPC: 3.404 (Simulation time: 00 hr 15 min 14 sec)
Heartbeat CPU 0 instructions: 167001178 cycles: 47162738 heartbeat IPC: 3.606 cumulative IPC: 3.405 (Simulation time: 00 hr 15 min 16 sec)
Heartbeat CPU 0 instructions: 167501184 cycles: 47306230 heartbeat IPC: 3.485 cumulative IPC: 3.405 (Simulation time: 00 hr 15 min 18 sec)
Heartbeat CPU 0 instructions: 168001188 cycles: 47445248 heartbeat IPC: 3.597 cumulative IPC: 3.406 (Simulation time: 00 hr 15 min 21 sec)
Heartbeat CPU 0 instructions: 168501193 cycles: 47587544 heartbeat IPC: 3.514 cumulative IPC: 3.407 (Simulation time: 00 hr 15 min 23 sec)
Heartbeat CPU 0 instructions: 169001198 cycles: 47726568 heartbeat IPC: 3.597 cumulative IPC: 3.407 (Simulation time: 00 hr 15 min 25 sec)
Heartbeat CPU 0 instructions: 169501205 cycles: 47870675 heartbeat IPC: 3.47 cumulative IPC: 3.408 (Simulation time: 00 hr 15 min 28 sec)
Heartbeat CPU 0 instructions: 170001206 cycles: 48010344 heartbeat IPC: 3.58 cumulative IPC: 3.408 (Simulation time: 00 hr 15 min 30 sec)
Heartbeat CPU 0 instructions: 170501211 cycles: 48153653 heartbeat IPC: 3.489 cumulative IPC: 3.409 (Simulation time: 00 hr 15 min 32 sec)
Heartbeat CPU 0 instructions: 171001217 cycles: 48293834 heartbeat IPC: 3.567 cumulative IPC: 3.409 (Simulation time: 00 hr 15 min 35 sec)
Heartbeat CPU 0 instructions: 171501224 cycles: 48436627 heartbeat IPC: 3.502 cumulative IPC: 3.41 (Simulation time: 00 hr 15 min 37 sec)
Heartbeat CPU 0 instructions: 172001225 cycles: 48577511 heartbeat IPC: 3.549 cumulative IPC: 3.41 (Simulation time: 00 hr 15 min 39 sec)
Heartbeat CPU 0 instructions: 172501226 cycles: 48720754 heartbeat IPC: 3.491 cumulative IPC: 3.411 (Simulation time: 00 hr 15 min 42 sec)
Heartbeat CPU 0 instructions: 173001229 cycles: 48859756 heartbeat IPC: 3.597 cumulative IPC: 3.411 (Simulation time: 00 hr 15 min 44 sec)
Heartbeat CPU 0 instructions: 173501232 cycles: 49004390 heartbeat IPC: 3.457 cumulative IPC: 3.411 (Simulation time: 00 hr 15 min 46 sec)
Heartbeat CPU 0 instructions: 174001238 cycles: 49143087 heartbeat IPC: 3.605 cumulative IPC: 3.412 (Simulation time: 00 hr 15 min 49 sec)
Heartbeat CPU 0 instructions: 174501245 cycles: 49285852 heartbeat IPC: 3.502 cumulative IPC: 3.413 (Simulation time: 00 hr 15 min 51 sec)
Heartbeat CPU 0 instructions: 175001252 cycles: 49424473 heartbeat IPC: 3.607 cumulative IPC: 3.413 (Simulation time: 00 hr 15 min 53 sec)
Heartbeat CPU 0 instructions: 175501258 cycles: 49569993 heartbeat IPC: 3.436 cumulative IPC: 3.413 (Simulation time: 00 hr 15 min 56 sec)
Heartbeat CPU 0 instructions: 176001265 cycles: 49708067 heartbeat IPC: 3.621 cumulative IPC: 3.414 (Simulation time: 00 hr 15 min 58 sec)
Heartbeat CPU 0 instructions: 176501272 cycles: 49848746 heartbeat IPC: 3.554 cumulative IPC: 3.415 (Simulation time: 00 hr 16 min 00 sec)
Heartbeat CPU 0 instructions: 177001275 cycles: 49990181 heartbeat IPC: 3.535 cumulative IPC: 3.415 (Simulation time: 00 hr 16 min 03 sec)
Heartbeat CPU 0 instructions: 177501282 cycles: 50129770 heartbeat IPC: 3.582 cumulative IPC: 3.416 (Simulation time: 00 hr 16 min 05 sec)
Heartbeat CPU 0 instructions: 178001288 cycles: 50270525 heartbeat IPC: 3.552 cumulative IPC: 3.416 (Simulation time: 00 hr 16 min 07 sec)
Heartbeat CPU 0 instructions: 178501291 cycles: 50408529 heartbeat IPC: 3.623 cumulative IPC: 3.417 (Simulation time: 00 hr 16 min 10 sec)
Heartbeat CPU 0 instructions: 179001298 cycles: 50550489 heartbeat IPC: 3.522 cumulative IPC: 3.417 (Simulation time: 00 hr 16 min 12 sec)
Heartbeat CPU 0 instructions: 179501305 cycles: 50689909 heartbeat IPC: 3.586 cumulative IPC: 3.418 (Simulation time: 00 hr 16 min 14 sec)
Heartbeat CPU 0 instructions: 180001312 cycles: 50833108 heartbeat IPC: 3.492 cumulative IPC: 3.418 (Simulation time: 00 hr 16 min 16 sec)
Heartbeat CPU 0 instructions: 180501315 cycles: 50970481 heartbeat IPC: 3.64 cumulative IPC: 3.419 (Simulation time: 00 hr 16 min 19 sec)
Heartbeat CPU 0 instructions: 181001317 cycles: 51112130 heartbeat IPC: 3.53 cumulative IPC: 3.42 (Simulation time: 00 hr 16 min 21 sec)
Heartbeat CPU 0 instructions: 181501320 cycles: 51250866 heartbeat IPC: 3.604 cumulative IPC: 3.42 (Simulation time: 00 hr 16 min 23 sec)
Heartbeat CPU 0 instructions: 182001327 cycles: 51394616 heartbeat IPC: 3.478 cumulative IPC: 3.42 (Simulation time: 00 hr 16 min 26 sec)
Heartbeat CPU 0 instructions: 182501330 cycles: 51533162 heartbeat IPC: 3.609 cumulative IPC: 3.421 (Simulation time: 00 hr 16 min 28 sec)
Heartbeat CPU 0 instructions: 183001333 cycles: 51674596 heartbeat IPC: 3.535 cumulative IPC: 3.422 (Simulation time: 00 hr 16 min 30 sec)
Heartbeat CPU 0 instructions: 183501340 cycles: 51812695 heartbeat IPC: 3.621 cumulative IPC: 3.422 (Simulation time: 00 hr 16 min 33 sec)
Heartbeat CPU 0 instructions: 184001347 cycles: 51956839 heartbeat IPC: 3.469 cumulative IPC: 3.422 (Simulation time: 00 hr 16 min 35 sec)
Heartbeat CPU 0 instructions: 184501351 cycles: 52096166 heartbeat IPC: 3.589 cumulative IPC: 3.423 (Simulation time: 00 hr 16 min 37 sec)
Heartbeat CPU 0 instructions: 185001354 cycles: 52238808 heartbeat IPC: 3.505 cumulative IPC: 3.423 (Simulation time: 00 hr 16 min 40 sec)
Heartbeat CPU 0 instructions: 185501359 cycles: 52378727 heartbeat IPC: 3.574 cumulative IPC: 3.424 (Simulation time: 00 hr 16 min 42 sec)
Heartbeat CPU 0 instructions: 186001365 cycles: 52521307 heartbeat IPC: 3.507 cumulative IPC: 3.424 (Simulation time: 00 hr 16 min 44 sec)
Heartbeat CPU 0 instructions: 186501365 cycles: 52661545 heartbeat IPC: 3.565 cumulative IPC: 3.425 (Simulation time: 00 hr 16 min 47 sec)
Heartbeat CPU 0 instructions: 187001368 cycles: 52804656 heartbeat IPC: 3.494 cumulative IPC: 3.425 (Simulation time: 00 hr 16 min 49 sec)
Heartbeat CPU 0 instructions: 187501375 cycles: 52943769 heartbeat IPC: 3.594 cumulative IPC: 3.425 (Simulation time: 00 hr 16 min 51 sec)
Heartbeat CPU 0 instructions: 188001378 cycles: 53085224 heartbeat IPC: 3.535 cumulative IPC: 3.426 (Simulation time: 00 hr 16 min 53 sec)
Heartbeat CPU 0 instructions: 188501384 cycles: 53223649 heartbeat IPC: 3.612 cumulative IPC: 3.426 (Simulation time: 00 hr 16 min 56 sec)
Heartbeat CPU 0 instructions: 189001387 cycles: 53366582 heartbeat IPC: 3.498 cumulative IPC: 3.427 (Simulation time: 00 hr 16 min 58 sec)
Heartbeat CPU 0 instructions: 189501387 cycles: 53504407 heartbeat IPC: 3.628 cumulative IPC: 3.427 (Simulation time: 00 hr 17 min 00 sec)
Heartbeat CPU 0 instructions: 190001391 cycles: 53645733 heartbeat IPC: 3.538 cumulative IPC: 3.428 (Simulation time: 00 hr 17 min 03 sec)
Heartbeat CPU 0 instructions: 190501396 cycles: 53784352 heartbeat IPC: 3.607 cumulative IPC: 3.428 (Simulation time: 00 hr 17 min 05 sec)
Heartbeat CPU 0 instructions: 191001403 cycles: 53929092 heartbeat IPC: 3.455 cumulative IPC: 3.428 (Simulation time: 00 hr 17 min 07 sec)
Heartbeat CPU 0 instructions: 191501406 cycles: 54067542 heartbeat IPC: 3.611 cumulative IPC: 3.429 (Simulation time: 00 hr 17 min 10 sec)
Heartbeat CPU 0 instructions: 192001409 cycles: 54207698 heartbeat IPC: 3.567 cumulative IPC: 3.43 (Simulation time: 00 hr 17 min 12 sec)
Heartbeat CPU 0 instructions: 192501411 cycles: 54347293 heartbeat IPC: 3.582 cumulative IPC: 3.43 (Simulation time: 00 hr 17 min 14 sec)
Heartbeat CPU 0 instructions: 193001418 cycles: 54490756 heartbeat IPC: 3.485 cumulative IPC: 3.43 (Simulation time: 00 hr 17 min 17 sec)
Heartbeat CPU 0 instructions: 193501425 cycles: 54629455 heartbeat IPC: 3.605 cumulative IPC: 3.431 (Simulation time: 00 hr 17 min 19 sec)
Heartbeat CPU 0 instructions: 194001432 cycles: 54770758 heartbeat IPC: 3.539 cumulative IPC: 3.431 (Simulation time: 00 hr 17 min 21 sec)
Heartbeat CPU 0 instructions: 194501439 cycles: 54909265 heartbeat IPC: 3.61 cumulative IPC: 3.432 (Simulation time: 00 hr 17 min 23 sec)
Heartbeat CPU 0 instructions: 195001442 cycles: 55052443 heartbeat IPC: 3.492 cumulative IPC: 3.432 (Simulation time: 00 hr 17 min 26 sec)
Heartbeat CPU 0 instructions: 195501448 cycles: 55191314 heartbeat IPC: 3.601 cumulative IPC: 3.433 (Simulation time: 00 hr 17 min 28 sec)
Heartbeat CPU 0 instructions: 196001449 cycles: 55333525 heartbeat IPC: 3.516 cumulative IPC: 3.433 (Simulation time: 00 hr 17 min 30 sec)
Heartbeat CPU 0 instructions: 196501454 cycles: 55472245 heartbeat IPC: 3.604 cumulative IPC: 3.433 (Simulation time: 00 hr 17 min 33 sec)
Heartbeat CPU 0 instructions: 197001461 cycles: 55614865 heartbeat IPC: 3.506 cumulative IPC: 3.434 (Simulation time: 00 hr 17 min 35 sec)
Heartbeat CPU 0 instructions: 197501468 cycles: 55753181 heartbeat IPC: 3.615 cumulative IPC: 3.434 (Simulation time: 00 hr 17 min 37 sec)
Heartbeat CPU 0 instructions: 198001475 cycles: 55894629 heartbeat IPC: 3.535 cumulative IPC: 3.435 (Simulation time: 00 hr 17 min 40 sec)
Heartbeat CPU 0 instructions: 198501478 cycles: 56032687 heartbeat IPC: 3.622 cumulative IPC: 3.435 (Simulation time: 00 hr 17 min 42 sec)
Heartbeat CPU 0 instructions: 199001478 cycles: 56172647 heartbeat IPC: 3.572 cumulative IPC: 3.436 (Simulation time: 00 hr 17 min 44 sec)
Heartbeat CPU 0 instructions: 199501483 cycles: 56313688 heartbeat IPC: 3.545 cumulative IPC: 3.436 (Simulation time: 00 hr 17 min 46 sec)
Heartbeat CPU 0 instructions: 200001490 cycles: 56453425 heartbeat IPC: 3.578 cumulative IPC: 3.436 (Simulation time: 00 hr 17 min 49 sec)
Heartbeat CPU 0 instructions: 200501497 cycles: 56595366 heartbeat IPC: 3.523 cumulative IPC: 3.437 (Simulation time: 00 hr 17 min 51 sec)
Heartbeat CPU 0 instructions: 201001504 cycles: 56733137 heartbeat IPC: 3.629 cumulative IPC: 3.437 (Simulation time: 00 hr 17 min 53 sec)
Heartbeat CPU 0 instructions: 201501507 cycles: 56873974 heartbeat IPC: 3.55 cumulative IPC: 3.438 (Simulation time: 00 hr 17 min 56 sec)
Heartbeat CPU 0 instructions: 202001510 cycles: 57012816 heartbeat IPC: 3.601 cumulative IPC: 3.438 (Simulation time: 00 hr 17 min 58 sec)
Heartbeat CPU 0 instructions: 202501511 cycles: 57156340 heartbeat IPC: 3.484 cumulative IPC: 3.438 (Simulation time: 00 hr 18 min 00 sec)
Heartbeat CPU 0 instructions: 203001514 cycles: 57297909 heartbeat IPC: 3.532 cumulative IPC: 3.439 (Simulation time: 00 hr 18 min 03 sec)
Heartbeat CPU 0 instructions: 203501517 cycles: 57439824 heartbeat IPC: 3.523 cumulative IPC: 3.439 (Simulation time: 00 hr 18 min 05 sec)
Heartbeat CPU 0 instructions: 204001520 cycles: 57577359 heartbeat IPC: 3.635 cumulative IPC: 3.439 (Simulation time: 00 hr 18 min 07 sec)
Heartbeat CPU 0 instructions: 204501527 cycles: 57718748 heartbeat IPC: 3.536 cumulative IPC: 3.44 (Simulation time: 00 hr 18 min 09 sec)
Heartbeat CPU 0 instructions: 205001534 cycles: 57856812 heartbeat IPC: 3.622 cumulative IPC: 3.44 (Simulation time: 00 hr 18 min 12 sec)
Heartbeat CPU 0 instructions: 205501538 cycles: 57998277 heartbeat IPC: 3.534 cumulative IPC: 3.441 (Simulation time: 00 hr 18 min 14 sec)
Heartbeat CPU 0 instructions: 206001540 cycles: 58136222 heartbeat IPC: 3.625 cumulative IPC: 3.441 (Simulation time: 00 hr 18 min 16 sec)
Heartbeat CPU 0 instructions: 206501544 cycles: 58277628 heartbeat IPC: 3.536 cumulative IPC: 3.441 (Simulation time: 00 hr 18 min 19 sec)
Heartbeat CPU 0 instructions: 207001549 cycles: 58416073 heartbeat IPC: 3.612 cumulative IPC: 3.442 (Simulation time: 00 hr 18 min 21 sec)
Heartbeat CPU 0 instructions: 207501556 cycles: 58558027 heartbeat IPC: 3.522 cumulative IPC: 3.442 (Simulation time: 00 hr 18 min 23 sec)
Heartbeat CPU 0 instructions: 208001559 cycles: 58695730 heartbeat IPC: 3.631 cumulative IPC: 3.443 (Simulation time: 00 hr 18 min 26 sec)
Heartbeat CPU 0 instructions: 208501566 cycles: 58836804 heartbeat IPC: 3.544 cumulative IPC: 3.443 (Simulation time: 00 hr 18 min 28 sec)
Heartbeat CPU 0 instructions: 209001569 cycles: 58974610 heartbeat IPC: 3.628 cumulative IPC: 3.444 (Simulation time: 00 hr 18 min 30 sec)
Heartbeat CPU 0 instructions: 209501572 cycles: 59118442 heartbeat IPC: 3.476 cumulative IPC: 3.444 (Simulation time: 00 hr 18 min 32 sec)
Heartbeat CPU 0 instructions: 210001575 cycles: 59257352 heartbeat IPC: 3.599 cumulative IPC: 3.444 (Simulation time: 00 hr 18 min 35 sec)
Heartbeat CPU 0 instructions: 210501575 cycles: 59398685 heartbeat IPC: 3.538 cumulative IPC: 3.445 (Simulation time: 00 hr 18 min 37 sec)
Heartbeat CPU 0 instructions: 211001580 cycles: 59536151 heartbeat IPC: 3.637 cumulative IPC: 3.445 (Simulation time: 00 hr 18 min 39 sec)
Heartbeat CPU 0 instructions: 211501587 cycles: 59678750 heartbeat IPC: 3.506 cumulative IPC: 3.445 (Simulation time: 00 hr 18 min 42 sec)
Heartbeat CPU 0 instructions: 212001590 cycles: 59817656 heartbeat IPC: 3.6 cumulative IPC: 3.446 (Simulation time: 00 hr 18 min 44 sec)
Heartbeat CPU 0 instructions: 212501593 cycles: 59959644 heartbeat IPC: 3.521 cumulative IPC: 3.446 (Simulation time: 00 hr 18 min 46 sec)
Heartbeat CPU 0 instructions: 213001600 cycles: 60097806 heartbeat IPC: 3.619 cumulative IPC: 3.446 (Simulation time: 00 hr 18 min 48 sec)
Heartbeat CPU 0 instructions: 213501605 cycles: 60239182 heartbeat IPC: 3.537 cumulative IPC: 3.447 (Simulation time: 00 hr 18 min 51 sec)
Heartbeat CPU 0 instructions: 214001608 cycles: 60378744 heartbeat IPC: 3.583 cumulative IPC: 3.447 (Simulation time: 00 hr 18 min 53 sec)
Heartbeat CPU 0 instructions: 214501608 cycles: 60520120 heartbeat IPC: 3.537 cumulative IPC: 3.447 (Simulation time: 00 hr 18 min 55 sec)
Heartbeat CPU 0 instructions: 215001613 cycles: 60658314 heartbeat IPC: 3.618 cumulative IPC: 3.448 (Simulation time: 00 hr 18 min 58 sec)
Heartbeat CPU 0 instructions: 215501614 cycles: 60799456 heartbeat IPC: 3.543 cumulative IPC: 3.448 (Simulation time: 00 hr 19 min 00 sec)
Heartbeat CPU 0 instructions: 216001621 cycles: 60939023 heartbeat IPC: 3.583 cumulative IPC: 3.449 (Simulation time: 00 hr 19 min 02 sec)
Heartbeat CPU 0 instructions: 216501624 cycles: 61081403 heartbeat IPC: 3.512 cumulative IPC: 3.449 (Simulation time: 00 hr 19 min 05 sec)
Heartbeat CPU 0 instructions: 217001627 cycles: 61219264 heartbeat IPC: 3.627 cumulative IPC: 3.449 (Simulation time: 00 hr 19 min 07 sec)
Heartbeat CPU 0 instructions: 217501633 cycles: 61361259 heartbeat IPC: 3.521 cumulative IPC: 3.449 (Simulation time: 00 hr 19 min 09 sec)
Heartbeat CPU 0 instructions: 218001636 cycles: 61499878 heartbeat IPC: 3.607 cumulative IPC: 3.45 (Simulation time: 00 hr 19 min 11 sec)
Heartbeat CPU 0 instructions: 218501643 cycles: 61643091 heartbeat IPC: 3.491 cumulative IPC: 3.45 (Simulation time: 00 hr 19 min 14 sec)
Heartbeat CPU 0 instructions: 219001644 cycles: 61781398 heartbeat IPC: 3.615 cumulative IPC: 3.451 (Simulation time: 00 hr 19 min 16 sec)
Heartbeat CPU 0 instructions: 219501645 cycles: 61922510 heartbeat IPC: 3.543 cumulative IPC: 3.451 (Simulation time: 00 hr 19 min 18 sec)
Heartbeat CPU 0 instructions: 220001652 cycles: 62059986 heartbeat IPC: 3.637 cumulative IPC: 3.451 (Simulation time: 00 hr 19 min 21 sec)
Heartbeat CPU 0 instructions: 220501653 cycles: 62201661 heartbeat IPC: 3.529 cumulative IPC: 3.452 (Simulation time: 00 hr 19 min 23 sec)
Heartbeat CPU 0 instructions: 221001654 cycles: 62341137 heartbeat IPC: 3.585 cumulative IPC: 3.452 (Simulation time: 00 hr 19 min 25 sec)
Heartbeat CPU 0 instructions: 221501655 cycles: 62480329 heartbeat IPC: 3.592 cumulative IPC: 3.452 (Simulation time: 00 hr 19 min 28 sec)
Heartbeat CPU 0 instructions: 222001659 cycles: 62620657 heartbeat IPC: 3.563 cumulative IPC: 3.453 (Simulation time: 00 hr 19 min 30 sec)
Heartbeat CPU 0 instructions: 222501664 cycles: 62758324 heartbeat IPC: 3.632 cumulative IPC: 3.453 (Simulation time: 00 hr 19 min 32 sec)
Heartbeat CPU 0 instructions: 223001669 cycles: 62899866 heartbeat IPC: 3.533 cumulative IPC: 3.453 (Simulation time: 00 hr 19 min 34 sec)
Heartbeat CPU 0 instructions: 223501672 cycles: 63039447 heartbeat IPC: 3.582 cumulative IPC: 3.454 (Simulation time: 00 hr 19 min 37 sec)
Heartbeat CPU 0 instructions: 224001675 cycles: 63181459 heartbeat IPC: 3.521 cumulative IPC: 3.454 (Simulation time: 00 hr 19 min 39 sec)
Heartbeat CPU 0 instructions: 224501676 cycles: 63319829 heartbeat IPC: 3.614 cumulative IPC: 3.454 (Simulation time: 00 hr 19 min 41 sec)
Heartbeat CPU 0 instructions: 225001681 cycles: 63460369 heartbeat IPC: 3.558 cumulative IPC: 3.455 (Simulation time: 00 hr 19 min 44 sec)
Heartbeat CPU 0 instructions: 225501687 cycles: 63599410 heartbeat IPC: 3.596 cumulative IPC: 3.455 (Simulation time: 00 hr 19 min 46 sec)
Heartbeat CPU 0 instructions: 226001692 cycles: 63741806 heartbeat IPC: 3.511 cumulative IPC: 3.455 (Simulation time: 00 hr 19 min 48 sec)
Heartbeat CPU 0 instructions: 226501697 cycles: 63880434 heartbeat IPC: 3.607 cumulative IPC: 3.456 (Simulation time: 00 hr 19 min 51 sec)
Heartbeat CPU 0 instructions: 227001704 cycles: 64022351 heartbeat IPC: 3.523 cumulative IPC: 3.456 (Simulation time: 00 hr 19 min 53 sec)
Heartbeat CPU 0 instructions: 227501707 cycles: 64161200 heartbeat IPC: 3.601 cumulative IPC: 3.456 (Simulation time: 00 hr 19 min 55 sec)
Heartbeat CPU 0 instructions: 228001708 cycles: 64303419 heartbeat IPC: 3.516 cumulative IPC: 3.456 (Simulation time: 00 hr 19 min 57 sec)
Heartbeat CPU 0 instructions: 228501708 cycles: 64441966 heartbeat IPC: 3.609 cumulative IPC: 3.457 (Simulation time: 00 hr 20 min 00 sec)
Heartbeat CPU 0 instructions: 229001715 cycles: 64583272 heartbeat IPC: 3.538 cumulative IPC: 3.457 (Simulation time: 00 hr 20 min 02 sec)
Heartbeat CPU 0 instructions: 229501718 cycles: 64721410 heartbeat IPC: 3.62 cumulative IPC: 3.457 (Simulation time: 00 hr 20 min 04 sec)
Heartbeat CPU 0 instructions: 230001721 cycles: 64861776 heartbeat IPC: 3.562 cumulative IPC: 3.458 (Simulation time: 00 hr 20 min 07 sec)
Heartbeat CPU 0 instructions: 230501727 cycles: 65003974 heartbeat IPC: 3.516 cumulative IPC: 3.458 (Simulation time: 00 hr 20 min 09 sec)
Heartbeat CPU 0 instructions: 231001734 cycles: 65144824 heartbeat IPC: 3.55 cumulative IPC: 3.458 (Simulation time: 00 hr 20 min 11 sec)
Heartbeat CPU 0 instructions: 231501741 cycles: 65282980 heartbeat IPC: 3.619 cumulative IPC: 3.458 (Simulation time: 00 hr 20 min 14 sec)
Heartbeat CPU 0 instructions: 232001742 cycles: 65424099 heartbeat IPC: 3.543 cumulative IPC: 3.459 (Simulation time: 00 hr 20 min 16 sec)
Heartbeat CPU 0 instructions: 232501746 cycles: 65562121 heartbeat IPC: 3.623 cumulative IPC: 3.459 (Simulation time: 00 hr 20 min 18 sec)
Heartbeat CPU 0 instructions: 233001751 cycles: 65703699 heartbeat IPC: 3.532 cumulative IPC: 3.459 (Simulation time: 00 hr 20 min 21 sec)
Heartbeat CPU 0 instructions: 233501752 cycles: 65842198 heartbeat IPC: 3.61 cumulative IPC: 3.46 (Simulation time: 00 hr 20 min 23 sec)
Heartbeat CPU 0 instructions: 234001755 cycles: 65983814 heartbeat IPC: 3.531 cumulative IPC: 3.46 (Simulation time: 00 hr 20 min 25 sec)
Heartbeat CPU 0 instructions: 234501758 cycles: 66122293 heartbeat IPC: 3.611 cumulative IPC: 3.46 (Simulation time: 00 hr 20 min 27 sec)
Heartbeat CPU 0 instructions: 235001761 cycles: 66264051 heartbeat IPC: 3.527 cumulative IPC: 3.46 (Simulation time: 00 hr 20 min 30 sec)
Heartbeat CPU 0 instructions: 235501761 cycles: 66403491 heartbeat IPC: 3.586 cumulative IPC: 3.461 (Simulation time: 00 hr 20 min 32 sec)
Heartbeat CPU 0 instructions: 236001762 cycles: 66545198 heartbeat IPC: 3.528 cumulative IPC: 3.461 (Simulation time: 00 hr 20 min 34 sec)
Heartbeat CPU 0 instructions: 236501769 cycles: 66683174 heartbeat IPC: 3.624 cumulative IPC: 3.461 (Simulation time: 00 hr 20 min 37 sec)
Heartbeat CPU 0 instructions: 237001772 cycles: 66824242 heartbeat IPC: 3.544 cumulative IPC: 3.462 (Simulation time: 00 hr 20 min 39 sec)
Heartbeat CPU 0 instructions: 237501775 cycles: 66961689 heartbeat IPC: 3.638 cumulative IPC: 3.462 (Simulation time: 00 hr 20 min 41 sec)
Heartbeat CPU 0 instructions: 238001780 cycles: 67104155 heartbeat IPC: 3.51 cumulative IPC: 3.462 (Simulation time: 00 hr 20 min 44 sec)
Heartbeat CPU 0 instructions: 238501785 cycles: 67241503 heartbeat IPC: 3.64 cumulative IPC: 3.463 (Simulation time: 00 hr 20 min 46 sec)
Heartbeat CPU 0 instructions: 239001786 cycles: 67383052 heartbeat IPC: 3.532 cumulative IPC: 3.463 (Simulation time: 00 hr 20 min 48 sec)
Heartbeat CPU 0 instructions: 239501786 cycles: 67520018 heartbeat IPC: 3.651 cumulative IPC: 3.463 (Simulation time: 00 hr 20 min 50 sec)
Heartbeat CPU 0 instructions: 240001793 cycles: 67660776 heartbeat IPC: 3.552 cumulative IPC: 3.464 (Simulation time: 00 hr 20 min 53 sec)
Heartbeat CPU 0 instructions: 240501796 cycles: 67799214 heartbeat IPC: 3.612 cumulative IPC: 3.464 (Simulation time: 00 hr 20 min 55 sec)
Heartbeat CPU 0 instructions: 241001801 cycles: 67940855 heartbeat IPC: 3.53 cumulative IPC: 3.464 (Simulation time: 00 hr 20 min 57 sec)
Heartbeat CPU 0 instructions: 241501806 cycles: 68078367 heartbeat IPC: 3.636 cumulative IPC: 3.464 (Simulation time: 00 hr 21 min 00 sec)
Heartbeat CPU 0 instructions: 242001811 cycles: 68219413 heartbeat IPC: 3.545 cumulative IPC: 3.465 (Simulation time: 00 hr 21 min 02 sec)
Heartbeat CPU 0 instructions: 242501812 cycles: 68357256 heartbeat IPC: 3.627 cumulative IPC: 3.465 (Simulation time: 00 hr 21 min 04 sec)
Heartbeat CPU 0 instructions: 243001813 cycles: 68497982 heartbeat IPC: 3.553 cumulative IPC: 3.465 (Simulation time: 00 hr 21 min 07 sec)
Heartbeat CPU 0 instructions: 243501817 cycles: 68636900 heartbeat IPC: 3.599 cumulative IPC: 3.466 (Simulation time: 00 hr 21 min 09 sec)
Heartbeat CPU 0 instructions: 244001824 cycles: 68776458 heartbeat IPC: 3.583 cumulative IPC: 3.466 (Simulation time: 00 hr 21 min 11 sec)
Heartbeat CPU 0 instructions: 244501827 cycles: 68917648 heartbeat IPC: 3.541 cumulative IPC: 3.466 (Simulation time: 00 hr 21 min 13 sec)
Heartbeat CPU 0 instructions: 245001830 cycles: 69057073 heartbeat IPC: 3.586 cumulative IPC: 3.466 (Simulation time: 00 hr 21 min 16 sec)
Heartbeat CPU 0 instructions: 245501833 cycles: 69198774 heartbeat IPC: 3.529 cumulative IPC: 3.467 (Simulation time: 00 hr 21 min 18 sec)
Heartbeat CPU 0 instructions: 246001840 cycles: 69337079 heartbeat IPC: 3.615 cumulative IPC: 3.467 (Simulation time: 00 hr 21 min 20 sec)
Heartbeat CPU 0 instructions: 246501846 cycles: 69477951 heartbeat IPC: 3.549 cumulative IPC: 3.467 (Simulation time: 00 hr 21 min 23 sec)
Heartbeat CPU 0 instructions: 247001849 cycles: 69616250 heartbeat IPC: 3.615 cumulative IPC: 3.468 (Simulation time: 00 hr 21 min 25 sec)
Heartbeat CPU 0 instructions: 247501856 cycles: 69757400 heartbeat IPC: 3.542 cumulative IPC: 3.468 (Simulation time: 00 hr 21 min 27 sec)
Heartbeat CPU 0 instructions: 248001863 cycles: 69895680 heartbeat IPC: 3.616 cumulative IPC: 3.468 (Simulation time: 00 hr 21 min 29 sec)
Heartbeat CPU 0 instructions: 248501870 cycles: 70036147 heartbeat IPC: 3.56 cumulative IPC: 3.468 (Simulation time: 00 hr 21 min 32 sec)
Heartbeat CPU 0 instructions: 249001877 cycles: 70174338 heartbeat IPC: 3.618 cumulative IPC: 3.469 (Simulation time: 00 hr 21 min 34 sec)
Heartbeat CPU 0 instructions: 249501880 cycles: 70315769 heartbeat IPC: 3.535 cumulative IPC: 3.469 (Simulation time: 00 hr 21 min 36 sec)
Simulation finished CPU 0 instructions: 200000004 cycles: 57650855 cumulative IPC: 3.469 (Simulation time: 00 hr 21 min 39 sec)
Simulation complete CPU 0 instructions: 200000004 cycles: 57650855 cumulative IPC: 3.469 (Simulation time: 00 hr 21 min 39 sec)

ChampSim completed all CPUs

=== Simulation ===
CPU 0 runs /local-ssd/ben/dpc4-traces/ai-ml/vit.cpp-large-ggml-model-f16.gguf.armadillo.1.champsimtrace.gz

Region of Interest Statistics

CPU 0 cumulative IPC: 3.469 instructions: 200000004 cycles: 57650855
CPU 0 Branch Prediction Accuracy: 97.94% MPKI: 1.416 Average ROB Occupancy at Mispredict: 307
Branch type MPKI
BRANCH_DIRECT_JUMP: 7e-05
BRANCH_INDIRECT: 3.5e-05
BRANCH_CONDITIONAL: 1.415
BRANCH_DIRECT_CALL: 8.5e-05
BRANCH_INDIRECT_CALL: 2e-05
BRANCH_RETURN: 0.000105

cpu0->cpu0_STLB TOTAL        ACCESS:      24921 HIT:      13819 MISS:      11102 MSHR_MERGE:          0
cpu0->cpu0_STLB LOAD         ACCESS:      24921 HIT:      13819 MISS:      11102 MSHR_MERGE:          0
cpu0->cpu0_STLB RFO          ACCESS:          0 HIT:          0 MISS:          0 MSHR_MERGE:          0
cpu0->cpu0_STLB PREFETCH     ACCESS:          0 HIT:          0 MISS:          0 MSHR_MERGE:          0
cpu0->cpu0_STLB WRITE        ACCESS:          0 HIT:          0 MISS:          0 MSHR_MERGE:          0
cpu0->cpu0_STLB TRANSLATION  ACCESS:          0 HIT:          0 MISS:          0 MSHR_MERGE:          0
cpu0->cpu0_STLB PREFETCH REQUESTED:          0 ISSUED:          0 USEFUL:          0 USELESS:          0
cpu0->cpu0_STLB AVERAGE MISS LATENCY: 95.17 cycles
cpu0->cpu0_L2C TOTAL        ACCESS:   16916130 HIT:   14711185 MISS:    2204945 MSHR_MERGE:    1327734
cpu0->cpu0_L2C LOAD         ACCESS:    1629046 HIT:    1372316 MISS:     256730 MSHR_MERGE:      97244
cpu0->cpu0_L2C RFO          ACCESS:      57597 HIT:      22561 MISS:      35036 MSHR_MERGE:          0
cpu0->cpu0_L2C PREFETCH     ACCESS:   15116168 HIT:   13204697 MISS:    1911471 MSHR_MERGE:    1230490
cpu0->cpu0_L2C WRITE        ACCESS:     110624 HIT:     110622 MISS:          2 MSHR_MERGE:          0
cpu0->cpu0_L2C TRANSLATION  ACCESS:       2695 HIT:        989 MISS:       1706 MSHR_MERGE:          0
cpu0->cpu0_L2C PREFETCH REQUESTED:   21473158 ISSUED:   11379796 USEFUL:     425412 USELESS:     110743
cpu0->cpu0_L2C AVERAGE MISS LATENCY: 170.1 cycles
cpu0->cpu0_L1I TOTAL        ACCESS:   26258579 HIT:   26258454 MISS:        125 MSHR_MERGE:         18
cpu0->cpu0_L1I LOAD         ACCESS:   26258579 HIT:   26258454 MISS:        125 MSHR_MERGE:         18
cpu0->cpu0_L1I RFO          ACCESS:          0 HIT:          0 MISS:          0 MSHR_MERGE:          0
cpu0->cpu0_L1I PREFETCH     ACCESS:          0 HIT:          0 MISS:          0 MSHR_MERGE:          0
cpu0->cpu0_L1I WRITE        ACCESS:          0 HIT:          0 MISS:          0 MSHR_MERGE:          0
cpu0->cpu0_L1I TRANSLATION  ACCESS:          0 HIT:          0 MISS:          0 MSHR_MERGE:          0
cpu0->cpu0_L1I PREFETCH REQUESTED:          0 ISSUED:          0 USEFUL:          0 USELESS:          0
cpu0->cpu0_L1I AVERAGE MISS LATENCY: 137.3 cycles
cpu0->cpu0_L1D TOTAL        ACCESS:   54358397 HIT:   46371188 MISS:    7987209 MSHR_MERGE:    2561618
cpu0->cpu0_L1D LOAD         ACCESS:   48566306 HIT:   45035867 MISS:    3530439 MSHR_MERGE:    1901501
cpu0->cpu0_L1D RFO          ACCESS:          0 HIT:          0 MISS:          0 MSHR_MERGE:          0
cpu0->cpu0_L1D PREFETCH     ACCESS:    4731621 HIT:     535995 MISS:    4195626 MSHR_MERGE:     459266
cpu0->cpu0_L1D WRITE        ACCESS:    1038257 HIT:     779808 MISS:     258449 MSHR_MERGE:     200851
cpu0->cpu0_L1D TRANSLATION  ACCESS:      22213 HIT:      19518 MISS:       2695 MSHR_MERGE:          0
cpu0->cpu0_L1D PREFETCH REQUESTED:    5550491 ISSUED:    4731613 USEFUL:    3709323 USELESS:      27029
cpu0->cpu0_L1D AVERAGE MISS LATENCY: 34.38 cycles
cpu0->cpu0_ITLB TOTAL        ACCESS:   21417145 HIT:   21417126 MISS:         19 MSHR_MERGE:          7
cpu0->cpu0_ITLB LOAD         ACCESS:   21417145 HIT:   21417126 MISS:         19 MSHR_MERGE:          7
cpu0->cpu0_ITLB RFO          ACCESS:          0 HIT:          0 MISS:          0 MSHR_MERGE:          0
cpu0->cpu0_ITLB PREFETCH     ACCESS:          0 HIT:          0 MISS:          0 MSHR_MERGE:          0
cpu0->cpu0_ITLB WRITE        ACCESS:          0 HIT:          0 MISS:          0 MSHR_MERGE:          0
cpu0->cpu0_ITLB TRANSLATION  ACCESS:          0 HIT:          0 MISS:          0 MSHR_MERGE:          0
cpu0->cpu0_ITLB PREFETCH REQUESTED:          0 ISSUED:          0 USEFUL:          0 USELESS:          0
cpu0->cpu0_ITLB AVERAGE MISS LATENCY: 391.8 cycles
cpu0->cpu0_DTLB TOTAL        ACCESS:   49861114 HIT:   49726272 MISS:     134842 MSHR_MERGE:     109933
cpu0->cpu0_DTLB LOAD         ACCESS:   49861114 HIT:   49726272 MISS:     134842 MSHR_MERGE:     109933
cpu0->cpu0_DTLB RFO          ACCESS:          0 HIT:          0 MISS:          0 MSHR_MERGE:          0
cpu0->cpu0_DTLB PREFETCH     ACCESS:          0 HIT:          0 MISS:          0 MSHR_MERGE:          0
cpu0->cpu0_DTLB WRITE        ACCESS:          0 HIT:          0 MISS:          0 MSHR_MERGE:          0
cpu0->cpu0_DTLB TRANSLATION  ACCESS:          0 HIT:          0 MISS:          0 MSHR_MERGE:          0
cpu0->cpu0_DTLB PREFETCH REQUESTED:          0 ISSUED:          0 USEFUL:          0 USELESS:          0
cpu0->cpu0_DTLB AVERAGE MISS LATENCY: 47.68 cycles
cpu0->LLC TOTAL        ACCESS:    1736942 HIT:     317807 MISS:    1419135 MSHR_MERGE:     624169
cpu0->LLC LOAD         ACCESS:     159486 HIT:      25530 MISS:     133956 MSHR_MERGE:      27666
cpu0->LLC RFO          ACCESS:      35036 HIT:        980 MISS:      34056 MSHR_MERGE:          0
cpu0->LLC PREFETCH     ACCESS:    1492667 HIT:     286500 MISS:    1206167 MSHR_MERGE:     596503
cpu0->LLC WRITE        ACCESS:      48047 HIT:       4790 MISS:      43257 MSHR_MERGE:          0
cpu0->LLC TRANSLATION  ACCESS:       1706 HIT:          7 MISS:       1699 MSHR_MERGE:          0
cpu0->LLC PREFETCH REQUESTED:     965859 ISSUED:     811686 USEFUL:      93137 USELESS:     308476
cpu0->LLC AVERAGE MISS LATENCY: 177.7 cycles

DRAM Statistics

Channel 0 RQ ROW_BUFFER_HIT:     319718
  ROW_BUFFER_MISS:     431984
  AVG DBUS CONGESTED CYCLE: 4.941
Channel 0 WQ ROW_BUFFER_HIT:       6752
  ROW_BUFFER_MISS:      26885
  FULL:         79
Channel 0 REFRESHES ISSUED:       4804
