[VMEM] WARNING: physical memory size is smaller than virtual memory size.

*** ChampSim Multicore Out-of-Order Simulator ***
Warmup Instructions: 50000000
Simulation Instructions: 200000000
Number of CPUs: 1
Page size: 4096
Core 0: /local-ssd/ben/dpc4-traces/Graph/Ligra/ligra_Radii.com-lj.ungraph.gcc_6.3.0_O3.drop_24500M.length_250M.champsimtrace.xz
 L1D Berti prefetcher
Off-chip DRAM Size: 64 GiB Channels: 1 Width: 64-bit Data Rate: 4807 MT/s
Heartbeat CPU 0 instructions: 500000 cycles: 104618 heartbeat IPC: 4.779 cumulative IPC: 4.779 (Simulation time: 00 hr 00 min 02 sec)
Heartbeat CPU 0 instructions: 1000002 cycles: 206895 heartbeat IPC: 4.889 cumulative IPC: 4.833 (Simulation time: 00 hr 00 min 03 sec)
Heartbeat CPU 0 instructions: 1500002 cycles: 309265 heartbeat IPC: 4.884 cumulative IPC: 4.85 (Simulation time: 00 hr 00 min 04 sec)
Heartbeat CPU 0 instructions: 2000004 cycles: 411544 heartbeat IPC: 4.889 cumulative IPC: 4.86 (Simulation time: 00 hr 00 min 06 sec)
Heartbeat CPU 0 instructions: 2500004 cycles: 513819 heartbeat IPC: 4.889 cumulative IPC: 4.866 (Simulation time: 00 hr 00 min 07 sec)
Heartbeat CPU 0 instructions: 3000006 cycles: 616391 heartbeat IPC: 4.875 cumulative IPC: 4.867 (Simulation time: 00 hr 00 min 08 sec)
Heartbeat CPU 0 instructions: 3500008 cycles: 718669 heartbeat IPC: 4.889 cumulative IPC: 4.87 (Simulation time: 00 hr 00 min 10 sec)
Heartbeat CPU 0 instructions: 4000008 cycles: 821041 heartbeat IPC: 4.884 cumulative IPC: 4.872 (Simulation time: 00 hr 00 min 11 sec)
Heartbeat CPU 0 instructions: 4500010 cycles: 923315 heartbeat IPC: 4.889 cumulative IPC: 4.874 (Simulation time: 00 hr 00 min 13 sec)
Heartbeat CPU 0 instructions: 5000010 cycles: 1025592 heartbeat IPC: 4.889 cumulative IPC: 4.875 (Simulation time: 00 hr 00 min 14 sec)
Heartbeat CPU 0 instructions: 5500012 cycles: 1127964 heartbeat IPC: 4.884 cumulative IPC: 4.876 (Simulation time: 00 hr 00 min 16 sec)
Heartbeat CPU 0 instructions: 6000014 cycles: 1230239 heartbeat IPC: 4.889 cumulative IPC: 4.877 (Simulation time: 00 hr 00 min 17 sec)
Heartbeat CPU 0 instructions: 6500016 cycles: 1332613 heartbeat IPC: 4.884 cumulative IPC: 4.878 (Simulation time: 00 hr 00 min 18 sec)
Heartbeat CPU 0 instructions: 7000016 cycles: 1434887 heartbeat IPC: 4.889 cumulative IPC: 4.878 (Simulation time: 00 hr 00 min 20 sec)
Heartbeat CPU 0 instructions: 7500016 cycles: 1537166 heartbeat IPC: 4.889 cumulative IPC: 4.879 (Simulation time: 00 hr 00 min 21 sec)
Heartbeat CPU 0 instructions: 8000018 cycles: 1639536 heartbeat IPC: 4.884 cumulative IPC: 4.879 (Simulation time: 00 hr 00 min 23 sec)
Heartbeat CPU 0 instructions: 8500020 cycles: 1741813 heartbeat IPC: 4.889 cumulative IPC: 4.88 (Simulation time: 00 hr 00 min 24 sec)
Heartbeat CPU 0 instructions: 9000020 cycles: 1844241 heartbeat IPC: 4.881 cumulative IPC: 4.88 (Simulation time: 00 hr 00 min 25 sec)
Heartbeat CPU 0 instructions: 9500022 cycles: 1946461 heartbeat IPC: 4.891 cumulative IPC: 4.881 (Simulation time: 00 hr 00 min 27 sec)
Heartbeat CPU 0 instructions: 10000024 cycles: 2048737 heartbeat IPC: 4.889 cumulative IPC: 4.881 (Simulation time: 00 hr 00 min 28 sec)
Heartbeat CPU 0 instructions: 10500024 cycles: 2151109 heartbeat IPC: 4.884 cumulative IPC: 4.881 (Simulation time: 00 hr 00 min 30 sec)
Heartbeat CPU 0 instructions: 11000026 cycles: 2253384 heartbeat IPC: 4.889 cumulative IPC: 4.882 (Simulation time: 00 hr 00 min 31 sec)
Heartbeat CPU 0 instructions: 11500032 cycles: 2355871 heartbeat IPC: 4.879 cumulative IPC: 4.881 (Simulation time: 00 hr 00 min 33 sec)
Heartbeat CPU 0 instructions: 12000033 cycles: 2458032 heartbeat IPC: 4.894 cumulative IPC: 4.882 (Simulation time: 00 hr 00 min 34 sec)
Heartbeat CPU 0 instructions: 12500036 cycles: 2562533 heartbeat IPC: 4.785 cumulative IPC: 4.878 (Simulation time: 00 hr 00 min 35 sec)
Heartbeat CPU 0 instructions: 13000036 cycles: 2729093 heartbeat IPC: 3.002 cumulative IPC: 4.764 (Simulation time: 00 hr 00 min 37 sec)
Heartbeat CPU 0 instructions: 13500036 cycles: 2895653 heartbeat IPC: 3.002 cumulative IPC: 4.662 (Simulation time: 00 hr 00 min 39 sec)
Heartbeat CPU 0 instructions: 14000040 cycles: 3062209 heartbeat IPC: 3.002 cumulative IPC: 4.572 (Simulation time: 00 hr 00 min 40 sec)
Heartbeat CPU 0 instructions: 14500043 cycles: 3228751 heartbeat IPC: 3.002 cumulative IPC: 4.491 (Simulation time: 00 hr 00 min 42 sec)
Heartbeat CPU 0 instructions: 15000043 cycles: 3394784 heartbeat IPC: 3.011 cumulative IPC: 4.419 (Simulation time: 00 hr 00 min 44 sec)
Heartbeat CPU 0 instructions: 15500046 cycles: 3561067 heartbeat IPC: 3.007 cumulative IPC: 4.353 (Simulation time: 00 hr 00 min 45 sec)
Heartbeat CPU 0 instructions: 16000050 cycles: 3727444 heartbeat IPC: 3.005 cumulative IPC: 4.292 (Simulation time: 00 hr 00 min 47 sec)
Heartbeat CPU 0 instructions: 16500053 cycles: 3893955 heartbeat IPC: 3.003 cumulative IPC: 4.237 (Simulation time: 00 hr 00 min 49 sec)
Heartbeat CPU 0 instructions: 17000053 cycles: 4060456 heartbeat IPC: 3.003 cumulative IPC: 4.187 (Simulation time: 00 hr 00 min 50 sec)
Heartbeat CPU 0 instructions: 17500054 cycles: 4226899 heartbeat IPC: 3.004 cumulative IPC: 4.14 (Simulation time: 00 hr 00 min 52 sec)
Heartbeat CPU 0 instructions: 18000054 cycles: 4390220 heartbeat IPC: 3.061 cumulative IPC: 4.1 (Simulation time: 00 hr 00 min 54 sec)
Heartbeat CPU 0 instructions: 18500055 cycles: 4551415 heartbeat IPC: 3.102 cumulative IPC: 4.065 (Simulation time: 00 hr 00 min 55 sec)
Heartbeat CPU 0 instructions: 19000056 cycles: 4712443 heartbeat IPC: 3.105 cumulative IPC: 4.032 (Simulation time: 00 hr 00 min 57 sec)
Heartbeat CPU 0 instructions: 19500059 cycles: 4874073 heartbeat IPC: 3.094 cumulative IPC: 4.001 (Simulation time: 00 hr 00 min 59 sec)
Heartbeat CPU 0 instructions: 20000059 cycles: 5035447 heartbeat IPC: 3.098 cumulative IPC: 3.972 (Simulation time: 00 hr 01 min 00 sec)
Heartbeat CPU 0 instructions: 20500064 cycles: 5195545 heartbeat IPC: 3.123 cumulative IPC: 3.946 (Simulation time: 00 hr 01 min 02 sec)
Heartbeat CPU 0 instructions: 21000067 cycles: 5353867 heartbeat IPC: 3.158 cumulative IPC: 3.922 (Simulation time: 00 hr 01 min 03 sec)
Heartbeat CPU 0 instructions: 21500072 cycles: 5513721 heartbeat IPC: 3.128 cumulative IPC: 3.899 (Simulation time: 00 hr 01 min 05 sec)
Heartbeat CPU 0 instructions: 22000072 cycles: 5672028 heartbeat IPC: 3.158 cumulative IPC: 3.879 (Simulation time: 00 hr 01 min 07 sec)
Heartbeat CPU 0 instructions: 22500077 cycles: 5829770 heartbeat IPC: 3.17 cumulative IPC: 3.86 (Simulation time: 00 hr 01 min 08 sec)
Heartbeat CPU 0 instructions: 23000079 cycles: 5984278 heartbeat IPC: 3.236 cumulative IPC: 3.843 (Simulation time: 00 hr 01 min 10 sec)
Heartbeat CPU 0 instructions: 23500081 cycles: 6140025 heartbeat IPC: 3.21 cumulative IPC: 3.827 (Simulation time: 00 hr 01 min 12 sec)
Heartbeat CPU 0 instructions: 24000083 cycles: 6295787 heartbeat IPC: 3.21 cumulative IPC: 3.812 (Simulation time: 00 hr 01 min 13 sec)
Heartbeat CPU 0 instructions: 24500085 cycles: 6450532 heartbeat IPC: 3.231 cumulative IPC: 3.798 (Simulation time: 00 hr 01 min 15 sec)
Heartbeat CPU 0 instructions: 25000089 cycles: 6604847 heartbeat IPC: 3.24 cumulative IPC: 3.785 (Simulation time: 00 hr 01 min 16 sec)
Heartbeat CPU 0 instructions: 25500089 cycles: 6758594 heartbeat IPC: 3.252 cumulative IPC: 3.773 (Simulation time: 00 hr 01 min 18 sec)
Heartbeat CPU 0 instructions: 26000094 cycles: 6911935 heartbeat IPC: 3.261 cumulative IPC: 3.762 (Simulation time: 00 hr 01 min 19 sec)
Heartbeat CPU 0 instructions: 26500101 cycles: 7065393 heartbeat IPC: 3.258 cumulative IPC: 3.751 (Simulation time: 00 hr 01 min 21 sec)
Heartbeat CPU 0 instructions: 27000104 cycles: 7218865 heartbeat IPC: 3.258 cumulative IPC: 3.74 (Simulation time: 00 hr 01 min 23 sec)
Heartbeat CPU 0 instructions: 27500105 cycles: 7373311 heartbeat IPC: 3.237 cumulative IPC: 3.73 (Simulation time: 00 hr 01 min 24 sec)
Heartbeat CPU 0 instructions: 28000107 cycles: 7527596 heartbeat IPC: 3.241 cumulative IPC: 3.72 (Simulation time: 00 hr 01 min 26 sec)
Heartbeat CPU 0 instructions: 28500112 cycles: 7682040 heartbeat IPC: 3.237 cumulative IPC: 3.71 (Simulation time: 00 hr 01 min 27 sec)
Heartbeat CPU 0 instructions: 29000117 cycles: 7835127 heartbeat IPC: 3.266 cumulative IPC: 3.701 (Simulation time: 00 hr 01 min 29 sec)
Heartbeat CPU 0 instructions: 29500119 cycles: 7988760 heartbeat IPC: 3.255 cumulative IPC: 3.693 (Simulation time: 00 hr 01 min 30 sec)
Heartbeat CPU 0 instructions: 30000124 cycles: 8141429 heartbeat IPC: 3.275 cumulative IPC: 3.685 (Simulation time: 00 hr 01 min 32 sec)
Heartbeat CPU 0 instructions: 30500129 cycles: 8294648 heartbeat IPC: 3.263 cumulative IPC: 3.677 (Simulation time: 00 hr 01 min 34 sec)
Heartbeat CPU 0 instructions: 31000134 cycles: 8447670 heartbeat IPC: 3.268 cumulative IPC: 3.67 (Simulation time: 00 hr 01 min 35 sec)
Heartbeat CPU 0 instructions: 31500138 cycles: 8599540 heartbeat IPC: 3.292 cumulative IPC: 3.663 (Simulation time: 00 hr 01 min 37 sec)
Heartbeat CPU 0 instructions: 32000140 cycles: 8751865 heartbeat IPC: 3.282 cumulative IPC: 3.656 (Simulation time: 00 hr 01 min 38 sec)
Heartbeat CPU 0 instructions: 32500142 cycles: 8903568 heartbeat IPC: 3.296 cumulative IPC: 3.65 (Simulation time: 00 hr 01 min 40 sec)
Heartbeat CPU 0 instructions: 33000143 cycles: 9054745 heartbeat IPC: 3.307 cumulative IPC: 3.645 (Simulation time: 00 hr 01 min 41 sec)
Heartbeat CPU 0 instructions: 33500150 cycles: 9206889 heartbeat IPC: 3.286 cumulative IPC: 3.639 (Simulation time: 00 hr 01 min 43 sec)
Heartbeat CPU 0 instructions: 34000150 cycles: 9358044 heartbeat IPC: 3.308 cumulative IPC: 3.633 (Simulation time: 00 hr 01 min 45 sec)
Heartbeat CPU 0 instructions: 34500152 cycles: 9508765 heartbeat IPC: 3.317 cumulative IPC: 3.628 (Simulation time: 00 hr 01 min 46 sec)
Heartbeat CPU 0 instructions: 35000153 cycles: 9659700 heartbeat IPC: 3.313 cumulative IPC: 3.623 (Simulation time: 00 hr 01 min 48 sec)
Heartbeat CPU 0 instructions: 35500155 cycles: 9810449 heartbeat IPC: 3.317 cumulative IPC: 3.619 (Simulation time: 00 hr 01 min 49 sec)
Heartbeat CPU 0 instructions: 36000157 cycles: 9961158 heartbeat IPC: 3.318 cumulative IPC: 3.614 (Simulation time: 00 hr 01 min 51 sec)
Heartbeat CPU 0 instructions: 36500158 cycles: 10113308 heartbeat IPC: 3.286 cumulative IPC: 3.609 (Simulation time: 00 hr 01 min 52 sec)
Heartbeat CPU 0 instructions: 37000160 cycles: 10266604 heartbeat IPC: 3.262 cumulative IPC: 3.604 (Simulation time: 00 hr 01 min 54 sec)
Heartbeat CPU 0 instructions: 37500165 cycles: 10422423 heartbeat IPC: 3.209 cumulative IPC: 3.598 (Simulation time: 00 hr 01 min 56 sec)
Heartbeat CPU 0 instructions: 38000168 cycles: 10583254 heartbeat IPC: 3.109 cumulative IPC: 3.591 (Simulation time: 00 hr 01 min 57 sec)
Heartbeat CPU 0 instructions: 38500172 cycles: 10956949 heartbeat IPC: 1.338 cumulative IPC: 3.514 (Simulation time: 00 hr 02 min 03 sec)
Heartbeat CPU 0 instructions: 39000179 cycles: 11295671 heartbeat IPC: 1.476 cumulative IPC: 3.453 (Simulation time: 00 hr 02 min 08 sec)
Heartbeat CPU 0 instructions: 39500184 cycles: 11612512 heartbeat IPC: 1.578 cumulative IPC: 3.402 (Simulation time: 00 hr 02 min 13 sec)
Heartbeat CPU 0 instructions: 40000188 cycles: 11921587 heartbeat IPC: 1.618 cumulative IPC: 3.355 (Simulation time: 00 hr 02 min 18 sec)
Heartbeat CPU 0 instructions: 40500188 cycles: 12222998 heartbeat IPC: 1.659 cumulative IPC: 3.313 (Simulation time: 00 hr 02 min 23 sec)
Heartbeat CPU 0 instructions: 41000190 cycles: 12526373 heartbeat IPC: 1.648 cumulative IPC: 3.273 (Simulation time: 00 hr 02 min 28 sec)
Heartbeat CPU 0 instructions: 41500195 cycles: 12828996 heartbeat IPC: 1.652 cumulative IPC: 3.235 (Simulation time: 00 hr 02 min 33 sec)
Heartbeat CPU 0 instructions: 42000195 cycles: 13125580 heartbeat IPC: 1.686 cumulative IPC: 3.2 (Simulation time: 00 hr 02 min 37 sec)
Heartbeat CPU 0 instructions: 42500200 cycles: 13421780 heartbeat IPC: 1.688 cumulative IPC: 3.167 (Simulation time: 00 hr 02 min 42 sec)
Heartbeat CPU 0 instructions: 43000205 cycles: 13715653 heartbeat IPC: 1.701 cumulative IPC: 3.135 (Simulation time: 00 hr 02 min 47 sec)
Heartbeat CPU 0 instructions: 43500210 cycles: 14011626 heartbeat IPC: 1.689 cumulative IPC: 3.105 (Simulation time: 00 hr 02 min 52 sec)
Heartbeat CPU 0 instructions: 44000216 cycles: 14300912 heartbeat IPC: 1.728 cumulative IPC: 3.077 (Simulation time: 00 hr 02 min 56 sec)
Heartbeat CPU 0 instructions: 44500216 cycles: 14592081 heartbeat IPC: 1.717 cumulative IPC: 3.05 (Simulation time: 00 hr 03 min 01 sec)
Heartbeat CPU 0 instructions: 45000221 cycles: 14889513 heartbeat IPC: 1.681 cumulative IPC: 3.022 (Simulation time: 00 hr 03 min 06 sec)
Heartbeat CPU 0 instructions: 45500227 cycles: 15124839 heartbeat IPC: 2.125 cumulative IPC: 3.008 (Simulation time: 00 hr 03 min 10 sec)
Heartbeat CPU 0 instructions: 46000232 cycles: 15227916 heartbeat IPC: 4.851 cumulative IPC: 3.021 (Simulation time: 00 hr 03 min 11 sec)
Heartbeat CPU 0 instructions: 46500234 cycles: 15336628 heartbeat IPC: 4.599 cumulative IPC: 3.032 (Simulation time: 00 hr 03 min 13 sec)
Heartbeat CPU 0 instructions: 47000240 cycles: 15445897 heartbeat IPC: 4.576 cumulative IPC: 3.043 (Simulation time: 00 hr 03 min 15 sec)
Heartbeat CPU 0 instructions: 47500241 cycles: 15555140 heartbeat IPC: 4.577 cumulative IPC: 3.054 (Simulation time: 00 hr 03 min 17 sec)
Heartbeat CPU 0 instructions: 48000241 cycles: 15664627 heartbeat IPC: 4.567 cumulative IPC: 3.064 (Simulation time: 00 hr 03 min 19 sec)
Heartbeat CPU 0 instructions: 48500245 cycles: 15774231 heartbeat IPC: 4.562 cumulative IPC: 3.075 (Simulation time: 00 hr 03 min 21 sec)
Heartbeat CPU 0 instructions: 49000245 cycles: 15883771 heartbeat IPC: 4.565 cumulative IPC: 3.085 (Simulation time: 00 hr 03 min 23 sec)
Heartbeat CPU 0 instructions: 49500250 cycles: 15993065 heartbeat IPC: 4.575 cumulative IPC: 3.095 (Simulation time: 00 hr 03 min 25 sec)
Warmup finished CPU 0 instructions: 50000002 cycles: 16101747 cumulative IPC: 3.105 (Simulation time: 00 hr 03 min 27 sec)
Warmup complete CPU 0 instructions: 50000002 cycles: 16101747 cumulative IPC: 3.105 (Simulation time: 00 hr 03 min 27 sec)
Heartbeat CPU 0 instructions: 50000250 cycles: 16101832 heartbeat IPC: 4.597 cumulative IPC: 2.918 (Simulation time: 00 hr 03 min 27 sec)
Heartbeat CPU 0 instructions: 50500250 cycles: 16413376 heartbeat IPC: 1.605 cumulative IPC: 1.605 (Simulation time: 00 hr 03 min 31 sec)
Heartbeat CPU 0 instructions: 51000253 cycles: 16665518 heartbeat IPC: 1.983 cumulative IPC: 1.774 (Simulation time: 00 hr 03 min 34 sec)
Heartbeat CPU 0 instructions: 51500255 cycles: 16904535 heartbeat IPC: 2.092 cumulative IPC: 1.869 (Simulation time: 00 hr 03 min 37 sec)
Heartbeat CPU 0 instructions: 52000256 cycles: 17146012 heartbeat IPC: 2.071 cumulative IPC: 1.915 (Simulation time: 00 hr 03 min 40 sec)
Heartbeat CPU 0 instructions: 52500258 cycles: 17381962 heartbeat IPC: 2.119 cumulative IPC: 1.953 (Simulation time: 00 hr 03 min 43 sec)
Heartbeat CPU 0 instructions: 53000258 cycles: 17608953 heartbeat IPC: 2.203 cumulative IPC: 1.991 (Simulation time: 00 hr 03 min 46 sec)
Heartbeat CPU 0 instructions: 53500259 cycles: 17839832 heartbeat IPC: 2.166 cumulative IPC: 2.014 (Simulation time: 00 hr 03 min 49 sec)
Heartbeat CPU 0 instructions: 54000263 cycles: 18071145 heartbeat IPC: 2.162 cumulative IPC: 2.031 (Simulation time: 00 hr 03 min 52 sec)
Heartbeat CPU 0 instructions: 54500268 cycles: 18309888 heartbeat IPC: 2.094 cumulative IPC: 2.038 (Simulation time: 00 hr 03 min 55 sec)
Heartbeat CPU 0 instructions: 55000268 cycles: 18539901 heartbeat IPC: 2.174 cumulative IPC: 2.051 (Simulation time: 00 hr 03 min 58 sec)
Heartbeat CPU 0 instructions: 55500269 cycles: 18775040 heartbeat IPC: 2.126 cumulative IPC: 2.057 (Simulation time: 00 hr 04 min 01 sec)
Heartbeat CPU 0 instructions: 56000270 cycles: 19009396 heartbeat IPC: 2.134 cumulative IPC: 2.064 (Simulation time: 00 hr 04 min 04 sec)
Heartbeat CPU 0 instructions: 56500271 cycles: 19240388 heartbeat IPC: 2.165 cumulative IPC: 2.071 (Simulation time: 00 hr 04 min 07 sec)
Heartbeat CPU 0 instructions: 57000272 cycles: 19469876 heartbeat IPC: 2.179 cumulative IPC: 2.078 (Simulation time: 00 hr 04 min 10 sec)
Heartbeat CPU 0 instructions: 57500273 cycles: 19730014 heartbeat IPC: 1.922 cumulative IPC: 2.067 (Simulation time: 00 hr 04 min 13 sec)
Heartbeat CPU 0 instructions: 58000274 cycles: 19976460 heartbeat IPC: 2.029 cumulative IPC: 2.065 (Simulation time: 00 hr 04 min 16 sec)
Heartbeat CPU 0 instructions: 58500275 cycles: 20205808 heartbeat IPC: 2.18 cumulative IPC: 2.071 (Simulation time: 00 hr 04 min 19 sec)
Heartbeat CPU 0 instructions: 59000278 cycles: 20442708 heartbeat IPC: 2.111 cumulative IPC: 2.073 (Simulation time: 00 hr 04 min 23 sec)
Heartbeat CPU 0 instructions: 59500278 cycles: 20690467 heartbeat IPC: 2.018 cumulative IPC: 2.07 (Simulation time: 00 hr 04 min 26 sec)
Heartbeat CPU 0 instructions: 60000278 cycles: 20935178 heartbeat IPC: 2.043 cumulative IPC: 2.069 (Simulation time: 00 hr 04 min 29 sec)
Heartbeat CPU 0 instructions: 60500279 cycles: 21182728 heartbeat IPC: 2.02 cumulative IPC: 2.067 (Simulation time: 00 hr 04 min 32 sec)
Heartbeat CPU 0 instructions: 61000280 cycles: 21419690 heartbeat IPC: 2.11 cumulative IPC: 2.069 (Simulation time: 00 hr 04 min 35 sec)
Heartbeat CPU 0 instructions: 61500281 cycles: 21661071 heartbeat IPC: 2.071 cumulative IPC: 2.069 (Simulation time: 00 hr 04 min 39 sec)
Heartbeat CPU 0 instructions: 62000282 cycles: 21909885 heartbeat IPC: 2.01 cumulative IPC: 2.066 (Simulation time: 00 hr 04 min 42 sec)
Heartbeat CPU 0 instructions: 62500283 cycles: 22147100 heartbeat IPC: 2.108 cumulative IPC: 2.068 (Simulation time: 00 hr 04 min 45 sec)
Heartbeat CPU 0 instructions: 63000284 cycles: 22384515 heartbeat IPC: 2.106 cumulative IPC: 2.069 (Simulation time: 00 hr 04 min 48 sec)
Heartbeat CPU 0 instructions: 63500285 cycles: 22624554 heartbeat IPC: 2.083 cumulative IPC: 2.07 (Simulation time: 00 hr 04 min 52 sec)
Heartbeat CPU 0 instructions: 64000286 cycles: 22872103 heartbeat IPC: 2.02 cumulative IPC: 2.068 (Simulation time: 00 hr 04 min 55 sec)
Heartbeat CPU 0 instructions: 64500287 cycles: 23115701 heartbeat IPC: 2.053 cumulative IPC: 2.067 (Simulation time: 00 hr 04 min 58 sec)
Heartbeat CPU 0 instructions: 65000288 cycles: 23365754 heartbeat IPC: 2 cumulative IPC: 2.065 (Simulation time: 00 hr 05 min 01 sec)
Heartbeat CPU 0 instructions: 65500288 cycles: 23623986 heartbeat IPC: 1.936 cumulative IPC: 2.061 (Simulation time: 00 hr 05 min 05 sec)
Heartbeat CPU 0 instructions: 66000289 cycles: 23874596 heartbeat IPC: 1.995 cumulative IPC: 2.058 (Simulation time: 00 hr 05 min 08 sec)
Heartbeat CPU 0 instructions: 66500290 cycles: 24134670 heartbeat IPC: 1.923 cumulative IPC: 2.054 (Simulation time: 00 hr 05 min 11 sec)
Heartbeat CPU 0 instructions: 67000291 cycles: 24375828 heartbeat IPC: 2.073 cumulative IPC: 2.055 (Simulation time: 00 hr 05 min 15 sec)
Heartbeat CPU 0 instructions: 67500292 cycles: 24613998 heartbeat IPC: 2.099 cumulative IPC: 2.056 (Simulation time: 00 hr 05 min 18 sec)
Heartbeat CPU 0 instructions: 68000293 cycles: 24858843 heartbeat IPC: 2.042 cumulative IPC: 2.056 (Simulation time: 00 hr 05 min 21 sec)
Heartbeat CPU 0 instructions: 68500294 cycles: 25114762 heartbeat IPC: 1.954 cumulative IPC: 2.053 (Simulation time: 00 hr 05 min 25 sec)
Heartbeat CPU 0 instructions: 69000295 cycles: 25362096 heartbeat IPC: 2.022 cumulative IPC: 2.052 (Simulation time: 00 hr 05 min 28 sec)
Heartbeat CPU 0 instructions: 69500296 cycles: 25601767 heartbeat IPC: 2.086 cumulative IPC: 2.053 (Simulation time: 00 hr 05 min 32 sec)
Heartbeat CPU 0 instructions: 70000297 cycles: 25849809 heartbeat IPC: 2.016 cumulative IPC: 2.052 (Simulation time: 00 hr 05 min 35 sec)
Heartbeat CPU 0 instructions: 70500298 cycles: 26099665 heartbeat IPC: 2.001 cumulative IPC: 2.05 (Simulation time: 00 hr 05 min 38 sec)
Heartbeat CPU 0 instructions: 71000299 cycles: 26353831 heartbeat IPC: 1.967 cumulative IPC: 2.048 (Simulation time: 00 hr 05 min 42 sec)
Heartbeat CPU 0 instructions: 71500300 cycles: 26611869 heartbeat IPC: 1.938 cumulative IPC: 2.046 (Simulation time: 00 hr 05 min 45 sec)
Heartbeat CPU 0 instructions: 72000307 cycles: 26869625 heartbeat IPC: 1.94 cumulative IPC: 2.043 (Simulation time: 00 hr 05 min 49 sec)
Heartbeat CPU 0 instructions: 72500308 cycles: 27140798 heartbeat IPC: 1.844 cumulative IPC: 2.038 (Simulation time: 00 hr 05 min 52 sec)
Heartbeat CPU 0 instructions: 73000309 cycles: 27392567 heartbeat IPC: 1.986 cumulative IPC: 2.037 (Simulation time: 00 hr 05 min 56 sec)
Heartbeat CPU 0 instructions: 73500310 cycles: 27647873 heartbeat IPC: 1.958 cumulative IPC: 2.035 (Simulation time: 00 hr 05 min 59 sec)
Heartbeat CPU 0 instructions: 74000311 cycles: 27913684 heartbeat IPC: 1.881 cumulative IPC: 2.032 (Simulation time: 00 hr 06 min 03 sec)
Heartbeat CPU 0 instructions: 74500312 cycles: 28184086 heartbeat IPC: 1.849 cumulative IPC: 2.028 (Simulation time: 00 hr 06 min 06 sec)
Heartbeat CPU 0 instructions: 75000313 cycles: 28468458 heartbeat IPC: 1.758 cumulative IPC: 2.022 (Simulation time: 00 hr 06 min 10 sec)
Heartbeat CPU 0 instructions: 75500314 cycles: 28721820 heartbeat IPC: 1.973 cumulative IPC: 2.021 (Simulation time: 00 hr 06 min 13 sec)
Heartbeat CPU 0 instructions: 76000315 cycles: 28982304 heartbeat IPC: 1.92 cumulative IPC: 2.019 (Simulation time: 00 hr 06 min 17 sec)
Heartbeat CPU 0 instructions: 76500318 cycles: 29249894 heartbeat IPC: 1.869 cumulative IPC: 2.016 (Simulation time: 00 hr 06 min 20 sec)
Heartbeat CPU 0 instructions: 77000319 cycles: 29513285 heartbeat IPC: 1.898 cumulative IPC: 2.013 (Simulation time: 00 hr 06 min 24 sec)
Heartbeat CPU 0 instructions: 77500321 cycles: 29789685 heartbeat IPC: 1.809 cumulative IPC: 2.009 (Simulation time: 00 hr 06 min 28 sec)
Heartbeat CPU 0 instructions: 78000321 cycles: 30067550 heartbeat IPC: 1.799 cumulative IPC: 2.005 (Simulation time: 00 hr 06 min 31 sec)
Heartbeat CPU 0 instructions: 78500322 cycles: 30353502 heartbeat IPC: 1.749 cumulative IPC: 2 (Simulation time: 00 hr 06 min 35 sec)
Heartbeat CPU 0 instructions: 79000323 cycles: 30635818 heartbeat IPC: 1.771 cumulative IPC: 1.995 (Simulation time: 00 hr 06 min 38 sec)
Heartbeat CPU 0 instructions: 79500329 cycles: 30924683 heartbeat IPC: 1.731 cumulative IPC: 1.99 (Simulation time: 00 hr 06 min 42 sec)
Heartbeat CPU 0 instructions: 80000331 cycles: 31227765 heartbeat IPC: 1.65 cumulative IPC: 1.983 (Simulation time: 00 hr 06 min 46 sec)
Heartbeat CPU 0 instructions: 80500332 cycles: 31539573 heartbeat IPC: 1.604 cumulative IPC: 1.976 (Simulation time: 00 hr 06 min 50 sec)
Heartbeat CPU 0 instructions: 81000335 cycles: 31866558 heartbeat IPC: 1.529 cumulative IPC: 1.966 (Simulation time: 00 hr 06 min 53 sec)
Heartbeat CPU 0 instructions: 81500337 cycles: 32171657 heartbeat IPC: 1.639 cumulative IPC: 1.96 (Simulation time: 00 hr 06 min 56 sec)
Heartbeat CPU 0 instructions: 82000337 cycles: 32458958 heartbeat IPC: 1.74 cumulative IPC: 1.956 (Simulation time: 00 hr 07 min 00 sec)
Heartbeat CPU 0 instructions: 82500339 cycles: 32741211 heartbeat IPC: 1.771 cumulative IPC: 1.953 (Simulation time: 00 hr 07 min 03 sec)
Heartbeat CPU 0 instructions: 83000340 cycles: 33042602 heartbeat IPC: 1.659 cumulative IPC: 1.948 (Simulation time: 00 hr 07 min 07 sec)
Heartbeat CPU 0 instructions: 83500341 cycles: 33358281 heartbeat IPC: 1.584 cumulative IPC: 1.941 (Simulation time: 00 hr 07 min 11 sec)
Heartbeat CPU 0 instructions: 84000342 cycles: 33671516 heartbeat IPC: 1.596 cumulative IPC: 1.935 (Simulation time: 00 hr 07 min 15 sec)
Heartbeat CPU 0 instructions: 84500343 cycles: 33992451 heartbeat IPC: 1.558 cumulative IPC: 1.928 (Simulation time: 00 hr 07 min 18 sec)
Heartbeat CPU 0 instructions: 85000344 cycles: 34318573 heartbeat IPC: 1.533 cumulative IPC: 1.921 (Simulation time: 00 hr 07 min 22 sec)
Heartbeat CPU 0 instructions: 85500350 cycles: 34638960 heartbeat IPC: 1.561 cumulative IPC: 1.915 (Simulation time: 00 hr 07 min 26 sec)
Heartbeat CPU 0 instructions: 86000351 cycles: 34979358 heartbeat IPC: 1.469 cumulative IPC: 1.907 (Simulation time: 00 hr 07 min 30 sec)
Heartbeat CPU 0 instructions: 86500352 cycles: 35327952 heartbeat IPC: 1.434 cumulative IPC: 1.898 (Simulation time: 00 hr 07 min 34 sec)
Heartbeat CPU 0 instructions: 87000353 cycles: 35650627 heartbeat IPC: 1.55 cumulative IPC: 1.893 (Simulation time: 00 hr 07 min 38 sec)
Heartbeat CPU 0 instructions: 87500354 cycles: 35930373 heartbeat IPC: 1.787 cumulative IPC: 1.891 (Simulation time: 00 hr 07 min 41 sec)
Heartbeat CPU 0 instructions: 88000355 cycles: 36210930 heartbeat IPC: 1.782 cumulative IPC: 1.89 (Simulation time: 00 hr 07 min 45 sec)
Heartbeat CPU 0 instructions: 88500356 cycles: 36498348 heartbeat IPC: 1.74 cumulative IPC: 1.888 (Simulation time: 00 hr 07 min 48 sec)
Heartbeat CPU 0 instructions: 89000357 cycles: 36800951 heartbeat IPC: 1.652 cumulative IPC: 1.884 (Simulation time: 00 hr 07 min 52 sec)
Heartbeat CPU 0 instructions: 89500362 cycles: 37111304 heartbeat IPC: 1.611 cumulative IPC: 1.88 (Simulation time: 00 hr 07 min 55 sec)
Heartbeat CPU 0 instructions: 90000362 cycles: 37386359 heartbeat IPC: 1.818 cumulative IPC: 1.879 (Simulation time: 00 hr 07 min 59 sec)
Heartbeat CPU 0 instructions: 90500363 cycles: 37649014 heartbeat IPC: 1.904 cumulative IPC: 1.88 (Simulation time: 00 hr 08 min 02 sec)
Heartbeat CPU 0 instructions: 91000364 cycles: 37951935 heartbeat IPC: 1.651 cumulative IPC: 1.876 (Simulation time: 00 hr 08 min 06 sec)
Heartbeat CPU 0 instructions: 91500364 cycles: 38256605 heartbeat IPC: 1.641 cumulative IPC: 1.873 (Simulation time: 00 hr 08 min 09 sec)
Heartbeat CPU 0 instructions: 92000366 cycles: 38573807 heartbeat IPC: 1.576 cumulative IPC: 1.869 (Simulation time: 00 hr 08 min 13 sec)
Heartbeat CPU 0 instructions: 92500372 cycles: 38887325 heartbeat IPC: 1.595 cumulative IPC: 1.865 (Simulation time: 00 hr 08 min 16 sec)
Heartbeat CPU 0 instructions: 93000373 cycles: 39208514 heartbeat IPC: 1.557 cumulative IPC: 1.861 (Simulation time: 00 hr 08 min 20 sec)
Heartbeat CPU 0 instructions: 93500380 cycles: 39509812 heartbeat IPC: 1.66 cumulative IPC: 1.858 (Simulation time: 00 hr 08 min 24 sec)
Heartbeat CPU 0 instructions: 94000381 cycles: 39828041 heartbeat IPC: 1.571 cumulative IPC: 1.854 (Simulation time: 00 hr 08 min 27 sec)
Heartbeat CPU 0 instructions: 94500382 cycles: 40124306 heartbeat IPC: 1.688 cumulative IPC: 1.852 (Simulation time: 00 hr 08 min 31 sec)
Heartbeat CPU 0 instructions: 95000382 cycles: 40440623 heartbeat IPC: 1.581 cumulative IPC: 1.849 (Simulation time: 00 hr 08 min 34 sec)
Heartbeat CPU 0 instructions: 95500383 cycles: 40753144 heartbeat IPC: 1.6 cumulative IPC: 1.846 (Simulation time: 00 hr 08 min 38 sec)
Heartbeat CPU 0 instructions: 96000386 cycles: 41077387 heartbeat IPC: 1.542 cumulative IPC: 1.842 (Simulation time: 00 hr 08 min 42 sec)
Heartbeat CPU 0 instructions: 96500386 cycles: 41419389 heartbeat IPC: 1.462 cumulative IPC: 1.837 (Simulation time: 00 hr 08 min 46 sec)
Heartbeat CPU 0 instructions: 97000388 cycles: 41759571 heartbeat IPC: 1.47 cumulative IPC: 1.832 (Simulation time: 00 hr 08 min 50 sec)
Heartbeat CPU 0 instructions: 97500389 cycles: 42100706 heartbeat IPC: 1.466 cumulative IPC: 1.827 (Simulation time: 00 hr 08 min 54 sec)
Heartbeat CPU 0 instructions: 98000392 cycles: 42439018 heartbeat IPC: 1.478 cumulative IPC: 1.823 (Simulation time: 00 hr 08 min 58 sec)
Heartbeat CPU 0 instructions: 98500394 cycles: 42787423 heartbeat IPC: 1.435 cumulative IPC: 1.817 (Simulation time: 00 hr 09 min 02 sec)
Heartbeat CPU 0 instructions: 99000394 cycles: 43138941 heartbeat IPC: 1.422 cumulative IPC: 1.812 (Simulation time: 00 hr 09 min 06 sec)
Heartbeat CPU 0 instructions: 99500394 cycles: 43487563 heartbeat IPC: 1.434 cumulative IPC: 1.808 (Simulation time: 00 hr 09 min 10 sec)
Heartbeat CPU 0 instructions: 100000394 cycles: 43792680 heartbeat IPC: 1.639 cumulative IPC: 1.806 (Simulation time: 00 hr 09 min 14 sec)
Heartbeat CPU 0 instructions: 100500394 cycles: 44138907 heartbeat IPC: 1.444 cumulative IPC: 1.801 (Simulation time: 00 hr 09 min 18 sec)
Heartbeat CPU 0 instructions: 101000395 cycles: 44486471 heartbeat IPC: 1.439 cumulative IPC: 1.797 (Simulation time: 00 hr 09 min 21 sec)
Heartbeat CPU 0 instructions: 101500395 cycles: 44807021 heartbeat IPC: 1.56 cumulative IPC: 1.794 (Simulation time: 00 hr 09 min 25 sec)
Heartbeat CPU 0 instructions: 102000397 cycles: 45133700 heartbeat IPC: 1.531 cumulative IPC: 1.791 (Simulation time: 00 hr 09 min 29 sec)
Heartbeat CPU 0 instructions: 102500398 cycles: 45462121 heartbeat IPC: 1.522 cumulative IPC: 1.788 (Simulation time: 00 hr 09 min 33 sec)
Heartbeat CPU 0 instructions: 103000405 cycles: 45791970 heartbeat IPC: 1.516 cumulative IPC: 1.785 (Simulation time: 00 hr 09 min 37 sec)
Heartbeat CPU 0 instructions: 103500405 cycles: 46118992 heartbeat IPC: 1.529 cumulative IPC: 1.782 (Simulation time: 00 hr 09 min 41 sec)
Heartbeat CPU 0 instructions: 104000406 cycles: 46421783 heartbeat IPC: 1.651 cumulative IPC: 1.781 (Simulation time: 00 hr 09 min 45 sec)
Heartbeat CPU 0 instructions: 104500406 cycles: 46748782 heartbeat IPC: 1.529 cumulative IPC: 1.778 (Simulation time: 00 hr 09 min 49 sec)
Heartbeat CPU 0 instructions: 105000408 cycles: 47097494 heartbeat IPC: 1.434 cumulative IPC: 1.774 (Simulation time: 00 hr 09 min 53 sec)
Heartbeat CPU 0 instructions: 105500410 cycles: 47436350 heartbeat IPC: 1.476 cumulative IPC: 1.771 (Simulation time: 00 hr 09 min 57 sec)
Heartbeat CPU 0 instructions: 106000412 cycles: 47784851 heartbeat IPC: 1.435 cumulative IPC: 1.768 (Simulation time: 00 hr 10 min 01 sec)
Heartbeat CPU 0 instructions: 106500416 cycles: 48132079 heartbeat IPC: 1.44 cumulative IPC: 1.764 (Simulation time: 00 hr 10 min 05 sec)
Heartbeat CPU 0 instructions: 107000416 cycles: 48426884 heartbeat IPC: 1.696 cumulative IPC: 1.763 (Simulation time: 00 hr 10 min 09 sec)
Heartbeat CPU 0 instructions: 107500418 cycles: 48733625 heartbeat IPC: 1.63 cumulative IPC: 1.762 (Simulation time: 00 hr 10 min 13 sec)
Heartbeat CPU 0 instructions: 108000422 cycles: 49075648 heartbeat IPC: 1.462 cumulative IPC: 1.759 (Simulation time: 00 hr 10 min 17 sec)
Heartbeat CPU 0 instructions: 108500422 cycles: 49432869 heartbeat IPC: 1.4 cumulative IPC: 1.755 (Simulation time: 00 hr 10 min 21 sec)
Heartbeat CPU 0 instructions: 109000424 cycles: 49787998 heartbeat IPC: 1.408 cumulative IPC: 1.751 (Simulation time: 00 hr 10 min 25 sec)
Heartbeat CPU 0 instructions: 109500426 cycles: 50099587 heartbeat IPC: 1.605 cumulative IPC: 1.75 (Simulation time: 00 hr 10 min 29 sec)
Heartbeat CPU 0 instructions: 110000427 cycles: 50443085 heartbeat IPC: 1.456 cumulative IPC: 1.747 (Simulation time: 00 hr 10 min 33 sec)
Heartbeat CPU 0 instructions: 110500430 cycles: 50785375 heartbeat IPC: 1.461 cumulative IPC: 1.744 (Simulation time: 00 hr 10 min 37 sec)
Heartbeat CPU 0 instructions: 111000431 cycles: 51152944 heartbeat IPC: 1.36 cumulative IPC: 1.74 (Simulation time: 00 hr 10 min 41 sec)
Heartbeat CPU 0 instructions: 111500433 cycles: 51489688 heartbeat IPC: 1.485 cumulative IPC: 1.738 (Simulation time: 00 hr 10 min 45 sec)
Heartbeat CPU 0 instructions: 112000433 cycles: 51827437 heartbeat IPC: 1.48 cumulative IPC: 1.735 (Simulation time: 00 hr 10 min 49 sec)
Heartbeat CPU 0 instructions: 112500434 cycles: 52176620 heartbeat IPC: 1.432 cumulative IPC: 1.733 (Simulation time: 00 hr 10 min 53 sec)
Heartbeat CPU 0 instructions: 113000435 cycles: 52538553 heartbeat IPC: 1.381 cumulative IPC: 1.729 (Simulation time: 00 hr 10 min 57 sec)
Heartbeat CPU 0 instructions: 113500435 cycles: 52887207 heartbeat IPC: 1.434 cumulative IPC: 1.726 (Simulation time: 00 hr 11 min 01 sec)
Heartbeat CPU 0 instructions: 114000436 cycles: 53222722 heartbeat IPC: 1.49 cumulative IPC: 1.724 (Simulation time: 00 hr 11 min 05 sec)
Heartbeat CPU 0 instructions: 114500438 cycles: 53557545 heartbeat IPC: 1.493 cumulative IPC: 1.722 (Simulation time: 00 hr 11 min 09 sec)
Heartbeat CPU 0 instructions: 115000440 cycles: 53915697 heartbeat IPC: 1.396 cumulative IPC: 1.719 (Simulation time: 00 hr 11 min 14 sec)
Heartbeat CPU 0 instructions: 115500442 cycles: 54290103 heartbeat IPC: 1.335 cumulative IPC: 1.715 (Simulation time: 00 hr 11 min 18 sec)
Heartbeat CPU 0 instructions: 116000444 cycles: 54602865 heartbeat IPC: 1.599 cumulative IPC: 1.714 (Simulation time: 00 hr 11 min 22 sec)
Heartbeat CPU 0 instructions: 116500444 cycles: 54924328 heartbeat IPC: 1.555 cumulative IPC: 1.713 (Simulation time: 00 hr 11 min 26 sec)
Heartbeat CPU 0 instructions: 117000446 cycles: 55248928 heartbeat IPC: 1.54 cumulative IPC: 1.712 (Simulation time: 00 hr 11 min 30 sec)
Heartbeat CPU 0 instructions: 117500449 cycles: 55609736 heartbeat IPC: 1.386 cumulative IPC: 1.709 (Simulation time: 00 hr 11 min 34 sec)
Heartbeat CPU 0 instructions: 118000450 cycles: 55967495 heartbeat IPC: 1.398 cumulative IPC: 1.706 (Simulation time: 00 hr 11 min 38 sec)
Heartbeat CPU 0 instructions: 118500450 cycles: 56301728 heartbeat IPC: 1.496 cumulative IPC: 1.704 (Simulation time: 00 hr 11 min 42 sec)
Heartbeat CPU 0 instructions: 119000451 cycles: 56624355 heartbeat IPC: 1.55 cumulative IPC: 1.703 (Simulation time: 00 hr 11 min 46 sec)
Heartbeat CPU 0 instructions: 119500453 cycles: 56954994 heartbeat IPC: 1.512 cumulative IPC: 1.701 (Simulation time: 00 hr 11 min 50 sec)
Heartbeat CPU 0 instructions: 120000454 cycles: 57295013 heartbeat IPC: 1.471 cumulative IPC: 1.699 (Simulation time: 00 hr 11 min 54 sec)
Heartbeat CPU 0 instructions: 120500454 cycles: 57648990 heartbeat IPC: 1.413 cumulative IPC: 1.697 (Simulation time: 00 hr 11 min 59 sec)
Heartbeat CPU 0 instructions: 121000458 cycles: 58013049 heartbeat IPC: 1.373 cumulative IPC: 1.694 (Simulation time: 00 hr 12 min 03 sec)
Heartbeat CPU 0 instructions: 121500458 cycles: 58365460 heartbeat IPC: 1.419 cumulative IPC: 1.692 (Simulation time: 00 hr 12 min 07 sec)
Heartbeat CPU 0 instructions: 122000460 cycles: 58727707 heartbeat IPC: 1.38 cumulative IPC: 1.689 (Simulation time: 00 hr 12 min 11 sec)
Heartbeat CPU 0 instructions: 122500461 cycles: 59074013 heartbeat IPC: 1.444 cumulative IPC: 1.687 (Simulation time: 00 hr 12 min 15 sec)
Heartbeat CPU 0 instructions: 123000462 cycles: 59430525 heartbeat IPC: 1.402 cumulative IPC: 1.685 (Simulation time: 00 hr 12 min 20 sec)
Heartbeat CPU 0 instructions: 123500463 cycles: 59705036 heartbeat IPC: 1.821 cumulative IPC: 1.686 (Simulation time: 00 hr 12 min 23 sec)
Heartbeat CPU 0 instructions: 124000464 cycles: 59994153 heartbeat IPC: 1.729 cumulative IPC: 1.686 (Simulation time: 00 hr 12 min 27 sec)
Heartbeat CPU 0 instructions: 124500464 cycles: 60272068 heartbeat IPC: 1.799 cumulative IPC: 1.687 (Simulation time: 00 hr 12 min 31 sec)
Heartbeat CPU 0 instructions: 125000466 cycles: 60586488 heartbeat IPC: 1.59 cumulative IPC: 1.686 (Simulation time: 00 hr 12 min 35 sec)
Heartbeat CPU 0 instructions: 125500468 cycles: 60901035 heartbeat IPC: 1.59 cumulative IPC: 1.685 (Simulation time: 00 hr 12 min 39 sec)
Heartbeat CPU 0 instructions: 126000469 cycles: 61229686 heartbeat IPC: 1.521 cumulative IPC: 1.684 (Simulation time: 00 hr 12 min 43 sec)
Heartbeat CPU 0 instructions: 126500469 cycles: 61565327 heartbeat IPC: 1.49 cumulative IPC: 1.683 (Simulation time: 00 hr 12 min 47 sec)
Heartbeat CPU 0 instructions: 127000470 cycles: 61865182 heartbeat IPC: 1.667 cumulative IPC: 1.683 (Simulation time: 00 hr 12 min 50 sec)
Heartbeat CPU 0 instructions: 127500470 cycles: 62200037 heartbeat IPC: 1.493 cumulative IPC: 1.681 (Simulation time: 00 hr 12 min 55 sec)
Heartbeat CPU 0 instructions: 128000471 cycles: 62553391 heartbeat IPC: 1.415 cumulative IPC: 1.679 (Simulation time: 00 hr 12 min 59 sec)
Heartbeat CPU 0 instructions: 128500473 cycles: 62899131 heartbeat IPC: 1.446 cumulative IPC: 1.677 (Simulation time: 00 hr 13 min 03 sec)
Heartbeat CPU 0 instructions: 129000474 cycles: 63252934 heartbeat IPC: 1.413 cumulative IPC: 1.675 (Simulation time: 00 hr 13 min 07 sec)
Heartbeat CPU 0 instructions: 129500475 cycles: 63605308 heartbeat IPC: 1.419 cumulative IPC: 1.674 (Simulation time: 00 hr 13 min 11 sec)
Heartbeat CPU 0 instructions: 130000477 cycles: 63965106 heartbeat IPC: 1.39 cumulative IPC: 1.671 (Simulation time: 00 hr 13 min 15 sec)
Heartbeat CPU 0 instructions: 130500478 cycles: 64330372 heartbeat IPC: 1.369 cumulative IPC: 1.669 (Simulation time: 00 hr 13 min 19 sec)
Heartbeat CPU 0 instructions: 131000480 cycles: 64694742 heartbeat IPC: 1.372 cumulative IPC: 1.667 (Simulation time: 00 hr 13 min 23 sec)
Heartbeat CPU 0 instructions: 131500481 cycles: 65061177 heartbeat IPC: 1.365 cumulative IPC: 1.665 (Simulation time: 00 hr 13 min 27 sec)
Heartbeat CPU 0 instructions: 132000481 cycles: 65433108 heartbeat IPC: 1.344 cumulative IPC: 1.662 (Simulation time: 00 hr 13 min 32 sec)
Heartbeat CPU 0 instructions: 132500488 cycles: 65786684 heartbeat IPC: 1.414 cumulative IPC: 1.66 (Simulation time: 00 hr 13 min 36 sec)
Heartbeat CPU 0 instructions: 133000493 cycles: 66134512 heartbeat IPC: 1.438 cumulative IPC: 1.659 (Simulation time: 00 hr 13 min 40 sec)
Heartbeat CPU 0 instructions: 133500493 cycles: 66489132 heartbeat IPC: 1.41 cumulative IPC: 1.657 (Simulation time: 00 hr 13 min 45 sec)
Heartbeat CPU 0 instructions: 134000495 cycles: 66861535 heartbeat IPC: 1.343 cumulative IPC: 1.655 (Simulation time: 00 hr 13 min 49 sec)
Heartbeat CPU 0 instructions: 134500496 cycles: 67214981 heartbeat IPC: 1.415 cumulative IPC: 1.653 (Simulation time: 00 hr 13 min 53 sec)
Heartbeat CPU 0 instructions: 135000500 cycles: 67566538 heartbeat IPC: 1.422 cumulative IPC: 1.652 (Simulation time: 00 hr 13 min 57 sec)
Heartbeat CPU 0 instructions: 135500501 cycles: 67932748 heartbeat IPC: 1.365 cumulative IPC: 1.65 (Simulation time: 00 hr 14 min 01 sec)
Heartbeat CPU 0 instructions: 136000501 cycles: 68310035 heartbeat IPC: 1.325 cumulative IPC: 1.647 (Simulation time: 00 hr 14 min 05 sec)
Heartbeat CPU 0 instructions: 136500501 cycles: 68681303 heartbeat IPC: 1.347 cumulative IPC: 1.645 (Simulation time: 00 hr 14 min 09 sec)
Heartbeat CPU 0 instructions: 137000503 cycles: 68984807 heartbeat IPC: 1.647 cumulative IPC: 1.645 (Simulation time: 00 hr 14 min 13 sec)
Heartbeat CPU 0 instructions: 137500503 cycles: 69293052 heartbeat IPC: 1.622 cumulative IPC: 1.645 (Simulation time: 00 hr 14 min 17 sec)
Heartbeat CPU 0 instructions: 138000505 cycles: 69631418 heartbeat IPC: 1.478 cumulative IPC: 1.644 (Simulation time: 00 hr 14 min 21 sec)
Heartbeat CPU 0 instructions: 138500508 cycles: 69984255 heartbeat IPC: 1.417 cumulative IPC: 1.642 (Simulation time: 00 hr 14 min 25 sec)
Heartbeat CPU 0 instructions: 139000508 cycles: 70365055 heartbeat IPC: 1.313 cumulative IPC: 1.64 (Simulation time: 00 hr 14 min 29 sec)
Heartbeat CPU 0 instructions: 139500509 cycles: 70738856 heartbeat IPC: 1.338 cumulative IPC: 1.638 (Simulation time: 00 hr 14 min 33 sec)
Heartbeat CPU 0 instructions: 140000509 cycles: 71099405 heartbeat IPC: 1.387 cumulative IPC: 1.636 (Simulation time: 00 hr 14 min 38 sec)
Heartbeat CPU 0 instructions: 140500510 cycles: 71458474 heartbeat IPC: 1.392 cumulative IPC: 1.635 (Simulation time: 00 hr 14 min 42 sec)
Heartbeat CPU 0 instructions: 141000512 cycles: 71820824 heartbeat IPC: 1.38 cumulative IPC: 1.633 (Simulation time: 00 hr 14 min 46 sec)
Heartbeat CPU 0 instructions: 141500513 cycles: 72190919 heartbeat IPC: 1.351 cumulative IPC: 1.631 (Simulation time: 00 hr 14 min 51 sec)
Heartbeat CPU 0 instructions: 142000514 cycles: 72582394 heartbeat IPC: 1.277 cumulative IPC: 1.629 (Simulation time: 00 hr 14 min 55 sec)
Heartbeat CPU 0 instructions: 142500516 cycles: 72976363 heartbeat IPC: 1.269 cumulative IPC: 1.626 (Simulation time: 00 hr 14 min 59 sec)
Heartbeat CPU 0 instructions: 143000518 cycles: 73367053 heartbeat IPC: 1.28 cumulative IPC: 1.624 (Simulation time: 00 hr 15 min 04 sec)
Heartbeat CPU 0 instructions: 143500520 cycles: 73787078 heartbeat IPC: 1.19 cumulative IPC: 1.621 (Simulation time: 00 hr 15 min 08 sec)
Heartbeat CPU 0 instructions: 144000521 cycles: 74207784 heartbeat IPC: 1.188 cumulative IPC: 1.618 (Simulation time: 00 hr 15 min 12 sec)
Heartbeat CPU 0 instructions: 144500521 cycles: 74584652 heartbeat IPC: 1.327 cumulative IPC: 1.616 (Simulation time: 00 hr 15 min 17 sec)
Heartbeat CPU 0 instructions: 145000522 cycles: 74949260 heartbeat IPC: 1.371 cumulative IPC: 1.614 (Simulation time: 00 hr 15 min 21 sec)
Heartbeat CPU 0 instructions: 145500523 cycles: 75321713 heartbeat IPC: 1.342 cumulative IPC: 1.613 (Simulation time: 00 hr 15 min 25 sec)
Heartbeat CPU 0 instructions: 146000525 cycles: 75670455 heartbeat IPC: 1.434 cumulative IPC: 1.612 (Simulation time: 00 hr 15 min 29 sec)
Heartbeat CPU 0 instructions: 146500526 cycles: 75982882 heartbeat IPC: 1.6 cumulative IPC: 1.612 (Simulation time: 00 hr 15 min 32 sec)
Heartbeat CPU 0 instructions: 147000528 cycles: 76360124 heartbeat IPC: 1.325 cumulative IPC: 1.61 (Simulation time: 00 hr 15 min 36 sec)
Heartbeat CPU 0 instructions: 147500535 cycles: 76746488 heartbeat IPC: 1.294 cumulative IPC: 1.608 (Simulation time: 00 hr 15 min 41 sec)
Heartbeat CPU 0 instructions: 148000535 cycles: 77116697 heartbeat IPC: 1.351 cumulative IPC: 1.606 (Simulation time: 00 hr 15 min 45 sec)
Heartbeat CPU 0 instructions: 148500541 cycles: 77513092 heartbeat IPC: 1.261 cumulative IPC: 1.604 (Simulation time: 00 hr 15 min 49 sec)
Heartbeat CPU 0 instructions: 149000543 cycles: 77978585 heartbeat IPC: 1.074 cumulative IPC: 1.6 (Simulation time: 00 hr 15 min 54 sec)
Heartbeat CPU 0 instructions: 149500544 cycles: 78391955 heartbeat IPC: 1.21 cumulative IPC: 1.597 (Simulation time: 00 hr 15 min 59 sec)
Heartbeat CPU 0 instructions: 150000545 cycles: 78789082 heartbeat IPC: 1.259 cumulative IPC: 1.595 (Simulation time: 00 hr 16 min 03 sec)
Heartbeat CPU 0 instructions: 150500545 cycles: 79142136 heartbeat IPC: 1.416 cumulative IPC: 1.594 (Simulation time: 00 hr 16 min 07 sec)
Heartbeat CPU 0 instructions: 151000546 cycles: 79550773 heartbeat IPC: 1.224 cumulative IPC: 1.592 (Simulation time: 00 hr 16 min 11 sec)
Heartbeat CPU 0 instructions: 151500547 cycles: 79953562 heartbeat IPC: 1.241 cumulative IPC: 1.59 (Simulation time: 00 hr 16 min 16 sec)
Heartbeat CPU 0 instructions: 152000549 cycles: 80358934 heartbeat IPC: 1.233 cumulative IPC: 1.587 (Simulation time: 00 hr 16 min 20 sec)
Heartbeat CPU 0 instructions: 152500551 cycles: 80722864 heartbeat IPC: 1.374 cumulative IPC: 1.586 (Simulation time: 00 hr 16 min 24 sec)
Heartbeat CPU 0 instructions: 153000552 cycles: 81116717 heartbeat IPC: 1.27 cumulative IPC: 1.584 (Simulation time: 00 hr 16 min 29 sec)
Heartbeat CPU 0 instructions: 153500552 cycles: 81530755 heartbeat IPC: 1.208 cumulative IPC: 1.582 (Simulation time: 00 hr 16 min 33 sec)
Heartbeat CPU 0 instructions: 154000552 cycles: 81926179 heartbeat IPC: 1.264 cumulative IPC: 1.58 (Simulation time: 00 hr 16 min 38 sec)
Heartbeat CPU 0 instructions: 154500552 cycles: 82317916 heartbeat IPC: 1.276 cumulative IPC: 1.578 (Simulation time: 00 hr 16 min 42 sec)
Heartbeat CPU 0 instructions: 155000552 cycles: 82721877 heartbeat IPC: 1.238 cumulative IPC: 1.576 (Simulation time: 00 hr 16 min 47 sec)
Heartbeat CPU 0 instructions: 155500553 cycles: 83104054 heartbeat IPC: 1.308 cumulative IPC: 1.575 (Simulation time: 00 hr 16 min 51 sec)
Heartbeat CPU 0 instructions: 156000553 cycles: 83535449 heartbeat IPC: 1.159 cumulative IPC: 1.572 (Simulation time: 00 hr 16 min 56 sec)
Heartbeat CPU 0 instructions: 156500555 cycles: 83954619 heartbeat IPC: 1.193 cumulative IPC: 1.57 (Simulation time: 00 hr 17 min 00 sec)
Heartbeat CPU 0 instructions: 157000557 cycles: 84356877 heartbeat IPC: 1.243 cumulative IPC: 1.568 (Simulation time: 00 hr 17 min 05 sec)
Heartbeat CPU 0 instructions: 157500558 cycles: 84756011 heartbeat IPC: 1.253 cumulative IPC: 1.566 (Simulation time: 00 hr 17 min 09 sec)
Heartbeat CPU 0 instructions: 158000558 cycles: 85194899 heartbeat IPC: 1.139 cumulative IPC: 1.563 (Simulation time: 00 hr 17 min 14 sec)
Heartbeat CPU 0 instructions: 158500562 cycles: 85656349 heartbeat IPC: 1.084 cumulative IPC: 1.56 (Simulation time: 00 hr 17 min 19 sec)
Heartbeat CPU 0 instructions: 159000564 cycles: 86088921 heartbeat IPC: 1.156 cumulative IPC: 1.557 (Simulation time: 00 hr 17 min 23 sec)
Heartbeat CPU 0 instructions: 159500566 cycles: 86523843 heartbeat IPC: 1.15 cumulative IPC: 1.555 (Simulation time: 00 hr 17 min 28 sec)
Heartbeat CPU 0 instructions: 160000573 cycles: 86960817 heartbeat IPC: 1.144 cumulative IPC: 1.552 (Simulation time: 00 hr 17 min 33 sec)
Heartbeat CPU 0 instructions: 160500574 cycles: 87405700 heartbeat IPC: 1.124 cumulative IPC: 1.55 (Simulation time: 00 hr 17 min 37 sec)
Heartbeat CPU 0 instructions: 161000580 cycles: 87821246 heartbeat IPC: 1.203 cumulative IPC: 1.548 (Simulation time: 00 hr 17 min 42 sec)
Heartbeat CPU 0 instructions: 161500581 cycles: 88275183 heartbeat IPC: 1.101 cumulative IPC: 1.545 (Simulation time: 00 hr 17 min 47 sec)
Heartbeat CPU 0 instructions: 162000582 cycles: 88736112 heartbeat IPC: 1.085 cumulative IPC: 1.542 (Simulation time: 00 hr 17 min 52 sec)
Heartbeat CPU 0 instructions: 162500582 cycles: 89244274 heartbeat IPC: 0.9839 cumulative IPC: 1.538 (Simulation time: 00 hr 17 min 57 sec)
Heartbeat CPU 0 instructions: 163000587 cycles: 89702632 heartbeat IPC: 1.091 cumulative IPC: 1.535 (Simulation time: 00 hr 18 min 01 sec)
Heartbeat CPU 0 instructions: 163500588 cycles: 90204657 heartbeat IPC: 0.996 cumulative IPC: 1.532 (Simulation time: 00 hr 18 min 06 sec)
Heartbeat CPU 0 instructions: 164000588 cycles: 90673391 heartbeat IPC: 1.067 cumulative IPC: 1.529 (Simulation time: 00 hr 18 min 11 sec)
Heartbeat CPU 0 instructions: 164500589 cycles: 91153640 heartbeat IPC: 1.041 cumulative IPC: 1.526 (Simulation time: 00 hr 18 min 16 sec)
Heartbeat CPU 0 instructions: 165000589 cycles: 91637182 heartbeat IPC: 1.034 cumulative IPC: 1.522 (Simulation time: 00 hr 18 min 21 sec)
Heartbeat CPU 0 instructions: 165500592 cycles: 92049943 heartbeat IPC: 1.211 cumulative IPC: 1.521 (Simulation time: 00 hr 18 min 25 sec)
Heartbeat CPU 0 instructions: 166000593 cycles: 92450939 heartbeat IPC: 1.247 cumulative IPC: 1.519 (Simulation time: 00 hr 18 min 30 sec)
Heartbeat CPU 0 instructions: 166500594 cycles: 92938029 heartbeat IPC: 1.027 cumulative IPC: 1.516 (Simulation time: 00 hr 18 min 35 sec)
Heartbeat CPU 0 instructions: 167000595 cycles: 93435369 heartbeat IPC: 1.005 cumulative IPC: 1.513 (Simulation time: 00 hr 18 min 40 sec)
Heartbeat CPU 0 instructions: 167500595 cycles: 93900965 heartbeat IPC: 1.074 cumulative IPC: 1.51 (Simulation time: 00 hr 18 min 44 sec)
Heartbeat CPU 0 instructions: 168000595 cycles: 94368330 heartbeat IPC: 1.07 cumulative IPC: 1.508 (Simulation time: 00 hr 18 min 49 sec)
Heartbeat CPU 0 instructions: 168500595 cycles: 94840190 heartbeat IPC: 1.06 cumulative IPC: 1.505 (Simulation time: 00 hr 18 min 54 sec)
Heartbeat CPU 0 instructions: 169000595 cycles: 95372663 heartbeat IPC: 0.939 cumulative IPC: 1.501 (Simulation time: 00 hr 18 min 59 sec)
Heartbeat CPU 0 instructions: 169500597 cycles: 95851522 heartbeat IPC: 1.044 cumulative IPC: 1.498 (Simulation time: 00 hr 19 min 04 sec)
Heartbeat CPU 0 instructions: 170000597 cycles: 96380198 heartbeat IPC: 0.9458 cumulative IPC: 1.495 (Simulation time: 00 hr 19 min 09 sec)
Heartbeat CPU 0 instructions: 170500597 cycles: 96841699 heartbeat IPC: 1.083 cumulative IPC: 1.492 (Simulation time: 00 hr 19 min 14 sec)
Heartbeat CPU 0 instructions: 171000597 cycles: 97234130 heartbeat IPC: 1.274 cumulative IPC: 1.491 (Simulation time: 00 hr 19 min 18 sec)
Heartbeat CPU 0 instructions: 171500598 cycles: 97670816 heartbeat IPC: 1.145 cumulative IPC: 1.49 (Simulation time: 00 hr 19 min 23 sec)
Heartbeat CPU 0 instructions: 172000599 cycles: 98187301 heartbeat IPC: 0.9681 cumulative IPC: 1.486 (Simulation time: 00 hr 19 min 28 sec)
Heartbeat CPU 0 instructions: 172500601 cycles: 98704471 heartbeat IPC: 0.9668 cumulative IPC: 1.483 (Simulation time: 00 hr 19 min 33 sec)
Heartbeat CPU 0 instructions: 173000606 cycles: 99219491 heartbeat IPC: 0.9708 cumulative IPC: 1.48 (Simulation time: 00 hr 19 min 38 sec)
Heartbeat CPU 0 instructions: 173500607 cycles: 99750506 heartbeat IPC: 0.9416 cumulative IPC: 1.476 (Simulation time: 00 hr 19 min 43 sec)
Heartbeat CPU 0 instructions: 174000607 cycles: 100217908 heartbeat IPC: 1.07 cumulative IPC: 1.474 (Simulation time: 00 hr 19 min 48 sec)
Heartbeat CPU 0 instructions: 174500607 cycles: 100584591 heartbeat IPC: 1.364 cumulative IPC: 1.474 (Simulation time: 00 hr 19 min 52 sec)
Heartbeat CPU 0 instructions: 175000607 cycles: 101138450 heartbeat IPC: 0.9028 cumulative IPC: 1.47 (Simulation time: 00 hr 19 min 57 sec)
Heartbeat CPU 0 instructions: 175500609 cycles: 101714601 heartbeat IPC: 0.8678 cumulative IPC: 1.466 (Simulation time: 00 hr 20 min 03 sec)
Heartbeat CPU 0 instructions: 176000609 cycles: 102187996 heartbeat IPC: 1.056 cumulative IPC: 1.464 (Simulation time: 00 hr 20 min 08 sec)
Heartbeat CPU 0 instructions: 176500609 cycles: 102764358 heartbeat IPC: 0.8675 cumulative IPC: 1.46 (Simulation time: 00 hr 20 min 13 sec)
Heartbeat CPU 0 instructions: 177000610 cycles: 103283104 heartbeat IPC: 0.9639 cumulative IPC: 1.457 (Simulation time: 00 hr 20 min 18 sec)
Heartbeat CPU 0 instructions: 177500611 cycles: 103832675 heartbeat IPC: 0.9098 cumulative IPC: 1.453 (Simulation time: 00 hr 20 min 24 sec)
Heartbeat CPU 0 instructions: 178000611 cycles: 104387082 heartbeat IPC: 0.9019 cumulative IPC: 1.45 (Simulation time: 00 hr 20 min 29 sec)
Heartbeat CPU 0 instructions: 178500615 cycles: 104937068 heartbeat IPC: 0.9091 cumulative IPC: 1.447 (Simulation time: 00 hr 20 min 34 sec)
Heartbeat CPU 0 instructions: 179000616 cycles: 105510709 heartbeat IPC: 0.8716 cumulative IPC: 1.443 (Simulation time: 00 hr 20 min 40 sec)
Heartbeat CPU 0 instructions: 179500618 cycles: 106058908 heartbeat IPC: 0.9121 cumulative IPC: 1.44 (Simulation time: 00 hr 20 min 45 sec)
Heartbeat CPU 0 instructions: 180000618 cycles: 106612577 heartbeat IPC: 0.9031 cumulative IPC: 1.436 (Simulation time: 00 hr 20 min 50 sec)
Heartbeat CPU 0 instructions: 180500618 cycles: 107017081 heartbeat IPC: 1.236 cumulative IPC: 1.435 (Simulation time: 00 hr 20 min 55 sec)
Heartbeat CPU 0 instructions: 181000618 cycles: 107601547 heartbeat IPC: 0.8555 cumulative IPC: 1.432 (Simulation time: 00 hr 21 min 00 sec)
Heartbeat CPU 0 instructions: 181500620 cycles: 108139293 heartbeat IPC: 0.9298 cumulative IPC: 1.429 (Simulation time: 00 hr 21 min 06 sec)
Heartbeat CPU 0 instructions: 182000620 cycles: 108724490 heartbeat IPC: 0.8544 cumulative IPC: 1.425 (Simulation time: 00 hr 21 min 11 sec)
Heartbeat CPU 0 instructions: 182500621 cycles: 109250360 heartbeat IPC: 0.9508 cumulative IPC: 1.422 (Simulation time: 00 hr 21 min 17 sec)
Heartbeat CPU 0 instructions: 183000621 cycles: 109836222 heartbeat IPC: 0.8534 cumulative IPC: 1.419 (Simulation time: 00 hr 21 min 22 sec)
Heartbeat CPU 0 instructions: 183500621 cycles: 110406798 heartbeat IPC: 0.8763 cumulative IPC: 1.416 (Simulation time: 00 hr 21 min 28 sec)
Heartbeat CPU 0 instructions: 184000623 cycles: 110959384 heartbeat IPC: 0.9048 cumulative IPC: 1.413 (Simulation time: 00 hr 21 min 33 sec)
Heartbeat CPU 0 instructions: 184500627 cycles: 111553506 heartbeat IPC: 0.8416 cumulative IPC: 1.409 (Simulation time: 00 hr 21 min 39 sec)
Heartbeat CPU 0 instructions: 185000627 cycles: 112180505 heartbeat IPC: 0.7974 cumulative IPC: 1.405 (Simulation time: 00 hr 21 min 44 sec)
Heartbeat CPU 0 instructions: 185500628 cycles: 112791280 heartbeat IPC: 0.8186 cumulative IPC: 1.401 (Simulation time: 00 hr 21 min 50 sec)
Heartbeat CPU 0 instructions: 186000628 cycles: 113387504 heartbeat IPC: 0.8386 cumulative IPC: 1.398 (Simulation time: 00 hr 21 min 56 sec)
Heartbeat CPU 0 instructions: 186500629 cycles: 113997514 heartbeat IPC: 0.8197 cumulative IPC: 1.394 (Simulation time: 00 hr 22 min 02 sec)
Heartbeat CPU 0 instructions: 187000635 cycles: 114610802 heartbeat IPC: 0.8153 cumulative IPC: 1.391 (Simulation time: 00 hr 22 min 08 sec)
Heartbeat CPU 0 instructions: 187500637 cycles: 115241628 heartbeat IPC: 0.7926 cumulative IPC: 1.387 (Simulation time: 00 hr 22 min 13 sec)
Heartbeat CPU 0 instructions: 188000637 cycles: 115815901 heartbeat IPC: 0.8707 cumulative IPC: 1.384 (Simulation time: 00 hr 22 min 19 sec)
Heartbeat CPU 0 instructions: 188500642 cycles: 116363193 heartbeat IPC: 0.9136 cumulative IPC: 1.381 (Simulation time: 00 hr 22 min 24 sec)
Heartbeat CPU 0 instructions: 189000644 cycles: 117015094 heartbeat IPC: 0.767 cumulative IPC: 1.377 (Simulation time: 00 hr 22 min 30 sec)
Heartbeat CPU 0 instructions: 189500646 cycles: 117640714 heartbeat IPC: 0.7992 cumulative IPC: 1.374 (Simulation time: 00 hr 22 min 36 sec)
Heartbeat CPU 0 instructions: 190000646 cycles: 118240486 heartbeat IPC: 0.8337 cumulative IPC: 1.371 (Simulation time: 00 hr 22 min 42 sec)
Heartbeat CPU 0 instructions: 190500647 cycles: 118861758 heartbeat IPC: 0.8048 cumulative IPC: 1.367 (Simulation time: 00 hr 22 min 47 sec)
Heartbeat CPU 0 instructions: 191000647 cycles: 119472813 heartbeat IPC: 0.8183 cumulative IPC: 1.364 (Simulation time: 00 hr 22 min 53 sec)
Heartbeat CPU 0 instructions: 191500647 cycles: 120039656 heartbeat IPC: 0.8821 cumulative IPC: 1.361 (Simulation time: 00 hr 22 min 59 sec)
Heartbeat CPU 0 instructions: 192000648 cycles: 120621825 heartbeat IPC: 0.8589 cumulative IPC: 1.359 (Simulation time: 00 hr 23 min 04 sec)
Heartbeat CPU 0 instructions: 192500648 cycles: 121267442 heartbeat IPC: 0.7745 cumulative IPC: 1.355 (Simulation time: 00 hr 23 min 10 sec)
Heartbeat CPU 0 instructions: 193000648 cycles: 121877830 heartbeat IPC: 0.8192 cumulative IPC: 1.352 (Simulation time: 00 hr 23 min 16 sec)
Heartbeat CPU 0 instructions: 193500649 cycles: 122464658 heartbeat IPC: 0.852 cumulative IPC: 1.349 (Simulation time: 00 hr 23 min 21 sec)
Heartbeat CPU 0 instructions: 194000651 cycles: 122938336 heartbeat IPC: 1.056 cumulative IPC: 1.348 (Simulation time: 00 hr 23 min 26 sec)
Heartbeat CPU 0 instructions: 194500651 cycles: 123602198 heartbeat IPC: 0.7532 cumulative IPC: 1.344 (Simulation time: 00 hr 23 min 32 sec)
Heartbeat CPU 0 instructions: 195000652 cycles: 124079331 heartbeat IPC: 1.048 cumulative IPC: 1.343 (Simulation time: 00 hr 23 min 37 sec)
Heartbeat CPU 0 instructions: 195500653 cycles: 124817362 heartbeat IPC: 0.6775 cumulative IPC: 1.338 (Simulation time: 00 hr 23 min 43 sec)
Heartbeat CPU 0 instructions: 196000655 cycles: 125429284 heartbeat IPC: 0.8171 cumulative IPC: 1.335 (Simulation time: 00 hr 23 min 49 sec)
Heartbeat CPU 0 instructions: 196500655 cycles: 126117663 heartbeat IPC: 0.7263 cumulative IPC: 1.332 (Simulation time: 00 hr 23 min 55 sec)
Heartbeat CPU 0 instructions: 197000656 cycles: 126787601 heartbeat IPC: 0.7463 cumulative IPC: 1.328 (Simulation time: 00 hr 24 min 01 sec)
Heartbeat CPU 0 instructions: 197500658 cycles: 127496110 heartbeat IPC: 0.7057 cumulative IPC: 1.324 (Simulation time: 00 hr 24 min 07 sec)
Heartbeat CPU 0 instructions: 198000660 cycles: 128145509 heartbeat IPC: 0.7699 cumulative IPC: 1.321 (Simulation time: 00 hr 24 min 13 sec)
Heartbeat CPU 0 instructions: 198500660 cycles: 128864379 heartbeat IPC: 0.6955 cumulative IPC: 1.317 (Simulation time: 00 hr 24 min 19 sec)
Heartbeat CPU 0 instructions: 199000660 cycles: 129600387 heartbeat IPC: 0.6793 cumulative IPC: 1.313 (Simulation time: 00 hr 24 min 26 sec)
Heartbeat CPU 0 instructions: 199500665 cycles: 130302199 heartbeat IPC: 0.7124 cumulative IPC: 1.309 (Simulation time: 00 hr 24 min 32 sec)
Heartbeat CPU 0 instructions: 200000668 cycles: 130927057 heartbeat IPC: 0.8002 cumulative IPC: 1.306 (Simulation time: 00 hr 24 min 37 sec)
Heartbeat CPU 0 instructions: 200500668 cycles: 131618847 heartbeat IPC: 0.7228 cumulative IPC: 1.303 (Simulation time: 00 hr 24 min 43 sec)
Heartbeat CPU 0 instructions: 201000670 cycles: 132326711 heartbeat IPC: 0.7064 cumulative IPC: 1.299 (Simulation time: 00 hr 24 min 50 sec)
Heartbeat CPU 0 instructions: 201500670 cycles: 133057767 heartbeat IPC: 0.6839 cumulative IPC: 1.295 (Simulation time: 00 hr 24 min 56 sec)
Heartbeat CPU 0 instructions: 202000670 cycles: 133768044 heartbeat IPC: 0.704 cumulative IPC: 1.292 (Simulation time: 00 hr 25 min 02 sec)
Heartbeat CPU 0 instructions: 202500672 cycles: 134430202 heartbeat IPC: 0.7551 cumulative IPC: 1.289 (Simulation time: 00 hr 25 min 08 sec)
Heartbeat CPU 0 instructions: 203000672 cycles: 135159526 heartbeat IPC: 0.6856 cumulative IPC: 1.285 (Simulation time: 00 hr 25 min 15 sec)
Heartbeat CPU 0 instructions: 203500674 cycles: 135924189 heartbeat IPC: 0.6539 cumulative IPC: 1.281 (Simulation time: 00 hr 25 min 21 sec)
Heartbeat CPU 0 instructions: 204000675 cycles: 136579335 heartbeat IPC: 0.7632 cumulative IPC: 1.278 (Simulation time: 00 hr 25 min 27 sec)
Heartbeat CPU 0 instructions: 204500677 cycles: 137283881 heartbeat IPC: 0.7097 cumulative IPC: 1.275 (Simulation time: 00 hr 25 min 33 sec)
Heartbeat CPU 0 instructions: 205000684 cycles: 138046539 heartbeat IPC: 0.6556 cumulative IPC: 1.271 (Simulation time: 00 hr 25 min 40 sec)
Heartbeat CPU 0 instructions: 205500684 cycles: 138739603 heartbeat IPC: 0.7214 cumulative IPC: 1.268 (Simulation time: 00 hr 25 min 45 sec)
Heartbeat CPU 0 instructions: 206000685 cycles: 139537193 heartbeat IPC: 0.6269 cumulative IPC: 1.264 (Simulation time: 00 hr 25 min 52 sec)
Heartbeat CPU 0 instructions: 206500685 cycles: 140268551 heartbeat IPC: 0.6837 cumulative IPC: 1.26 (Simulation time: 00 hr 25 min 58 sec)
Heartbeat CPU 0 instructions: 207000685 cycles: 141029432 heartbeat IPC: 0.6571 cumulative IPC: 1.257 (Simulation time: 00 hr 26 min 05 sec)
Heartbeat CPU 0 instructions: 207500685 cycles: 141769209 heartbeat IPC: 0.6759 cumulative IPC: 1.253 (Simulation time: 00 hr 26 min 11 sec)
Heartbeat CPU 0 instructions: 208000686 cycles: 142505529 heartbeat IPC: 0.6791 cumulative IPC: 1.25 (Simulation time: 00 hr 26 min 17 sec)
Heartbeat CPU 0 instructions: 208500687 cycles: 143251624 heartbeat IPC: 0.6702 cumulative IPC: 1.247 (Simulation time: 00 hr 26 min 23 sec)
Heartbeat CPU 0 instructions: 209000687 cycles: 144001551 heartbeat IPC: 0.6667 cumulative IPC: 1.243 (Simulation time: 00 hr 26 min 30 sec)
Heartbeat CPU 0 instructions: 209500687 cycles: 144755500 heartbeat IPC: 0.6632 cumulative IPC: 1.24 (Simulation time: 00 hr 26 min 36 sec)
Heartbeat CPU 0 instructions: 210000687 cycles: 145590201 heartbeat IPC: 0.599 cumulative IPC: 1.236 (Simulation time: 00 hr 26 min 43 sec)
Heartbeat CPU 0 instructions: 210500688 cycles: 146377634 heartbeat IPC: 0.635 cumulative IPC: 1.232 (Simulation time: 00 hr 26 min 49 sec)
Heartbeat CPU 0 instructions: 211000689 cycles: 147177202 heartbeat IPC: 0.6253 cumulative IPC: 1.228 (Simulation time: 00 hr 26 min 56 sec)
Heartbeat CPU 0 instructions: 211500691 cycles: 147796290 heartbeat IPC: 0.8076 cumulative IPC: 1.226 (Simulation time: 00 hr 27 min 01 sec)
Heartbeat CPU 0 instructions: 212000693 cycles: 148609908 heartbeat IPC: 0.6145 cumulative IPC: 1.223 (Simulation time: 00 hr 27 min 08 sec)
Heartbeat CPU 0 instructions: 212500694 cycles: 149359544 heartbeat IPC: 0.667 cumulative IPC: 1.219 (Simulation time: 00 hr 27 min 14 sec)
Heartbeat CPU 0 instructions: 213000695 cycles: 150185811 heartbeat IPC: 0.6051 cumulative IPC: 1.216 (Simulation time: 00 hr 27 min 20 sec)
Heartbeat CPU 0 instructions: 213500695 cycles: 151038845 heartbeat IPC: 0.5861 cumulative IPC: 1.212 (Simulation time: 00 hr 27 min 27 sec)
Heartbeat CPU 0 instructions: 214000701 cycles: 151837325 heartbeat IPC: 0.6262 cumulative IPC: 1.208 (Simulation time: 00 hr 27 min 34 sec)
Heartbeat CPU 0 instructions: 214500701 cycles: 152660657 heartbeat IPC: 0.6073 cumulative IPC: 1.205 (Simulation time: 00 hr 27 min 40 sec)
Heartbeat CPU 0 instructions: 215000703 cycles: 153453356 heartbeat IPC: 0.6308 cumulative IPC: 1.201 (Simulation time: 00 hr 27 min 47 sec)
Heartbeat CPU 0 instructions: 215500704 cycles: 154303615 heartbeat IPC: 0.5881 cumulative IPC: 1.198 (Simulation time: 00 hr 27 min 54 sec)
Heartbeat CPU 0 instructions: 216000705 cycles: 155129672 heartbeat IPC: 0.6053 cumulative IPC: 1.194 (Simulation time: 00 hr 28 min 00 sec)
Heartbeat CPU 0 instructions: 216500706 cycles: 155963923 heartbeat IPC: 0.5993 cumulative IPC: 1.19 (Simulation time: 00 hr 28 min 07 sec)
Heartbeat CPU 0 instructions: 217000709 cycles: 156764943 heartbeat IPC: 0.6242 cumulative IPC: 1.187 (Simulation time: 00 hr 28 min 13 sec)
Heartbeat CPU 0 instructions: 217500710 cycles: 157702319 heartbeat IPC: 0.5334 cumulative IPC: 1.183 (Simulation time: 00 hr 28 min 20 sec)
Heartbeat CPU 0 instructions: 218000711 cycles: 158586131 heartbeat IPC: 0.5657 cumulative IPC: 1.179 (Simulation time: 00 hr 28 min 27 sec)
Heartbeat CPU 0 instructions: 218500712 cycles: 159430984 heartbeat IPC: 0.5918 cumulative IPC: 1.176 (Simulation time: 00 hr 28 min 34 sec)
Heartbeat CPU 0 instructions: 219000713 cycles: 160311961 heartbeat IPC: 0.5676 cumulative IPC: 1.172 (Simulation time: 00 hr 28 min 41 sec)
Heartbeat CPU 0 instructions: 219500713 cycles: 161124571 heartbeat IPC: 0.6153 cumulative IPC: 1.169 (Simulation time: 00 hr 28 min 47 sec)
Heartbeat CPU 0 instructions: 220000719 cycles: 162031073 heartbeat IPC: 0.5516 cumulative IPC: 1.165 (Simulation time: 00 hr 28 min 54 sec)
Heartbeat CPU 0 instructions: 220500720 cycles: 162919946 heartbeat IPC: 0.5625 cumulative IPC: 1.161 (Simulation time: 00 hr 29 min 01 sec)
Heartbeat CPU 0 instructions: 221000720 cycles: 163771828 heartbeat IPC: 0.5869 cumulative IPC: 1.158 (Simulation time: 00 hr 29 min 07 sec)
Heartbeat CPU 0 instructions: 221500721 cycles: 164734054 heartbeat IPC: 0.5196 cumulative IPC: 1.154 (Simulation time: 00 hr 29 min 15 sec)
Heartbeat CPU 0 instructions: 222000721 cycles: 165602065 heartbeat IPC: 0.576 cumulative IPC: 1.151 (Simulation time: 00 hr 29 min 22 sec)
Heartbeat CPU 0 instructions: 222500722 cycles: 166466520 heartbeat IPC: 0.5784 cumulative IPC: 1.147 (Simulation time: 00 hr 29 min 28 sec)
Heartbeat CPU 0 instructions: 223000724 cycles: 167392466 heartbeat IPC: 0.54 cumulative IPC: 1.143 (Simulation time: 00 hr 29 min 36 sec)
Heartbeat CPU 0 instructions: 223500726 cycles: 168208239 heartbeat IPC: 0.6129 cumulative IPC: 1.141 (Simulation time: 00 hr 29 min 42 sec)
Heartbeat CPU 0 instructions: 224000733 cycles: 169130658 heartbeat IPC: 0.5421 cumulative IPC: 1.137 (Simulation time: 00 hr 29 min 49 sec)
Heartbeat CPU 0 instructions: 224500733 cycles: 170060779 heartbeat IPC: 0.5376 cumulative IPC: 1.133 (Simulation time: 00 hr 29 min 56 sec)
Heartbeat CPU 0 instructions: 225000735 cycles: 171030914 heartbeat IPC: 0.5154 cumulative IPC: 1.13 (Simulation time: 00 hr 30 min 03 sec)
Heartbeat CPU 0 instructions: 225500736 cycles: 171878781 heartbeat IPC: 0.5897 cumulative IPC: 1.127 (Simulation time: 00 hr 30 min 10 sec)
Heartbeat CPU 0 instructions: 226000736 cycles: 172891023 heartbeat IPC: 0.494 cumulative IPC: 1.123 (Simulation time: 00 hr 30 min 17 sec)
Heartbeat CPU 0 instructions: 226500736 cycles: 173901030 heartbeat IPC: 0.495 cumulative IPC: 1.119 (Simulation time: 00 hr 30 min 25 sec)
Heartbeat CPU 0 instructions: 227000738 cycles: 174776236 heartbeat IPC: 0.5713 cumulative IPC: 1.115 (Simulation time: 00 hr 30 min 31 sec)
Heartbeat CPU 0 instructions: 227500738 cycles: 175491907 heartbeat IPC: 0.6986 cumulative IPC: 1.114 (Simulation time: 00 hr 30 min 37 sec)
Heartbeat CPU 0 instructions: 228000738 cycles: 176364867 heartbeat IPC: 0.5728 cumulative IPC: 1.111 (Simulation time: 00 hr 30 min 43 sec)
Heartbeat CPU 0 instructions: 228500738 cycles: 177305048 heartbeat IPC: 0.5318 cumulative IPC: 1.107 (Simulation time: 00 hr 30 min 50 sec)
Heartbeat CPU 0 instructions: 229000740 cycles: 178214638 heartbeat IPC: 0.5497 cumulative IPC: 1.104 (Simulation time: 00 hr 30 min 57 sec)
Heartbeat CPU 0 instructions: 229500742 cycles: 179215487 heartbeat IPC: 0.4996 cumulative IPC: 1.1 (Simulation time: 00 hr 31 min 05 sec)
Heartbeat CPU 0 instructions: 230000742 cycles: 180218041 heartbeat IPC: 0.4987 cumulative IPC: 1.097 (Simulation time: 00 hr 31 min 12 sec)
Heartbeat CPU 0 instructions: 230500744 cycles: 181184808 heartbeat IPC: 0.5172 cumulative IPC: 1.093 (Simulation time: 00 hr 31 min 19 sec)
Heartbeat CPU 0 instructions: 231000744 cycles: 182146476 heartbeat IPC: 0.5199 cumulative IPC: 1.09 (Simulation time: 00 hr 31 min 26 sec)
Heartbeat CPU 0 instructions: 231500745 cycles: 183136095 heartbeat IPC: 0.5052 cumulative IPC: 1.087 (Simulation time: 00 hr 31 min 33 sec)
Heartbeat CPU 0 instructions: 232000745 cycles: 184189754 heartbeat IPC: 0.4745 cumulative IPC: 1.083 (Simulation time: 00 hr 31 min 41 sec)
Heartbeat CPU 0 instructions: 232500750 cycles: 185125938 heartbeat IPC: 0.5341 cumulative IPC: 1.08 (Simulation time: 00 hr 31 min 48 sec)
Heartbeat CPU 0 instructions: 233000757 cycles: 186046255 heartbeat IPC: 0.5433 cumulative IPC: 1.077 (Simulation time: 00 hr 31 min 54 sec)
Heartbeat CPU 0 instructions: 233500757 cycles: 186695437 heartbeat IPC: 0.7702 cumulative IPC: 1.076 (Simulation time: 00 hr 31 min 59 sec)
Heartbeat CPU 0 instructions: 234000759 cycles: 187782998 heartbeat IPC: 0.4597 cumulative IPC: 1.072 (Simulation time: 00 hr 32 min 07 sec)
Heartbeat CPU 0 instructions: 234500763 cycles: 188726815 heartbeat IPC: 0.5298 cumulative IPC: 1.069 (Simulation time: 00 hr 32 min 14 sec)
Heartbeat CPU 0 instructions: 235000770 cycles: 189730452 heartbeat IPC: 0.4982 cumulative IPC: 1.065 (Simulation time: 00 hr 32 min 21 sec)
Heartbeat CPU 0 instructions: 235500772 cycles: 190739772 heartbeat IPC: 0.4954 cumulative IPC: 1.062 (Simulation time: 00 hr 32 min 28 sec)
Heartbeat CPU 0 instructions: 236000774 cycles: 191799615 heartbeat IPC: 0.4718 cumulative IPC: 1.059 (Simulation time: 00 hr 32 min 35 sec)
Heartbeat CPU 0 instructions: 236500775 cycles: 192786335 heartbeat IPC: 0.5067 cumulative IPC: 1.056 (Simulation time: 00 hr 32 min 42 sec)
Heartbeat CPU 0 instructions: 237000775 cycles: 193824302 heartbeat IPC: 0.4817 cumulative IPC: 1.052 (Simulation time: 00 hr 32 min 50 sec)
Heartbeat CPU 0 instructions: 237500777 cycles: 194859783 heartbeat IPC: 0.4829 cumulative IPC: 1.049 (Simulation time: 00 hr 32 min 57 sec)
Heartbeat CPU 0 instructions: 238000778 cycles: 195993368 heartbeat IPC: 0.4411 cumulative IPC: 1.045 (Simulation time: 00 hr 33 min 05 sec)
Heartbeat CPU 0 instructions: 238500778 cycles: 196924859 heartbeat IPC: 0.5368 cumulative IPC: 1.042 (Simulation time: 00 hr 33 min 12 sec)
Heartbeat CPU 0 instructions: 239000779 cycles: 197958669 heartbeat IPC: 0.4836 cumulative IPC: 1.039 (Simulation time: 00 hr 33 min 19 sec)
Heartbeat CPU 0 instructions: 239500781 cycles: 198936680 heartbeat IPC: 0.5112 cumulative IPC: 1.036 (Simulation time: 00 hr 33 min 26 sec)
Heartbeat CPU 0 instructions: 240000783 cycles: 199728191 heartbeat IPC: 0.6317 cumulative IPC: 1.035 (Simulation time: 00 hr 33 min 31 sec)
Heartbeat CPU 0 instructions: 240500785 cycles: 200752814 heartbeat IPC: 0.488 cumulative IPC: 1.032 (Simulation time: 00 hr 33 min 39 sec)
Heartbeat CPU 0 instructions: 241000786 cycles: 201596482 heartbeat IPC: 0.5927 cumulative IPC: 1.03 (Simulation time: 00 hr 33 min 45 sec)
Heartbeat CPU 0 instructions: 241500788 cycles: 202789001 heartbeat IPC: 0.4193 cumulative IPC: 1.026 (Simulation time: 00 hr 33 min 53 sec)
Heartbeat CPU 0 instructions: 242000789 cycles: 203849277 heartbeat IPC: 0.4716 cumulative IPC: 1.023 (Simulation time: 00 hr 34 min 00 sec)
Heartbeat CPU 0 instructions: 242500790 cycles: 204973332 heartbeat IPC: 0.4448 cumulative IPC: 1.019 (Simulation time: 00 hr 34 min 08 sec)
Heartbeat CPU 0 instructions: 243000790 cycles: 206015006 heartbeat IPC: 0.48 cumulative IPC: 1.016 (Simulation time: 00 hr 34 min 15 sec)
Heartbeat CPU 0 instructions: 243500791 cycles: 207148996 heartbeat IPC: 0.4409 cumulative IPC: 1.013 (Simulation time: 00 hr 34 min 23 sec)
Heartbeat CPU 0 instructions: 244000791 cycles: 208087276 heartbeat IPC: 0.5329 cumulative IPC: 1.01 (Simulation time: 00 hr 34 min 29 sec)
Heartbeat CPU 0 instructions: 244500791 cycles: 209240263 heartbeat IPC: 0.4337 cumulative IPC: 1.007 (Simulation time: 00 hr 34 min 37 sec)
Heartbeat CPU 0 instructions: 245000793 cycles: 210322794 heartbeat IPC: 0.4619 cumulative IPC: 1.004 (Simulation time: 00 hr 34 min 45 sec)
Heartbeat CPU 0 instructions: 245500793 cycles: 211390821 heartbeat IPC: 0.4682 cumulative IPC: 1.001 (Simulation time: 00 hr 34 min 52 sec)
Heartbeat CPU 0 instructions: 246000795 cycles: 212530673 heartbeat IPC: 0.4387 cumulative IPC: 0.9978 (Simulation time: 00 hr 35 min 00 sec)
Heartbeat CPU 0 instructions: 246500795 cycles: 213679244 heartbeat IPC: 0.4353 cumulative IPC: 0.9946 (Simulation time: 00 hr 35 min 07 sec)
Heartbeat CPU 0 instructions: 247000802 cycles: 214184048 heartbeat IPC: 0.9905 cumulative IPC: 0.9945 (Simulation time: 00 hr 35 min 11 sec)
Heartbeat CPU 0 instructions: 247500804 cycles: 215365109 heartbeat IPC: 0.4233 cumulative IPC: 0.9912 (Simulation time: 00 hr 35 min 19 sec)
Heartbeat CPU 0 instructions: 248000804 cycles: 216120846 heartbeat IPC: 0.6616 cumulative IPC: 0.9899 (Simulation time: 00 hr 35 min 25 sec)
Heartbeat CPU 0 instructions: 248500805 cycles: 217390124 heartbeat IPC: 0.3939 cumulative IPC: 0.9862 (Simulation time: 00 hr 35 min 33 sec)
Heartbeat CPU 0 instructions: 249000805 cycles: 218429224 heartbeat IPC: 0.4812 cumulative IPC: 0.9836 (Simulation time: 00 hr 35 min 40 sec)
Heartbeat CPU 0 instructions: 249500805 cycles: 219592579 heartbeat IPC: 0.4298 cumulative IPC: 0.9804 (Simulation time: 00 hr 35 min 48 sec)
*** Reached end of trace: (0, "/local-ssd/ben/dpc4-traces/Graph/Ligra/ligra_Radii.com-lj.ungraph.gcc_6.3.0_O3.drop_24500M.length_250M.champsimtrace.xz")
Simulation finished CPU 0 instructions: 200000000 cycles: 204688105 cumulative IPC: 0.9771 (Simulation time: 00 hr 35 min 56 sec)
Simulation complete CPU 0 instructions: 200000000 cycles: 204688105 cumulative IPC: 0.9771 (Simulation time: 00 hr 35 min 56 sec)

ChampSim completed all CPUs

=== Simulation ===
CPU 0 runs /local-ssd/ben/dpc4-traces/Graph/Ligra/ligra_Radii.com-lj.ungraph.gcc_6.3.0_O3.drop_24500M.length_250M.champsimtrace.xz

Region of Interest Statistics

CPU 0 cumulative IPC: 0.9771 instructions: 200000000 cycles: 204688105
CPU 0 Branch Prediction Accuracy: 95.81% MPKI: 12.57 Average ROB Occupancy at Mispredict: 47.28
Branch type MPKI
BRANCH_DIRECT_JUMP: 0
BRANCH_INDIRECT: 0
BRANCH_CONDITIONAL: 12.57
BRANCH_DIRECT_CALL: 0
BRANCH_INDIRECT_CALL: 0
BRANCH_RETURN: 0

cpu0->cpu0_STLB TOTAL        ACCESS:    5866689 HIT:    5784068 MISS:      82621 MSHR_MERGE:          0
cpu0->cpu0_STLB LOAD         ACCESS:    5866689 HIT:    5784068 MISS:      82621 MSHR_MERGE:          0
cpu0->cpu0_STLB RFO          ACCESS:          0 HIT:          0 MISS:          0 MSHR_MERGE:          0
cpu0->cpu0_STLB PREFETCH     ACCESS:          0 HIT:          0 MISS:          0 MSHR_MERGE:          0
cpu0->cpu0_STLB WRITE        ACCESS:          0 HIT:          0 MISS:          0 MSHR_MERGE:          0
cpu0->cpu0_STLB TRANSLATION  ACCESS:          0 HIT:          0 MISS:          0 MSHR_MERGE:          0
cpu0->cpu0_STLB PREFETCH REQUESTED:          0 ISSUED:          0 USEFUL:          0 USELESS:          0
cpu0->cpu0_STLB AVERAGE MISS LATENCY: 152.4 cycles
cpu0->cpu0_L2C TOTAL        ACCESS:   38688730 HIT:   34569313 MISS:    4119417 MSHR_MERGE:     278694
cpu0->cpu0_L2C LOAD         ACCESS:    9502841 HIT:    8896654 MISS:     606187 MSHR_MERGE:       4140
cpu0->cpu0_L2C RFO          ACCESS:      37276 HIT:       6330 MISS:      30946 MSHR_MERGE:          0
cpu0->cpu0_L2C PREFETCH     ACCESS:   28953986 HIT:   25487407 MISS:    3466579 MSHR_MERGE:     274554
cpu0->cpu0_L2C WRITE        ACCESS:     127916 HIT:     127897 MISS:         19 MSHR_MERGE:          0
cpu0->cpu0_L2C TRANSLATION  ACCESS:      66711 HIT:      51025 MISS:      15686 MSHR_MERGE:          0
cpu0->cpu0_L2C PREFETCH REQUESTED:   31544742 ISSUED:   24473938 USEFUL:    2534967 USELESS:     375518
cpu0->cpu0_L2C AVERAGE MISS LATENCY: 144.7 cycles
cpu0->cpu0_L1I TOTAL        ACCESS:    6397501 HIT:    6397501 MISS:          0 MSHR_MERGE:          0
cpu0->cpu0_L1I LOAD         ACCESS:    6397501 HIT:    6397501 MISS:          0 MSHR_MERGE:          0
cpu0->cpu0_L1I RFO          ACCESS:          0 HIT:          0 MISS:          0 MSHR_MERGE:          0
cpu0->cpu0_L1I PREFETCH     ACCESS:          0 HIT:          0 MISS:          0 MSHR_MERGE:          0
cpu0->cpu0_L1I WRITE        ACCESS:          0 HIT:          0 MISS:          0 MSHR_MERGE:          0
cpu0->cpu0_L1I TRANSLATION  ACCESS:          0 HIT:          0 MISS:          0 MSHR_MERGE:          0
cpu0->cpu0_L1I PREFETCH REQUESTED:          0 ISSUED:          0 USEFUL:          0 USELESS:          0
cpu0->cpu0_L1I AVERAGE MISS LATENCY: - cycles
cpu0->cpu0_L1D TOTAL        ACCESS:   55361202 HIT:   40526077 MISS:   14835125 MSHR_MERGE:     748235
cpu0->cpu0_L1D LOAD         ACCESS:   44067295 HIT:   33982236 MISS:   10085059 MSHR_MERGE:     582218
cpu0->cpu0_L1D RFO          ACCESS:          0 HIT:          0 MISS:          0 MSHR_MERGE:          0
cpu0->cpu0_L1D PREFETCH     ACCESS:    6867160 HIT:    2332610 MISS:    4534550 MSHR_MERGE:      54502
cpu0->cpu0_L1D WRITE        ACCESS:    4261412 HIT:    4112607 MISS:     148805 MSHR_MERGE:     111515
cpu0->cpu0_L1D TRANSLATION  ACCESS:     165335 HIT:      98624 MISS:      66711 MSHR_MERGE:          0
cpu0->cpu0_L1D PREFETCH REQUESTED:    7267439 ISSUED:    6867152 USEFUL:    2418439 USELESS:    2061552
cpu0->cpu0_L1D AVERAGE MISS LATENCY: 18.83 cycles
cpu0->cpu0_ITLB TOTAL        ACCESS:    4884372 HIT:    4884372 MISS:          0 MSHR_MERGE:          0
cpu0->cpu0_ITLB LOAD         ACCESS:    4884372 HIT:    4884372 MISS:          0 MSHR_MERGE:          0
cpu0->cpu0_ITLB RFO          ACCESS:          0 HIT:          0 MISS:          0 MSHR_MERGE:          0
cpu0->cpu0_ITLB PREFETCH     ACCESS:          0 HIT:          0 MISS:          0 MSHR_MERGE:          0
cpu0->cpu0_ITLB WRITE        ACCESS:          0 HIT:          0 MISS:          0 MSHR_MERGE:          0
cpu0->cpu0_ITLB TRANSLATION  ACCESS:          0 HIT:          0 MISS:          0 MSHR_MERGE:          0
cpu0->cpu0_ITLB PREFETCH REQUESTED:          0 ISSUED:          0 USEFUL:          0 USELESS:          0
cpu0->cpu0_ITLB AVERAGE MISS LATENCY: - cycles
cpu0->cpu0_DTLB TOTAL        ACCESS:   53413617 HIT:   46749886 MISS:    6663731 MSHR_MERGE:     797041
cpu0->cpu0_DTLB LOAD         ACCESS:   53413617 HIT:   46749886 MISS:    6663731 MSHR_MERGE:     797041
cpu0->cpu0_DTLB RFO          ACCESS:          0 HIT:          0 MISS:          0 MSHR_MERGE:          0
cpu0->cpu0_DTLB PREFETCH     ACCESS:          0 HIT:          0 MISS:          0 MSHR_MERGE:          0
cpu0->cpu0_DTLB WRITE        ACCESS:          0 HIT:          0 MISS:          0 MSHR_MERGE:          0
cpu0->cpu0_DTLB TRANSLATION  ACCESS:          0 HIT:          0 MISS:          0 MSHR_MERGE:          0
cpu0->cpu0_DTLB PREFETCH REQUESTED:          0 ISSUED:          0 USEFUL:          0 USELESS:          0
cpu0->cpu0_DTLB AVERAGE MISS LATENCY: 7.174 cycles
cpu0->LLC TOTAL        ACCESS:    7874156 HIT:    3747174 MISS:    4126982 MSHR_MERGE:     388722
cpu0->LLC LOAD         ACCESS:     602047 HIT:     322497 MISS:     279550 MSHR_MERGE:       1581
cpu0->LLC RFO          ACCESS:      30946 HIT:         44 MISS:      30902 MSHR_MERGE:          0
cpu0->LLC PREFETCH     ACCESS:    7104358 HIT:    3341397 MISS:    3762961 MSHR_MERGE:     387141
cpu0->LLC WRITE        ACCESS:     121119 HIT:      81317 MISS:      39802 MSHR_MERGE:          0
cpu0->LLC TRANSLATION  ACCESS:      15686 HIT:       1919 MISS:      13767 MSHR_MERGE:          0
cpu0->LLC PREFETCH REQUESTED:    3939069 ISSUED:    3912333 USEFUL:    2102453 USELESS:     486443
cpu0->LLC AVERAGE MISS LATENCY: 219.2 cycles

DRAM Statistics

Channel 0 RQ ROW_BUFFER_HIT:     514765
  ROW_BUFFER_MISS:    3183693
  AVG DBUS CONGESTED CYCLE: 8.856
Channel 0 WQ ROW_BUFFER_HIT:      27244
  ROW_BUFFER_MISS:      93572
  FULL:          0
Channel 0 REFRESHES ISSUED:      17056
