[VMEM] WARNING: physical memory size is smaller than virtual memory size.

*** ChampSim Multicore Out-of-Order Simulator ***
Warmup Instructions: 50000000
Simulation Instructions: 200000000
Number of CPUs: 1
Page size: 4096
Core 0: /local-ssd/ben/dpc4-traces/gtraces_v2/tango_0002.champsim.gz
 L1D Berti prefetcher
Off-chip DRAM Size: 64 GiB Channels: 1 Width: 64-bit Data Rate: 4807 MT/s
[BTB] WARNING: target of return is a lower address than the corresponding call. This is usually a problem with your trace.
[BTB] WARNING: target of return is a lower address than the corresponding call. This is usually a problem with your trace.
[BTB] WARNING: target of return is a lower address than the corresponding call. This is usually a problem with your trace.
[BTB] WARNING: target of return is a lower address than the corresponding call. This is usually a problem with your trace.
Heartbeat CPU 0 instructions: 500004 cycles: 260744 heartbeat IPC: 1.918 cumulative IPC: 1.918 (Simulation time: 00 hr 00 min 04 sec)
[BTB] WARNING: target of return is a lower address than the corresponding call. This is usually a problem with your trace.
[BTB] WARNING: target of return is a lower address than the corresponding call. This is usually a problem with your trace.
[BTB] WARNING: target of return is a lower address than the corresponding call. This is usually a problem with your trace.
[BTB] WARNING: target of return is a lower address than the corresponding call. This is usually a problem with your trace.
[BTB] WARNING: target of return is a lower address than the corresponding call. This is usually a problem with your trace.
[BTB] WARNING: target of return is a lower address than the corresponding call. This is usually a problem with your trace.
Heartbeat CPU 0 instructions: 1000011 cycles: 471738 heartbeat IPC: 2.37 cumulative IPC: 2.12 (Simulation time: 00 hr 00 min 08 sec)
Heartbeat CPU 0 instructions: 1500014 cycles: 657030 heartbeat IPC: 2.698 cumulative IPC: 2.283 (Simulation time: 00 hr 00 min 11 sec)
Heartbeat CPU 0 instructions: 2000021 cycles: 816244 heartbeat IPC: 3.14 cumulative IPC: 2.45 (Simulation time: 00 hr 00 min 14 sec)
Heartbeat CPU 0 instructions: 2500021 cycles: 993109 heartbeat IPC: 2.827 cumulative IPC: 2.517 (Simulation time: 00 hr 00 min 18 sec)
Heartbeat CPU 0 instructions: 3000027 cycles: 1143839 heartbeat IPC: 3.317 cumulative IPC: 2.623 (Simulation time: 00 hr 00 min 20 sec)
Heartbeat CPU 0 instructions: 3500034 cycles: 1260202 heartbeat IPC: 4.297 cumulative IPC: 2.777 (Simulation time: 00 hr 00 min 22 sec)
Heartbeat CPU 0 instructions: 4000035 cycles: 1383232 heartbeat IPC: 4.064 cumulative IPC: 2.892 (Simulation time: 00 hr 00 min 25 sec)
Heartbeat CPU 0 instructions: 4500040 cycles: 1498308 heartbeat IPC: 4.345 cumulative IPC: 3.003 (Simulation time: 00 hr 00 min 26 sec)
Heartbeat CPU 0 instructions: 5000046 cycles: 1620328 heartbeat IPC: 4.098 cumulative IPC: 3.086 (Simulation time: 00 hr 00 min 29 sec)
Heartbeat CPU 0 instructions: 5500052 cycles: 1762544 heartbeat IPC: 3.516 cumulative IPC: 3.121 (Simulation time: 00 hr 00 min 31 sec)
Heartbeat CPU 0 instructions: 6000052 cycles: 1931948 heartbeat IPC: 2.952 cumulative IPC: 3.106 (Simulation time: 00 hr 00 min 34 sec)
Heartbeat CPU 0 instructions: 6500058 cycles: 2099454 heartbeat IPC: 2.985 cumulative IPC: 3.096 (Simulation time: 00 hr 00 min 37 sec)
Heartbeat CPU 0 instructions: 7000058 cycles: 2242676 heartbeat IPC: 3.491 cumulative IPC: 3.121 (Simulation time: 00 hr 00 min 40 sec)
Heartbeat CPU 0 instructions: 7500062 cycles: 2374205 heartbeat IPC: 3.801 cumulative IPC: 3.159 (Simulation time: 00 hr 00 min 42 sec)
Heartbeat CPU 0 instructions: 8000065 cycles: 2548015 heartbeat IPC: 2.877 cumulative IPC: 3.14 (Simulation time: 00 hr 00 min 45 sec)
Heartbeat CPU 0 instructions: 8500067 cycles: 2698498 heartbeat IPC: 3.323 cumulative IPC: 3.15 (Simulation time: 00 hr 00 min 48 sec)
Heartbeat CPU 0 instructions: 9000073 cycles: 2848454 heartbeat IPC: 3.334 cumulative IPC: 3.16 (Simulation time: 00 hr 00 min 51 sec)
Heartbeat CPU 0 instructions: 9500077 cycles: 3003646 heartbeat IPC: 3.222 cumulative IPC: 3.163 (Simulation time: 00 hr 00 min 54 sec)
Heartbeat CPU 0 instructions: 10000079 cycles: 3139425 heartbeat IPC: 3.682 cumulative IPC: 3.185 (Simulation time: 00 hr 00 min 57 sec)
Heartbeat CPU 0 instructions: 10500085 cycles: 3262657 heartbeat IPC: 4.057 cumulative IPC: 3.218 (Simulation time: 00 hr 00 min 59 sec)
Heartbeat CPU 0 instructions: 11000092 cycles: 3377549 heartbeat IPC: 4.352 cumulative IPC: 3.257 (Simulation time: 00 hr 01 min 01 sec)
Heartbeat CPU 0 instructions: 11500099 cycles: 3485304 heartbeat IPC: 4.64 cumulative IPC: 3.3 (Simulation time: 00 hr 01 min 03 sec)
Heartbeat CPU 0 instructions: 12000101 cycles: 3641190 heartbeat IPC: 3.207 cumulative IPC: 3.296 (Simulation time: 00 hr 01 min 06 sec)
Heartbeat CPU 0 instructions: 12500105 cycles: 3795800 heartbeat IPC: 3.234 cumulative IPC: 3.293 (Simulation time: 00 hr 01 min 09 sec)
Heartbeat CPU 0 instructions: 13000108 cycles: 3949184 heartbeat IPC: 3.26 cumulative IPC: 3.292 (Simulation time: 00 hr 01 min 12 sec)
Heartbeat CPU 0 instructions: 13500114 cycles: 4121120 heartbeat IPC: 2.908 cumulative IPC: 3.276 (Simulation time: 00 hr 01 min 15 sec)
Heartbeat CPU 0 instructions: 14000115 cycles: 4243388 heartbeat IPC: 4.089 cumulative IPC: 3.299 (Simulation time: 00 hr 01 min 17 sec)
Heartbeat CPU 0 instructions: 14500120 cycles: 4402512 heartbeat IPC: 3.142 cumulative IPC: 3.294 (Simulation time: 00 hr 01 min 21 sec)
Heartbeat CPU 0 instructions: 15000122 cycles: 4536395 heartbeat IPC: 3.735 cumulative IPC: 3.307 (Simulation time: 00 hr 01 min 23 sec)
Heartbeat CPU 0 instructions: 15500124 cycles: 4685480 heartbeat IPC: 3.354 cumulative IPC: 3.308 (Simulation time: 00 hr 01 min 26 sec)
Heartbeat CPU 0 instructions: 16000130 cycles: 4837292 heartbeat IPC: 3.294 cumulative IPC: 3.308 (Simulation time: 00 hr 01 min 29 sec)
Heartbeat CPU 0 instructions: 16500137 cycles: 4998864 heartbeat IPC: 3.095 cumulative IPC: 3.301 (Simulation time: 00 hr 01 min 33 sec)
Heartbeat CPU 0 instructions: 17000143 cycles: 5153261 heartbeat IPC: 3.238 cumulative IPC: 3.299 (Simulation time: 00 hr 01 min 36 sec)
Heartbeat CPU 0 instructions: 17500143 cycles: 5287479 heartbeat IPC: 3.725 cumulative IPC: 3.31 (Simulation time: 00 hr 01 min 38 sec)
Heartbeat CPU 0 instructions: 18000149 cycles: 5425647 heartbeat IPC: 3.619 cumulative IPC: 3.318 (Simulation time: 00 hr 01 min 41 sec)
Heartbeat CPU 0 instructions: 18500149 cycles: 5555202 heartbeat IPC: 3.859 cumulative IPC: 3.33 (Simulation time: 00 hr 01 min 44 sec)
Heartbeat CPU 0 instructions: 19000153 cycles: 5667088 heartbeat IPC: 4.469 cumulative IPC: 3.353 (Simulation time: 00 hr 01 min 45 sec)
Heartbeat CPU 0 instructions: 19500159 cycles: 5820028 heartbeat IPC: 3.269 cumulative IPC: 3.351 (Simulation time: 00 hr 01 min 48 sec)
Heartbeat CPU 0 instructions: 20000162 cycles: 5964964 heartbeat IPC: 3.45 cumulative IPC: 3.353 (Simulation time: 00 hr 01 min 51 sec)
Heartbeat CPU 0 instructions: 20500163 cycles: 6079516 heartbeat IPC: 4.365 cumulative IPC: 3.372 (Simulation time: 00 hr 01 min 53 sec)
Heartbeat CPU 0 instructions: 21000165 cycles: 6204678 heartbeat IPC: 3.995 cumulative IPC: 3.385 (Simulation time: 00 hr 01 min 55 sec)
Heartbeat CPU 0 instructions: 21500169 cycles: 6356071 heartbeat IPC: 3.303 cumulative IPC: 3.383 (Simulation time: 00 hr 01 min 58 sec)
Heartbeat CPU 0 instructions: 22000172 cycles: 6508327 heartbeat IPC: 3.284 cumulative IPC: 3.38 (Simulation time: 00 hr 02 min 02 sec)
Heartbeat CPU 0 instructions: 22500174 cycles: 6667266 heartbeat IPC: 3.146 cumulative IPC: 3.375 (Simulation time: 00 hr 02 min 05 sec)
Heartbeat CPU 0 instructions: 23000179 cycles: 6816987 heartbeat IPC: 3.34 cumulative IPC: 3.374 (Simulation time: 00 hr 02 min 08 sec)
Heartbeat CPU 0 instructions: 23500186 cycles: 6969562 heartbeat IPC: 3.277 cumulative IPC: 3.372 (Simulation time: 00 hr 02 min 11 sec)
Heartbeat CPU 0 instructions: 24000190 cycles: 7088110 heartbeat IPC: 4.218 cumulative IPC: 3.386 (Simulation time: 00 hr 02 min 13 sec)
Heartbeat CPU 0 instructions: 24500190 cycles: 7253387 heartbeat IPC: 3.025 cumulative IPC: 3.378 (Simulation time: 00 hr 02 min 16 sec)
Heartbeat CPU 0 instructions: 25000192 cycles: 7402903 heartbeat IPC: 3.344 cumulative IPC: 3.377 (Simulation time: 00 hr 02 min 20 sec)
Heartbeat CPU 0 instructions: 25500197 cycles: 7547771 heartbeat IPC: 3.451 cumulative IPC: 3.379 (Simulation time: 00 hr 02 min 22 sec)
Heartbeat CPU 0 instructions: 26000200 cycles: 7682222 heartbeat IPC: 3.719 cumulative IPC: 3.384 (Simulation time: 00 hr 02 min 25 sec)
Heartbeat CPU 0 instructions: 26500204 cycles: 7845956 heartbeat IPC: 3.054 cumulative IPC: 3.378 (Simulation time: 00 hr 02 min 29 sec)
Heartbeat CPU 0 instructions: 27000209 cycles: 8002572 heartbeat IPC: 3.193 cumulative IPC: 3.374 (Simulation time: 00 hr 02 min 32 sec)
Heartbeat CPU 0 instructions: 27500210 cycles: 8139219 heartbeat IPC: 3.659 cumulative IPC: 3.379 (Simulation time: 00 hr 02 min 34 sec)
Heartbeat CPU 0 instructions: 28000216 cycles: 8275890 heartbeat IPC: 3.658 cumulative IPC: 3.383 (Simulation time: 00 hr 02 min 37 sec)
Heartbeat CPU 0 instructions: 28500221 cycles: 8400568 heartbeat IPC: 4.01 cumulative IPC: 3.393 (Simulation time: 00 hr 02 min 39 sec)
Heartbeat CPU 0 instructions: 29000221 cycles: 8543407 heartbeat IPC: 3.5 cumulative IPC: 3.394 (Simulation time: 00 hr 02 min 43 sec)
Heartbeat CPU 0 instructions: 29500225 cycles: 8690028 heartbeat IPC: 3.41 cumulative IPC: 3.395 (Simulation time: 00 hr 02 min 45 sec)
Heartbeat CPU 0 instructions: 30000225 cycles: 8842267 heartbeat IPC: 3.284 cumulative IPC: 3.393 (Simulation time: 00 hr 02 min 48 sec)
Heartbeat CPU 0 instructions: 30500228 cycles: 8991838 heartbeat IPC: 3.343 cumulative IPC: 3.392 (Simulation time: 00 hr 02 min 52 sec)
Heartbeat CPU 0 instructions: 31000231 cycles: 9103173 heartbeat IPC: 4.491 cumulative IPC: 3.405 (Simulation time: 00 hr 02 min 54 sec)
Heartbeat CPU 0 instructions: 31500233 cycles: 9243466 heartbeat IPC: 3.564 cumulative IPC: 3.408 (Simulation time: 00 hr 02 min 56 sec)
Heartbeat CPU 0 instructions: 32000234 cycles: 9378169 heartbeat IPC: 3.712 cumulative IPC: 3.412 (Simulation time: 00 hr 02 min 59 sec)
Heartbeat CPU 0 instructions: 32500239 cycles: 9498585 heartbeat IPC: 4.152 cumulative IPC: 3.422 (Simulation time: 00 hr 03 min 01 sec)
Heartbeat CPU 0 instructions: 33000245 cycles: 9617183 heartbeat IPC: 4.216 cumulative IPC: 3.431 (Simulation time: 00 hr 03 min 04 sec)
Heartbeat CPU 0 instructions: 33500249 cycles: 9756880 heartbeat IPC: 3.579 cumulative IPC: 3.434 (Simulation time: 00 hr 03 min 07 sec)
Heartbeat CPU 0 instructions: 34000251 cycles: 9898584 heartbeat IPC: 3.528 cumulative IPC: 3.435 (Simulation time: 00 hr 03 min 09 sec)
Heartbeat CPU 0 instructions: 34500252 cycles: 10029063 heartbeat IPC: 3.832 cumulative IPC: 3.44 (Simulation time: 00 hr 03 min 12 sec)
Heartbeat CPU 0 instructions: 35000252 cycles: 10185305 heartbeat IPC: 3.2 cumulative IPC: 3.436 (Simulation time: 00 hr 03 min 15 sec)
Heartbeat CPU 0 instructions: 35500254 cycles: 10321177 heartbeat IPC: 3.68 cumulative IPC: 3.44 (Simulation time: 00 hr 03 min 18 sec)
Heartbeat CPU 0 instructions: 36000255 cycles: 10457520 heartbeat IPC: 3.667 cumulative IPC: 3.443 (Simulation time: 00 hr 03 min 20 sec)
Heartbeat CPU 0 instructions: 36500257 cycles: 10590712 heartbeat IPC: 3.754 cumulative IPC: 3.446 (Simulation time: 00 hr 03 min 23 sec)
Heartbeat CPU 0 instructions: 37000259 cycles: 10726129 heartbeat IPC: 3.692 cumulative IPC: 3.45 (Simulation time: 00 hr 03 min 26 sec)
Heartbeat CPU 0 instructions: 37500262 cycles: 10864837 heartbeat IPC: 3.605 cumulative IPC: 3.452 (Simulation time: 00 hr 03 min 29 sec)
Heartbeat CPU 0 instructions: 38000269 cycles: 11008301 heartbeat IPC: 3.485 cumulative IPC: 3.452 (Simulation time: 00 hr 03 min 32 sec)
Heartbeat CPU 0 instructions: 38500270 cycles: 11161283 heartbeat IPC: 3.268 cumulative IPC: 3.449 (Simulation time: 00 hr 03 min 35 sec)
Heartbeat CPU 0 instructions: 39000271 cycles: 11286273 heartbeat IPC: 4 cumulative IPC: 3.456 (Simulation time: 00 hr 03 min 38 sec)
Heartbeat CPU 0 instructions: 39500273 cycles: 11395475 heartbeat IPC: 4.579 cumulative IPC: 3.466 (Simulation time: 00 hr 03 min 40 sec)
Heartbeat CPU 0 instructions: 40000277 cycles: 11502224 heartbeat IPC: 4.684 cumulative IPC: 3.478 (Simulation time: 00 hr 03 min 42 sec)
Heartbeat CPU 0 instructions: 40500282 cycles: 11610873 heartbeat IPC: 4.602 cumulative IPC: 3.488 (Simulation time: 00 hr 03 min 44 sec)
Heartbeat CPU 0 instructions: 41000285 cycles: 11755290 heartbeat IPC: 3.462 cumulative IPC: 3.488 (Simulation time: 00 hr 03 min 46 sec)
Heartbeat CPU 0 instructions: 41500288 cycles: 11889927 heartbeat IPC: 3.714 cumulative IPC: 3.49 (Simulation time: 00 hr 03 min 49 sec)
Heartbeat CPU 0 instructions: 42000293 cycles: 12030617 heartbeat IPC: 3.554 cumulative IPC: 3.491 (Simulation time: 00 hr 03 min 52 sec)
Heartbeat CPU 0 instructions: 42500298 cycles: 12202745 heartbeat IPC: 2.905 cumulative IPC: 3.483 (Simulation time: 00 hr 03 min 55 sec)
Heartbeat CPU 0 instructions: 43000304 cycles: 12339200 heartbeat IPC: 3.664 cumulative IPC: 3.485 (Simulation time: 00 hr 03 min 57 sec)
Heartbeat CPU 0 instructions: 43500311 cycles: 12501774 heartbeat IPC: 3.076 cumulative IPC: 3.48 (Simulation time: 00 hr 04 min 01 sec)
Heartbeat CPU 0 instructions: 44000311 cycles: 12655445 heartbeat IPC: 3.254 cumulative IPC: 3.477 (Simulation time: 00 hr 04 min 04 sec)
Heartbeat CPU 0 instructions: 44500317 cycles: 12803193 heartbeat IPC: 3.384 cumulative IPC: 3.476 (Simulation time: 00 hr 04 min 07 sec)
Heartbeat CPU 0 instructions: 45000317 cycles: 12928494 heartbeat IPC: 3.99 cumulative IPC: 3.481 (Simulation time: 00 hr 04 min 09 sec)
Heartbeat CPU 0 instructions: 45500320 cycles: 13033978 heartbeat IPC: 4.74 cumulative IPC: 3.491 (Simulation time: 00 hr 04 min 11 sec)
Heartbeat CPU 0 instructions: 46000323 cycles: 13138754 heartbeat IPC: 4.772 cumulative IPC: 3.501 (Simulation time: 00 hr 04 min 13 sec)
Heartbeat CPU 0 instructions: 46500324 cycles: 13245354 heartbeat IPC: 4.69 cumulative IPC: 3.511 (Simulation time: 00 hr 04 min 15 sec)
Heartbeat CPU 0 instructions: 47000326 cycles: 13352191 heartbeat IPC: 4.68 cumulative IPC: 3.52 (Simulation time: 00 hr 04 min 17 sec)
Heartbeat CPU 0 instructions: 47500331 cycles: 13456862 heartbeat IPC: 4.777 cumulative IPC: 3.53 (Simulation time: 00 hr 04 min 19 sec)
Heartbeat CPU 0 instructions: 48000333 cycles: 13562329 heartbeat IPC: 4.741 cumulative IPC: 3.539 (Simulation time: 00 hr 04 min 21 sec)
Heartbeat CPU 0 instructions: 48500334 cycles: 13665474 heartbeat IPC: 4.848 cumulative IPC: 3.549 (Simulation time: 00 hr 04 min 23 sec)
Heartbeat CPU 0 instructions: 49000338 cycles: 13772231 heartbeat IPC: 4.684 cumulative IPC: 3.558 (Simulation time: 00 hr 04 min 25 sec)
Heartbeat CPU 0 instructions: 49500340 cycles: 13876240 heartbeat IPC: 4.807 cumulative IPC: 3.567 (Simulation time: 00 hr 04 min 27 sec)
Warmup finished CPU 0 instructions: 50000007 cycles: 13978914 cumulative IPC: 3.577 (Simulation time: 00 hr 04 min 29 sec)
Warmup complete CPU 0 instructions: 50000007 cycles: 13978914 cumulative IPC: 3.577 (Simulation time: 00 hr 04 min 29 sec)
Heartbeat CPU 0 instructions: 50000343 cycles: 13978956 heartbeat IPC: 4.868 cumulative IPC: 8 (Simulation time: 00 hr 04 min 29 sec)
Heartbeat CPU 0 instructions: 50500343 cycles: 14282186 heartbeat IPC: 1.649 cumulative IPC: 1.65 (Simulation time: 00 hr 04 min 33 sec)
Heartbeat CPU 0 instructions: 51000343 cycles: 14602806 heartbeat IPC: 1.559 cumulative IPC: 1.603 (Simulation time: 00 hr 04 min 37 sec)
Heartbeat CPU 0 instructions: 51500346 cycles: 14911764 heartbeat IPC: 1.618 cumulative IPC: 1.608 (Simulation time: 00 hr 04 min 40 sec)
Heartbeat CPU 0 instructions: 52000346 cycles: 15236926 heartbeat IPC: 1.538 cumulative IPC: 1.59 (Simulation time: 00 hr 04 min 44 sec)
Heartbeat CPU 0 instructions: 52500347 cycles: 15584314 heartbeat IPC: 1.439 cumulative IPC: 1.557 (Simulation time: 00 hr 04 min 48 sec)
Heartbeat CPU 0 instructions: 53000349 cycles: 15909517 heartbeat IPC: 1.538 cumulative IPC: 1.554 (Simulation time: 00 hr 04 min 52 sec)
Heartbeat CPU 0 instructions: 53500349 cycles: 16196956 heartbeat IPC: 1.739 cumulative IPC: 1.578 (Simulation time: 00 hr 04 min 55 sec)
Heartbeat CPU 0 instructions: 54000351 cycles: 16483579 heartbeat IPC: 1.744 cumulative IPC: 1.597 (Simulation time: 00 hr 04 min 58 sec)
Heartbeat CPU 0 instructions: 54500351 cycles: 16779893 heartbeat IPC: 1.687 cumulative IPC: 1.607 (Simulation time: 00 hr 05 min 02 sec)
Heartbeat CPU 0 instructions: 55000356 cycles: 17065216 heartbeat IPC: 1.752 cumulative IPC: 1.62 (Simulation time: 00 hr 05 min 05 sec)
Heartbeat CPU 0 instructions: 55500356 cycles: 17347027 heartbeat IPC: 1.774 cumulative IPC: 1.633 (Simulation time: 00 hr 05 min 09 sec)
Heartbeat CPU 0 instructions: 56000358 cycles: 17635955 heartbeat IPC: 1.731 cumulative IPC: 1.641 (Simulation time: 00 hr 05 min 12 sec)
Heartbeat CPU 0 instructions: 56500360 cycles: 17956017 heartbeat IPC: 1.562 cumulative IPC: 1.634 (Simulation time: 00 hr 05 min 16 sec)
Heartbeat CPU 0 instructions: 57000362 cycles: 18263750 heartbeat IPC: 1.625 cumulative IPC: 1.634 (Simulation time: 00 hr 05 min 20 sec)
Heartbeat CPU 0 instructions: 57500367 cycles: 18561832 heartbeat IPC: 1.677 cumulative IPC: 1.637 (Simulation time: 00 hr 05 min 23 sec)
Heartbeat CPU 0 instructions: 58000369 cycles: 18851614 heartbeat IPC: 1.725 cumulative IPC: 1.642 (Simulation time: 00 hr 05 min 27 sec)
Heartbeat CPU 0 instructions: 58500373 cycles: 19146789 heartbeat IPC: 1.694 cumulative IPC: 1.645 (Simulation time: 00 hr 05 min 30 sec)
Heartbeat CPU 0 instructions: 59000373 cycles: 19430715 heartbeat IPC: 1.761 cumulative IPC: 1.651 (Simulation time: 00 hr 05 min 34 sec)
Heartbeat CPU 0 instructions: 59500373 cycles: 19760334 heartbeat IPC: 1.517 cumulative IPC: 1.643 (Simulation time: 00 hr 05 min 37 sec)
Heartbeat CPU 0 instructions: 60000373 cycles: 20080179 heartbeat IPC: 1.563 cumulative IPC: 1.639 (Simulation time: 00 hr 05 min 41 sec)
Heartbeat CPU 0 instructions: 60500378 cycles: 20362095 heartbeat IPC: 1.774 cumulative IPC: 1.645 (Simulation time: 00 hr 05 min 45 sec)
Heartbeat CPU 0 instructions: 61000381 cycles: 20985003 heartbeat IPC: 0.8027 cumulative IPC: 1.57 (Simulation time: 00 hr 05 min 50 sec)
Heartbeat CPU 0 instructions: 61500381 cycles: 21472717 heartbeat IPC: 1.025 cumulative IPC: 1.535 (Simulation time: 00 hr 05 min 55 sec)
Heartbeat CPU 0 instructions: 62000384 cycles: 21845132 heartbeat IPC: 1.343 cumulative IPC: 1.526 (Simulation time: 00 hr 05 min 59 sec)
Heartbeat CPU 0 instructions: 62500387 cycles: 22338334 heartbeat IPC: 1.014 cumulative IPC: 1.495 (Simulation time: 00 hr 06 min 03 sec)
Heartbeat CPU 0 instructions: 63000393 cycles: 22753013 heartbeat IPC: 1.206 cumulative IPC: 1.482 (Simulation time: 00 hr 06 min 08 sec)
Heartbeat CPU 0 instructions: 63500400 cycles: 23178163 heartbeat IPC: 1.176 cumulative IPC: 1.468 (Simulation time: 00 hr 06 min 13 sec)
Heartbeat CPU 0 instructions: 64000400 cycles: 23587004 heartbeat IPC: 1.223 cumulative IPC: 1.457 (Simulation time: 00 hr 06 min 17 sec)
Heartbeat CPU 0 instructions: 64500403 cycles: 24035874 heartbeat IPC: 1.114 cumulative IPC: 1.442 (Simulation time: 00 hr 06 min 22 sec)
Heartbeat CPU 0 instructions: 65000410 cycles: 24300937 heartbeat IPC: 1.886 cumulative IPC: 1.453 (Simulation time: 00 hr 06 min 26 sec)
Heartbeat CPU 0 instructions: 65500411 cycles: 24732195 heartbeat IPC: 1.159 cumulative IPC: 1.441 (Simulation time: 00 hr 06 min 30 sec)
Heartbeat CPU 0 instructions: 66000412 cycles: 25252550 heartbeat IPC: 0.9609 cumulative IPC: 1.419 (Simulation time: 00 hr 06 min 35 sec)
Heartbeat CPU 0 instructions: 66500412 cycles: 25919427 heartbeat IPC: 0.7498 cumulative IPC: 1.382 (Simulation time: 00 hr 06 min 42 sec)
Heartbeat CPU 0 instructions: 67000415 cycles: 26211321 heartbeat IPC: 1.713 cumulative IPC: 1.39 (Simulation time: 00 hr 06 min 46 sec)
Heartbeat CPU 0 instructions: 67500416 cycles: 26487831 heartbeat IPC: 1.808 cumulative IPC: 1.399 (Simulation time: 00 hr 06 min 49 sec)
Heartbeat CPU 0 instructions: 68000423 cycles: 26843340 heartbeat IPC: 1.406 cumulative IPC: 1.399 (Simulation time: 00 hr 06 min 53 sec)
Heartbeat CPU 0 instructions: 68500429 cycles: 27185005 heartbeat IPC: 1.463 cumulative IPC: 1.401 (Simulation time: 00 hr 06 min 57 sec)
Heartbeat CPU 0 instructions: 69000429 cycles: 27493105 heartbeat IPC: 1.623 cumulative IPC: 1.406 (Simulation time: 00 hr 07 min 01 sec)
Heartbeat CPU 0 instructions: 69500431 cycles: 28797469 heartbeat IPC: 0.3833 cumulative IPC: 1.316 (Simulation time: 00 hr 07 min 12 sec)
Heartbeat CPU 0 instructions: 70000433 cycles: 30125300 heartbeat IPC: 0.3766 cumulative IPC: 1.239 (Simulation time: 00 hr 07 min 25 sec)
Heartbeat CPU 0 instructions: 70500434 cycles: 31367315 heartbeat IPC: 0.4026 cumulative IPC: 1.179 (Simulation time: 00 hr 07 min 37 sec)
Heartbeat CPU 0 instructions: 71000434 cycles: 32388292 heartbeat IPC: 0.4897 cumulative IPC: 1.141 (Simulation time: 00 hr 07 min 45 sec)
Heartbeat CPU 0 instructions: 71500435 cycles: 33276345 heartbeat IPC: 0.563 cumulative IPC: 1.114 (Simulation time: 00 hr 07 min 53 sec)
Heartbeat CPU 0 instructions: 72000437 cycles: 33971694 heartbeat IPC: 0.7191 cumulative IPC: 1.1 (Simulation time: 00 hr 07 min 59 sec)
Heartbeat CPU 0 instructions: 72500437 cycles: 34882200 heartbeat IPC: 0.5491 cumulative IPC: 1.076 (Simulation time: 00 hr 08 min 07 sec)
Heartbeat CPU 0 instructions: 73000438 cycles: 35769105 heartbeat IPC: 0.5638 cumulative IPC: 1.056 (Simulation time: 00 hr 08 min 15 sec)
Heartbeat CPU 0 instructions: 73500438 cycles: 36794929 heartbeat IPC: 0.4874 cumulative IPC: 1.03 (Simulation time: 00 hr 08 min 23 sec)
Heartbeat CPU 0 instructions: 74000439 cycles: 37730263 heartbeat IPC: 0.5346 cumulative IPC: 1.01 (Simulation time: 00 hr 08 min 31 sec)
Heartbeat CPU 0 instructions: 74500440 cycles: 38665263 heartbeat IPC: 0.5348 cumulative IPC: 0.9925 (Simulation time: 00 hr 08 min 39 sec)
Heartbeat CPU 0 instructions: 75000440 cycles: 39577088 heartbeat IPC: 0.5484 cumulative IPC: 0.9766 (Simulation time: 00 hr 08 min 47 sec)
Heartbeat CPU 0 instructions: 75500443 cycles: 40748514 heartbeat IPC: 0.4268 cumulative IPC: 0.9526 (Simulation time: 00 hr 08 min 56 sec)
Heartbeat CPU 0 instructions: 76000448 cycles: 41842389 heartbeat IPC: 0.4571 cumulative IPC: 0.9331 (Simulation time: 00 hr 09 min 05 sec)
Heartbeat CPU 0 instructions: 76500449 cycles: 42665204 heartbeat IPC: 0.6077 cumulative IPC: 0.9238 (Simulation time: 00 hr 09 min 12 sec)
Heartbeat CPU 0 instructions: 77000449 cycles: 43589714 heartbeat IPC: 0.5408 cumulative IPC: 0.9118 (Simulation time: 00 hr 09 min 20 sec)
Heartbeat CPU 0 instructions: 77500449 cycles: 44573817 heartbeat IPC: 0.5081 cumulative IPC: 0.8989 (Simulation time: 00 hr 09 min 29 sec)
Heartbeat CPU 0 instructions: 78000449 cycles: 45785643 heartbeat IPC: 0.4126 cumulative IPC: 0.8803 (Simulation time: 00 hr 09 min 40 sec)
Heartbeat CPU 0 instructions: 78500452 cycles: 46437815 heartbeat IPC: 0.7667 cumulative IPC: 0.878 (Simulation time: 00 hr 09 min 47 sec)
Heartbeat CPU 0 instructions: 79000452 cycles: 47182650 heartbeat IPC: 0.6713 cumulative IPC: 0.8734 (Simulation time: 00 hr 09 min 53 sec)
Heartbeat CPU 0 instructions: 79500457 cycles: 47809876 heartbeat IPC: 0.7972 cumulative IPC: 0.872 (Simulation time: 00 hr 09 min 59 sec)
Heartbeat CPU 0 instructions: 80000461 cycles: 48608913 heartbeat IPC: 0.6258 cumulative IPC: 0.8663 (Simulation time: 00 hr 10 min 06 sec)
Heartbeat CPU 0 instructions: 80500465 cycles: 49931350 heartbeat IPC: 0.3781 cumulative IPC: 0.8484 (Simulation time: 00 hr 10 min 17 sec)
Heartbeat CPU 0 instructions: 81000469 cycles: 50650570 heartbeat IPC: 0.6952 cumulative IPC: 0.8454 (Simulation time: 00 hr 10 min 23 sec)
Heartbeat CPU 0 instructions: 81500469 cycles: 51566676 heartbeat IPC: 0.5458 cumulative IPC: 0.8381 (Simulation time: 00 hr 10 min 31 sec)
Heartbeat CPU 0 instructions: 82000476 cycles: 52161762 heartbeat IPC: 0.8402 cumulative IPC: 0.8381 (Simulation time: 00 hr 10 min 37 sec)
Heartbeat CPU 0 instructions: 82500478 cycles: 52529741 heartbeat IPC: 1.359 cumulative IPC: 0.8431 (Simulation time: 00 hr 10 min 41 sec)
Heartbeat CPU 0 instructions: 83000479 cycles: 52876593 heartbeat IPC: 1.442 cumulative IPC: 0.8484 (Simulation time: 00 hr 10 min 45 sec)
Heartbeat CPU 0 instructions: 83500479 cycles: 53196078 heartbeat IPC: 1.565 cumulative IPC: 0.8542 (Simulation time: 00 hr 10 min 48 sec)
Heartbeat CPU 0 instructions: 84000479 cycles: 53528808 heartbeat IPC: 1.503 cumulative IPC: 0.8597 (Simulation time: 00 hr 10 min 52 sec)
Heartbeat CPU 0 instructions: 84500479 cycles: 53874712 heartbeat IPC: 1.445 cumulative IPC: 0.8648 (Simulation time: 00 hr 10 min 56 sec)
Heartbeat CPU 0 instructions: 85000481 cycles: 54199721 heartbeat IPC: 1.538 cumulative IPC: 0.8702 (Simulation time: 00 hr 11 min 00 sec)
Heartbeat CPU 0 instructions: 85500487 cycles: 54525332 heartbeat IPC: 1.536 cumulative IPC: 0.8756 (Simulation time: 00 hr 11 min 03 sec)
Heartbeat CPU 0 instructions: 86000489 cycles: 54896243 heartbeat IPC: 1.348 cumulative IPC: 0.8798 (Simulation time: 00 hr 11 min 07 sec)
Heartbeat CPU 0 instructions: 86500493 cycles: 55213267 heartbeat IPC: 1.577 cumulative IPC: 0.8852 (Simulation time: 00 hr 11 min 11 sec)
Heartbeat CPU 0 instructions: 87000500 cycles: 55520447 heartbeat IPC: 1.628 cumulative IPC: 0.8907 (Simulation time: 00 hr 11 min 14 sec)
Heartbeat CPU 0 instructions: 87500500 cycles: 55849092 heartbeat IPC: 1.521 cumulative IPC: 0.8956 (Simulation time: 00 hr 11 min 18 sec)
Heartbeat CPU 0 instructions: 88000501 cycles: 56150320 heartbeat IPC: 1.66 cumulative IPC: 0.9011 (Simulation time: 00 hr 11 min 22 sec)
Heartbeat CPU 0 instructions: 88500503 cycles: 56471760 heartbeat IPC: 1.556 cumulative IPC: 0.906 (Simulation time: 00 hr 11 min 25 sec)
Heartbeat CPU 0 instructions: 89000504 cycles: 56791843 heartbeat IPC: 1.562 cumulative IPC: 0.911 (Simulation time: 00 hr 11 min 29 sec)
Heartbeat CPU 0 instructions: 89500507 cycles: 57125727 heartbeat IPC: 1.498 cumulative IPC: 0.9155 (Simulation time: 00 hr 11 min 33 sec)
Heartbeat CPU 0 instructions: 90000507 cycles: 57415919 heartbeat IPC: 1.723 cumulative IPC: 0.9209 (Simulation time: 00 hr 11 min 36 sec)
Heartbeat CPU 0 instructions: 90500507 cycles: 57713094 heartbeat IPC: 1.683 cumulative IPC: 0.9261 (Simulation time: 00 hr 11 min 40 sec)
Heartbeat CPU 0 instructions: 91000510 cycles: 57999920 heartbeat IPC: 1.743 cumulative IPC: 0.9314 (Simulation time: 00 hr 11 min 43 sec)
Heartbeat CPU 0 instructions: 91500512 cycles: 58306939 heartbeat IPC: 1.629 cumulative IPC: 0.9362 (Simulation time: 00 hr 11 min 47 sec)
Heartbeat CPU 0 instructions: 92000513 cycles: 59410650 heartbeat IPC: 0.453 cumulative IPC: 0.9245 (Simulation time: 00 hr 11 min 56 sec)
Heartbeat CPU 0 instructions: 92500515 cycles: 59907589 heartbeat IPC: 1.006 cumulative IPC: 0.9254 (Simulation time: 00 hr 12 min 00 sec)
Heartbeat CPU 0 instructions: 93000515 cycles: 60223612 heartbeat IPC: 1.582 cumulative IPC: 0.9298 (Simulation time: 00 hr 12 min 04 sec)
Heartbeat CPU 0 instructions: 93500518 cycles: 60568525 heartbeat IPC: 1.45 cumulative IPC: 0.9337 (Simulation time: 00 hr 12 min 08 sec)
Heartbeat CPU 0 instructions: 94000518 cycles: 60871244 heartbeat IPC: 1.652 cumulative IPC: 0.9383 (Simulation time: 00 hr 12 min 11 sec)
Heartbeat CPU 0 instructions: 94500519 cycles: 61166836 heartbeat IPC: 1.692 cumulative IPC: 0.943 (Simulation time: 00 hr 12 min 15 sec)
Heartbeat CPU 0 instructions: 95000519 cycles: 61470489 heartbeat IPC: 1.647 cumulative IPC: 0.9475 (Simulation time: 00 hr 12 min 18 sec)
Heartbeat CPU 0 instructions: 95500522 cycles: 61781852 heartbeat IPC: 1.606 cumulative IPC: 0.9518 (Simulation time: 00 hr 12 min 22 sec)
Heartbeat CPU 0 instructions: 96000527 cycles: 62099524 heartbeat IPC: 1.574 cumulative IPC: 0.9559 (Simulation time: 00 hr 12 min 25 sec)
Heartbeat CPU 0 instructions: 96500527 cycles: 62740443 heartbeat IPC: 0.7801 cumulative IPC: 0.9536 (Simulation time: 00 hr 12 min 31 sec)
Heartbeat CPU 0 instructions: 97000527 cycles: 63246737 heartbeat IPC: 0.9876 cumulative IPC: 0.954 (Simulation time: 00 hr 12 min 36 sec)
Heartbeat CPU 0 instructions: 97500528 cycles: 63705255 heartbeat IPC: 1.09 cumulative IPC: 0.9552 (Simulation time: 00 hr 12 min 40 sec)
Heartbeat CPU 0 instructions: 98000528 cycles: 64078294 heartbeat IPC: 1.34 cumulative IPC: 0.9581 (Simulation time: 00 hr 12 min 44 sec)
Heartbeat CPU 0 instructions: 98500530 cycles: 64504874 heartbeat IPC: 1.172 cumulative IPC: 0.9599 (Simulation time: 00 hr 12 min 48 sec)
Heartbeat CPU 0 instructions: 99000531 cycles: 64912193 heartbeat IPC: 1.228 cumulative IPC: 0.9621 (Simulation time: 00 hr 12 min 53 sec)
Heartbeat CPU 0 instructions: 99500531 cycles: 65302813 heartbeat IPC: 1.28 cumulative IPC: 0.9645 (Simulation time: 00 hr 12 min 57 sec)
Heartbeat CPU 0 instructions: 100000534 cycles: 65694154 heartbeat IPC: 1.278 cumulative IPC: 0.9668 (Simulation time: 00 hr 13 min 01 sec)
Heartbeat CPU 0 instructions: 100500535 cycles: 66116742 heartbeat IPC: 1.183 cumulative IPC: 0.9686 (Simulation time: 00 hr 13 min 06 sec)
Heartbeat CPU 0 instructions: 101000539 cycles: 66468016 heartbeat IPC: 1.423 cumulative IPC: 0.9716 (Simulation time: 00 hr 13 min 10 sec)
Heartbeat CPU 0 instructions: 101500545 cycles: 66830186 heartbeat IPC: 1.381 cumulative IPC: 0.9744 (Simulation time: 00 hr 13 min 14 sec)
Heartbeat CPU 0 instructions: 102000551 cycles: 67460627 heartbeat IPC: 0.7931 cumulative IPC: 0.9723 (Simulation time: 00 hr 13 min 20 sec)
Heartbeat CPU 0 instructions: 102500557 cycles: 68761733 heartbeat IPC: 0.3843 cumulative IPC: 0.9583 (Simulation time: 00 hr 13 min 31 sec)
Heartbeat CPU 0 instructions: 103000563 cycles: 69063331 heartbeat IPC: 1.658 cumulative IPC: 0.9622 (Simulation time: 00 hr 13 min 35 sec)
Heartbeat CPU 0 instructions: 103500569 cycles: 69378633 heartbeat IPC: 1.586 cumulative IPC: 0.9657 (Simulation time: 00 hr 13 min 38 sec)
Heartbeat CPU 0 instructions: 104000572 cycles: 69752793 heartbeat IPC: 1.336 cumulative IPC: 0.9682 (Simulation time: 00 hr 13 min 43 sec)
Heartbeat CPU 0 instructions: 104500573 cycles: 70143724 heartbeat IPC: 1.279 cumulative IPC: 0.9704 (Simulation time: 00 hr 13 min 47 sec)
Heartbeat CPU 0 instructions: 105000576 cycles: 70511108 heartbeat IPC: 1.361 cumulative IPC: 0.9729 (Simulation time: 00 hr 13 min 51 sec)
Heartbeat CPU 0 instructions: 105500579 cycles: 71919161 heartbeat IPC: 0.3551 cumulative IPC: 0.9579 (Simulation time: 00 hr 14 min 02 sec)
Heartbeat CPU 0 instructions: 106000581 cycles: 73072708 heartbeat IPC: 0.4334 cumulative IPC: 0.9477 (Simulation time: 00 hr 14 min 13 sec)
Heartbeat CPU 0 instructions: 106500588 cycles: 74275060 heartbeat IPC: 0.4159 cumulative IPC: 0.9371 (Simulation time: 00 hr 14 min 25 sec)
Heartbeat CPU 0 instructions: 107000595 cycles: 74978582 heartbeat IPC: 0.7107 cumulative IPC: 0.9344 (Simulation time: 00 hr 14 min 32 sec)
Heartbeat CPU 0 instructions: 107500596 cycles: 75194401 heartbeat IPC: 2.317 cumulative IPC: 0.9393 (Simulation time: 00 hr 14 min 36 sec)
Heartbeat CPU 0 instructions: 108000598 cycles: 75544505 heartbeat IPC: 1.428 cumulative IPC: 0.9421 (Simulation time: 00 hr 14 min 40 sec)
Heartbeat CPU 0 instructions: 108500602 cycles: 75927158 heartbeat IPC: 1.307 cumulative IPC: 0.9443 (Simulation time: 00 hr 14 min 46 sec)
Heartbeat CPU 0 instructions: 109000604 cycles: 76176450 heartbeat IPC: 2.006 cumulative IPC: 0.9486 (Simulation time: 00 hr 14 min 50 sec)
Heartbeat CPU 0 instructions: 109500604 cycles: 76479480 heartbeat IPC: 1.65 cumulative IPC: 0.952 (Simulation time: 00 hr 14 min 55 sec)
Heartbeat CPU 0 instructions: 110000604 cycles: 76739182 heartbeat IPC: 1.925 cumulative IPC: 0.956 (Simulation time: 00 hr 14 min 59 sec)
Heartbeat CPU 0 instructions: 110500605 cycles: 77097477 heartbeat IPC: 1.396 cumulative IPC: 0.9585 (Simulation time: 00 hr 15 min 04 sec)
Heartbeat CPU 0 instructions: 111000609 cycles: 77395224 heartbeat IPC: 1.679 cumulative IPC: 0.9619 (Simulation time: 00 hr 15 min 09 sec)
Heartbeat CPU 0 instructions: 111500610 cycles: 77764665 heartbeat IPC: 1.353 cumulative IPC: 0.9642 (Simulation time: 00 hr 15 min 14 sec)
Heartbeat CPU 0 instructions: 112000610 cycles: 78032415 heartbeat IPC: 1.867 cumulative IPC: 0.968 (Simulation time: 00 hr 15 min 19 sec)
Heartbeat CPU 0 instructions: 112500612 cycles: 78301297 heartbeat IPC: 1.86 cumulative IPC: 0.9717 (Simulation time: 00 hr 15 min 23 sec)
Heartbeat CPU 0 instructions: 113000614 cycles: 78511600 heartbeat IPC: 2.378 cumulative IPC: 0.9763 (Simulation time: 00 hr 15 min 27 sec)
Heartbeat CPU 0 instructions: 113500619 cycles: 78862227 heartbeat IPC: 1.426 cumulative IPC: 0.9787 (Simulation time: 00 hr 15 min 33 sec)
Heartbeat CPU 0 instructions: 114000626 cycles: 79259973 heartbeat IPC: 1.257 cumulative IPC: 0.9804 (Simulation time: 00 hr 15 min 38 sec)
Heartbeat CPU 0 instructions: 114500627 cycles: 79608943 heartbeat IPC: 1.433 cumulative IPC: 0.9828 (Simulation time: 00 hr 15 min 44 sec)
Heartbeat CPU 0 instructions: 115000627 cycles: 80836609 heartbeat IPC: 0.4073 cumulative IPC: 0.9722 (Simulation time: 00 hr 15 min 55 sec)
Heartbeat CPU 0 instructions: 115500632 cycles: 81880804 heartbeat IPC: 0.4788 cumulative IPC: 0.9646 (Simulation time: 00 hr 16 min 04 sec)
Heartbeat CPU 0 instructions: 116000632 cycles: 82847605 heartbeat IPC: 0.5172 cumulative IPC: 0.9584 (Simulation time: 00 hr 16 min 12 sec)
Heartbeat CPU 0 instructions: 116500638 cycles: 83793516 heartbeat IPC: 0.5286 cumulative IPC: 0.9525 (Simulation time: 00 hr 16 min 20 sec)
Heartbeat CPU 0 instructions: 117000639 cycles: 84697377 heartbeat IPC: 0.5532 cumulative IPC: 0.9474 (Simulation time: 00 hr 16 min 28 sec)
Heartbeat CPU 0 instructions: 117500640 cycles: 85582749 heartbeat IPC: 0.5647 cumulative IPC: 0.9427 (Simulation time: 00 hr 16 min 35 sec)
Heartbeat CPU 0 instructions: 118000640 cycles: 86551678 heartbeat IPC: 0.516 cumulative IPC: 0.937 (Simulation time: 00 hr 16 min 43 sec)
Heartbeat CPU 0 instructions: 118500641 cycles: 88293243 heartbeat IPC: 0.2871 cumulative IPC: 0.9218 (Simulation time: 00 hr 16 min 57 sec)
Heartbeat CPU 0 instructions: 119000641 cycles: 89630472 heartbeat IPC: 0.3739 cumulative IPC: 0.9121 (Simulation time: 00 hr 17 min 08 sec)
Heartbeat CPU 0 instructions: 119500647 cycles: 91083972 heartbeat IPC: 0.344 cumulative IPC: 0.9014 (Simulation time: 00 hr 17 min 19 sec)
Heartbeat CPU 0 instructions: 120000648 cycles: 92101867 heartbeat IPC: 0.4912 cumulative IPC: 0.896 (Simulation time: 00 hr 17 min 28 sec)
Heartbeat CPU 0 instructions: 120500649 cycles: 92629713 heartbeat IPC: 0.9472 cumulative IPC: 0.8964 (Simulation time: 00 hr 17 min 33 sec)
Heartbeat CPU 0 instructions: 121000650 cycles: 93565505 heartbeat IPC: 0.5343 cumulative IPC: 0.8921 (Simulation time: 00 hr 17 min 41 sec)
Heartbeat CPU 0 instructions: 121500650 cycles: 94435121 heartbeat IPC: 0.575 cumulative IPC: 0.8887 (Simulation time: 00 hr 17 min 49 sec)
Heartbeat CPU 0 instructions: 122000653 cycles: 95426662 heartbeat IPC: 0.5043 cumulative IPC: 0.884 (Simulation time: 00 hr 17 min 57 sec)
Heartbeat CPU 0 instructions: 122500660 cycles: 96732139 heartbeat IPC: 0.383 cumulative IPC: 0.8761 (Simulation time: 00 hr 18 min 08 sec)
Heartbeat CPU 0 instructions: 123000663 cycles: 97797756 heartbeat IPC: 0.4692 cumulative IPC: 0.8709 (Simulation time: 00 hr 18 min 16 sec)
Heartbeat CPU 0 instructions: 123500663 cycles: 98916610 heartbeat IPC: 0.4469 cumulative IPC: 0.8653 (Simulation time: 00 hr 18 min 25 sec)
Heartbeat CPU 0 instructions: 124000665 cycles: 99528701 heartbeat IPC: 0.8169 cumulative IPC: 0.865 (Simulation time: 00 hr 18 min 31 sec)
Heartbeat CPU 0 instructions: 124500665 cycles: 100441710 heartbeat IPC: 0.5476 cumulative IPC: 0.8616 (Simulation time: 00 hr 18 min 38 sec)
Heartbeat CPU 0 instructions: 125000665 cycles: 101094730 heartbeat IPC: 0.7657 cumulative IPC: 0.8609 (Simulation time: 00 hr 18 min 44 sec)
Heartbeat CPU 0 instructions: 125500665 cycles: 102405438 heartbeat IPC: 0.3815 cumulative IPC: 0.8538 (Simulation time: 00 hr 18 min 54 sec)
Heartbeat CPU 0 instructions: 126000667 cycles: 103601781 heartbeat IPC: 0.4179 cumulative IPC: 0.848 (Simulation time: 00 hr 19 min 04 sec)
Heartbeat CPU 0 instructions: 126500669 cycles: 104748688 heartbeat IPC: 0.436 cumulative IPC: 0.8428 (Simulation time: 00 hr 19 min 13 sec)
Heartbeat CPU 0 instructions: 127000670 cycles: 105930400 heartbeat IPC: 0.4231 cumulative IPC: 0.8374 (Simulation time: 00 hr 19 min 23 sec)
Heartbeat CPU 0 instructions: 127500676 cycles: 106844084 heartbeat IPC: 0.5472 cumulative IPC: 0.8346 (Simulation time: 00 hr 19 min 30 sec)
Heartbeat CPU 0 instructions: 128000678 cycles: 107745570 heartbeat IPC: 0.5546 cumulative IPC: 0.8319 (Simulation time: 00 hr 19 min 45 sec)
Heartbeat CPU 0 instructions: 128500678 cycles: 108355129 heartbeat IPC: 0.8203 cumulative IPC: 0.8318 (Simulation time: 00 hr 19 min 54 sec)
Heartbeat CPU 0 instructions: 129000685 cycles: 108991199 heartbeat IPC: 0.7861 cumulative IPC: 0.8315 (Simulation time: 00 hr 20 min 01 sec)
Heartbeat CPU 0 instructions: 129500688 cycles: 109587008 heartbeat IPC: 0.8392 cumulative IPC: 0.8315 (Simulation time: 00 hr 20 min 07 sec)
Heartbeat CPU 0 instructions: 130000689 cycles: 110092730 heartbeat IPC: 0.9887 cumulative IPC: 0.8324 (Simulation time: 00 hr 20 min 14 sec)
Heartbeat CPU 0 instructions: 130500691 cycles: 111415100 heartbeat IPC: 0.3781 cumulative IPC: 0.8262 (Simulation time: 00 hr 20 min 25 sec)
Heartbeat CPU 0 instructions: 131000696 cycles: 111931525 heartbeat IPC: 0.9682 cumulative IPC: 0.8269 (Simulation time: 00 hr 20 min 29 sec)
Heartbeat CPU 0 instructions: 131500698 cycles: 113190724 heartbeat IPC: 0.3971 cumulative IPC: 0.8215 (Simulation time: 00 hr 20 min 40 sec)
Heartbeat CPU 0 instructions: 132000698 cycles: 114267057 heartbeat IPC: 0.4645 cumulative IPC: 0.8177 (Simulation time: 00 hr 20 min 49 sec)
Heartbeat CPU 0 instructions: 132500698 cycles: 114767329 heartbeat IPC: 0.9995 cumulative IPC: 0.8186 (Simulation time: 00 hr 20 min 54 sec)
Heartbeat CPU 0 instructions: 133000702 cycles: 115894532 heartbeat IPC: 0.4436 cumulative IPC: 0.8144 (Simulation time: 00 hr 21 min 04 sec)
Heartbeat CPU 0 instructions: 133500704 cycles: 116360299 heartbeat IPC: 1.074 cumulative IPC: 0.8156 (Simulation time: 00 hr 21 min 08 sec)
Heartbeat CPU 0 instructions: 134000707 cycles: 117274884 heartbeat IPC: 0.5467 cumulative IPC: 0.8132 (Simulation time: 00 hr 21 min 16 sec)
Heartbeat CPU 0 instructions: 134500707 cycles: 118248125 heartbeat IPC: 0.5137 cumulative IPC: 0.8104 (Simulation time: 00 hr 21 min 24 sec)
Heartbeat CPU 0 instructions: 135000711 cycles: 119308142 heartbeat IPC: 0.4717 cumulative IPC: 0.807 (Simulation time: 00 hr 21 min 33 sec)
Heartbeat CPU 0 instructions: 135500714 cycles: 120208066 heartbeat IPC: 0.5556 cumulative IPC: 0.8049 (Simulation time: 00 hr 21 min 40 sec)
Heartbeat CPU 0 instructions: 136000715 cycles: 121384098 heartbeat IPC: 0.4252 cumulative IPC: 0.8007 (Simulation time: 00 hr 21 min 50 sec)
Heartbeat CPU 0 instructions: 136500719 cycles: 121917028 heartbeat IPC: 0.9382 cumulative IPC: 0.8014 (Simulation time: 00 hr 21 min 55 sec)
Heartbeat CPU 0 instructions: 137000720 cycles: 123100683 heartbeat IPC: 0.4224 cumulative IPC: 0.7973 (Simulation time: 00 hr 22 min 04 sec)
Heartbeat CPU 0 instructions: 137500722 cycles: 123946807 heartbeat IPC: 0.5909 cumulative IPC: 0.7957 (Simulation time: 00 hr 22 min 11 sec)
Heartbeat CPU 0 instructions: 138000726 cycles: 124866309 heartbeat IPC: 0.5438 cumulative IPC: 0.7936 (Simulation time: 00 hr 22 min 19 sec)
Heartbeat CPU 0 instructions: 138500728 cycles: 126086847 heartbeat IPC: 0.4097 cumulative IPC: 0.7894 (Simulation time: 00 hr 22 min 29 sec)
Heartbeat CPU 0 instructions: 139000732 cycles: 127139637 heartbeat IPC: 0.4749 cumulative IPC: 0.7865 (Simulation time: 00 hr 22 min 37 sec)
Heartbeat CPU 0 instructions: 139500732 cycles: 128126565 heartbeat IPC: 0.5066 cumulative IPC: 0.7841 (Simulation time: 00 hr 22 min 45 sec)
Heartbeat CPU 0 instructions: 140000732 cycles: 129198533 heartbeat IPC: 0.4664 cumulative IPC: 0.7811 (Simulation time: 00 hr 22 min 54 sec)
Heartbeat CPU 0 instructions: 140500732 cycles: 130466334 heartbeat IPC: 0.3944 cumulative IPC: 0.7769 (Simulation time: 00 hr 23 min 04 sec)
Heartbeat CPU 0 instructions: 141000734 cycles: 131642566 heartbeat IPC: 0.4251 cumulative IPC: 0.7734 (Simulation time: 00 hr 23 min 13 sec)
Heartbeat CPU 0 instructions: 141500734 cycles: 132711502 heartbeat IPC: 0.4678 cumulative IPC: 0.7706 (Simulation time: 00 hr 23 min 23 sec)
Heartbeat CPU 0 instructions: 142000737 cycles: 133939519 heartbeat IPC: 0.4072 cumulative IPC: 0.7669 (Simulation time: 00 hr 23 min 32 sec)
Heartbeat CPU 0 instructions: 142500737 cycles: 135312144 heartbeat IPC: 0.3643 cumulative IPC: 0.7624 (Simulation time: 00 hr 23 min 43 sec)
Heartbeat CPU 0 instructions: 143000741 cycles: 135955682 heartbeat IPC: 0.777 cumulative IPC: 0.7624 (Simulation time: 00 hr 23 min 49 sec)
Heartbeat CPU 0 instructions: 143500741 cycles: 136466536 heartbeat IPC: 0.9788 cumulative IPC: 0.7633 (Simulation time: 00 hr 23 min 54 sec)
Heartbeat CPU 0 instructions: 144000743 cycles: 137434418 heartbeat IPC: 0.5166 cumulative IPC: 0.7614 (Simulation time: 00 hr 24 min 01 sec)
Heartbeat CPU 0 instructions: 144500744 cycles: 138063040 heartbeat IPC: 0.7954 cumulative IPC: 0.7616 (Simulation time: 00 hr 24 min 07 sec)
Heartbeat CPU 0 instructions: 145000745 cycles: 138603234 heartbeat IPC: 0.9256 cumulative IPC: 0.7623 (Simulation time: 00 hr 24 min 12 sec)
Heartbeat CPU 0 instructions: 145500750 cycles: 139347551 heartbeat IPC: 0.6718 cumulative IPC: 0.7618 (Simulation time: 00 hr 24 min 19 sec)
Heartbeat CPU 0 instructions: 146000750 cycles: 140349208 heartbeat IPC: 0.4992 cumulative IPC: 0.7597 (Simulation time: 00 hr 24 min 27 sec)
Heartbeat CPU 0 instructions: 146500752 cycles: 141127272 heartbeat IPC: 0.6426 cumulative IPC: 0.759 (Simulation time: 00 hr 24 min 33 sec)
Heartbeat CPU 0 instructions: 147000756 cycles: 141646573 heartbeat IPC: 0.9628 cumulative IPC: 0.7598 (Simulation time: 00 hr 24 min 38 sec)
Heartbeat CPU 0 instructions: 147500758 cycles: 142788103 heartbeat IPC: 0.438 cumulative IPC: 0.7569 (Simulation time: 00 hr 24 min 48 sec)
Heartbeat CPU 0 instructions: 148000758 cycles: 143797404 heartbeat IPC: 0.4954 cumulative IPC: 0.7549 (Simulation time: 00 hr 24 min 56 sec)
Heartbeat CPU 0 instructions: 148500758 cycles: 144783433 heartbeat IPC: 0.5071 cumulative IPC: 0.753 (Simulation time: 00 hr 25 min 04 sec)
Heartbeat CPU 0 instructions: 149000758 cycles: 146392699 heartbeat IPC: 0.3107 cumulative IPC: 0.7477 (Simulation time: 00 hr 25 min 16 sec)
Heartbeat CPU 0 instructions: 149500760 cycles: 147445958 heartbeat IPC: 0.4747 cumulative IPC: 0.7455 (Simulation time: 00 hr 25 min 24 sec)
Heartbeat CPU 0 instructions: 150000761 cycles: 148494632 heartbeat IPC: 0.4768 cumulative IPC: 0.7434 (Simulation time: 00 hr 25 min 32 sec)
Heartbeat CPU 0 instructions: 150500765 cycles: 149141874 heartbeat IPC: 0.7725 cumulative IPC: 0.7436 (Simulation time: 00 hr 25 min 38 sec)
Heartbeat CPU 0 instructions: 151000765 cycles: 149952338 heartbeat IPC: 0.6169 cumulative IPC: 0.7428 (Simulation time: 00 hr 25 min 45 sec)
Heartbeat CPU 0 instructions: 151500766 cycles: 150712271 heartbeat IPC: 0.658 cumulative IPC: 0.7423 (Simulation time: 00 hr 25 min 51 sec)
Heartbeat CPU 0 instructions: 152000773 cycles: 151799333 heartbeat IPC: 0.46 cumulative IPC: 0.7401 (Simulation time: 00 hr 26 min 00 sec)
Heartbeat CPU 0 instructions: 152500774 cycles: 152980468 heartbeat IPC: 0.4233 cumulative IPC: 0.7374 (Simulation time: 00 hr 26 min 09 sec)
Heartbeat CPU 0 instructions: 153000777 cycles: 153969025 heartbeat IPC: 0.5058 cumulative IPC: 0.7358 (Simulation time: 00 hr 26 min 17 sec)
Heartbeat CPU 0 instructions: 153500779 cycles: 154793004 heartbeat IPC: 0.6068 cumulative IPC: 0.735 (Simulation time: 00 hr 26 min 24 sec)
Heartbeat CPU 0 instructions: 154000779 cycles: 155932543 heartbeat IPC: 0.4388 cumulative IPC: 0.7326 (Simulation time: 00 hr 26 min 32 sec)
Heartbeat CPU 0 instructions: 154500784 cycles: 156505870 heartbeat IPC: 0.8721 cumulative IPC: 0.7332 (Simulation time: 00 hr 26 min 38 sec)
Heartbeat CPU 0 instructions: 155000788 cycles: 157060580 heartbeat IPC: 0.9014 cumulative IPC: 0.7339 (Simulation time: 00 hr 26 min 43 sec)
Heartbeat CPU 0 instructions: 155500790 cycles: 157902523 heartbeat IPC: 0.5939 cumulative IPC: 0.733 (Simulation time: 00 hr 26 min 49 sec)
Heartbeat CPU 0 instructions: 156000790 cycles: 158798242 heartbeat IPC: 0.5582 cumulative IPC: 0.732 (Simulation time: 00 hr 26 min 56 sec)
Heartbeat CPU 0 instructions: 156500790 cycles: 159716922 heartbeat IPC: 0.5443 cumulative IPC: 0.7308 (Simulation time: 00 hr 27 min 04 sec)
Heartbeat CPU 0 instructions: 157000796 cycles: 160778944 heartbeat IPC: 0.4708 cumulative IPC: 0.7289 (Simulation time: 00 hr 27 min 12 sec)
Heartbeat CPU 0 instructions: 157500799 cycles: 161236130 heartbeat IPC: 1.094 cumulative IPC: 0.73 (Simulation time: 00 hr 27 min 16 sec)
Heartbeat CPU 0 instructions: 158000800 cycles: 162598440 heartbeat IPC: 0.367 cumulative IPC: 0.7267 (Simulation time: 00 hr 27 min 26 sec)
Heartbeat CPU 0 instructions: 158500800 cycles: 163708098 heartbeat IPC: 0.4506 cumulative IPC: 0.7246 (Simulation time: 00 hr 27 min 35 sec)
Heartbeat CPU 0 instructions: 159000801 cycles: 164813648 heartbeat IPC: 0.4523 cumulative IPC: 0.7227 (Simulation time: 00 hr 27 min 44 sec)
Heartbeat CPU 0 instructions: 159500804 cycles: 166048822 heartbeat IPC: 0.4048 cumulative IPC: 0.7201 (Simulation time: 00 hr 27 min 53 sec)
Heartbeat CPU 0 instructions: 160000806 cycles: 166986106 heartbeat IPC: 0.5335 cumulative IPC: 0.7189 (Simulation time: 00 hr 28 min 01 sec)
Heartbeat CPU 0 instructions: 160500806 cycles: 168235330 heartbeat IPC: 0.4002 cumulative IPC: 0.7163 (Simulation time: 00 hr 28 min 11 sec)
Heartbeat CPU 0 instructions: 161000807 cycles: 169428725 heartbeat IPC: 0.419 cumulative IPC: 0.7141 (Simulation time: 00 hr 28 min 20 sec)
Heartbeat CPU 0 instructions: 161500807 cycles: 170334422 heartbeat IPC: 0.5521 cumulative IPC: 0.7131 (Simulation time: 00 hr 28 min 27 sec)
Heartbeat CPU 0 instructions: 162000814 cycles: 170848835 heartbeat IPC: 0.972 cumulative IPC: 0.714 (Simulation time: 00 hr 28 min 32 sec)
Heartbeat CPU 0 instructions: 162500815 cycles: 171605211 heartbeat IPC: 0.661 cumulative IPC: 0.7137 (Simulation time: 00 hr 28 min 38 sec)
Heartbeat CPU 0 instructions: 163000820 cycles: 172478052 heartbeat IPC: 0.5728 cumulative IPC: 0.7129 (Simulation time: 00 hr 28 min 45 sec)
Heartbeat CPU 0 instructions: 163500820 cycles: 173351633 heartbeat IPC: 0.5724 cumulative IPC: 0.7122 (Simulation time: 00 hr 28 min 52 sec)
Heartbeat CPU 0 instructions: 164000822 cycles: 174446096 heartbeat IPC: 0.4568 cumulative IPC: 0.7104 (Simulation time: 00 hr 29 min 01 sec)
Heartbeat CPU 0 instructions: 164500825 cycles: 175848687 heartbeat IPC: 0.3565 cumulative IPC: 0.7074 (Simulation time: 00 hr 29 min 11 sec)
Heartbeat CPU 0 instructions: 165000829 cycles: 176433820 heartbeat IPC: 0.8545 cumulative IPC: 0.7079 (Simulation time: 00 hr 29 min 16 sec)
Heartbeat CPU 0 instructions: 165500830 cycles: 177257972 heartbeat IPC: 0.6067 cumulative IPC: 0.7074 (Simulation time: 00 hr 29 min 22 sec)
Heartbeat CPU 0 instructions: 166000831 cycles: 178111157 heartbeat IPC: 0.586 cumulative IPC: 0.7068 (Simulation time: 00 hr 29 min 29 sec)
Heartbeat CPU 0 instructions: 166500834 cycles: 179118828 heartbeat IPC: 0.4962 cumulative IPC: 0.7055 (Simulation time: 00 hr 29 min 37 sec)
Heartbeat CPU 0 instructions: 167000838 cycles: 179930244 heartbeat IPC: 0.6162 cumulative IPC: 0.705 (Simulation time: 00 hr 29 min 43 sec)
Heartbeat CPU 0 instructions: 167500845 cycles: 181000584 heartbeat IPC: 0.4671 cumulative IPC: 0.7035 (Simulation time: 00 hr 29 min 51 sec)
Heartbeat CPU 0 instructions: 168000849 cycles: 181291827 heartbeat IPC: 1.717 cumulative IPC: 0.7053 (Simulation time: 00 hr 29 min 54 sec)
Heartbeat CPU 0 instructions: 168500849 cycles: 182062762 heartbeat IPC: 0.6486 cumulative IPC: 0.705 (Simulation time: 00 hr 30 min 01 sec)
Heartbeat CPU 0 instructions: 169000849 cycles: 183342037 heartbeat IPC: 0.3908 cumulative IPC: 0.7026 (Simulation time: 00 hr 30 min 10 sec)
Heartbeat CPU 0 instructions: 169500849 cycles: 184009458 heartbeat IPC: 0.7492 cumulative IPC: 0.7028 (Simulation time: 00 hr 30 min 16 sec)
Heartbeat CPU 0 instructions: 170000849 cycles: 185289399 heartbeat IPC: 0.3906 cumulative IPC: 0.7005 (Simulation time: 00 hr 30 min 25 sec)
Heartbeat CPU 0 instructions: 170500849 cycles: 186201265 heartbeat IPC: 0.5483 cumulative IPC: 0.6997 (Simulation time: 00 hr 30 min 32 sec)
Heartbeat CPU 0 instructions: 171000849 cycles: 186714332 heartbeat IPC: 0.9745 cumulative IPC: 0.7005 (Simulation time: 00 hr 30 min 38 sec)
Heartbeat CPU 0 instructions: 171500849 cycles: 187014449 heartbeat IPC: 1.666 cumulative IPC: 0.7022 (Simulation time: 00 hr 30 min 41 sec)
Heartbeat CPU 0 instructions: 172000849 cycles: 187554997 heartbeat IPC: 0.925 cumulative IPC: 0.7029 (Simulation time: 00 hr 30 min 46 sec)
Heartbeat CPU 0 instructions: 172500850 cycles: 187888764 heartbeat IPC: 1.498 cumulative IPC: 0.7044 (Simulation time: 00 hr 30 min 49 sec)
Heartbeat CPU 0 instructions: 173000850 cycles: 188258684 heartbeat IPC: 1.352 cumulative IPC: 0.7058 (Simulation time: 00 hr 30 min 53 sec)
Heartbeat CPU 0 instructions: 173500851 cycles: 189302322 heartbeat IPC: 0.4791 cumulative IPC: 0.7044 (Simulation time: 00 hr 31 min 00 sec)
Heartbeat CPU 0 instructions: 174000858 cycles: 190264300 heartbeat IPC: 0.5198 cumulative IPC: 0.7034 (Simulation time: 00 hr 31 min 07 sec)
Heartbeat CPU 0 instructions: 174500858 cycles: 191518979 heartbeat IPC: 0.3985 cumulative IPC: 0.7013 (Simulation time: 00 hr 31 min 18 sec)
Heartbeat CPU 0 instructions: 175000858 cycles: 193108883 heartbeat IPC: 0.3145 cumulative IPC: 0.6978 (Simulation time: 00 hr 31 min 30 sec)
Heartbeat CPU 0 instructions: 175500858 cycles: 194136508 heartbeat IPC: 0.4866 cumulative IPC: 0.6966 (Simulation time: 00 hr 31 min 38 sec)
Heartbeat CPU 0 instructions: 176000858 cycles: 195586262 heartbeat IPC: 0.3449 cumulative IPC: 0.6938 (Simulation time: 00 hr 31 min 48 sec)
Heartbeat CPU 0 instructions: 176500858 cycles: 196755767 heartbeat IPC: 0.4275 cumulative IPC: 0.6921 (Simulation time: 00 hr 31 min 56 sec)
Heartbeat CPU 0 instructions: 177000859 cycles: 197389427 heartbeat IPC: 0.7891 cumulative IPC: 0.6924 (Simulation time: 00 hr 32 min 01 sec)
Heartbeat CPU 0 instructions: 177500862 cycles: 198207261 heartbeat IPC: 0.6114 cumulative IPC: 0.6921 (Simulation time: 00 hr 32 min 08 sec)
Heartbeat CPU 0 instructions: 178000864 cycles: 198527248 heartbeat IPC: 1.563 cumulative IPC: 0.6936 (Simulation time: 00 hr 32 min 11 sec)
Heartbeat CPU 0 instructions: 178500864 cycles: 198960524 heartbeat IPC: 1.154 cumulative IPC: 0.6947 (Simulation time: 00 hr 32 min 14 sec)
Heartbeat CPU 0 instructions: 179000868 cycles: 199809403 heartbeat IPC: 0.589 cumulative IPC: 0.6942 (Simulation time: 00 hr 32 min 20 sec)
Heartbeat CPU 0 instructions: 179500868 cycles: 200842669 heartbeat IPC: 0.4839 cumulative IPC: 0.693 (Simulation time: 00 hr 32 min 28 sec)
Heartbeat CPU 0 instructions: 180000870 cycles: 202131114 heartbeat IPC: 0.3881 cumulative IPC: 0.6909 (Simulation time: 00 hr 32 min 37 sec)
Heartbeat CPU 0 instructions: 180500874 cycles: 202754322 heartbeat IPC: 0.8023 cumulative IPC: 0.6913 (Simulation time: 00 hr 32 min 42 sec)
Heartbeat CPU 0 instructions: 181000878 cycles: 203881440 heartbeat IPC: 0.4436 cumulative IPC: 0.6898 (Simulation time: 00 hr 32 min 50 sec)
Heartbeat CPU 0 instructions: 181500884 cycles: 204981844 heartbeat IPC: 0.4544 cumulative IPC: 0.6885 (Simulation time: 00 hr 32 min 57 sec)
Heartbeat CPU 0 instructions: 182000891 cycles: 206431789 heartbeat IPC: 0.3448 cumulative IPC: 0.6859 (Simulation time: 00 hr 33 min 07 sec)
Heartbeat CPU 0 instructions: 182500897 cycles: 207171544 heartbeat IPC: 0.6759 cumulative IPC: 0.6858 (Simulation time: 00 hr 33 min 13 sec)
Heartbeat CPU 0 instructions: 183000897 cycles: 207975294 heartbeat IPC: 0.6221 cumulative IPC: 0.6856 (Simulation time: 00 hr 33 min 19 sec)
Heartbeat CPU 0 instructions: 183500899 cycles: 208924849 heartbeat IPC: 0.5266 cumulative IPC: 0.6848 (Simulation time: 00 hr 33 min 26 sec)
Heartbeat CPU 0 instructions: 184000900 cycles: 209895596 heartbeat IPC: 0.5151 cumulative IPC: 0.684 (Simulation time: 00 hr 33 min 33 sec)
Heartbeat CPU 0 instructions: 184500901 cycles: 211145114 heartbeat IPC: 0.4002 cumulative IPC: 0.6822 (Simulation time: 00 hr 33 min 43 sec)
Heartbeat CPU 0 instructions: 185000908 cycles: 212253335 heartbeat IPC: 0.4512 cumulative IPC: 0.6809 (Simulation time: 00 hr 33 min 52 sec)
Heartbeat CPU 0 instructions: 185500914 cycles: 212992107 heartbeat IPC: 0.6768 cumulative IPC: 0.6809 (Simulation time: 00 hr 33 min 58 sec)
Heartbeat CPU 0 instructions: 186000914 cycles: 213848704 heartbeat IPC: 0.5837 cumulative IPC: 0.6804 (Simulation time: 00 hr 34 min 04 sec)
Heartbeat CPU 0 instructions: 186500921 cycles: 214772790 heartbeat IPC: 0.5411 cumulative IPC: 0.6798 (Simulation time: 00 hr 34 min 10 sec)
Heartbeat CPU 0 instructions: 187000923 cycles: 215642577 heartbeat IPC: 0.5749 cumulative IPC: 0.6794 (Simulation time: 00 hr 34 min 17 sec)
Heartbeat CPU 0 instructions: 187500923 cycles: 216633357 heartbeat IPC: 0.5047 cumulative IPC: 0.6785 (Simulation time: 00 hr 34 min 24 sec)
Heartbeat CPU 0 instructions: 188000923 cycles: 217138126 heartbeat IPC: 0.9906 cumulative IPC: 0.6793 (Simulation time: 00 hr 34 min 28 sec)
Heartbeat CPU 0 instructions: 188500923 cycles: 217981423 heartbeat IPC: 0.5929 cumulative IPC: 0.6789 (Simulation time: 00 hr 34 min 34 sec)
Heartbeat CPU 0 instructions: 189000923 cycles: 218497359 heartbeat IPC: 0.9691 cumulative IPC: 0.6796 (Simulation time: 00 hr 34 min 39 sec)
Heartbeat CPU 0 instructions: 189500929 cycles: 218968038 heartbeat IPC: 1.062 cumulative IPC: 0.6805 (Simulation time: 00 hr 34 min 42 sec)
Heartbeat CPU 0 instructions: 190000932 cycles: 219223750 heartbeat IPC: 1.955 cumulative IPC: 0.6821 (Simulation time: 00 hr 34 min 45 sec)
Heartbeat CPU 0 instructions: 190500933 cycles: 219517440 heartbeat IPC: 1.702 cumulative IPC: 0.6836 (Simulation time: 00 hr 34 min 48 sec)
Heartbeat CPU 0 instructions: 191000936 cycles: 219849775 heartbeat IPC: 1.505 cumulative IPC: 0.6849 (Simulation time: 00 hr 34 min 51 sec)
Heartbeat CPU 0 instructions: 191500936 cycles: 220153147 heartbeat IPC: 1.648 cumulative IPC: 0.6863 (Simulation time: 00 hr 34 min 54 sec)
Heartbeat CPU 0 instructions: 192000941 cycles: 221257502 heartbeat IPC: 0.4528 cumulative IPC: 0.6851 (Simulation time: 00 hr 35 min 01 sec)
Heartbeat CPU 0 instructions: 192500941 cycles: 222155877 heartbeat IPC: 0.5566 cumulative IPC: 0.6845 (Simulation time: 00 hr 35 min 08 sec)
Heartbeat CPU 0 instructions: 193000945 cycles: 223606386 heartbeat IPC: 0.3447 cumulative IPC: 0.6822 (Simulation time: 00 hr 35 min 17 sec)
Heartbeat CPU 0 instructions: 193500947 cycles: 223924285 heartbeat IPC: 1.573 cumulative IPC: 0.6835 (Simulation time: 00 hr 35 min 20 sec)
Heartbeat CPU 0 instructions: 194000953 cycles: 224574861 heartbeat IPC: 0.7686 cumulative IPC: 0.6838 (Simulation time: 00 hr 35 min 25 sec)
Heartbeat CPU 0 instructions: 194500953 cycles: 225155465 heartbeat IPC: 0.8612 cumulative IPC: 0.6843 (Simulation time: 00 hr 35 min 30 sec)
Heartbeat CPU 0 instructions: 195000953 cycles: 226450679 heartbeat IPC: 0.386 cumulative IPC: 0.6824 (Simulation time: 00 hr 35 min 38 sec)
Heartbeat CPU 0 instructions: 195500954 cycles: 227329408 heartbeat IPC: 0.569 cumulative IPC: 0.682 (Simulation time: 00 hr 35 min 45 sec)
Heartbeat CPU 0 instructions: 196000954 cycles: 227657750 heartbeat IPC: 1.523 cumulative IPC: 0.6833 (Simulation time: 00 hr 35 min 48 sec)
Heartbeat CPU 0 instructions: 196500954 cycles: 228838682 heartbeat IPC: 0.4234 cumulative IPC: 0.6818 (Simulation time: 00 hr 35 min 56 sec)
Heartbeat CPU 0 instructions: 197000955 cycles: 229730641 heartbeat IPC: 0.5606 cumulative IPC: 0.6813 (Simulation time: 00 hr 36 min 02 sec)
Heartbeat CPU 0 instructions: 197500957 cycles: 230869520 heartbeat IPC: 0.439 cumulative IPC: 0.6801 (Simulation time: 00 hr 36 min 10 sec)
Heartbeat CPU 0 instructions: 198000958 cycles: 231610632 heartbeat IPC: 0.6747 cumulative IPC: 0.6801 (Simulation time: 00 hr 36 min 15 sec)
Heartbeat CPU 0 instructions: 198500958 cycles: 232270654 heartbeat IPC: 0.7576 cumulative IPC: 0.6803 (Simulation time: 00 hr 36 min 20 sec)
Heartbeat CPU 0 instructions: 199000958 cycles: 232964220 heartbeat IPC: 0.7209 cumulative IPC: 0.6804 (Simulation time: 00 hr 36 min 26 sec)
Heartbeat CPU 0 instructions: 199500961 cycles: 234166742 heartbeat IPC: 0.4158 cumulative IPC: 0.679 (Simulation time: 00 hr 36 min 34 sec)
Heartbeat CPU 0 instructions: 200000961 cycles: 234883503 heartbeat IPC: 0.6976 cumulative IPC: 0.679 (Simulation time: 00 hr 36 min 39 sec)
Heartbeat CPU 0 instructions: 200500966 cycles: 236085831 heartbeat IPC: 0.4159 cumulative IPC: 0.6776 (Simulation time: 00 hr 36 min 47 sec)
Heartbeat CPU 0 instructions: 201000973 cycles: 237080687 heartbeat IPC: 0.5026 cumulative IPC: 0.6768 (Simulation time: 00 hr 36 min 54 sec)
Heartbeat CPU 0 instructions: 201500973 cycles: 238256756 heartbeat IPC: 0.4251 cumulative IPC: 0.6755 (Simulation time: 00 hr 37 min 02 sec)
Heartbeat CPU 0 instructions: 202000980 cycles: 239063474 heartbeat IPC: 0.6198 cumulative IPC: 0.6753 (Simulation time: 00 hr 37 min 09 sec)
Heartbeat CPU 0 instructions: 202500981 cycles: 240454816 heartbeat IPC: 0.3594 cumulative IPC: 0.6734 (Simulation time: 00 hr 37 min 18 sec)
Heartbeat CPU 0 instructions: 203000981 cycles: 241355108 heartbeat IPC: 0.5554 cumulative IPC: 0.6729 (Simulation time: 00 hr 37 min 24 sec)
Heartbeat CPU 0 instructions: 203500981 cycles: 242412384 heartbeat IPC: 0.4729 cumulative IPC: 0.672 (Simulation time: 00 hr 37 min 31 sec)
Heartbeat CPU 0 instructions: 204000981 cycles: 243500029 heartbeat IPC: 0.4597 cumulative IPC: 0.671 (Simulation time: 00 hr 37 min 39 sec)
Heartbeat CPU 0 instructions: 204500981 cycles: 244474299 heartbeat IPC: 0.5132 cumulative IPC: 0.6703 (Simulation time: 00 hr 37 min 48 sec)
Heartbeat CPU 0 instructions: 205000984 cycles: 245871843 heartbeat IPC: 0.3578 cumulative IPC: 0.6684 (Simulation time: 00 hr 37 min 57 sec)
Heartbeat CPU 0 instructions: 205500985 cycles: 247135225 heartbeat IPC: 0.3958 cumulative IPC: 0.6669 (Simulation time: 00 hr 38 min 05 sec)
Heartbeat CPU 0 instructions: 206000987 cycles: 248288581 heartbeat IPC: 0.4335 cumulative IPC: 0.6658 (Simulation time: 00 hr 38 min 13 sec)
Heartbeat CPU 0 instructions: 206500987 cycles: 249495641 heartbeat IPC: 0.4142 cumulative IPC: 0.6645 (Simulation time: 00 hr 38 min 21 sec)
Heartbeat CPU 0 instructions: 207000987 cycles: 250510140 heartbeat IPC: 0.4929 cumulative IPC: 0.6638 (Simulation time: 00 hr 38 min 28 sec)
Heartbeat CPU 0 instructions: 207500987 cycles: 251721830 heartbeat IPC: 0.4126 cumulative IPC: 0.6625 (Simulation time: 00 hr 38 min 36 sec)
Heartbeat CPU 0 instructions: 208000992 cycles: 252780603 heartbeat IPC: 0.4722 cumulative IPC: 0.6616 (Simulation time: 00 hr 38 min 43 sec)
Heartbeat CPU 0 instructions: 208500998 cycles: 253841887 heartbeat IPC: 0.4711 cumulative IPC: 0.6608 (Simulation time: 00 hr 38 min 50 sec)
Heartbeat CPU 0 instructions: 209001001 cycles: 254905059 heartbeat IPC: 0.4703 cumulative IPC: 0.66 (Simulation time: 00 hr 38 min 57 sec)
Heartbeat CPU 0 instructions: 209501001 cycles: 256051959 heartbeat IPC: 0.436 cumulative IPC: 0.6589 (Simulation time: 00 hr 39 min 05 sec)
Heartbeat CPU 0 instructions: 210001003 cycles: 257190175 heartbeat IPC: 0.4393 cumulative IPC: 0.6579 (Simulation time: 00 hr 39 min 12 sec)
Heartbeat CPU 0 instructions: 210501003 cycles: 258097613 heartbeat IPC: 0.551 cumulative IPC: 0.6575 (Simulation time: 00 hr 39 min 19 sec)
Heartbeat CPU 0 instructions: 211001007 cycles: 258864706 heartbeat IPC: 0.6518 cumulative IPC: 0.6575 (Simulation time: 00 hr 39 min 24 sec)
Heartbeat CPU 0 instructions: 211501007 cycles: 259159101 heartbeat IPC: 1.698 cumulative IPC: 0.6587 (Simulation time: 00 hr 39 min 27 sec)
Heartbeat CPU 0 instructions: 212001007 cycles: 259454207 heartbeat IPC: 1.694 cumulative IPC: 0.6599 (Simulation time: 00 hr 39 min 29 sec)
Heartbeat CPU 0 instructions: 212501008 cycles: 260338694 heartbeat IPC: 0.5653 cumulative IPC: 0.6596 (Simulation time: 00 hr 39 min 36 sec)
Heartbeat CPU 0 instructions: 213001010 cycles: 261796044 heartbeat IPC: 0.3431 cumulative IPC: 0.6577 (Simulation time: 00 hr 39 min 45 sec)
Heartbeat CPU 0 instructions: 213501014 cycles: 262804488 heartbeat IPC: 0.4958 cumulative IPC: 0.6571 (Simulation time: 00 hr 39 min 52 sec)
Heartbeat CPU 0 instructions: 214001014 cycles: 263936512 heartbeat IPC: 0.4417 cumulative IPC: 0.6561 (Simulation time: 00 hr 39 min 59 sec)
Heartbeat CPU 0 instructions: 214501014 cycles: 264690752 heartbeat IPC: 0.6629 cumulative IPC: 0.6561 (Simulation time: 00 hr 40 min 05 sec)
Heartbeat CPU 0 instructions: 215001016 cycles: 265842818 heartbeat IPC: 0.434 cumulative IPC: 0.6551 (Simulation time: 00 hr 40 min 12 sec)
Heartbeat CPU 0 instructions: 215501017 cycles: 266653431 heartbeat IPC: 0.6168 cumulative IPC: 0.655 (Simulation time: 00 hr 40 min 18 sec)
Heartbeat CPU 0 instructions: 216001019 cycles: 267926663 heartbeat IPC: 0.3927 cumulative IPC: 0.6537 (Simulation time: 00 hr 40 min 26 sec)
Heartbeat CPU 0 instructions: 216501026 cycles: 268854867 heartbeat IPC: 0.5387 cumulative IPC: 0.6533 (Simulation time: 00 hr 40 min 32 sec)
Heartbeat CPU 0 instructions: 217001027 cycles: 269574392 heartbeat IPC: 0.6949 cumulative IPC: 0.6534 (Simulation time: 00 hr 40 min 38 sec)
Heartbeat CPU 0 instructions: 217501027 cycles: 270119027 heartbeat IPC: 0.918 cumulative IPC: 0.6539 (Simulation time: 00 hr 40 min 42 sec)
Heartbeat CPU 0 instructions: 218001027 cycles: 271355483 heartbeat IPC: 0.4044 cumulative IPC: 0.6527 (Simulation time: 00 hr 40 min 51 sec)
Heartbeat CPU 0 instructions: 218501030 cycles: 272641095 heartbeat IPC: 0.3889 cumulative IPC: 0.6514 (Simulation time: 00 hr 40 min 59 sec)
Heartbeat CPU 0 instructions: 219001030 cycles: 273799643 heartbeat IPC: 0.4316 cumulative IPC: 0.6505 (Simulation time: 00 hr 41 min 06 sec)
Heartbeat CPU 0 instructions: 219501030 cycles: 274810337 heartbeat IPC: 0.4947 cumulative IPC: 0.6498 (Simulation time: 00 hr 41 min 13 sec)
Heartbeat CPU 0 instructions: 220001031 cycles: 275858356 heartbeat IPC: 0.4771 cumulative IPC: 0.6492 (Simulation time: 00 hr 41 min 20 sec)
Heartbeat CPU 0 instructions: 220501031 cycles: 277197277 heartbeat IPC: 0.3734 cumulative IPC: 0.6478 (Simulation time: 00 hr 41 min 29 sec)
Heartbeat CPU 0 instructions: 221001032 cycles: 278042876 heartbeat IPC: 0.5913 cumulative IPC: 0.6476 (Simulation time: 00 hr 41 min 35 sec)
Heartbeat CPU 0 instructions: 221501034 cycles: 278569632 heartbeat IPC: 0.9492 cumulative IPC: 0.6482 (Simulation time: 00 hr 41 min 39 sec)
Heartbeat CPU 0 instructions: 222001039 cycles: 279640076 heartbeat IPC: 0.4671 cumulative IPC: 0.6474 (Simulation time: 00 hr 41 min 46 sec)
Heartbeat CPU 0 instructions: 222501039 cycles: 280586454 heartbeat IPC: 0.5283 cumulative IPC: 0.647 (Simulation time: 00 hr 41 min 52 sec)
Heartbeat CPU 0 instructions: 223001041 cycles: 281456721 heartbeat IPC: 0.5745 cumulative IPC: 0.6468 (Simulation time: 00 hr 41 min 58 sec)
Heartbeat CPU 0 instructions: 223501047 cycles: 282147935 heartbeat IPC: 0.7234 cumulative IPC: 0.647 (Simulation time: 00 hr 42 min 03 sec)
Heartbeat CPU 0 instructions: 224001052 cycles: 282899949 heartbeat IPC: 0.6649 cumulative IPC: 0.647 (Simulation time: 00 hr 42 min 08 sec)
Heartbeat CPU 0 instructions: 224501058 cycles: 284233458 heartbeat IPC: 0.375 cumulative IPC: 0.6457 (Simulation time: 00 hr 42 min 16 sec)
Heartbeat CPU 0 instructions: 225001058 cycles: 285593793 heartbeat IPC: 0.3676 cumulative IPC: 0.6443 (Simulation time: 00 hr 42 min 25 sec)
Heartbeat CPU 0 instructions: 225501058 cycles: 287129613 heartbeat IPC: 0.3256 cumulative IPC: 0.6425 (Simulation time: 00 hr 42 min 35 sec)
Heartbeat CPU 0 instructions: 226001060 cycles: 288183391 heartbeat IPC: 0.4745 cumulative IPC: 0.6419 (Simulation time: 00 hr 42 min 42 sec)
Heartbeat CPU 0 instructions: 226501065 cycles: 289168784 heartbeat IPC: 0.5074 cumulative IPC: 0.6414 (Simulation time: 00 hr 42 min 48 sec)
Heartbeat CPU 0 instructions: 227001068 cycles: 290311807 heartbeat IPC: 0.4374 cumulative IPC: 0.6405 (Simulation time: 00 hr 42 min 56 sec)
Heartbeat CPU 0 instructions: 227501068 cycles: 291478522 heartbeat IPC: 0.4286 cumulative IPC: 0.6396 (Simulation time: 00 hr 43 min 03 sec)
Heartbeat CPU 0 instructions: 228001068 cycles: 292142900 heartbeat IPC: 0.7526 cumulative IPC: 0.6399 (Simulation time: 00 hr 43 min 08 sec)
Heartbeat CPU 0 instructions: 228501068 cycles: 293035982 heartbeat IPC: 0.5599 cumulative IPC: 0.6397 (Simulation time: 00 hr 43 min 14 sec)
Heartbeat CPU 0 instructions: 229001074 cycles: 294049544 heartbeat IPC: 0.4933 cumulative IPC: 0.6391 (Simulation time: 00 hr 43 min 21 sec)
Heartbeat CPU 0 instructions: 229501074 cycles: 294659085 heartbeat IPC: 0.8203 cumulative IPC: 0.6395 (Simulation time: 00 hr 43 min 25 sec)
Heartbeat CPU 0 instructions: 230001075 cycles: 295283231 heartbeat IPC: 0.8011 cumulative IPC: 0.6399 (Simulation time: 00 hr 43 min 29 sec)
Heartbeat CPU 0 instructions: 230501077 cycles: 296497604 heartbeat IPC: 0.4117 cumulative IPC: 0.6389 (Simulation time: 00 hr 43 min 37 sec)
Heartbeat CPU 0 instructions: 231001080 cycles: 297253499 heartbeat IPC: 0.6615 cumulative IPC: 0.639 (Simulation time: 00 hr 43 min 42 sec)
Heartbeat CPU 0 instructions: 231501080 cycles: 297834430 heartbeat IPC: 0.8607 cumulative IPC: 0.6394 (Simulation time: 00 hr 43 min 47 sec)
Heartbeat CPU 0 instructions: 232001083 cycles: 298879628 heartbeat IPC: 0.4784 cumulative IPC: 0.6388 (Simulation time: 00 hr 43 min 53 sec)
Heartbeat CPU 0 instructions: 232501084 cycles: 299966622 heartbeat IPC: 0.46 cumulative IPC: 0.6381 (Simulation time: 00 hr 44 min 01 sec)
Heartbeat CPU 0 instructions: 233001089 cycles: 301036240 heartbeat IPC: 0.4675 cumulative IPC: 0.6375 (Simulation time: 00 hr 44 min 08 sec)
Heartbeat CPU 0 instructions: 233501091 cycles: 302047237 heartbeat IPC: 0.4946 cumulative IPC: 0.637 (Simulation time: 00 hr 44 min 14 sec)
Heartbeat CPU 0 instructions: 234001096 cycles: 302806577 heartbeat IPC: 0.6585 cumulative IPC: 0.6371 (Simulation time: 00 hr 44 min 19 sec)
Heartbeat CPU 0 instructions: 234501097 cycles: 303738259 heartbeat IPC: 0.5367 cumulative IPC: 0.6367 (Simulation time: 00 hr 44 min 25 sec)
Heartbeat CPU 0 instructions: 235001097 cycles: 304715910 heartbeat IPC: 0.5114 cumulative IPC: 0.6363 (Simulation time: 00 hr 44 min 32 sec)
Heartbeat CPU 0 instructions: 235501097 cycles: 305593291 heartbeat IPC: 0.5699 cumulative IPC: 0.6361 (Simulation time: 00 hr 44 min 38 sec)
Heartbeat CPU 0 instructions: 236001100 cycles: 306280524 heartbeat IPC: 0.7276 cumulative IPC: 0.6363 (Simulation time: 00 hr 44 min 43 sec)
Heartbeat CPU 0 instructions: 236501101 cycles: 307386538 heartbeat IPC: 0.4521 cumulative IPC: 0.6356 (Simulation time: 00 hr 44 min 50 sec)
Heartbeat CPU 0 instructions: 237001103 cycles: 308513557 heartbeat IPC: 0.4437 cumulative IPC: 0.6349 (Simulation time: 00 hr 44 min 58 sec)
Heartbeat CPU 0 instructions: 237501103 cycles: 309664320 heartbeat IPC: 0.4345 cumulative IPC: 0.6341 (Simulation time: 00 hr 45 min 05 sec)
Heartbeat CPU 0 instructions: 238001103 cycles: 310537004 heartbeat IPC: 0.5729 cumulative IPC: 0.6339 (Simulation time: 00 hr 45 min 11 sec)
Heartbeat CPU 0 instructions: 238501106 cycles: 311666745 heartbeat IPC: 0.4426 cumulative IPC: 0.6332 (Simulation time: 00 hr 45 min 18 sec)
Heartbeat CPU 0 instructions: 239001106 cycles: 312628899 heartbeat IPC: 0.5197 cumulative IPC: 0.6329 (Simulation time: 00 hr 45 min 24 sec)
Heartbeat CPU 0 instructions: 239501106 cycles: 314194047 heartbeat IPC: 0.3195 cumulative IPC: 0.6312 (Simulation time: 00 hr 45 min 36 sec)
Heartbeat CPU 0 instructions: 240001109 cycles: 315305333 heartbeat IPC: 0.4499 cumulative IPC: 0.6305 (Simulation time: 00 hr 45 min 43 sec)
Heartbeat CPU 0 instructions: 240501110 cycles: 315650967 heartbeat IPC: 1.447 cumulative IPC: 0.6315 (Simulation time: 00 hr 45 min 46 sec)
Heartbeat CPU 0 instructions: 241001111 cycles: 316270905 heartbeat IPC: 0.8065 cumulative IPC: 0.6318 (Simulation time: 00 hr 45 min 50 sec)
Heartbeat CPU 0 instructions: 241501116 cycles: 316939820 heartbeat IPC: 0.7475 cumulative IPC: 0.6321 (Simulation time: 00 hr 45 min 55 sec)
Heartbeat CPU 0 instructions: 242001119 cycles: 318139943 heartbeat IPC: 0.4166 cumulative IPC: 0.6312 (Simulation time: 00 hr 46 min 02 sec)
Heartbeat CPU 0 instructions: 242501125 cycles: 319417711 heartbeat IPC: 0.3913 cumulative IPC: 0.6302 (Simulation time: 00 hr 46 min 10 sec)
Heartbeat CPU 0 instructions: 243001125 cycles: 320362409 heartbeat IPC: 0.5293 cumulative IPC: 0.6299 (Simulation time: 00 hr 46 min 16 sec)
Heartbeat CPU 0 instructions: 243501125 cycles: 320942796 heartbeat IPC: 0.8615 cumulative IPC: 0.6304 (Simulation time: 00 hr 46 min 20 sec)
Heartbeat CPU 0 instructions: 244001125 cycles: 321891340 heartbeat IPC: 0.5271 cumulative IPC: 0.6301 (Simulation time: 00 hr 46 min 27 sec)
Heartbeat CPU 0 instructions: 244501132 cycles: 323548671 heartbeat IPC: 0.3017 cumulative IPC: 0.6283 (Simulation time: 00 hr 46 min 39 sec)
Heartbeat CPU 0 instructions: 245001132 cycles: 324668753 heartbeat IPC: 0.4464 cumulative IPC: 0.6276 (Simulation time: 00 hr 46 min 46 sec)
Heartbeat CPU 0 instructions: 245501132 cycles: 325798112 heartbeat IPC: 0.4427 cumulative IPC: 0.627 (Simulation time: 00 hr 46 min 54 sec)
Heartbeat CPU 0 instructions: 246001134 cycles: 326770874 heartbeat IPC: 0.514 cumulative IPC: 0.6266 (Simulation time: 00 hr 47 min 00 sec)
Heartbeat CPU 0 instructions: 246501134 cycles: 327449610 heartbeat IPC: 0.7367 cumulative IPC: 0.6269 (Simulation time: 00 hr 47 min 05 sec)
Heartbeat CPU 0 instructions: 247001138 cycles: 328150259 heartbeat IPC: 0.7136 cumulative IPC: 0.627 (Simulation time: 00 hr 47 min 09 sec)
Heartbeat CPU 0 instructions: 247501138 cycles: 329388410 heartbeat IPC: 0.4038 cumulative IPC: 0.6262 (Simulation time: 00 hr 47 min 17 sec)
Heartbeat CPU 0 instructions: 248001140 cycles: 330157916 heartbeat IPC: 0.6498 cumulative IPC: 0.6262 (Simulation time: 00 hr 47 min 22 sec)
Heartbeat CPU 0 instructions: 248501141 cycles: 331326248 heartbeat IPC: 0.428 cumulative IPC: 0.6255 (Simulation time: 00 hr 47 min 30 sec)
Heartbeat CPU 0 instructions: 249001142 cycles: 332335612 heartbeat IPC: 0.4954 cumulative IPC: 0.6251 (Simulation time: 00 hr 47 min 36 sec)
Heartbeat CPU 0 instructions: 249501143 cycles: 333470803 heartbeat IPC: 0.4405 cumulative IPC: 0.6244 (Simulation time: 00 hr 47 min 43 sec)
Simulation finished CPU 0 instructions: 200000000 cycles: 320519444 cumulative IPC: 0.624 (Simulation time: 00 hr 47 min 49 sec)
Simulation complete CPU 0 instructions: 200000000 cycles: 320519444 cumulative IPC: 0.624 (Simulation time: 00 hr 47 min 49 sec)

ChampSim completed all CPUs

=== Simulation ===
CPU 0 runs /local-ssd/ben/dpc4-traces/gtraces_v2/tango_0002.champsim.gz

Region of Interest Statistics

CPU 0 cumulative IPC: 0.624 instructions: 200000000 cycles: 320519444
CPU 0 Branch Prediction Accuracy: 89.4% MPKI: 19.18 Average ROB Occupancy at Mispredict: 24.14
Branch type MPKI
BRANCH_DIRECT_JUMP: 0.5358
BRANCH_INDIRECT: 0.4551
BRANCH_CONDITIONAL: 16.34
BRANCH_DIRECT_CALL: 0.803
BRANCH_INDIRECT_CALL: 0.2726
BRANCH_RETURN: 0.774

cpu0->cpu0_STLB TOTAL        ACCESS:    2373133 HIT:    1730777 MISS:     642356 MSHR_MERGE:          0
cpu0->cpu0_STLB LOAD         ACCESS:    2373133 HIT:    1730777 MISS:     642356 MSHR_MERGE:          0
cpu0->cpu0_STLB RFO          ACCESS:          0 HIT:          0 MISS:          0 MSHR_MERGE:          0
cpu0->cpu0_STLB PREFETCH     ACCESS:          0 HIT:          0 MISS:          0 MSHR_MERGE:          0
cpu0->cpu0_STLB WRITE        ACCESS:          0 HIT:          0 MISS:          0 MSHR_MERGE:          0
cpu0->cpu0_STLB TRANSLATION  ACCESS:          0 HIT:          0 MISS:          0 MSHR_MERGE:          0
cpu0->cpu0_STLB PREFETCH REQUESTED:          0 ISSUED:          0 USEFUL:          0 USELESS:          0
cpu0->cpu0_STLB AVERAGE MISS LATENCY: 136.1 cycles
cpu0->cpu0_L2C TOTAL        ACCESS:   22393351 HIT:   17813996 MISS:    4579355 MSHR_MERGE:    1116446
cpu0->cpu0_L2C LOAD         ACCESS:    4420673 HIT:    3646871 MISS:     773802 MSHR_MERGE:      75362
cpu0->cpu0_L2C RFO          ACCESS:     693025 HIT:     239714 MISS:     453311 MSHR_MERGE:       4726
cpu0->cpu0_L2C PREFETCH     ACCESS:   15330193 HIT:   12236372 MISS:    3093821 MSHR_MERGE:    1036358
cpu0->cpu0_L2C WRITE        ACCESS:    1237490 HIT:    1237449 MISS:         41 MSHR_MERGE:          0
cpu0->cpu0_L2C TRANSLATION  ACCESS:     711970 HIT:     453590 MISS:     258380 MSHR_MERGE:          0
cpu0->cpu0_L2C PREFETCH REQUESTED:   15597585 ISSUED:   14345823 USEFUL:     818163 USELESS:     905754
cpu0->cpu0_L2C AVERAGE MISS LATENCY: 211.8 cycles
cpu0->cpu0_L1I TOTAL        ACCESS:   16506271 HIT:   12920570 MISS:    3585701 MSHR_MERGE:     796242
cpu0->cpu0_L1I LOAD         ACCESS:   16506271 HIT:   12920570 MISS:    3585701 MSHR_MERGE:     796242
cpu0->cpu0_L1I RFO          ACCESS:          0 HIT:          0 MISS:          0 MSHR_MERGE:          0
cpu0->cpu0_L1I PREFETCH     ACCESS:          0 HIT:          0 MISS:          0 MSHR_MERGE:          0
cpu0->cpu0_L1I WRITE        ACCESS:          0 HIT:          0 MISS:          0 MSHR_MERGE:          0
cpu0->cpu0_L1I TRANSLATION  ACCESS:          0 HIT:          0 MISS:          0 MSHR_MERGE:          0
cpu0->cpu0_L1I PREFETCH REQUESTED:          0 ISSUED:          0 USEFUL:          0 USELESS:          0
cpu0->cpu0_L1I AVERAGE MISS LATENCY: 21.58 cycles
cpu0->cpu0_L1D TOTAL        ACCESS:   63263147 HIT:   56341421 MISS:    6921726 MSHR_MERGE:    2901104
cpu0->cpu0_L1D LOAD         ACCESS:   32643353 HIT:   30417206 MISS:    2226147 MSHR_MERGE:     594920
cpu0->cpu0_L1D RFO          ACCESS:          0 HIT:          0 MISS:          0 MSHR_MERGE:          0
cpu0->cpu0_L1D PREFETCH     ACCESS:    2095934 HIT:    1065858 MISS:    1030076 MSHR_MERGE:      45701
cpu0->cpu0_L1D WRITE        ACCESS:   26864952 HIT:   23916672 MISS:    2948280 MSHR_MERGE:    2255230
cpu0->cpu0_L1D TRANSLATION  ACCESS:    1658908 HIT:     941685 MISS:     717223 MSHR_MERGE:       5253
cpu0->cpu0_L1D PREFETCH REQUESTED:    2135049 ISSUED:    2095929 USEFUL:     453458 USELESS:     530828
cpu0->cpu0_L1D AVERAGE MISS LATENCY: 98.82 cycles
cpu0->cpu0_ITLB TOTAL        ACCESS:   13851043 HIT:   13382223 MISS:     468820 MSHR_MERGE:     222529
cpu0->cpu0_ITLB LOAD         ACCESS:   13851043 HIT:   13382223 MISS:     468820 MSHR_MERGE:     222529
cpu0->cpu0_ITLB RFO          ACCESS:          0 HIT:          0 MISS:          0 MSHR_MERGE:          0
cpu0->cpu0_ITLB PREFETCH     ACCESS:          0 HIT:          0 MISS:          0 MSHR_MERGE:          0
cpu0->cpu0_ITLB WRITE        ACCESS:          0 HIT:          0 MISS:          0 MSHR_MERGE:          0
cpu0->cpu0_ITLB TRANSLATION  ACCESS:          0 HIT:          0 MISS:          0 MSHR_MERGE:          0
cpu0->cpu0_ITLB PREFETCH REQUESTED:          0 ISSUED:          0 USEFUL:          0 USELESS:          0
cpu0->cpu0_ITLB AVERAGE MISS LATENCY: 24.27 cycles
cpu0->cpu0_DTLB TOTAL        ACCESS:   58513949 HIT:   54708243 MISS:    3805706 MSHR_MERGE:    1678862
cpu0->cpu0_DTLB LOAD         ACCESS:   58513949 HIT:   54708243 MISS:    3805706 MSHR_MERGE:    1678862
cpu0->cpu0_DTLB RFO          ACCESS:          0 HIT:          0 MISS:          0 MSHR_MERGE:          0
cpu0->cpu0_DTLB PREFETCH     ACCESS:          0 HIT:          0 MISS:          0 MSHR_MERGE:          0
cpu0->cpu0_DTLB WRITE        ACCESS:          0 HIT:          0 MISS:          0 MSHR_MERGE:          0
cpu0->cpu0_DTLB TRANSLATION  ACCESS:          0 HIT:          0 MISS:          0 MSHR_MERGE:          0
cpu0->cpu0_DTLB PREFETCH REQUESTED:          0 ISSUED:          0 USEFUL:          0 USELESS:          0
cpu0->cpu0_DTLB AVERAGE MISS LATENCY: 44.17 cycles
cpu0->LLC TOTAL        ACCESS:    5658828 HIT:    1549129 MISS:    4109699 MSHR_MERGE:     216038
cpu0->LLC LOAD         ACCESS:     698440 HIT:     178668 MISS:     519772 MSHR_MERGE:       2224
cpu0->LLC RFO          ACCESS:     448585 HIT:      20061 MISS:     428524 MSHR_MERGE:        362
cpu0->LLC PREFETCH     ACCESS:    3389733 HIT:     906632 MISS:    2483101 MSHR_MERGE:     213452
cpu0->LLC WRITE        ACCESS:     863690 HIT:     406647 MISS:     457043 MSHR_MERGE:          0
cpu0->LLC TRANSLATION  ACCESS:     258380 HIT:      37121 MISS:     221259 MSHR_MERGE:          0
cpu0->LLC PREFETCH REQUESTED:    1359438 ISSUED:    1332270 USEFUL:     174886 USELESS:     643407
cpu0->LLC AVERAGE MISS LATENCY: 171.5 cycles

DRAM Statistics

Channel 0 RQ ROW_BUFFER_HIT:      56334
  ROW_BUFFER_MISS:    3380198
  AVG DBUS CONGESTED CYCLE: 20.66
Channel 0 WQ ROW_BUFFER_HIT:     205650
  ROW_BUFFER_MISS:     599080
  FULL:        364
Channel 0 REFRESHES ISSUED:      26709
