[VMEM] WARNING: physical memory size is smaller than virtual memory size.

*** ChampSim Multicore Out-of-Order Simulator ***
Warmup Instructions: 50000000
Simulation Instructions: 200000000
Number of CPUs: 1
Page size: 4096
Core 0: /local-ssd/ben/dpc4-traces/gtraces_v2/merced_0004.champsim.gz
 L1D Berti prefetcher
Off-chip DRAM Size: 64 GiB Channels: 1 Width: 64-bit Data Rate: 4807 MT/s
Heartbeat CPU 0 instructions: 500001 cycles: 176697 heartbeat IPC: 2.83 cumulative IPC: 2.83 (Simulation time: 00 hr 00 min 03 sec)
[BTB] WARNING: target of return is a lower address than the corresponding call. This is usually a problem with your trace.
[BTB] WARNING: target of return is a lower address than the corresponding call. This is usually a problem with your trace.
Heartbeat CPU 0 instructions: 1000001 cycles: 307543 heartbeat IPC: 3.821 cumulative IPC: 3.252 (Simulation time: 00 hr 00 min 06 sec)
[BTB] WARNING: target of return is a lower address than the corresponding call. This is usually a problem with your trace.
[BTB] WARNING: target of return is a lower address than the corresponding call. This is usually a problem with your trace.
[BTB] WARNING: target of return is a lower address than the corresponding call. This is usually a problem with your trace.
Heartbeat CPU 0 instructions: 1500004 cycles: 423588 heartbeat IPC: 4.309 cumulative IPC: 3.541 (Simulation time: 00 hr 00 min 08 sec)
[BTB] WARNING: target of return is a lower address than the corresponding call. This is usually a problem with your trace.
[BTB] WARNING: target of return is a lower address than the corresponding call. This is usually a problem with your trace.
Heartbeat CPU 0 instructions: 2000008 cycles: 542016 heartbeat IPC: 4.222 cumulative IPC: 3.69 (Simulation time: 00 hr 00 min 10 sec)
[BTB] WARNING: target of return is a lower address than the corresponding call. This is usually a problem with your trace.
Heartbeat CPU 0 instructions: 2500008 cycles: 732294 heartbeat IPC: 2.628 cumulative IPC: 3.414 (Simulation time: 00 hr 00 min 13 sec)
[BTB] WARNING: target of return is a lower address than the corresponding call. This is usually a problem with your trace.
[BTB] WARNING: target of return is a lower address than the corresponding call. This is usually a problem with your trace.
Heartbeat CPU 0 instructions: 3000009 cycles: 931969 heartbeat IPC: 2.504 cumulative IPC: 3.219 (Simulation time: 00 hr 00 min 17 sec)
Heartbeat CPU 0 instructions: 3500015 cycles: 1169108 heartbeat IPC: 2.108 cumulative IPC: 2.994 (Simulation time: 00 hr 00 min 21 sec)
Heartbeat CPU 0 instructions: 4000019 cycles: 1353073 heartbeat IPC: 2.718 cumulative IPC: 2.956 (Simulation time: 00 hr 00 min 24 sec)
Heartbeat CPU 0 instructions: 4500019 cycles: 1509412 heartbeat IPC: 3.198 cumulative IPC: 2.981 (Simulation time: 00 hr 00 min 27 sec)
Heartbeat CPU 0 instructions: 5000022 cycles: 1631560 heartbeat IPC: 4.093 cumulative IPC: 3.065 (Simulation time: 00 hr 00 min 30 sec)
Heartbeat CPU 0 instructions: 5500027 cycles: 1750055 heartbeat IPC: 4.22 cumulative IPC: 3.143 (Simulation time: 00 hr 00 min 33 sec)
Heartbeat CPU 0 instructions: 6000029 cycles: 1923191 heartbeat IPC: 2.888 cumulative IPC: 3.12 (Simulation time: 00 hr 00 min 36 sec)
Heartbeat CPU 0 instructions: 6500035 cycles: 2091488 heartbeat IPC: 2.971 cumulative IPC: 3.108 (Simulation time: 00 hr 00 min 39 sec)
Heartbeat CPU 0 instructions: 7000037 cycles: 2215124 heartbeat IPC: 4.044 cumulative IPC: 3.16 (Simulation time: 00 hr 00 min 42 sec)
Heartbeat CPU 0 instructions: 7500043 cycles: 2345525 heartbeat IPC: 3.834 cumulative IPC: 3.198 (Simulation time: 00 hr 00 min 45 sec)
Heartbeat CPU 0 instructions: 8000047 cycles: 2478730 heartbeat IPC: 3.754 cumulative IPC: 3.227 (Simulation time: 00 hr 00 min 47 sec)
Heartbeat CPU 0 instructions: 8500051 cycles: 2624686 heartbeat IPC: 3.426 cumulative IPC: 3.239 (Simulation time: 00 hr 00 min 50 sec)
Heartbeat CPU 0 instructions: 9000056 cycles: 2733525 heartbeat IPC: 4.594 cumulative IPC: 3.292 (Simulation time: 00 hr 00 min 52 sec)
Heartbeat CPU 0 instructions: 9500063 cycles: 2840578 heartbeat IPC: 4.671 cumulative IPC: 3.344 (Simulation time: 00 hr 00 min 53 sec)
Heartbeat CPU 0 instructions: 10000070 cycles: 2977044 heartbeat IPC: 3.664 cumulative IPC: 3.359 (Simulation time: 00 hr 00 min 56 sec)
Heartbeat CPU 0 instructions: 10500070 cycles: 3081673 heartbeat IPC: 4.779 cumulative IPC: 3.407 (Simulation time: 00 hr 00 min 57 sec)
Heartbeat CPU 0 instructions: 11000073 cycles: 3218709 heartbeat IPC: 3.649 cumulative IPC: 3.418 (Simulation time: 00 hr 01 min 00 sec)
Heartbeat CPU 0 instructions: 11500080 cycles: 3369897 heartbeat IPC: 3.307 cumulative IPC: 3.413 (Simulation time: 00 hr 01 min 02 sec)
Heartbeat CPU 0 instructions: 12000082 cycles: 3524637 heartbeat IPC: 3.231 cumulative IPC: 3.405 (Simulation time: 00 hr 01 min 06 sec)
Heartbeat CPU 0 instructions: 12500089 cycles: 3685751 heartbeat IPC: 3.103 cumulative IPC: 3.391 (Simulation time: 00 hr 01 min 09 sec)
Heartbeat CPU 0 instructions: 13000092 cycles: 3864951 heartbeat IPC: 2.79 cumulative IPC: 3.364 (Simulation time: 00 hr 01 min 12 sec)
Heartbeat CPU 0 instructions: 13500098 cycles: 3991908 heartbeat IPC: 3.938 cumulative IPC: 3.382 (Simulation time: 00 hr 01 min 14 sec)
Heartbeat CPU 0 instructions: 14000098 cycles: 4132384 heartbeat IPC: 3.559 cumulative IPC: 3.388 (Simulation time: 00 hr 01 min 17 sec)
Heartbeat CPU 0 instructions: 14500099 cycles: 4295993 heartbeat IPC: 3.056 cumulative IPC: 3.375 (Simulation time: 00 hr 01 min 20 sec)
Heartbeat CPU 0 instructions: 15000104 cycles: 4458516 heartbeat IPC: 3.077 cumulative IPC: 3.364 (Simulation time: 00 hr 01 min 24 sec)
Heartbeat CPU 0 instructions: 15500108 cycles: 4598160 heartbeat IPC: 3.581 cumulative IPC: 3.371 (Simulation time: 00 hr 01 min 26 sec)
Heartbeat CPU 0 instructions: 16000109 cycles: 4703912 heartbeat IPC: 4.728 cumulative IPC: 3.401 (Simulation time: 00 hr 01 min 28 sec)
Heartbeat CPU 0 instructions: 16500111 cycles: 4851410 heartbeat IPC: 3.39 cumulative IPC: 3.401 (Simulation time: 00 hr 01 min 31 sec)
Heartbeat CPU 0 instructions: 17000113 cycles: 4978062 heartbeat IPC: 3.948 cumulative IPC: 3.415 (Simulation time: 00 hr 01 min 33 sec)
Heartbeat CPU 0 instructions: 17500117 cycles: 5100779 heartbeat IPC: 4.074 cumulative IPC: 3.431 (Simulation time: 00 hr 01 min 36 sec)
Heartbeat CPU 0 instructions: 18000119 cycles: 5233171 heartbeat IPC: 3.777 cumulative IPC: 3.44 (Simulation time: 00 hr 01 min 39 sec)
Heartbeat CPU 0 instructions: 18500121 cycles: 5387091 heartbeat IPC: 3.248 cumulative IPC: 3.434 (Simulation time: 00 hr 01 min 42 sec)
Heartbeat CPU 0 instructions: 19000121 cycles: 5504364 heartbeat IPC: 4.264 cumulative IPC: 3.452 (Simulation time: 00 hr 01 min 44 sec)
Heartbeat CPU 0 instructions: 19500128 cycles: 5657795 heartbeat IPC: 3.259 cumulative IPC: 3.447 (Simulation time: 00 hr 01 min 47 sec)
Heartbeat CPU 0 instructions: 20000132 cycles: 5768046 heartbeat IPC: 4.535 cumulative IPC: 3.467 (Simulation time: 00 hr 01 min 49 sec)
Heartbeat CPU 0 instructions: 20500138 cycles: 5877645 heartbeat IPC: 4.562 cumulative IPC: 3.488 (Simulation time: 00 hr 01 min 51 sec)
Heartbeat CPU 0 instructions: 21000144 cycles: 5987555 heartbeat IPC: 4.549 cumulative IPC: 3.507 (Simulation time: 00 hr 01 min 52 sec)
Heartbeat CPU 0 instructions: 21500148 cycles: 6142021 heartbeat IPC: 3.237 cumulative IPC: 3.501 (Simulation time: 00 hr 01 min 55 sec)
Heartbeat CPU 0 instructions: 22000152 cycles: 6302352 heartbeat IPC: 3.119 cumulative IPC: 3.491 (Simulation time: 00 hr 01 min 58 sec)
Heartbeat CPU 0 instructions: 22500152 cycles: 6443536 heartbeat IPC: 3.541 cumulative IPC: 3.492 (Simulation time: 00 hr 02 min 01 sec)
Heartbeat CPU 0 instructions: 23000156 cycles: 6571114 heartbeat IPC: 3.919 cumulative IPC: 3.5 (Simulation time: 00 hr 02 min 04 sec)
Heartbeat CPU 0 instructions: 23500160 cycles: 6693704 heartbeat IPC: 4.079 cumulative IPC: 3.511 (Simulation time: 00 hr 02 min 07 sec)
Heartbeat CPU 0 instructions: 24000163 cycles: 6809446 heartbeat IPC: 4.32 cumulative IPC: 3.525 (Simulation time: 00 hr 02 min 09 sec)
Heartbeat CPU 0 instructions: 24500166 cycles: 6938626 heartbeat IPC: 3.871 cumulative IPC: 3.531 (Simulation time: 00 hr 02 min 11 sec)
Heartbeat CPU 0 instructions: 25000166 cycles: 7077030 heartbeat IPC: 3.613 cumulative IPC: 3.533 (Simulation time: 00 hr 02 min 14 sec)
Heartbeat CPU 0 instructions: 25500170 cycles: 7232464 heartbeat IPC: 3.217 cumulative IPC: 3.526 (Simulation time: 00 hr 02 min 17 sec)
Heartbeat CPU 0 instructions: 26000175 cycles: 7362881 heartbeat IPC: 3.834 cumulative IPC: 3.531 (Simulation time: 00 hr 02 min 20 sec)
Heartbeat CPU 0 instructions: 26500175 cycles: 7469755 heartbeat IPC: 4.678 cumulative IPC: 3.548 (Simulation time: 00 hr 02 min 21 sec)
Heartbeat CPU 0 instructions: 27000178 cycles: 7594322 heartbeat IPC: 4.014 cumulative IPC: 3.555 (Simulation time: 00 hr 02 min 24 sec)
Heartbeat CPU 0 instructions: 27500183 cycles: 7747256 heartbeat IPC: 3.269 cumulative IPC: 3.55 (Simulation time: 00 hr 02 min 27 sec)
Heartbeat CPU 0 instructions: 28000187 cycles: 7876287 heartbeat IPC: 3.875 cumulative IPC: 3.555 (Simulation time: 00 hr 02 min 30 sec)
Heartbeat CPU 0 instructions: 28500188 cycles: 8019202 heartbeat IPC: 3.499 cumulative IPC: 3.554 (Simulation time: 00 hr 02 min 32 sec)
Heartbeat CPU 0 instructions: 29000193 cycles: 8138890 heartbeat IPC: 4.178 cumulative IPC: 3.563 (Simulation time: 00 hr 02 min 35 sec)
Heartbeat CPU 0 instructions: 29500196 cycles: 8265221 heartbeat IPC: 3.958 cumulative IPC: 3.569 (Simulation time: 00 hr 02 min 37 sec)
Heartbeat CPU 0 instructions: 30000198 cycles: 8381063 heartbeat IPC: 4.316 cumulative IPC: 3.58 (Simulation time: 00 hr 02 min 39 sec)
Heartbeat CPU 0 instructions: 30500198 cycles: 8488928 heartbeat IPC: 4.635 cumulative IPC: 3.593 (Simulation time: 00 hr 02 min 41 sec)
Heartbeat CPU 0 instructions: 31000198 cycles: 8638284 heartbeat IPC: 3.348 cumulative IPC: 3.589 (Simulation time: 00 hr 02 min 44 sec)
Heartbeat CPU 0 instructions: 31500201 cycles: 8753563 heartbeat IPC: 4.337 cumulative IPC: 3.599 (Simulation time: 00 hr 02 min 46 sec)
Heartbeat CPU 0 instructions: 32000206 cycles: 8876077 heartbeat IPC: 4.081 cumulative IPC: 3.605 (Simulation time: 00 hr 02 min 49 sec)
Heartbeat CPU 0 instructions: 32500210 cycles: 9028316 heartbeat IPC: 3.284 cumulative IPC: 3.6 (Simulation time: 00 hr 02 min 52 sec)
Heartbeat CPU 0 instructions: 33000217 cycles: 9135780 heartbeat IPC: 4.653 cumulative IPC: 3.612 (Simulation time: 00 hr 02 min 54 sec)
Heartbeat CPU 0 instructions: 33500222 cycles: 9295582 heartbeat IPC: 3.129 cumulative IPC: 3.604 (Simulation time: 00 hr 02 min 57 sec)
Heartbeat CPU 0 instructions: 34000224 cycles: 9417053 heartbeat IPC: 4.116 cumulative IPC: 3.61 (Simulation time: 00 hr 03 min 00 sec)
Heartbeat CPU 0 instructions: 34500227 cycles: 9559223 heartbeat IPC: 3.517 cumulative IPC: 3.609 (Simulation time: 00 hr 03 min 03 sec)
Heartbeat CPU 0 instructions: 35000228 cycles: 9666430 heartbeat IPC: 4.664 cumulative IPC: 3.621 (Simulation time: 00 hr 03 min 05 sec)
Heartbeat CPU 0 instructions: 35500234 cycles: 9775841 heartbeat IPC: 4.57 cumulative IPC: 3.631 (Simulation time: 00 hr 03 min 07 sec)
Heartbeat CPU 0 instructions: 36000236 cycles: 9879648 heartbeat IPC: 4.817 cumulative IPC: 3.644 (Simulation time: 00 hr 03 min 09 sec)
Heartbeat CPU 0 instructions: 36500238 cycles: 10031674 heartbeat IPC: 3.289 cumulative IPC: 3.638 (Simulation time: 00 hr 03 min 12 sec)
Heartbeat CPU 0 instructions: 37000240 cycles: 10195095 heartbeat IPC: 3.06 cumulative IPC: 3.629 (Simulation time: 00 hr 03 min 16 sec)
Heartbeat CPU 0 instructions: 37500244 cycles: 10363210 heartbeat IPC: 2.974 cumulative IPC: 3.619 (Simulation time: 00 hr 03 min 19 sec)
Heartbeat CPU 0 instructions: 38000248 cycles: 10510392 heartbeat IPC: 3.397 cumulative IPC: 3.615 (Simulation time: 00 hr 03 min 22 sec)
Heartbeat CPU 0 instructions: 38500255 cycles: 10650594 heartbeat IPC: 3.566 cumulative IPC: 3.615 (Simulation time: 00 hr 03 min 25 sec)
Heartbeat CPU 0 instructions: 39000258 cycles: 10787836 heartbeat IPC: 3.643 cumulative IPC: 3.615 (Simulation time: 00 hr 03 min 28 sec)
Heartbeat CPU 0 instructions: 39500260 cycles: 10893912 heartbeat IPC: 4.714 cumulative IPC: 3.626 (Simulation time: 00 hr 03 min 30 sec)
Heartbeat CPU 0 instructions: 40000267 cycles: 11008318 heartbeat IPC: 4.37 cumulative IPC: 3.634 (Simulation time: 00 hr 03 min 32 sec)
Heartbeat CPU 0 instructions: 40500267 cycles: 11134933 heartbeat IPC: 3.949 cumulative IPC: 3.637 (Simulation time: 00 hr 03 min 35 sec)
Heartbeat CPU 0 instructions: 41000273 cycles: 11265211 heartbeat IPC: 3.838 cumulative IPC: 3.64 (Simulation time: 00 hr 03 min 37 sec)
Heartbeat CPU 0 instructions: 41500276 cycles: 11393966 heartbeat IPC: 3.883 cumulative IPC: 3.642 (Simulation time: 00 hr 03 min 40 sec)
Heartbeat CPU 0 instructions: 42000276 cycles: 11534201 heartbeat IPC: 3.565 cumulative IPC: 3.641 (Simulation time: 00 hr 03 min 43 sec)
Heartbeat CPU 0 instructions: 42500281 cycles: 11690159 heartbeat IPC: 3.206 cumulative IPC: 3.636 (Simulation time: 00 hr 03 min 46 sec)
Heartbeat CPU 0 instructions: 43000285 cycles: 11832786 heartbeat IPC: 3.506 cumulative IPC: 3.634 (Simulation time: 00 hr 03 min 49 sec)
Heartbeat CPU 0 instructions: 43500290 cycles: 11973784 heartbeat IPC: 3.546 cumulative IPC: 3.633 (Simulation time: 00 hr 03 min 52 sec)
Heartbeat CPU 0 instructions: 44000295 cycles: 12101922 heartbeat IPC: 3.902 cumulative IPC: 3.636 (Simulation time: 00 hr 03 min 54 sec)
Heartbeat CPU 0 instructions: 44500296 cycles: 12219301 heartbeat IPC: 4.26 cumulative IPC: 3.642 (Simulation time: 00 hr 03 min 56 sec)
Heartbeat CPU 0 instructions: 45000303 cycles: 12329395 heartbeat IPC: 4.542 cumulative IPC: 3.65 (Simulation time: 00 hr 03 min 58 sec)
Heartbeat CPU 0 instructions: 45500310 cycles: 12462914 heartbeat IPC: 3.745 cumulative IPC: 3.651 (Simulation time: 00 hr 04 min 00 sec)
Heartbeat CPU 0 instructions: 46000310 cycles: 12576242 heartbeat IPC: 4.412 cumulative IPC: 3.658 (Simulation time: 00 hr 04 min 02 sec)
Heartbeat CPU 0 instructions: 46500311 cycles: 12711251 heartbeat IPC: 3.703 cumulative IPC: 3.658 (Simulation time: 00 hr 04 min 05 sec)
Heartbeat CPU 0 instructions: 47000313 cycles: 12839006 heartbeat IPC: 3.914 cumulative IPC: 3.661 (Simulation time: 00 hr 04 min 08 sec)
Heartbeat CPU 0 instructions: 47500319 cycles: 13014161 heartbeat IPC: 2.855 cumulative IPC: 3.65 (Simulation time: 00 hr 04 min 11 sec)
Heartbeat CPU 0 instructions: 48000321 cycles: 13141681 heartbeat IPC: 3.921 cumulative IPC: 3.653 (Simulation time: 00 hr 04 min 14 sec)
Heartbeat CPU 0 instructions: 48500322 cycles: 13270275 heartbeat IPC: 3.888 cumulative IPC: 3.655 (Simulation time: 00 hr 04 min 16 sec)
Heartbeat CPU 0 instructions: 49000324 cycles: 13382431 heartbeat IPC: 4.458 cumulative IPC: 3.662 (Simulation time: 00 hr 04 min 18 sec)
Heartbeat CPU 0 instructions: 49500324 cycles: 13486419 heartbeat IPC: 4.808 cumulative IPC: 3.67 (Simulation time: 00 hr 04 min 20 sec)
Warmup finished CPU 0 instructions: 50000007 cycles: 13606526 cumulative IPC: 3.675 (Simulation time: 00 hr 04 min 22 sec)
Warmup complete CPU 0 instructions: 50000007 cycles: 13606526 cumulative IPC: 3.675 (Simulation time: 00 hr 04 min 22 sec)
Heartbeat CPU 0 instructions: 50000328 cycles: 13606739 heartbeat IPC: 4.156 cumulative IPC: 1.507 (Simulation time: 00 hr 04 min 22 sec)
Heartbeat CPU 0 instructions: 50500331 cycles: 14357204 heartbeat IPC: 0.6663 cumulative IPC: 0.6665 (Simulation time: 00 hr 04 min 28 sec)
Heartbeat CPU 0 instructions: 51000332 cycles: 15102465 heartbeat IPC: 0.6709 cumulative IPC: 0.6687 (Simulation time: 00 hr 04 min 34 sec)
Heartbeat CPU 0 instructions: 51500335 cycles: 16724703 heartbeat IPC: 0.3082 cumulative IPC: 0.4812 (Simulation time: 00 hr 04 min 47 sec)
Heartbeat CPU 0 instructions: 52000338 cycles: 17591845 heartbeat IPC: 0.5766 cumulative IPC: 0.5019 (Simulation time: 00 hr 04 min 54 sec)
Heartbeat CPU 0 instructions: 52500339 cycles: 17931234 heartbeat IPC: 1.473 cumulative IPC: 0.5782 (Simulation time: 00 hr 04 min 57 sec)
Heartbeat CPU 0 instructions: 53000339 cycles: 18376847 heartbeat IPC: 1.122 cumulative IPC: 0.629 (Simulation time: 00 hr 05 min 01 sec)
Heartbeat CPU 0 instructions: 53500340 cycles: 19213213 heartbeat IPC: 0.5978 cumulative IPC: 0.6243 (Simulation time: 00 hr 05 min 08 sec)
Heartbeat CPU 0 instructions: 54000340 cycles: 20133528 heartbeat IPC: 0.5433 cumulative IPC: 0.6129 (Simulation time: 00 hr 05 min 16 sec)
Heartbeat CPU 0 instructions: 54500340 cycles: 20693205 heartbeat IPC: 0.8934 cumulative IPC: 0.635 (Simulation time: 00 hr 05 min 20 sec)
Heartbeat CPU 0 instructions: 55000341 cycles: 21315654 heartbeat IPC: 0.8033 cumulative IPC: 0.6486 (Simulation time: 00 hr 05 min 26 sec)
Heartbeat CPU 0 instructions: 55500345 cycles: 22093134 heartbeat IPC: 0.6431 cumulative IPC: 0.6481 (Simulation time: 00 hr 05 min 33 sec)
Heartbeat CPU 0 instructions: 56000346 cycles: 22794346 heartbeat IPC: 0.7131 cumulative IPC: 0.6531 (Simulation time: 00 hr 05 min 39 sec)
Heartbeat CPU 0 instructions: 56500346 cycles: 23290554 heartbeat IPC: 1.008 cumulative IPC: 0.6712 (Simulation time: 00 hr 05 min 44 sec)
Heartbeat CPU 0 instructions: 57000350 cycles: 23668497 heartbeat IPC: 1.323 cumulative IPC: 0.6957 (Simulation time: 00 hr 05 min 48 sec)
Heartbeat CPU 0 instructions: 57500352 cycles: 23839681 heartbeat IPC: 2.921 cumulative IPC: 0.7329 (Simulation time: 00 hr 05 min 50 sec)
Heartbeat CPU 0 instructions: 58000355 cycles: 24008453 heartbeat IPC: 2.963 cumulative IPC: 0.7691 (Simulation time: 00 hr 05 min 52 sec)
Heartbeat CPU 0 instructions: 58500356 cycles: 24165552 heartbeat IPC: 3.183 cumulative IPC: 0.805 (Simulation time: 00 hr 05 min 54 sec)
Heartbeat CPU 0 instructions: 59000360 cycles: 24352664 heartbeat IPC: 2.672 cumulative IPC: 0.8375 (Simulation time: 00 hr 05 min 56 sec)
Heartbeat CPU 0 instructions: 59500363 cycles: 25212599 heartbeat IPC: 0.5814 cumulative IPC: 0.8186 (Simulation time: 00 hr 06 min 03 sec)
Heartbeat CPU 0 instructions: 60000370 cycles: 25801062 heartbeat IPC: 0.8497 cumulative IPC: 0.8201 (Simulation time: 00 hr 06 min 09 sec)
Heartbeat CPU 0 instructions: 60500372 cycles: 26418402 heartbeat IPC: 0.8099 cumulative IPC: 0.8196 (Simulation time: 00 hr 06 min 14 sec)
Heartbeat CPU 0 instructions: 61000373 cycles: 26776139 heartbeat IPC: 1.398 cumulative IPC: 0.8353 (Simulation time: 00 hr 06 min 18 sec)
Heartbeat CPU 0 instructions: 61500375 cycles: 27130303 heartbeat IPC: 1.412 cumulative IPC: 0.8504 (Simulation time: 00 hr 06 min 22 sec)
Heartbeat CPU 0 instructions: 62000376 cycles: 27502436 heartbeat IPC: 1.344 cumulative IPC: 0.8636 (Simulation time: 00 hr 06 min 26 sec)
Heartbeat CPU 0 instructions: 62500379 cycles: 28297482 heartbeat IPC: 0.6289 cumulative IPC: 0.8509 (Simulation time: 00 hr 06 min 33 sec)
Heartbeat CPU 0 instructions: 63000381 cycles: 29407929 heartbeat IPC: 0.4503 cumulative IPC: 0.8227 (Simulation time: 00 hr 06 min 42 sec)
Heartbeat CPU 0 instructions: 63500381 cycles: 30455605 heartbeat IPC: 0.4772 cumulative IPC: 0.8013 (Simulation time: 00 hr 06 min 50 sec)
Heartbeat CPU 0 instructions: 64000384 cycles: 32213573 heartbeat IPC: 0.2844 cumulative IPC: 0.7524 (Simulation time: 00 hr 07 min 04 sec)
Heartbeat CPU 0 instructions: 64500384 cycles: 33641868 heartbeat IPC: 0.3501 cumulative IPC: 0.7237 (Simulation time: 00 hr 07 min 16 sec)
Heartbeat CPU 0 instructions: 65000384 cycles: 34359054 heartbeat IPC: 0.6972 cumulative IPC: 0.7228 (Simulation time: 00 hr 07 min 23 sec)
Heartbeat CPU 0 instructions: 65500389 cycles: 34942779 heartbeat IPC: 0.8566 cumulative IPC: 0.7265 (Simulation time: 00 hr 07 min 28 sec)
Heartbeat CPU 0 instructions: 66000391 cycles: 36054730 heartbeat IPC: 0.4497 cumulative IPC: 0.7128 (Simulation time: 00 hr 07 min 37 sec)
Heartbeat CPU 0 instructions: 66500391 cycles: 37349932 heartbeat IPC: 0.386 cumulative IPC: 0.6949 (Simulation time: 00 hr 07 min 48 sec)
Heartbeat CPU 0 instructions: 67000393 cycles: 38652476 heartbeat IPC: 0.3839 cumulative IPC: 0.6788 (Simulation time: 00 hr 07 min 58 sec)
Heartbeat CPU 0 instructions: 67500395 cycles: 40106869 heartbeat IPC: 0.3438 cumulative IPC: 0.6604 (Simulation time: 00 hr 08 min 10 sec)
Heartbeat CPU 0 instructions: 68000395 cycles: 40785775 heartbeat IPC: 0.7365 cumulative IPC: 0.6623 (Simulation time: 00 hr 08 min 16 sec)
Heartbeat CPU 0 instructions: 68500395 cycles: 42196638 heartbeat IPC: 0.3544 cumulative IPC: 0.6471 (Simulation time: 00 hr 08 min 27 sec)
Heartbeat CPU 0 instructions: 69000402 cycles: 42733658 heartbeat IPC: 0.9311 cumulative IPC: 0.6523 (Simulation time: 00 hr 08 min 32 sec)
Heartbeat CPU 0 instructions: 69500405 cycles: 43137451 heartbeat IPC: 1.238 cumulative IPC: 0.6603 (Simulation time: 00 hr 08 min 36 sec)
Heartbeat CPU 0 instructions: 70000405 cycles: 43603017 heartbeat IPC: 1.074 cumulative IPC: 0.6668 (Simulation time: 00 hr 08 min 41 sec)
Heartbeat CPU 0 instructions: 70500406 cycles: 43955676 heartbeat IPC: 1.418 cumulative IPC: 0.6755 (Simulation time: 00 hr 08 min 44 sec)
Heartbeat CPU 0 instructions: 71000410 cycles: 44320052 heartbeat IPC: 1.372 cumulative IPC: 0.6838 (Simulation time: 00 hr 08 min 48 sec)
Heartbeat CPU 0 instructions: 71500410 cycles: 45040066 heartbeat IPC: 0.6944 cumulative IPC: 0.684 (Simulation time: 00 hr 08 min 54 sec)
Heartbeat CPU 0 instructions: 72000411 cycles: 45180809 heartbeat IPC: 3.553 cumulative IPC: 0.6968 (Simulation time: 00 hr 08 min 56 sec)
Heartbeat CPU 0 instructions: 72500413 cycles: 45330544 heartbeat IPC: 3.339 cumulative IPC: 0.7093 (Simulation time: 00 hr 08 min 58 sec)
Heartbeat CPU 0 instructions: 73000419 cycles: 45473603 heartbeat IPC: 3.495 cumulative IPC: 0.7218 (Simulation time: 00 hr 09 min 00 sec)
Heartbeat CPU 0 instructions: 73500420 cycles: 45651911 heartbeat IPC: 2.804 cumulative IPC: 0.7333 (Simulation time: 00 hr 09 min 02 sec)
Heartbeat CPU 0 instructions: 74000421 cycles: 46485460 heartbeat IPC: 0.5998 cumulative IPC: 0.73 (Simulation time: 00 hr 09 min 09 sec)
Heartbeat CPU 0 instructions: 74500424 cycles: 47266284 heartbeat IPC: 0.6404 cumulative IPC: 0.7279 (Simulation time: 00 hr 09 min 16 sec)
Heartbeat CPU 0 instructions: 75000424 cycles: 48117018 heartbeat IPC: 0.5877 cumulative IPC: 0.7244 (Simulation time: 00 hr 09 min 23 sec)
Heartbeat CPU 0 instructions: 75500427 cycles: 49503472 heartbeat IPC: 0.3606 cumulative IPC: 0.7104 (Simulation time: 00 hr 09 min 34 sec)
Heartbeat CPU 0 instructions: 76000429 cycles: 50158081 heartbeat IPC: 0.7638 cumulative IPC: 0.7113 (Simulation time: 00 hr 09 min 40 sec)
Heartbeat CPU 0 instructions: 76500434 cycles: 50611929 heartbeat IPC: 1.102 cumulative IPC: 0.7161 (Simulation time: 00 hr 09 min 44 sec)
Heartbeat CPU 0 instructions: 77000440 cycles: 50900141 heartbeat IPC: 1.735 cumulative IPC: 0.724 (Simulation time: 00 hr 09 min 47 sec)
Heartbeat CPU 0 instructions: 77500444 cycles: 51195564 heartbeat IPC: 1.693 cumulative IPC: 0.7316 (Simulation time: 00 hr 09 min 51 sec)
Heartbeat CPU 0 instructions: 78000446 cycles: 51414096 heartbeat IPC: 2.288 cumulative IPC: 0.7406 (Simulation time: 00 hr 09 min 54 sec)
Heartbeat CPU 0 instructions: 78500446 cycles: 52296945 heartbeat IPC: 0.5663 cumulative IPC: 0.7366 (Simulation time: 00 hr 10 min 02 sec)
Heartbeat CPU 0 instructions: 79000446 cycles: 53467288 heartbeat IPC: 0.4272 cumulative IPC: 0.7275 (Simulation time: 00 hr 10 min 10 sec)
Heartbeat CPU 0 instructions: 79500446 cycles: 54027189 heartbeat IPC: 0.893 cumulative IPC: 0.7298 (Simulation time: 00 hr 10 min 16 sec)
Heartbeat CPU 0 instructions: 80000446 cycles: 54570525 heartbeat IPC: 0.9202 cumulative IPC: 0.7324 (Simulation time: 00 hr 10 min 21 sec)
Heartbeat CPU 0 instructions: 80500446 cycles: 55776768 heartbeat IPC: 0.4145 cumulative IPC: 0.7233 (Simulation time: 00 hr 10 min 30 sec)
Heartbeat CPU 0 instructions: 81000448 cycles: 56414330 heartbeat IPC: 0.7842 cumulative IPC: 0.7242 (Simulation time: 00 hr 10 min 36 sec)
Heartbeat CPU 0 instructions: 81500450 cycles: 56879696 heartbeat IPC: 1.074 cumulative IPC: 0.7279 (Simulation time: 00 hr 10 min 41 sec)
Heartbeat CPU 0 instructions: 82000450 cycles: 57288553 heartbeat IPC: 1.223 cumulative IPC: 0.7326 (Simulation time: 00 hr 10 min 45 sec)
Heartbeat CPU 0 instructions: 82500457 cycles: 57759416 heartbeat IPC: 1.062 cumulative IPC: 0.7361 (Simulation time: 00 hr 10 min 50 sec)
Heartbeat CPU 0 instructions: 83000457 cycles: 58163471 heartbeat IPC: 1.237 cumulative IPC: 0.7406 (Simulation time: 00 hr 10 min 54 sec)
Heartbeat CPU 0 instructions: 83500457 cycles: 58648995 heartbeat IPC: 1.03 cumulative IPC: 0.7438 (Simulation time: 00 hr 10 min 59 sec)
Heartbeat CPU 0 instructions: 84000460 cycles: 59578120 heartbeat IPC: 0.5381 cumulative IPC: 0.7396 (Simulation time: 00 hr 11 min 06 sec)
Heartbeat CPU 0 instructions: 84500464 cycles: 60828234 heartbeat IPC: 0.4 cumulative IPC: 0.7306 (Simulation time: 00 hr 11 min 16 sec)
Heartbeat CPU 0 instructions: 85000464 cycles: 62090019 heartbeat IPC: 0.3963 cumulative IPC: 0.7219 (Simulation time: 00 hr 11 min 27 sec)
Heartbeat CPU 0 instructions: 85500464 cycles: 63282672 heartbeat IPC: 0.4192 cumulative IPC: 0.7146 (Simulation time: 00 hr 11 min 36 sec)
Heartbeat CPU 0 instructions: 86000464 cycles: 64898059 heartbeat IPC: 0.3095 cumulative IPC: 0.7019 (Simulation time: 00 hr 11 min 49 sec)
Heartbeat CPU 0 instructions: 86500467 cycles: 65970673 heartbeat IPC: 0.4662 cumulative IPC: 0.6971 (Simulation time: 00 hr 11 min 58 sec)
Heartbeat CPU 0 instructions: 87000473 cycles: 66954105 heartbeat IPC: 0.5084 cumulative IPC: 0.6936 (Simulation time: 00 hr 12 min 06 sec)
Heartbeat CPU 0 instructions: 87500473 cycles: 67903430 heartbeat IPC: 0.5267 cumulative IPC: 0.6907 (Simulation time: 00 hr 12 min 14 sec)
Heartbeat CPU 0 instructions: 88000474 cycles: 68535631 heartbeat IPC: 0.7909 cumulative IPC: 0.6918 (Simulation time: 00 hr 12 min 20 sec)
Heartbeat CPU 0 instructions: 88500477 cycles: 68890258 heartbeat IPC: 1.41 cumulative IPC: 0.6964 (Simulation time: 00 hr 12 min 23 sec)
Heartbeat CPU 0 instructions: 89000477 cycles: 69245510 heartbeat IPC: 1.407 cumulative IPC: 0.701 (Simulation time: 00 hr 12 min 26 sec)
Heartbeat CPU 0 instructions: 89500477 cycles: 69613826 heartbeat IPC: 1.358 cumulative IPC: 0.7053 (Simulation time: 00 hr 12 min 30 sec)
Heartbeat CPU 0 instructions: 90000479 cycles: 69853349 heartbeat IPC: 2.087 cumulative IPC: 0.7112 (Simulation time: 00 hr 12 min 33 sec)
Heartbeat CPU 0 instructions: 90500481 cycles: 70111286 heartbeat IPC: 1.938 cumulative IPC: 0.7168 (Simulation time: 00 hr 12 min 36 sec)
Heartbeat CPU 0 instructions: 91000481 cycles: 70400758 heartbeat IPC: 1.727 cumulative IPC: 0.7219 (Simulation time: 00 hr 12 min 39 sec)
Heartbeat CPU 0 instructions: 91500482 cycles: 70680376 heartbeat IPC: 1.788 cumulative IPC: 0.7271 (Simulation time: 00 hr 12 min 43 sec)
Heartbeat CPU 0 instructions: 92000482 cycles: 70970909 heartbeat IPC: 1.721 cumulative IPC: 0.7322 (Simulation time: 00 hr 12 min 47 sec)
Heartbeat CPU 0 instructions: 92500483 cycles: 71231357 heartbeat IPC: 1.92 cumulative IPC: 0.7375 (Simulation time: 00 hr 12 min 50 sec)
Heartbeat CPU 0 instructions: 93000483 cycles: 71551162 heartbeat IPC: 1.563 cumulative IPC: 0.7421 (Simulation time: 00 hr 12 min 53 sec)
Heartbeat CPU 0 instructions: 93500484 cycles: 71818796 heartbeat IPC: 1.868 cumulative IPC: 0.7473 (Simulation time: 00 hr 12 min 56 sec)
Heartbeat CPU 0 instructions: 94000486 cycles: 72077904 heartbeat IPC: 1.93 cumulative IPC: 0.7525 (Simulation time: 00 hr 12 min 59 sec)
Heartbeat CPU 0 instructions: 94500489 cycles: 72432549 heartbeat IPC: 1.41 cumulative IPC: 0.7565 (Simulation time: 00 hr 13 min 02 sec)
Heartbeat CPU 0 instructions: 95000493 cycles: 72728652 heartbeat IPC: 1.689 cumulative IPC: 0.7611 (Simulation time: 00 hr 13 min 06 sec)
Heartbeat CPU 0 instructions: 95500496 cycles: 73122608 heartbeat IPC: 1.269 cumulative IPC: 0.7645 (Simulation time: 00 hr 13 min 10 sec)
Heartbeat CPU 0 instructions: 96000499 cycles: 74071124 heartbeat IPC: 0.5271 cumulative IPC: 0.7608 (Simulation time: 00 hr 13 min 18 sec)
Heartbeat CPU 0 instructions: 96500501 cycles: 74658159 heartbeat IPC: 0.8517 cumulative IPC: 0.7617 (Simulation time: 00 hr 13 min 24 sec)
Heartbeat CPU 0 instructions: 97000505 cycles: 74911943 heartbeat IPC: 1.97 cumulative IPC: 0.7667 (Simulation time: 00 hr 13 min 27 sec)
Heartbeat CPU 0 instructions: 97500506 cycles: 75144113 heartbeat IPC: 2.154 cumulative IPC: 0.7719 (Simulation time: 00 hr 13 min 30 sec)
Heartbeat CPU 0 instructions: 98000509 cycles: 75372993 heartbeat IPC: 2.185 cumulative IPC: 0.7771 (Simulation time: 00 hr 13 min 33 sec)
Heartbeat CPU 0 instructions: 98500510 cycles: 75599090 heartbeat IPC: 2.211 cumulative IPC: 0.7824 (Simulation time: 00 hr 13 min 37 sec)
Heartbeat CPU 0 instructions: 99000511 cycles: 75829417 heartbeat IPC: 2.171 cumulative IPC: 0.7875 (Simulation time: 00 hr 13 min 40 sec)
Heartbeat CPU 0 instructions: 99500513 cycles: 76062529 heartbeat IPC: 2.145 cumulative IPC: 0.7926 (Simulation time: 00 hr 13 min 43 sec)
Heartbeat CPU 0 instructions: 100000513 cycles: 77324205 heartbeat IPC: 0.3963 cumulative IPC: 0.7847 (Simulation time: 00 hr 13 min 54 sec)
Heartbeat CPU 0 instructions: 100500518 cycles: 78677171 heartbeat IPC: 0.3696 cumulative IPC: 0.7761 (Simulation time: 00 hr 14 min 05 sec)
Heartbeat CPU 0 instructions: 101000518 cycles: 79875339 heartbeat IPC: 0.4173 cumulative IPC: 0.7696 (Simulation time: 00 hr 14 min 14 sec)
Heartbeat CPU 0 instructions: 101500521 cycles: 80704183 heartbeat IPC: 0.6033 cumulative IPC: 0.7675 (Simulation time: 00 hr 14 min 21 sec)
Heartbeat CPU 0 instructions: 102000526 cycles: 82328491 heartbeat IPC: 0.3078 cumulative IPC: 0.7567 (Simulation time: 00 hr 14 min 34 sec)
Heartbeat CPU 0 instructions: 102500530 cycles: 83694741 heartbeat IPC: 0.366 cumulative IPC: 0.7491 (Simulation time: 00 hr 14 min 45 sec)
Heartbeat CPU 0 instructions: 103000533 cycles: 84867850 heartbeat IPC: 0.4262 cumulative IPC: 0.7437 (Simulation time: 00 hr 14 min 55 sec)
Heartbeat CPU 0 instructions: 103500535 cycles: 85899870 heartbeat IPC: 0.4845 cumulative IPC: 0.74 (Simulation time: 00 hr 15 min 03 sec)
Heartbeat CPU 0 instructions: 104000535 cycles: 86924159 heartbeat IPC: 0.4881 cumulative IPC: 0.7365 (Simulation time: 00 hr 15 min 12 sec)
Heartbeat CPU 0 instructions: 104500541 cycles: 87737731 heartbeat IPC: 0.6146 cumulative IPC: 0.7352 (Simulation time: 00 hr 15 min 19 sec)
Heartbeat CPU 0 instructions: 105000542 cycles: 88712868 heartbeat IPC: 0.5127 cumulative IPC: 0.7323 (Simulation time: 00 hr 15 min 27 sec)
Heartbeat CPU 0 instructions: 105500543 cycles: 89024418 heartbeat IPC: 1.605 cumulative IPC: 0.7359 (Simulation time: 00 hr 15 min 30 sec)
Heartbeat CPU 0 instructions: 106000548 cycles: 89547965 heartbeat IPC: 0.955 cumulative IPC: 0.7374 (Simulation time: 00 hr 15 min 35 sec)
Heartbeat CPU 0 instructions: 106500548 cycles: 89793091 heartbeat IPC: 2.04 cumulative IPC: 0.7416 (Simulation time: 00 hr 15 min 37 sec)
Heartbeat CPU 0 instructions: 107000550 cycles: 89979608 heartbeat IPC: 2.681 cumulative IPC: 0.7463 (Simulation time: 00 hr 15 min 39 sec)
Heartbeat CPU 0 instructions: 107500553 cycles: 90196992 heartbeat IPC: 2.3 cumulative IPC: 0.7508 (Simulation time: 00 hr 15 min 42 sec)
Heartbeat CPU 0 instructions: 108000560 cycles: 91486123 heartbeat IPC: 0.3879 cumulative IPC: 0.7447 (Simulation time: 00 hr 15 min 52 sec)
Heartbeat CPU 0 instructions: 108500561 cycles: 92318880 heartbeat IPC: 0.6004 cumulative IPC: 0.7432 (Simulation time: 00 hr 15 min 59 sec)
Heartbeat CPU 0 instructions: 109000565 cycles: 92561421 heartbeat IPC: 2.062 cumulative IPC: 0.7473 (Simulation time: 00 hr 16 min 01 sec)
Heartbeat CPU 0 instructions: 109500566 cycles: 92807722 heartbeat IPC: 2.03 cumulative IPC: 0.7513 (Simulation time: 00 hr 16 min 05 sec)
Heartbeat CPU 0 instructions: 110000568 cycles: 93040825 heartbeat IPC: 2.145 cumulative IPC: 0.7553 (Simulation time: 00 hr 16 min 07 sec)
Heartbeat CPU 0 instructions: 110500568 cycles: 93315399 heartbeat IPC: 1.821 cumulative IPC: 0.759 (Simulation time: 00 hr 16 min 10 sec)
Heartbeat CPU 0 instructions: 111000572 cycles: 94172954 heartbeat IPC: 0.5831 cumulative IPC: 0.7571 (Simulation time: 00 hr 16 min 18 sec)
Heartbeat CPU 0 instructions: 111500573 cycles: 94928740 heartbeat IPC: 0.6616 cumulative IPC: 0.7563 (Simulation time: 00 hr 16 min 24 sec)
Heartbeat CPU 0 instructions: 112000579 cycles: 95249178 heartbeat IPC: 1.56 cumulative IPC: 0.7594 (Simulation time: 00 hr 16 min 27 sec)
Heartbeat CPU 0 instructions: 112500581 cycles: 96436085 heartbeat IPC: 0.4213 cumulative IPC: 0.7546 (Simulation time: 00 hr 16 min 37 sec)
Heartbeat CPU 0 instructions: 113000581 cycles: 97572824 heartbeat IPC: 0.4399 cumulative IPC: 0.7503 (Simulation time: 00 hr 16 min 46 sec)
Heartbeat CPU 0 instructions: 113500581 cycles: 98018242 heartbeat IPC: 1.123 cumulative IPC: 0.7523 (Simulation time: 00 hr 16 min 50 sec)
Heartbeat CPU 0 instructions: 114000581 cycles: 98363043 heartbeat IPC: 1.45 cumulative IPC: 0.7551 (Simulation time: 00 hr 16 min 54 sec)
Heartbeat CPU 0 instructions: 114500583 cycles: 99199067 heartbeat IPC: 0.5981 cumulative IPC: 0.7536 (Simulation time: 00 hr 17 min 01 sec)
Heartbeat CPU 0 instructions: 115000590 cycles: 100616062 heartbeat IPC: 0.3529 cumulative IPC: 0.7471 (Simulation time: 00 hr 17 min 13 sec)
Heartbeat CPU 0 instructions: 115500592 cycles: 101418513 heartbeat IPC: 0.6231 cumulative IPC: 0.7459 (Simulation time: 00 hr 17 min 20 sec)
Heartbeat CPU 0 instructions: 116000593 cycles: 102087001 heartbeat IPC: 0.748 cumulative IPC: 0.7459 (Simulation time: 00 hr 17 min 26 sec)
Heartbeat CPU 0 instructions: 116500596 cycles: 102951028 heartbeat IPC: 0.5787 cumulative IPC: 0.7443 (Simulation time: 00 hr 17 min 33 sec)
Heartbeat CPU 0 instructions: 117000596 cycles: 103326489 heartbeat IPC: 1.332 cumulative IPC: 0.7468 (Simulation time: 00 hr 17 min 37 sec)
Heartbeat CPU 0 instructions: 117500603 cycles: 104124978 heartbeat IPC: 0.6262 cumulative IPC: 0.7457 (Simulation time: 00 hr 17 min 43 sec)
Heartbeat CPU 0 instructions: 118000604 cycles: 104741174 heartbeat IPC: 0.8114 cumulative IPC: 0.7462 (Simulation time: 00 hr 17 min 49 sec)
Heartbeat CPU 0 instructions: 118500604 cycles: 105408522 heartbeat IPC: 0.7492 cumulative IPC: 0.7462 (Simulation time: 00 hr 17 min 56 sec)
Heartbeat CPU 0 instructions: 119000604 cycles: 107054783 heartbeat IPC: 0.3037 cumulative IPC: 0.7384 (Simulation time: 00 hr 18 min 09 sec)
Heartbeat CPU 0 instructions: 119500610 cycles: 107456603 heartbeat IPC: 1.244 cumulative IPC: 0.7405 (Simulation time: 00 hr 18 min 13 sec)
Heartbeat CPU 0 instructions: 120000614 cycles: 108507282 heartbeat IPC: 0.4759 cumulative IPC: 0.7376 (Simulation time: 00 hr 18 min 22 sec)
Heartbeat CPU 0 instructions: 120500614 cycles: 109381680 heartbeat IPC: 0.5718 cumulative IPC: 0.7361 (Simulation time: 00 hr 18 min 29 sec)
Heartbeat CPU 0 instructions: 121000615 cycles: 110269015 heartbeat IPC: 0.5635 cumulative IPC: 0.7345 (Simulation time: 00 hr 18 min 37 sec)
Heartbeat CPU 0 instructions: 121500615 cycles: 111181382 heartbeat IPC: 0.548 cumulative IPC: 0.7328 (Simulation time: 00 hr 18 min 45 sec)
Heartbeat CPU 0 instructions: 122000620 cycles: 111723459 heartbeat IPC: 0.9224 cumulative IPC: 0.7338 (Simulation time: 00 hr 18 min 51 sec)
Heartbeat CPU 0 instructions: 122500621 cycles: 113005269 heartbeat IPC: 0.3901 cumulative IPC: 0.7294 (Simulation time: 00 hr 19 min 01 sec)
Heartbeat CPU 0 instructions: 123000621 cycles: 113722085 heartbeat IPC: 0.6975 cumulative IPC: 0.7292 (Simulation time: 00 hr 19 min 07 sec)
Heartbeat CPU 0 instructions: 123500621 cycles: 114593309 heartbeat IPC: 0.5739 cumulative IPC: 0.7278 (Simulation time: 00 hr 19 min 15 sec)
Heartbeat CPU 0 instructions: 124000621 cycles: 115861767 heartbeat IPC: 0.3942 cumulative IPC: 0.7237 (Simulation time: 00 hr 19 min 25 sec)
Heartbeat CPU 0 instructions: 124500622 cycles: 117221583 heartbeat IPC: 0.3677 cumulative IPC: 0.719 (Simulation time: 00 hr 19 min 36 sec)
Heartbeat CPU 0 instructions: 125000624 cycles: 117917490 heartbeat IPC: 0.7185 cumulative IPC: 0.719 (Simulation time: 00 hr 19 min 42 sec)
Heartbeat CPU 0 instructions: 125500624 cycles: 119943897 heartbeat IPC: 0.2467 cumulative IPC: 0.71 (Simulation time: 00 hr 19 min 57 sec)
Heartbeat CPU 0 instructions: 126000624 cycles: 121008275 heartbeat IPC: 0.4698 cumulative IPC: 0.7076 (Simulation time: 00 hr 20 min 06 sec)
Heartbeat CPU 0 instructions: 126500630 cycles: 121475262 heartbeat IPC: 1.071 cumulative IPC: 0.7092 (Simulation time: 00 hr 20 min 10 sec)
Heartbeat CPU 0 instructions: 127000630 cycles: 121893233 heartbeat IPC: 1.196 cumulative IPC: 0.7111 (Simulation time: 00 hr 20 min 14 sec)
Heartbeat CPU 0 instructions: 127500633 cycles: 122277268 heartbeat IPC: 1.302 cumulative IPC: 0.7132 (Simulation time: 00 hr 20 min 18 sec)
Heartbeat CPU 0 instructions: 128000633 cycles: 123577458 heartbeat IPC: 0.3846 cumulative IPC: 0.7093 (Simulation time: 00 hr 20 min 29 sec)
Heartbeat CPU 0 instructions: 128500633 cycles: 124969385 heartbeat IPC: 0.3592 cumulative IPC: 0.7049 (Simulation time: 00 hr 20 min 40 sec)
Heartbeat CPU 0 instructions: 129000633 cycles: 126269666 heartbeat IPC: 0.3845 cumulative IPC: 0.7012 (Simulation time: 00 hr 20 min 51 sec)
Heartbeat CPU 0 instructions: 129500633 cycles: 126822080 heartbeat IPC: 0.9051 cumulative IPC: 0.7022 (Simulation time: 00 hr 20 min 56 sec)
Heartbeat CPU 0 instructions: 130000635 cycles: 127222235 heartbeat IPC: 1.25 cumulative IPC: 0.7041 (Simulation time: 00 hr 20 min 59 sec)
Heartbeat CPU 0 instructions: 130500638 cycles: 127588188 heartbeat IPC: 1.366 cumulative IPC: 0.7063 (Simulation time: 00 hr 21 min 03 sec)
Heartbeat CPU 0 instructions: 131000640 cycles: 127946799 heartbeat IPC: 1.394 cumulative IPC: 0.7084 (Simulation time: 00 hr 21 min 06 sec)
Heartbeat CPU 0 instructions: 131500643 cycles: 128699245 heartbeat IPC: 0.6645 cumulative IPC: 0.7081 (Simulation time: 00 hr 21 min 13 sec)
Heartbeat CPU 0 instructions: 132000648 cycles: 129722952 heartbeat IPC: 0.4884 cumulative IPC: 0.7062 (Simulation time: 00 hr 21 min 21 sec)
Heartbeat CPU 0 instructions: 132500652 cycles: 130576113 heartbeat IPC: 0.5861 cumulative IPC: 0.7053 (Simulation time: 00 hr 21 min 29 sec)
Heartbeat CPU 0 instructions: 133000653 cycles: 131704527 heartbeat IPC: 0.4431 cumulative IPC: 0.7028 (Simulation time: 00 hr 21 min 38 sec)
Heartbeat CPU 0 instructions: 133500658 cycles: 132655093 heartbeat IPC: 0.526 cumulative IPC: 0.7014 (Simulation time: 00 hr 21 min 46 sec)
Heartbeat CPU 0 instructions: 134000661 cycles: 134009394 heartbeat IPC: 0.3692 cumulative IPC: 0.6977 (Simulation time: 00 hr 21 min 56 sec)
Heartbeat CPU 0 instructions: 134500665 cycles: 135117052 heartbeat IPC: 0.4514 cumulative IPC: 0.6954 (Simulation time: 00 hr 22 min 05 sec)
Heartbeat CPU 0 instructions: 135000669 cycles: 136011463 heartbeat IPC: 0.559 cumulative IPC: 0.6944 (Simulation time: 00 hr 22 min 13 sec)
Heartbeat CPU 0 instructions: 135500675 cycles: 137492595 heartbeat IPC: 0.3376 cumulative IPC: 0.6902 (Simulation time: 00 hr 22 min 24 sec)
Heartbeat CPU 0 instructions: 136000677 cycles: 138922623 heartbeat IPC: 0.3496 cumulative IPC: 0.6863 (Simulation time: 00 hr 22 min 35 sec)
Heartbeat CPU 0 instructions: 136500677 cycles: 139489720 heartbeat IPC: 0.8817 cumulative IPC: 0.6872 (Simulation time: 00 hr 22 min 40 sec)
Heartbeat CPU 0 instructions: 137000681 cycles: 140547116 heartbeat IPC: 0.4729 cumulative IPC: 0.6854 (Simulation time: 00 hr 22 min 49 sec)
Heartbeat CPU 0 instructions: 137500685 cycles: 141482796 heartbeat IPC: 0.5344 cumulative IPC: 0.6843 (Simulation time: 00 hr 22 min 56 sec)
Heartbeat CPU 0 instructions: 138000686 cycles: 142762482 heartbeat IPC: 0.3907 cumulative IPC: 0.6814 (Simulation time: 00 hr 23 min 06 sec)
Heartbeat CPU 0 instructions: 138500689 cycles: 144104504 heartbeat IPC: 0.3726 cumulative IPC: 0.6782 (Simulation time: 00 hr 23 min 17 sec)
Heartbeat CPU 0 instructions: 139000692 cycles: 145573682 heartbeat IPC: 0.3403 cumulative IPC: 0.6744 (Simulation time: 00 hr 23 min 28 sec)
Heartbeat CPU 0 instructions: 139500695 cycles: 145969829 heartbeat IPC: 1.262 cumulative IPC: 0.6762 (Simulation time: 00 hr 23 min 32 sec)
Heartbeat CPU 0 instructions: 140000695 cycles: 146347260 heartbeat IPC: 1.325 cumulative IPC: 0.678 (Simulation time: 00 hr 23 min 36 sec)
Heartbeat CPU 0 instructions: 140500695 cycles: 146980358 heartbeat IPC: 0.7898 cumulative IPC: 0.6785 (Simulation time: 00 hr 23 min 42 sec)
Heartbeat CPU 0 instructions: 141000696 cycles: 147715856 heartbeat IPC: 0.6798 cumulative IPC: 0.6786 (Simulation time: 00 hr 23 min 48 sec)
Heartbeat CPU 0 instructions: 141500699 cycles: 148074432 heartbeat IPC: 1.394 cumulative IPC: 0.6805 (Simulation time: 00 hr 23 min 52 sec)
Heartbeat CPU 0 instructions: 142000700 cycles: 149364156 heartbeat IPC: 0.3877 cumulative IPC: 0.6777 (Simulation time: 00 hr 24 min 02 sec)
Heartbeat CPU 0 instructions: 142500703 cycles: 150265515 heartbeat IPC: 0.5547 cumulative IPC: 0.6769 (Simulation time: 00 hr 24 min 10 sec)
Heartbeat CPU 0 instructions: 143000708 cycles: 150803543 heartbeat IPC: 0.9293 cumulative IPC: 0.6779 (Simulation time: 00 hr 24 min 15 sec)
Heartbeat CPU 0 instructions: 143500708 cycles: 151154050 heartbeat IPC: 1.427 cumulative IPC: 0.6798 (Simulation time: 00 hr 24 min 18 sec)
Heartbeat CPU 0 instructions: 144000715 cycles: 151920782 heartbeat IPC: 0.6521 cumulative IPC: 0.6796 (Simulation time: 00 hr 24 min 25 sec)
Heartbeat CPU 0 instructions: 144500718 cycles: 152461223 heartbeat IPC: 0.9252 cumulative IPC: 0.6806 (Simulation time: 00 hr 24 min 30 sec)
Heartbeat CPU 0 instructions: 145000720 cycles: 153320123 heartbeat IPC: 0.5821 cumulative IPC: 0.68 (Simulation time: 00 hr 24 min 38 sec)
Heartbeat CPU 0 instructions: 145500725 cycles: 154776188 heartbeat IPC: 0.3434 cumulative IPC: 0.6765 (Simulation time: 00 hr 24 min 49 sec)
Heartbeat CPU 0 instructions: 146000725 cycles: 155533261 heartbeat IPC: 0.6604 cumulative IPC: 0.6764 (Simulation time: 00 hr 24 min 55 sec)
Heartbeat CPU 0 instructions: 146500725 cycles: 156126754 heartbeat IPC: 0.8425 cumulative IPC: 0.6771 (Simulation time: 00 hr 25 min 01 sec)
Heartbeat CPU 0 instructions: 147000725 cycles: 156719827 heartbeat IPC: 0.8431 cumulative IPC: 0.6778 (Simulation time: 00 hr 25 min 07 sec)
Heartbeat CPU 0 instructions: 147500726 cycles: 158012314 heartbeat IPC: 0.3869 cumulative IPC: 0.6752 (Simulation time: 00 hr 25 min 17 sec)
Heartbeat CPU 0 instructions: 148000727 cycles: 158694814 heartbeat IPC: 0.7326 cumulative IPC: 0.6755 (Simulation time: 00 hr 25 min 24 sec)
Heartbeat CPU 0 instructions: 148500727 cycles: 160063007 heartbeat IPC: 0.3654 cumulative IPC: 0.6726 (Simulation time: 00 hr 25 min 34 sec)
Heartbeat CPU 0 instructions: 149000727 cycles: 161339332 heartbeat IPC: 0.3917 cumulative IPC: 0.6701 (Simulation time: 00 hr 25 min 44 sec)
Heartbeat CPU 0 instructions: 149500727 cycles: 161599007 heartbeat IPC: 1.925 cumulative IPC: 0.6723 (Simulation time: 00 hr 25 min 47 sec)
Heartbeat CPU 0 instructions: 150000731 cycles: 161878636 heartbeat IPC: 1.788 cumulative IPC: 0.6744 (Simulation time: 00 hr 25 min 50 sec)
Heartbeat CPU 0 instructions: 150500733 cycles: 162897414 heartbeat IPC: 0.4908 cumulative IPC: 0.6732 (Simulation time: 00 hr 25 min 58 sec)
Heartbeat CPU 0 instructions: 151000734 cycles: 163816267 heartbeat IPC: 0.5442 cumulative IPC: 0.6724 (Simulation time: 00 hr 26 min 05 sec)
Heartbeat CPU 0 instructions: 151500734 cycles: 165078971 heartbeat IPC: 0.396 cumulative IPC: 0.6701 (Simulation time: 00 hr 26 min 15 sec)
Heartbeat CPU 0 instructions: 152000734 cycles: 165529823 heartbeat IPC: 1.109 cumulative IPC: 0.6714 (Simulation time: 00 hr 26 min 20 sec)
Heartbeat CPU 0 instructions: 152500737 cycles: 166024917 heartbeat IPC: 1.01 cumulative IPC: 0.6725 (Simulation time: 00 hr 26 min 24 sec)
Heartbeat CPU 0 instructions: 153000740 cycles: 166669186 heartbeat IPC: 0.7761 cumulative IPC: 0.6729 (Simulation time: 00 hr 26 min 30 sec)
Heartbeat CPU 0 instructions: 153500740 cycles: 168370799 heartbeat IPC: 0.2938 cumulative IPC: 0.6688 (Simulation time: 00 hr 26 min 43 sec)
Heartbeat CPU 0 instructions: 154000740 cycles: 168503161 heartbeat IPC: 3.778 cumulative IPC: 0.6714 (Simulation time: 00 hr 26 min 45 sec)
Heartbeat CPU 0 instructions: 154500746 cycles: 168884801 heartbeat IPC: 1.31 cumulative IPC: 0.673 (Simulation time: 00 hr 26 min 49 sec)
Heartbeat CPU 0 instructions: 155000748 cycles: 169222524 heartbeat IPC: 1.481 cumulative IPC: 0.6747 (Simulation time: 00 hr 26 min 52 sec)
Heartbeat CPU 0 instructions: 155500748 cycles: 169517374 heartbeat IPC: 1.696 cumulative IPC: 0.6767 (Simulation time: 00 hr 26 min 56 sec)
Heartbeat CPU 0 instructions: 156000749 cycles: 169800788 heartbeat IPC: 1.764 cumulative IPC: 0.6786 (Simulation time: 00 hr 26 min 59 sec)
Heartbeat CPU 0 instructions: 156500750 cycles: 170707877 heartbeat IPC: 0.5512 cumulative IPC: 0.6779 (Simulation time: 00 hr 27 min 06 sec)
Heartbeat CPU 0 instructions: 157000757 cycles: 171001666 heartbeat IPC: 1.702 cumulative IPC: 0.6798 (Simulation time: 00 hr 27 min 09 sec)
Heartbeat CPU 0 instructions: 157500757 cycles: 171473316 heartbeat IPC: 1.06 cumulative IPC: 0.681 (Simulation time: 00 hr 27 min 13 sec)
Heartbeat CPU 0 instructions: 158000757 cycles: 171975747 heartbeat IPC: 0.9952 cumulative IPC: 0.682 (Simulation time: 00 hr 27 min 18 sec)
Heartbeat CPU 0 instructions: 158500763 cycles: 172319214 heartbeat IPC: 1.456 cumulative IPC: 0.6836 (Simulation time: 00 hr 27 min 21 sec)
Heartbeat CPU 0 instructions: 159000765 cycles: 173314438 heartbeat IPC: 0.5024 cumulative IPC: 0.6825 (Simulation time: 00 hr 27 min 29 sec)
Heartbeat CPU 0 instructions: 159500772 cycles: 174000394 heartbeat IPC: 0.7289 cumulative IPC: 0.6827 (Simulation time: 00 hr 27 min 35 sec)
Heartbeat CPU 0 instructions: 160000774 cycles: 174818360 heartbeat IPC: 0.6113 cumulative IPC: 0.6823 (Simulation time: 00 hr 27 min 41 sec)
Heartbeat CPU 0 instructions: 160500780 cycles: 175658406 heartbeat IPC: 0.5952 cumulative IPC: 0.6819 (Simulation time: 00 hr 27 min 48 sec)
Heartbeat CPU 0 instructions: 161000784 cycles: 176474608 heartbeat IPC: 0.6126 cumulative IPC: 0.6815 (Simulation time: 00 hr 27 min 54 sec)
Heartbeat CPU 0 instructions: 161500785 cycles: 176995982 heartbeat IPC: 0.959 cumulative IPC: 0.6824 (Simulation time: 00 hr 27 min 58 sec)
Heartbeat CPU 0 instructions: 162000785 cycles: 177867864 heartbeat IPC: 0.5735 cumulative IPC: 0.6818 (Simulation time: 00 hr 28 min 05 sec)
Heartbeat CPU 0 instructions: 162500792 cycles: 178991373 heartbeat IPC: 0.445 cumulative IPC: 0.6802 (Simulation time: 00 hr 28 min 14 sec)
Heartbeat CPU 0 instructions: 163000795 cycles: 179572751 heartbeat IPC: 0.86 cumulative IPC: 0.6809 (Simulation time: 00 hr 28 min 20 sec)
Heartbeat CPU 0 instructions: 163500801 cycles: 180292310 heartbeat IPC: 0.6949 cumulative IPC: 0.6809 (Simulation time: 00 hr 28 min 26 sec)
Heartbeat CPU 0 instructions: 164000801 cycles: 181163515 heartbeat IPC: 0.5739 cumulative IPC: 0.6804 (Simulation time: 00 hr 28 min 33 sec)
Heartbeat CPU 0 instructions: 164500804 cycles: 182253881 heartbeat IPC: 0.4586 cumulative IPC: 0.6789 (Simulation time: 00 hr 28 min 41 sec)
Heartbeat CPU 0 instructions: 165000806 cycles: 183160809 heartbeat IPC: 0.5513 cumulative IPC: 0.6783 (Simulation time: 00 hr 28 min 48 sec)
Heartbeat CPU 0 instructions: 165500810 cycles: 184266545 heartbeat IPC: 0.4522 cumulative IPC: 0.6768 (Simulation time: 00 hr 28 min 57 sec)
Heartbeat CPU 0 instructions: 166000812 cycles: 185562306 heartbeat IPC: 0.3859 cumulative IPC: 0.6746 (Simulation time: 00 hr 29 min 06 sec)
Heartbeat CPU 0 instructions: 166500813 cycles: 186369993 heartbeat IPC: 0.6191 cumulative IPC: 0.6743 (Simulation time: 00 hr 29 min 13 sec)
Heartbeat CPU 0 instructions: 167000815 cycles: 186907728 heartbeat IPC: 0.9298 cumulative IPC: 0.6751 (Simulation time: 00 hr 29 min 18 sec)
Heartbeat CPU 0 instructions: 167500820 cycles: 187535807 heartbeat IPC: 0.7961 cumulative IPC: 0.6756 (Simulation time: 00 hr 29 min 23 sec)
Heartbeat CPU 0 instructions: 168000824 cycles: 187837557 heartbeat IPC: 1.657 cumulative IPC: 0.6773 (Simulation time: 00 hr 29 min 26 sec)
Heartbeat CPU 0 instructions: 168500824 cycles: 188203826 heartbeat IPC: 1.365 cumulative IPC: 0.6787 (Simulation time: 00 hr 29 min 30 sec)
Heartbeat CPU 0 instructions: 169000825 cycles: 188615480 heartbeat IPC: 1.215 cumulative IPC: 0.68 (Simulation time: 00 hr 29 min 33 sec)
Heartbeat CPU 0 instructions: 169500827 cycles: 189200531 heartbeat IPC: 0.8546 cumulative IPC: 0.6806 (Simulation time: 00 hr 29 min 38 sec)
Heartbeat CPU 0 instructions: 170000831 cycles: 189785881 heartbeat IPC: 0.8542 cumulative IPC: 0.6811 (Simulation time: 00 hr 29 min 44 sec)
Heartbeat CPU 0 instructions: 170500831 cycles: 190277211 heartbeat IPC: 1.018 cumulative IPC: 0.6821 (Simulation time: 00 hr 29 min 48 sec)
Heartbeat CPU 0 instructions: 171000831 cycles: 190721557 heartbeat IPC: 1.125 cumulative IPC: 0.6832 (Simulation time: 00 hr 29 min 52 sec)
Heartbeat CPU 0 instructions: 171500831 cycles: 191132086 heartbeat IPC: 1.218 cumulative IPC: 0.6844 (Simulation time: 00 hr 29 min 56 sec)
Heartbeat CPU 0 instructions: 172000833 cycles: 191778675 heartbeat IPC: 0.7733 cumulative IPC: 0.6847 (Simulation time: 00 hr 30 min 01 sec)
Heartbeat CPU 0 instructions: 172500839 cycles: 192345944 heartbeat IPC: 0.8814 cumulative IPC: 0.6854 (Simulation time: 00 hr 30 min 06 sec)
Heartbeat CPU 0 instructions: 173000843 cycles: 193247937 heartbeat IPC: 0.5543 cumulative IPC: 0.6847 (Simulation time: 00 hr 30 min 13 sec)
Heartbeat CPU 0 instructions: 173500846 cycles: 193908437 heartbeat IPC: 0.757 cumulative IPC: 0.685 (Simulation time: 00 hr 30 min 19 sec)
Heartbeat CPU 0 instructions: 174000846 cycles: 195388349 heartbeat IPC: 0.3379 cumulative IPC: 0.6821 (Simulation time: 00 hr 30 min 30 sec)
Heartbeat CPU 0 instructions: 174500846 cycles: 196098081 heartbeat IPC: 0.7045 cumulative IPC: 0.6822 (Simulation time: 00 hr 30 min 35 sec)
Heartbeat CPU 0 instructions: 175000850 cycles: 196676203 heartbeat IPC: 0.8649 cumulative IPC: 0.6828 (Simulation time: 00 hr 30 min 40 sec)
Heartbeat CPU 0 instructions: 175500853 cycles: 197328515 heartbeat IPC: 0.7665 cumulative IPC: 0.6831 (Simulation time: 00 hr 30 min 45 sec)
Heartbeat CPU 0 instructions: 176000855 cycles: 198463267 heartbeat IPC: 0.4406 cumulative IPC: 0.6816 (Simulation time: 00 hr 30 min 54 sec)
Heartbeat CPU 0 instructions: 176500857 cycles: 199537607 heartbeat IPC: 0.4654 cumulative IPC: 0.6804 (Simulation time: 00 hr 31 min 02 sec)
Heartbeat CPU 0 instructions: 177000858 cycles: 200540568 heartbeat IPC: 0.4985 cumulative IPC: 0.6794 (Simulation time: 00 hr 31 min 09 sec)
Heartbeat CPU 0 instructions: 177500859 cycles: 200853882 heartbeat IPC: 1.596 cumulative IPC: 0.6809 (Simulation time: 00 hr 31 min 12 sec)
Heartbeat CPU 0 instructions: 178000865 cycles: 201978616 heartbeat IPC: 0.4446 cumulative IPC: 0.6795 (Simulation time: 00 hr 31 min 20 sec)
Heartbeat CPU 0 instructions: 178500871 cycles: 203307714 heartbeat IPC: 0.3762 cumulative IPC: 0.6774 (Simulation time: 00 hr 31 min 29 sec)
Heartbeat CPU 0 instructions: 179000875 cycles: 203625851 heartbeat IPC: 1.572 cumulative IPC: 0.6789 (Simulation time: 00 hr 31 min 32 sec)
Heartbeat CPU 0 instructions: 179500876 cycles: 203926147 heartbeat IPC: 1.665 cumulative IPC: 0.6804 (Simulation time: 00 hr 31 min 35 sec)
Heartbeat CPU 0 instructions: 180000876 cycles: 204224891 heartbeat IPC: 1.674 cumulative IPC: 0.682 (Simulation time: 00 hr 31 min 39 sec)
Heartbeat CPU 0 instructions: 180500880 cycles: 205243698 heartbeat IPC: 0.4908 cumulative IPC: 0.681 (Simulation time: 00 hr 31 min 46 sec)
Heartbeat CPU 0 instructions: 181000883 cycles: 206579543 heartbeat IPC: 0.3743 cumulative IPC: 0.6789 (Simulation time: 00 hr 31 min 55 sec)
Heartbeat CPU 0 instructions: 181500884 cycles: 207512378 heartbeat IPC: 0.536 cumulative IPC: 0.6782 (Simulation time: 00 hr 32 min 02 sec)
Heartbeat CPU 0 instructions: 182000891 cycles: 208139417 heartbeat IPC: 0.7974 cumulative IPC: 0.6786 (Simulation time: 00 hr 32 min 07 sec)
Heartbeat CPU 0 instructions: 182500892 cycles: 208901837 heartbeat IPC: 0.6558 cumulative IPC: 0.6785 (Simulation time: 00 hr 32 min 14 sec)
Heartbeat CPU 0 instructions: 183000895 cycles: 210187867 heartbeat IPC: 0.3888 cumulative IPC: 0.6766 (Simulation time: 00 hr 32 min 23 sec)
Heartbeat CPU 0 instructions: 183500896 cycles: 211361811 heartbeat IPC: 0.4259 cumulative IPC: 0.6751 (Simulation time: 00 hr 32 min 31 sec)
Heartbeat CPU 0 instructions: 184000900 cycles: 211774131 heartbeat IPC: 1.213 cumulative IPC: 0.6762 (Simulation time: 00 hr 32 min 35 sec)
Heartbeat CPU 0 instructions: 184500900 cycles: 213071071 heartbeat IPC: 0.3855 cumulative IPC: 0.6743 (Simulation time: 00 hr 32 min 44 sec)
Heartbeat CPU 0 instructions: 185000901 cycles: 213803647 heartbeat IPC: 0.6825 cumulative IPC: 0.6743 (Simulation time: 00 hr 32 min 50 sec)
Heartbeat CPU 0 instructions: 185500904 cycles: 214760586 heartbeat IPC: 0.5225 cumulative IPC: 0.6736 (Simulation time: 00 hr 32 min 57 sec)
Heartbeat CPU 0 instructions: 186000907 cycles: 215010284 heartbeat IPC: 2.002 cumulative IPC: 0.6753 (Simulation time: 00 hr 32 min 59 sec)
Heartbeat CPU 0 instructions: 186500909 cycles: 215781217 heartbeat IPC: 0.6486 cumulative IPC: 0.6752 (Simulation time: 00 hr 33 min 05 sec)
Heartbeat CPU 0 instructions: 187000909 cycles: 216213133 heartbeat IPC: 1.158 cumulative IPC: 0.6762 (Simulation time: 00 hr 33 min 08 sec)
Heartbeat CPU 0 instructions: 187500911 cycles: 216715084 heartbeat IPC: 0.9961 cumulative IPC: 0.677 (Simulation time: 00 hr 33 min 12 sec)
Heartbeat CPU 0 instructions: 188000912 cycles: 217517542 heartbeat IPC: 0.6231 cumulative IPC: 0.6768 (Simulation time: 00 hr 33 min 19 sec)
Heartbeat CPU 0 instructions: 188500914 cycles: 219026742 heartbeat IPC: 0.3313 cumulative IPC: 0.6742 (Simulation time: 00 hr 33 min 29 sec)
Heartbeat CPU 0 instructions: 189000914 cycles: 220674147 heartbeat IPC: 0.3035 cumulative IPC: 0.6713 (Simulation time: 00 hr 33 min 40 sec)
Heartbeat CPU 0 instructions: 189500918 cycles: 221866412 heartbeat IPC: 0.4194 cumulative IPC: 0.6698 (Simulation time: 00 hr 33 min 48 sec)
Heartbeat CPU 0 instructions: 190000924 cycles: 222887509 heartbeat IPC: 0.4897 cumulative IPC: 0.669 (Simulation time: 00 hr 33 min 56 sec)
Heartbeat CPU 0 instructions: 190500928 cycles: 223611525 heartbeat IPC: 0.6906 cumulative IPC: 0.669 (Simulation time: 00 hr 34 min 02 sec)
Heartbeat CPU 0 instructions: 191000933 cycles: 224895989 heartbeat IPC: 0.3893 cumulative IPC: 0.6673 (Simulation time: 00 hr 34 min 12 sec)
Heartbeat CPU 0 instructions: 191500933 cycles: 226108672 heartbeat IPC: 0.4123 cumulative IPC: 0.6659 (Simulation time: 00 hr 34 min 21 sec)
Heartbeat CPU 0 instructions: 192000935 cycles: 227215745 heartbeat IPC: 0.4516 cumulative IPC: 0.6648 (Simulation time: 00 hr 34 min 29 sec)
Heartbeat CPU 0 instructions: 192500935 cycles: 227822883 heartbeat IPC: 0.8235 cumulative IPC: 0.6652 (Simulation time: 00 hr 34 min 34 sec)
Heartbeat CPU 0 instructions: 193000935 cycles: 228683966 heartbeat IPC: 0.5807 cumulative IPC: 0.6649 (Simulation time: 00 hr 34 min 41 sec)
Heartbeat CPU 0 instructions: 193500935 cycles: 229386203 heartbeat IPC: 0.712 cumulative IPC: 0.665 (Simulation time: 00 hr 34 min 46 sec)
Heartbeat CPU 0 instructions: 194000935 cycles: 230011201 heartbeat IPC: 0.8 cumulative IPC: 0.6654 (Simulation time: 00 hr 34 min 51 sec)
Heartbeat CPU 0 instructions: 194500935 cycles: 230610161 heartbeat IPC: 0.8348 cumulative IPC: 0.6659 (Simulation time: 00 hr 34 min 55 sec)
Heartbeat CPU 0 instructions: 195000942 cycles: 231084117 heartbeat IPC: 1.055 cumulative IPC: 0.6667 (Simulation time: 00 hr 34 min 59 sec)
Heartbeat CPU 0 instructions: 195500948 cycles: 232027526 heartbeat IPC: 0.53 cumulative IPC: 0.6661 (Simulation time: 00 hr 35 min 06 sec)
Heartbeat CPU 0 instructions: 196000954 cycles: 232598466 heartbeat IPC: 0.8758 cumulative IPC: 0.6667 (Simulation time: 00 hr 35 min 11 sec)
Heartbeat CPU 0 instructions: 196500955 cycles: 232913129 heartbeat IPC: 1.589 cumulative IPC: 0.668 (Simulation time: 00 hr 35 min 14 sec)
Heartbeat CPU 0 instructions: 197000960 cycles: 233180488 heartbeat IPC: 1.87 cumulative IPC: 0.6695 (Simulation time: 00 hr 35 min 17 sec)
Heartbeat CPU 0 instructions: 197500960 cycles: 233471256 heartbeat IPC: 1.72 cumulative IPC: 0.6709 (Simulation time: 00 hr 35 min 20 sec)
Heartbeat CPU 0 instructions: 198000962 cycles: 233971879 heartbeat IPC: 0.9988 cumulative IPC: 0.6716 (Simulation time: 00 hr 35 min 24 sec)
Heartbeat CPU 0 instructions: 198500966 cycles: 234493847 heartbeat IPC: 0.9579 cumulative IPC: 0.6723 (Simulation time: 00 hr 35 min 28 sec)
Heartbeat CPU 0 instructions: 199000967 cycles: 234905378 heartbeat IPC: 1.215 cumulative IPC: 0.6733 (Simulation time: 00 hr 35 min 31 sec)
Heartbeat CPU 0 instructions: 199500967 cycles: 235257842 heartbeat IPC: 1.419 cumulative IPC: 0.6745 (Simulation time: 00 hr 35 min 35 sec)
Heartbeat CPU 0 instructions: 200000967 cycles: 236040856 heartbeat IPC: 0.6386 cumulative IPC: 0.6744 (Simulation time: 00 hr 35 min 41 sec)
Heartbeat CPU 0 instructions: 200500968 cycles: 237411501 heartbeat IPC: 0.3648 cumulative IPC: 0.6725 (Simulation time: 00 hr 35 min 50 sec)
Heartbeat CPU 0 instructions: 201000973 cycles: 238307733 heartbeat IPC: 0.5579 cumulative IPC: 0.672 (Simulation time: 00 hr 35 min 56 sec)
Heartbeat CPU 0 instructions: 201500980 cycles: 238587798 heartbeat IPC: 1.785 cumulative IPC: 0.6734 (Simulation time: 00 hr 35 min 59 sec)
Heartbeat CPU 0 instructions: 202000981 cycles: 239269057 heartbeat IPC: 0.7339 cumulative IPC: 0.6736 (Simulation time: 00 hr 36 min 04 sec)
Heartbeat CPU 0 instructions: 202500981 cycles: 240811820 heartbeat IPC: 0.3241 cumulative IPC: 0.6712 (Simulation time: 00 hr 36 min 14 sec)
Heartbeat CPU 0 instructions: 203000981 cycles: 241945982 heartbeat IPC: 0.4409 cumulative IPC: 0.6701 (Simulation time: 00 hr 36 min 22 sec)
Heartbeat CPU 0 instructions: 203500984 cycles: 242426435 heartbeat IPC: 1.041 cumulative IPC: 0.6708 (Simulation time: 00 hr 36 min 25 sec)
Heartbeat CPU 0 instructions: 204000984 cycles: 242750576 heartbeat IPC: 1.543 cumulative IPC: 0.6721 (Simulation time: 00 hr 36 min 28 sec)
Heartbeat CPU 0 instructions: 204500989 cycles: 243466245 heartbeat IPC: 0.6987 cumulative IPC: 0.6722 (Simulation time: 00 hr 36 min 33 sec)
Heartbeat CPU 0 instructions: 205000991 cycles: 244152985 heartbeat IPC: 0.7281 cumulative IPC: 0.6723 (Simulation time: 00 hr 36 min 38 sec)
Heartbeat CPU 0 instructions: 205500991 cycles: 244572238 heartbeat IPC: 1.193 cumulative IPC: 0.6733 (Simulation time: 00 hr 36 min 42 sec)
Heartbeat CPU 0 instructions: 206000992 cycles: 245247155 heartbeat IPC: 0.7408 cumulative IPC: 0.6735 (Simulation time: 00 hr 36 min 47 sec)
Heartbeat CPU 0 instructions: 206500992 cycles: 246133680 heartbeat IPC: 0.564 cumulative IPC: 0.673 (Simulation time: 00 hr 36 min 54 sec)
Heartbeat CPU 0 instructions: 207000997 cycles: 246878644 heartbeat IPC: 0.6712 cumulative IPC: 0.673 (Simulation time: 00 hr 36 min 59 sec)
Heartbeat CPU 0 instructions: 207500997 cycles: 247539295 heartbeat IPC: 0.7568 cumulative IPC: 0.6733 (Simulation time: 00 hr 37 min 04 sec)
Heartbeat CPU 0 instructions: 208001000 cycles: 247855255 heartbeat IPC: 1.582 cumulative IPC: 0.6745 (Simulation time: 00 hr 37 min 07 sec)
Heartbeat CPU 0 instructions: 208501000 cycles: 249191896 heartbeat IPC: 0.3741 cumulative IPC: 0.6728 (Simulation time: 00 hr 37 min 16 sec)
Heartbeat CPU 0 instructions: 209001000 cycles: 250315580 heartbeat IPC: 0.445 cumulative IPC: 0.6717 (Simulation time: 00 hr 37 min 23 sec)
Heartbeat CPU 0 instructions: 209501002 cycles: 251316792 heartbeat IPC: 0.4994 cumulative IPC: 0.671 (Simulation time: 00 hr 37 min 30 sec)
Heartbeat CPU 0 instructions: 210001006 cycles: 252098214 heartbeat IPC: 0.6399 cumulative IPC: 0.6709 (Simulation time: 00 hr 37 min 36 sec)
Heartbeat CPU 0 instructions: 210501007 cycles: 253419298 heartbeat IPC: 0.3785 cumulative IPC: 0.6693 (Simulation time: 00 hr 37 min 45 sec)
Heartbeat CPU 0 instructions: 211001008 cycles: 254135371 heartbeat IPC: 0.6983 cumulative IPC: 0.6694 (Simulation time: 00 hr 37 min 50 sec)
Heartbeat CPU 0 instructions: 211501008 cycles: 255154196 heartbeat IPC: 0.4908 cumulative IPC: 0.6686 (Simulation time: 00 hr 37 min 57 sec)
Heartbeat CPU 0 instructions: 212001008 cycles: 255599759 heartbeat IPC: 1.122 cumulative IPC: 0.6694 (Simulation time: 00 hr 38 min 01 sec)
Heartbeat CPU 0 instructions: 212501012 cycles: 256195093 heartbeat IPC: 0.8399 cumulative IPC: 0.6699 (Simulation time: 00 hr 38 min 05 sec)
Heartbeat CPU 0 instructions: 213001017 cycles: 257505474 heartbeat IPC: 0.3816 cumulative IPC: 0.6683 (Simulation time: 00 hr 38 min 14 sec)
Heartbeat CPU 0 instructions: 213501019 cycles: 258680559 heartbeat IPC: 0.4255 cumulative IPC: 0.6671 (Simulation time: 00 hr 38 min 22 sec)
Heartbeat CPU 0 instructions: 214001023 cycles: 259076149 heartbeat IPC: 1.264 cumulative IPC: 0.6681 (Simulation time: 00 hr 38 min 25 sec)
Heartbeat CPU 0 instructions: 214501026 cycles: 259455988 heartbeat IPC: 1.316 cumulative IPC: 0.6691 (Simulation time: 00 hr 38 min 28 sec)
Heartbeat CPU 0 instructions: 215001029 cycles: 259880969 heartbeat IPC: 1.177 cumulative IPC: 0.67 (Simulation time: 00 hr 38 min 32 sec)
Heartbeat CPU 0 instructions: 215501030 cycles: 260186635 heartbeat IPC: 1.636 cumulative IPC: 0.6712 (Simulation time: 00 hr 38 min 34 sec)
Heartbeat CPU 0 instructions: 216001031 cycles: 260503412 heartbeat IPC: 1.578 cumulative IPC: 0.6723 (Simulation time: 00 hr 38 min 37 sec)
Heartbeat CPU 0 instructions: 216501032 cycles: 260904231 heartbeat IPC: 1.247 cumulative IPC: 0.6733 (Simulation time: 00 hr 38 min 41 sec)
Heartbeat CPU 0 instructions: 217001034 cycles: 261266339 heartbeat IPC: 1.381 cumulative IPC: 0.6743 (Simulation time: 00 hr 38 min 44 sec)
Heartbeat CPU 0 instructions: 217501035 cycles: 261558701 heartbeat IPC: 1.71 cumulative IPC: 0.6755 (Simulation time: 00 hr 38 min 47 sec)
Heartbeat CPU 0 instructions: 218001035 cycles: 261710021 heartbeat IPC: 3.304 cumulative IPC: 0.6771 (Simulation time: 00 hr 38 min 48 sec)
Heartbeat CPU 0 instructions: 218501037 cycles: 262923531 heartbeat IPC: 0.412 cumulative IPC: 0.6759 (Simulation time: 00 hr 38 min 56 sec)
Heartbeat CPU 0 instructions: 219001037 cycles: 263918809 heartbeat IPC: 0.5024 cumulative IPC: 0.6752 (Simulation time: 00 hr 39 min 03 sec)
Heartbeat CPU 0 instructions: 219501038 cycles: 265198104 heartbeat IPC: 0.3908 cumulative IPC: 0.6737 (Simulation time: 00 hr 39 min 11 sec)
Heartbeat CPU 0 instructions: 220001043 cycles: 265485777 heartbeat IPC: 1.738 cumulative IPC: 0.6749 (Simulation time: 00 hr 39 min 13 sec)
Heartbeat CPU 0 instructions: 220501044 cycles: 266151179 heartbeat IPC: 0.7514 cumulative IPC: 0.6751 (Simulation time: 00 hr 39 min 18 sec)
Heartbeat CPU 0 instructions: 221001044 cycles: 266881496 heartbeat IPC: 0.6846 cumulative IPC: 0.6752 (Simulation time: 00 hr 39 min 23 sec)
Heartbeat CPU 0 instructions: 221501046 cycles: 267770641 heartbeat IPC: 0.5623 cumulative IPC: 0.6748 (Simulation time: 00 hr 39 min 29 sec)
Heartbeat CPU 0 instructions: 222001047 cycles: 268941243 heartbeat IPC: 0.4271 cumulative IPC: 0.6736 (Simulation time: 00 hr 39 min 37 sec)
Heartbeat CPU 0 instructions: 222501048 cycles: 269311604 heartbeat IPC: 1.35 cumulative IPC: 0.6746 (Simulation time: 00 hr 39 min 41 sec)
Heartbeat CPU 0 instructions: 223001049 cycles: 270068515 heartbeat IPC: 0.6606 cumulative IPC: 0.6746 (Simulation time: 00 hr 39 min 46 sec)
Heartbeat CPU 0 instructions: 223501050 cycles: 271378296 heartbeat IPC: 0.3817 cumulative IPC: 0.6731 (Simulation time: 00 hr 39 min 55 sec)
Heartbeat CPU 0 instructions: 224001057 cycles: 272698673 heartbeat IPC: 0.3787 cumulative IPC: 0.6716 (Simulation time: 00 hr 40 min 03 sec)
Heartbeat CPU 0 instructions: 224501063 cycles: 273686582 heartbeat IPC: 0.5061 cumulative IPC: 0.671 (Simulation time: 00 hr 40 min 10 sec)
Heartbeat CPU 0 instructions: 225001065 cycles: 274841060 heartbeat IPC: 0.4331 cumulative IPC: 0.6699 (Simulation time: 00 hr 40 min 17 sec)
Heartbeat CPU 0 instructions: 225501065 cycles: 276272588 heartbeat IPC: 0.3493 cumulative IPC: 0.6682 (Simulation time: 00 hr 40 min 26 sec)
Heartbeat CPU 0 instructions: 226001065 cycles: 277077983 heartbeat IPC: 0.6208 cumulative IPC: 0.668 (Simulation time: 00 hr 40 min 32 sec)
Heartbeat CPU 0 instructions: 226501071 cycles: 278602603 heartbeat IPC: 0.328 cumulative IPC: 0.6661 (Simulation time: 00 hr 40 min 42 sec)
Heartbeat CPU 0 instructions: 227001075 cycles: 280321929 heartbeat IPC: 0.2908 cumulative IPC: 0.6636 (Simulation time: 00 hr 40 min 53 sec)
Heartbeat CPU 0 instructions: 227501080 cycles: 281220184 heartbeat IPC: 0.5566 cumulative IPC: 0.6633 (Simulation time: 00 hr 40 min 59 sec)
Heartbeat CPU 0 instructions: 228001080 cycles: 281839244 heartbeat IPC: 0.8077 cumulative IPC: 0.6636 (Simulation time: 00 hr 41 min 04 sec)
Heartbeat CPU 0 instructions: 228501080 cycles: 282480582 heartbeat IPC: 0.7796 cumulative IPC: 0.6639 (Simulation time: 00 hr 41 min 09 sec)
Heartbeat CPU 0 instructions: 229001080 cycles: 283528137 heartbeat IPC: 0.4773 cumulative IPC: 0.6632 (Simulation time: 00 hr 41 min 16 sec)
Heartbeat CPU 0 instructions: 229501080 cycles: 284327959 heartbeat IPC: 0.6251 cumulative IPC: 0.663 (Simulation time: 00 hr 41 min 21 sec)
Heartbeat CPU 0 instructions: 230001084 cycles: 284821571 heartbeat IPC: 1.013 cumulative IPC: 0.6637 (Simulation time: 00 hr 41 min 25 sec)
Heartbeat CPU 0 instructions: 230501085 cycles: 286400712 heartbeat IPC: 0.3166 cumulative IPC: 0.6617 (Simulation time: 00 hr 41 min 35 sec)
Heartbeat CPU 0 instructions: 231001087 cycles: 286966604 heartbeat IPC: 0.8836 cumulative IPC: 0.6621 (Simulation time: 00 hr 41 min 39 sec)
Heartbeat CPU 0 instructions: 231501087 cycles: 287213127 heartbeat IPC: 2.028 cumulative IPC: 0.6634 (Simulation time: 00 hr 41 min 41 sec)
Heartbeat CPU 0 instructions: 232001088 cycles: 287475629 heartbeat IPC: 1.905 cumulative IPC: 0.6646 (Simulation time: 00 hr 41 min 43 sec)
Heartbeat CPU 0 instructions: 232501095 cycles: 288398694 heartbeat IPC: 0.5417 cumulative IPC: 0.6641 (Simulation time: 00 hr 41 min 49 sec)
Heartbeat CPU 0 instructions: 233001095 cycles: 289868431 heartbeat IPC: 0.3402 cumulative IPC: 0.6624 (Simulation time: 00 hr 41 min 59 sec)
Heartbeat CPU 0 instructions: 233501097 cycles: 290388705 heartbeat IPC: 0.961 cumulative IPC: 0.663 (Simulation time: 00 hr 42 min 03 sec)
Heartbeat CPU 0 instructions: 234001101 cycles: 291214340 heartbeat IPC: 0.6056 cumulative IPC: 0.6628 (Simulation time: 00 hr 42 min 09 sec)
Heartbeat CPU 0 instructions: 234501101 cycles: 292323086 heartbeat IPC: 0.451 cumulative IPC: 0.662 (Simulation time: 00 hr 42 min 16 sec)
Heartbeat CPU 0 instructions: 235001105 cycles: 293108710 heartbeat IPC: 0.6364 cumulative IPC: 0.6619 (Simulation time: 00 hr 42 min 21 sec)
Heartbeat CPU 0 instructions: 235501105 cycles: 294065311 heartbeat IPC: 0.5227 cumulative IPC: 0.6614 (Simulation time: 00 hr 42 min 27 sec)
Heartbeat CPU 0 instructions: 236001109 cycles: 294707831 heartbeat IPC: 0.7782 cumulative IPC: 0.6617 (Simulation time: 00 hr 42 min 31 sec)
Heartbeat CPU 0 instructions: 236501112 cycles: 295033026 heartbeat IPC: 1.538 cumulative IPC: 0.6627 (Simulation time: 00 hr 42 min 34 sec)
Heartbeat CPU 0 instructions: 237001112 cycles: 295321209 heartbeat IPC: 1.735 cumulative IPC: 0.6638 (Simulation time: 00 hr 42 min 37 sec)
Heartbeat CPU 0 instructions: 237501114 cycles: 295685687 heartbeat IPC: 1.372 cumulative IPC: 0.6647 (Simulation time: 00 hr 42 min 40 sec)
Heartbeat CPU 0 instructions: 238001116 cycles: 296330208 heartbeat IPC: 0.7758 cumulative IPC: 0.665 (Simulation time: 00 hr 42 min 44 sec)
Heartbeat CPU 0 instructions: 238501121 cycles: 297373378 heartbeat IPC: 0.4793 cumulative IPC: 0.6643 (Simulation time: 00 hr 42 min 51 sec)
Heartbeat CPU 0 instructions: 239001122 cycles: 298152963 heartbeat IPC: 0.6414 cumulative IPC: 0.6642 (Simulation time: 00 hr 42 min 56 sec)
Heartbeat CPU 0 instructions: 239501122 cycles: 299182488 heartbeat IPC: 0.4857 cumulative IPC: 0.6636 (Simulation time: 00 hr 43 min 03 sec)
Heartbeat CPU 0 instructions: 240001122 cycles: 299943534 heartbeat IPC: 0.657 cumulative IPC: 0.6636 (Simulation time: 00 hr 43 min 08 sec)
Heartbeat CPU 0 instructions: 240501124 cycles: 300909536 heartbeat IPC: 0.5176 cumulative IPC: 0.6631 (Simulation time: 00 hr 43 min 15 sec)
Heartbeat CPU 0 instructions: 241001129 cycles: 302009857 heartbeat IPC: 0.4544 cumulative IPC: 0.6623 (Simulation time: 00 hr 43 min 21 sec)
Heartbeat CPU 0 instructions: 241501130 cycles: 302757712 heartbeat IPC: 0.6686 cumulative IPC: 0.6623 (Simulation time: 00 hr 43 min 26 sec)
Heartbeat CPU 0 instructions: 242001131 cycles: 303064460 heartbeat IPC: 1.63 cumulative IPC: 0.6633 (Simulation time: 00 hr 43 min 29 sec)
Heartbeat CPU 0 instructions: 242501131 cycles: 304036959 heartbeat IPC: 0.5141 cumulative IPC: 0.6628 (Simulation time: 00 hr 43 min 35 sec)
Heartbeat CPU 0 instructions: 243001131 cycles: 305725519 heartbeat IPC: 0.2961 cumulative IPC: 0.6607 (Simulation time: 00 hr 43 min 46 sec)
Heartbeat CPU 0 instructions: 243501133 cycles: 306276158 heartbeat IPC: 0.908 cumulative IPC: 0.6612 (Simulation time: 00 hr 43 min 50 sec)
Heartbeat CPU 0 instructions: 244001136 cycles: 307036835 heartbeat IPC: 0.6573 cumulative IPC: 0.6611 (Simulation time: 00 hr 43 min 55 sec)
Heartbeat CPU 0 instructions: 244501143 cycles: 307796742 heartbeat IPC: 0.658 cumulative IPC: 0.6611 (Simulation time: 00 hr 44 min 00 sec)
Heartbeat CPU 0 instructions: 245001143 cycles: 309195559 heartbeat IPC: 0.3574 cumulative IPC: 0.6597 (Simulation time: 00 hr 44 min 09 sec)
Heartbeat CPU 0 instructions: 245501143 cycles: 309954746 heartbeat IPC: 0.6586 cumulative IPC: 0.6597 (Simulation time: 00 hr 44 min 14 sec)
Heartbeat CPU 0 instructions: 246001150 cycles: 311170856 heartbeat IPC: 0.4112 cumulative IPC: 0.6587 (Simulation time: 00 hr 44 min 21 sec)
Heartbeat CPU 0 instructions: 246501151 cycles: 312142483 heartbeat IPC: 0.5146 cumulative IPC: 0.6582 (Simulation time: 00 hr 44 min 27 sec)
Heartbeat CPU 0 instructions: 247001155 cycles: 312388808 heartbeat IPC: 2.03 cumulative IPC: 0.6593 (Simulation time: 00 hr 44 min 29 sec)
Heartbeat CPU 0 instructions: 247501156 cycles: 312783396 heartbeat IPC: 1.267 cumulative IPC: 0.6601 (Simulation time: 00 hr 44 min 32 sec)
Heartbeat CPU 0 instructions: 248001156 cycles: 313054333 heartbeat IPC: 1.845 cumulative IPC: 0.6612 (Simulation time: 00 hr 44 min 34 sec)
Heartbeat CPU 0 instructions: 248501157 cycles: 313259751 heartbeat IPC: 2.434 cumulative IPC: 0.6624 (Simulation time: 00 hr 44 min 36 sec)
Heartbeat CPU 0 instructions: 249001157 cycles: 314018554 heartbeat IPC: 0.6589 cumulative IPC: 0.6624 (Simulation time: 00 hr 44 min 41 sec)
Heartbeat CPU 0 instructions: 249501158 cycles: 315269738 heartbeat IPC: 0.3996 cumulative IPC: 0.6613 (Simulation time: 00 hr 44 min 49 sec)
Simulation finished CPU 0 instructions: 200000001 cycles: 302256350 cumulative IPC: 0.6617 (Simulation time: 00 hr 44 min 53 sec)
Simulation complete CPU 0 instructions: 200000001 cycles: 302256350 cumulative IPC: 0.6617 (Simulation time: 00 hr 44 min 53 sec)

ChampSim completed all CPUs

=== Simulation ===
CPU 0 runs /local-ssd/ben/dpc4-traces/gtraces_v2/merced_0004.champsim.gz

Region of Interest Statistics

CPU 0 cumulative IPC: 0.6617 instructions: 200000001 cycles: 302256350
CPU 0 Branch Prediction Accuracy: 90.21% MPKI: 16.51 Average ROB Occupancy at Mispredict: 23.72
Branch type MPKI
BRANCH_DIRECT_JUMP: 1.288
BRANCH_INDIRECT: 0.2266
BRANCH_CONDITIONAL: 13.52
BRANCH_DIRECT_CALL: 0.709
BRANCH_INDIRECT_CALL: 0.2726
BRANCH_RETURN: 0.4968

cpu0->cpu0_STLB TOTAL        ACCESS:    1681228 HIT:    1260697 MISS:     420531 MSHR_MERGE:          0
cpu0->cpu0_STLB LOAD         ACCESS:    1681228 HIT:    1260697 MISS:     420531 MSHR_MERGE:          0
cpu0->cpu0_STLB RFO          ACCESS:          0 HIT:          0 MISS:          0 MSHR_MERGE:          0
cpu0->cpu0_STLB PREFETCH     ACCESS:          0 HIT:          0 MISS:          0 MSHR_MERGE:          0
cpu0->cpu0_STLB WRITE        ACCESS:          0 HIT:          0 MISS:          0 MSHR_MERGE:          0
cpu0->cpu0_STLB TRANSLATION  ACCESS:          0 HIT:          0 MISS:          0 MSHR_MERGE:          0
cpu0->cpu0_STLB PREFETCH REQUESTED:          0 ISSUED:          0 USEFUL:          0 USELESS:          0
cpu0->cpu0_STLB AVERAGE MISS LATENCY: 211.6 cycles
cpu0->cpu0_L2C TOTAL        ACCESS:   18992470 HIT:   13170720 MISS:    5821750 MSHR_MERGE:    1991740
cpu0->cpu0_L2C LOAD         ACCESS:    3237591 HIT:    2339967 MISS:     897624 MSHR_MERGE:     126660
cpu0->cpu0_L2C RFO          ACCESS:     580195 HIT:     250042 MISS:     330153 MSHR_MERGE:       3701
cpu0->cpu0_L2C PREFETCH     ACCESS:   13738747 HIT:    9373120 MISS:    4365627 MSHR_MERGE:    1861379
cpu0->cpu0_L2C WRITE        ACCESS:     972381 HIT:     972344 MISS:         37 MSHR_MERGE:          0
cpu0->cpu0_L2C TRANSLATION  ACCESS:     463556 HIT:     235247 MISS:     228309 MSHR_MERGE:          0
cpu0->cpu0_L2C PREFETCH REQUESTED:   13464634 ISSUED:   12381097 USEFUL:    1165368 USELESS:    1012805
cpu0->cpu0_L2C AVERAGE MISS LATENCY: 217.7 cycles
cpu0->cpu0_L1I TOTAL        ACCESS:   15947351 HIT:   13960333 MISS:    1987018 MSHR_MERGE:     464543
cpu0->cpu0_L1I LOAD         ACCESS:   15947351 HIT:   13960333 MISS:    1987018 MSHR_MERGE:     464543
cpu0->cpu0_L1I RFO          ACCESS:          0 HIT:          0 MISS:          0 MSHR_MERGE:          0
cpu0->cpu0_L1I PREFETCH     ACCESS:          0 HIT:          0 MISS:          0 MSHR_MERGE:          0
cpu0->cpu0_L1I WRITE        ACCESS:          0 HIT:          0 MISS:          0 MSHR_MERGE:          0
cpu0->cpu0_L1I TRANSLATION  ACCESS:          0 HIT:          0 MISS:          0 MSHR_MERGE:          0
cpu0->cpu0_L1I PREFETCH REQUESTED:          0 ISSUED:          0 USEFUL:          0 USELESS:          0
cpu0->cpu0_L1I AVERAGE MISS LATENCY: 52.89 cycles
cpu0->cpu0_L1D TOTAL        ACCESS:   49239329 HIT:   42837183 MISS:    6402146 MSHR_MERGE:    2285555
cpu0->cpu0_L1D LOAD         ACCESS:   29038460 HIT:   26680413 MISS:    2358047 MSHR_MERGE:     642909
cpu0->cpu0_L1D RFO          ACCESS:          0 HIT:          0 MISS:          0 MSHR_MERGE:          0
cpu0->cpu0_L1D PREFETCH     ACCESS:    2460214 HIT:    1024909 MISS:    1435305 MSHR_MERGE:      77647
cpu0->cpu0_L1D WRITE        ACCESS:   16667192 HIT:   14528666 MISS:    2138526 MSHR_MERGE:    1558287
cpu0->cpu0_L1D TRANSLATION  ACCESS:    1073463 HIT:     603195 MISS:     470268 MSHR_MERGE:       6712
cpu0->cpu0_L1D PREFETCH REQUESTED:    2500861 ISSUED:    2460214 USEFUL:     763228 USELESS:     594396
cpu0->cpu0_L1D AVERAGE MISS LATENCY: 98.15 cycles
cpu0->cpu0_ITLB TOTAL        ACCESS:   13238092 HIT:   13025158 MISS:     212934 MSHR_MERGE:     108422
cpu0->cpu0_ITLB LOAD         ACCESS:   13238092 HIT:   13025158 MISS:     212934 MSHR_MERGE:     108422
cpu0->cpu0_ITLB RFO          ACCESS:          0 HIT:          0 MISS:          0 MSHR_MERGE:          0
cpu0->cpu0_ITLB PREFETCH     ACCESS:          0 HIT:          0 MISS:          0 MSHR_MERGE:          0
cpu0->cpu0_ITLB WRITE        ACCESS:          0 HIT:          0 MISS:          0 MSHR_MERGE:          0
cpu0->cpu0_ITLB TRANSLATION  ACCESS:          0 HIT:          0 MISS:          0 MSHR_MERGE:          0
cpu0->cpu0_ITLB PREFETCH REQUESTED:          0 ISSUED:          0 USEFUL:          0 USELESS:          0
cpu0->cpu0_ITLB AVERAGE MISS LATENCY: 40 cycles
cpu0->cpu0_DTLB TOTAL        ACCESS:   45942110 HIT:   43347306 MISS:    2594804 MSHR_MERGE:    1018088
cpu0->cpu0_DTLB LOAD         ACCESS:   45942110 HIT:   43347306 MISS:    2594804 MSHR_MERGE:    1018088
cpu0->cpu0_DTLB RFO          ACCESS:          0 HIT:          0 MISS:          0 MSHR_MERGE:          0
cpu0->cpu0_DTLB PREFETCH     ACCESS:          0 HIT:          0 MISS:          0 MSHR_MERGE:          0
cpu0->cpu0_DTLB WRITE        ACCESS:          0 HIT:          0 MISS:          0 MSHR_MERGE:          0
cpu0->cpu0_DTLB TRANSLATION  ACCESS:          0 HIT:          0 MISS:          0 MSHR_MERGE:          0
cpu0->cpu0_DTLB PREFETCH REQUESTED:          0 ISSUED:          0 USEFUL:          0 USELESS:          0
cpu0->cpu0_DTLB AVERAGE MISS LATENCY: 59.38 cycles
cpu0->LLC TOTAL        ACCESS:    5774398 HIT:    1027936 MISS:    4746462 MSHR_MERGE:     265708
cpu0->LLC LOAD         ACCESS:     770964 HIT:     123674 MISS:     647290 MSHR_MERGE:       3871
cpu0->LLC RFO          ACCESS:     326452 HIT:      17926 MISS:     308526 MSHR_MERGE:        214
cpu0->LLC PREFETCH     ACCESS:    3878532 HIT:     746143 MISS:    3132389 MSHR_MERGE:     261623
cpu0->LLC WRITE        ACCESS:     570141 HIT:     127178 MISS:     442963 MSHR_MERGE:          0
cpu0->LLC TRANSLATION  ACCESS:     228309 HIT:      13015 MISS:     215294 MSHR_MERGE:          0
cpu0->LLC PREFETCH REQUESTED:    1420834 ISSUED:    1374284 USEFUL:     305028 USELESS:     669267
cpu0->LLC AVERAGE MISS LATENCY: 170.8 cycles

DRAM Statistics

Channel 0 RQ ROW_BUFFER_HIT:     249701
  ROW_BUFFER_MISS:    3788029
  AVG DBUS CONGESTED CYCLE: 17.62
Channel 0 WQ ROW_BUFFER_HIT:     130644
  ROW_BUFFER_MISS:     388771
  FULL:          0
Channel 0 REFRESHES ISSUED:      25187
