[VMEM] WARNING: physical memory size is smaller than virtual memory size.

*** ChampSim Multicore Out-of-Order Simulator ***
Warmup Instructions: 50000000
Simulation Instructions: 200000000
Number of CPUs: 1
Page size: 4096
Core 0: /local-ssd/ben/dpc4-traces/SPEC17/619.lbm_s-2677B.champsimtrace.xz
 L1D Berti prefetcher
Off-chip DRAM Size: 64 GiB Channels: 1 Width: 64-bit Data Rate: 4807 MT/s
Heartbeat CPU 0 instructions: 500000 cycles: 140939 heartbeat IPC: 3.548 cumulative IPC: 3.548 (Simulation time: 00 hr 00 min 05 sec)
Heartbeat CPU 0 instructions: 1000001 cycles: 265324 heartbeat IPC: 4.02 cumulative IPC: 3.769 (Simulation time: 00 hr 00 min 08 sec)
Heartbeat CPU 0 instructions: 1500008 cycles: 395184 heartbeat IPC: 3.85 cumulative IPC: 3.796 (Simulation time: 00 hr 00 min 11 sec)
Heartbeat CPU 0 instructions: 2000009 cycles: 525648 heartbeat IPC: 3.832 cumulative IPC: 3.805 (Simulation time: 00 hr 00 min 13 sec)
Heartbeat CPU 0 instructions: 2500009 cycles: 659636 heartbeat IPC: 3.732 cumulative IPC: 3.79 (Simulation time: 00 hr 00 min 16 sec)
Heartbeat CPU 0 instructions: 3000014 cycles: 778943 heartbeat IPC: 4.191 cumulative IPC: 3.851 (Simulation time: 00 hr 00 min 18 sec)
Heartbeat CPU 0 instructions: 3500015 cycles: 896292 heartbeat IPC: 4.261 cumulative IPC: 3.905 (Simulation time: 00 hr 00 min 20 sec)
Heartbeat CPU 0 instructions: 4000015 cycles: 1026726 heartbeat IPC: 3.833 cumulative IPC: 3.896 (Simulation time: 00 hr 00 min 23 sec)
Heartbeat CPU 0 instructions: 4500021 cycles: 1169596 heartbeat IPC: 3.5 cumulative IPC: 3.848 (Simulation time: 00 hr 00 min 25 sec)
Heartbeat CPU 0 instructions: 5000027 cycles: 1300255 heartbeat IPC: 3.827 cumulative IPC: 3.845 (Simulation time: 00 hr 00 min 28 sec)
Heartbeat CPU 0 instructions: 5500027 cycles: 1431536 heartbeat IPC: 3.809 cumulative IPC: 3.842 (Simulation time: 00 hr 00 min 30 sec)
Heartbeat CPU 0 instructions: 6000027 cycles: 1560063 heartbeat IPC: 3.89 cumulative IPC: 3.846 (Simulation time: 00 hr 00 min 32 sec)
Heartbeat CPU 0 instructions: 6500027 cycles: 1690389 heartbeat IPC: 3.837 cumulative IPC: 3.845 (Simulation time: 00 hr 00 min 35 sec)
Heartbeat CPU 0 instructions: 7000027 cycles: 1832975 heartbeat IPC: 3.507 cumulative IPC: 3.819 (Simulation time: 00 hr 00 min 37 sec)
Heartbeat CPU 0 instructions: 7500033 cycles: 1970033 heartbeat IPC: 3.648 cumulative IPC: 3.807 (Simulation time: 00 hr 00 min 40 sec)
Heartbeat CPU 0 instructions: 8000035 cycles: 2100666 heartbeat IPC: 3.828 cumulative IPC: 3.808 (Simulation time: 00 hr 00 min 42 sec)
Heartbeat CPU 0 instructions: 8500036 cycles: 2226636 heartbeat IPC: 3.969 cumulative IPC: 3.817 (Simulation time: 00 hr 00 min 45 sec)
Heartbeat CPU 0 instructions: 9000043 cycles: 2363871 heartbeat IPC: 3.643 cumulative IPC: 3.807 (Simulation time: 00 hr 00 min 47 sec)
Heartbeat CPU 0 instructions: 9500050 cycles: 2487960 heartbeat IPC: 4.029 cumulative IPC: 3.818 (Simulation time: 00 hr 00 min 49 sec)
Heartbeat CPU 0 instructions: 10000054 cycles: 2621391 heartbeat IPC: 3.747 cumulative IPC: 3.815 (Simulation time: 00 hr 00 min 52 sec)
Heartbeat CPU 0 instructions: 10500055 cycles: 2746840 heartbeat IPC: 3.986 cumulative IPC: 3.823 (Simulation time: 00 hr 00 min 54 sec)
Heartbeat CPU 0 instructions: 11000062 cycles: 2876235 heartbeat IPC: 3.864 cumulative IPC: 3.824 (Simulation time: 00 hr 00 min 57 sec)
Heartbeat CPU 0 instructions: 11500067 cycles: 2993822 heartbeat IPC: 4.252 cumulative IPC: 3.841 (Simulation time: 00 hr 00 min 59 sec)
Heartbeat CPU 0 instructions: 12000070 cycles: 3109764 heartbeat IPC: 4.313 cumulative IPC: 3.859 (Simulation time: 00 hr 01 min 01 sec)
Heartbeat CPU 0 instructions: 12500074 cycles: 3238924 heartbeat IPC: 3.871 cumulative IPC: 3.859 (Simulation time: 00 hr 01 min 03 sec)
Heartbeat CPU 0 instructions: 13000075 cycles: 3377688 heartbeat IPC: 3.603 cumulative IPC: 3.849 (Simulation time: 00 hr 01 min 06 sec)
Heartbeat CPU 0 instructions: 13500079 cycles: 3503499 heartbeat IPC: 3.974 cumulative IPC: 3.853 (Simulation time: 00 hr 01 min 08 sec)
Heartbeat CPU 0 instructions: 14000081 cycles: 3633123 heartbeat IPC: 3.857 cumulative IPC: 3.853 (Simulation time: 00 hr 01 min 11 sec)
Heartbeat CPU 0 instructions: 14500088 cycles: 3757613 heartbeat IPC: 4.016 cumulative IPC: 3.859 (Simulation time: 00 hr 01 min 13 sec)
Heartbeat CPU 0 instructions: 15000091 cycles: 3884835 heartbeat IPC: 3.93 cumulative IPC: 3.861 (Simulation time: 00 hr 01 min 15 sec)
Heartbeat CPU 0 instructions: 15500096 cycles: 4026436 heartbeat IPC: 3.531 cumulative IPC: 3.85 (Simulation time: 00 hr 01 min 18 sec)
Heartbeat CPU 0 instructions: 16000103 cycles: 4159684 heartbeat IPC: 3.752 cumulative IPC: 3.846 (Simulation time: 00 hr 01 min 20 sec)
Heartbeat CPU 0 instructions: 16500109 cycles: 4286224 heartbeat IPC: 3.951 cumulative IPC: 3.85 (Simulation time: 00 hr 01 min 23 sec)
Heartbeat CPU 0 instructions: 17000110 cycles: 4412142 heartbeat IPC: 3.971 cumulative IPC: 3.853 (Simulation time: 00 hr 01 min 25 sec)
Heartbeat CPU 0 instructions: 17500114 cycles: 4551764 heartbeat IPC: 3.581 cumulative IPC: 3.845 (Simulation time: 00 hr 01 min 28 sec)
Heartbeat CPU 0 instructions: 18000117 cycles: 4678767 heartbeat IPC: 3.937 cumulative IPC: 3.847 (Simulation time: 00 hr 01 min 30 sec)
Heartbeat CPU 0 instructions: 18500123 cycles: 4814843 heartbeat IPC: 3.674 cumulative IPC: 3.842 (Simulation time: 00 hr 01 min 33 sec)
Heartbeat CPU 0 instructions: 19000127 cycles: 4941273 heartbeat IPC: 3.955 cumulative IPC: 3.845 (Simulation time: 00 hr 01 min 35 sec)
Heartbeat CPU 0 instructions: 19500133 cycles: 5066860 heartbeat IPC: 3.981 cumulative IPC: 3.849 (Simulation time: 00 hr 01 min 37 sec)
Heartbeat CPU 0 instructions: 20000139 cycles: 5184318 heartbeat IPC: 4.257 cumulative IPC: 3.858 (Simulation time: 00 hr 01 min 39 sec)
Heartbeat CPU 0 instructions: 20500141 cycles: 5301252 heartbeat IPC: 4.276 cumulative IPC: 3.867 (Simulation time: 00 hr 01 min 42 sec)
Heartbeat CPU 0 instructions: 21000147 cycles: 5430605 heartbeat IPC: 3.865 cumulative IPC: 3.867 (Simulation time: 00 hr 01 min 44 sec)
Heartbeat CPU 0 instructions: 21500149 cycles: 5568947 heartbeat IPC: 3.614 cumulative IPC: 3.861 (Simulation time: 00 hr 01 min 47 sec)
Heartbeat CPU 0 instructions: 22000154 cycles: 5693445 heartbeat IPC: 4.016 cumulative IPC: 3.864 (Simulation time: 00 hr 01 min 49 sec)
Heartbeat CPU 0 instructions: 22500155 cycles: 5823891 heartbeat IPC: 3.833 cumulative IPC: 3.863 (Simulation time: 00 hr 01 min 51 sec)
Heartbeat CPU 0 instructions: 23000161 cycles: 5946616 heartbeat IPC: 4.074 cumulative IPC: 3.868 (Simulation time: 00 hr 01 min 54 sec)
Heartbeat CPU 0 instructions: 23500168 cycles: 6072331 heartbeat IPC: 3.977 cumulative IPC: 3.87 (Simulation time: 00 hr 01 min 56 sec)
Heartbeat CPU 0 instructions: 24000171 cycles: 6212434 heartbeat IPC: 3.569 cumulative IPC: 3.863 (Simulation time: 00 hr 01 min 58 sec)
Heartbeat CPU 0 instructions: 24500174 cycles: 6350038 heartbeat IPC: 3.634 cumulative IPC: 3.858 (Simulation time: 00 hr 02 min 01 sec)
Heartbeat CPU 0 instructions: 25000180 cycles: 6474001 heartbeat IPC: 4.034 cumulative IPC: 3.862 (Simulation time: 00 hr 02 min 03 sec)
Heartbeat CPU 0 instructions: 25500186 cycles: 6600576 heartbeat IPC: 3.95 cumulative IPC: 3.863 (Simulation time: 00 hr 02 min 06 sec)
Heartbeat CPU 0 instructions: 26000187 cycles: 6740078 heartbeat IPC: 3.584 cumulative IPC: 3.858 (Simulation time: 00 hr 02 min 08 sec)
Heartbeat CPU 0 instructions: 26500194 cycles: 6868901 heartbeat IPC: 3.881 cumulative IPC: 3.858 (Simulation time: 00 hr 02 min 11 sec)
Heartbeat CPU 0 instructions: 27000201 cycles: 7007874 heartbeat IPC: 3.598 cumulative IPC: 3.853 (Simulation time: 00 hr 02 min 13 sec)
Heartbeat CPU 0 instructions: 27500202 cycles: 7135295 heartbeat IPC: 3.924 cumulative IPC: 3.854 (Simulation time: 00 hr 02 min 16 sec)
Heartbeat CPU 0 instructions: 28000205 cycles: 7258943 heartbeat IPC: 4.044 cumulative IPC: 3.857 (Simulation time: 00 hr 02 min 18 sec)
Heartbeat CPU 0 instructions: 28500209 cycles: 7376272 heartbeat IPC: 4.262 cumulative IPC: 3.864 (Simulation time: 00 hr 02 min 20 sec)
Heartbeat CPU 0 instructions: 29000209 cycles: 7501139 heartbeat IPC: 4.004 cumulative IPC: 3.866 (Simulation time: 00 hr 02 min 22 sec)
Heartbeat CPU 0 instructions: 29500216 cycles: 7633937 heartbeat IPC: 3.765 cumulative IPC: 3.864 (Simulation time: 00 hr 02 min 25 sec)
Heartbeat CPU 0 instructions: 30000223 cycles: 7766379 heartbeat IPC: 3.775 cumulative IPC: 3.863 (Simulation time: 00 hr 02 min 27 sec)
Heartbeat CPU 0 instructions: 30500226 cycles: 7890604 heartbeat IPC: 4.025 cumulative IPC: 3.865 (Simulation time: 00 hr 02 min 29 sec)
Heartbeat CPU 0 instructions: 31000229 cycles: 8020123 heartbeat IPC: 3.86 cumulative IPC: 3.865 (Simulation time: 00 hr 02 min 32 sec)
Heartbeat CPU 0 instructions: 31500234 cycles: 8140534 heartbeat IPC: 4.152 cumulative IPC: 3.87 (Simulation time: 00 hr 02 min 34 sec)
Heartbeat CPU 0 instructions: 32000236 cycles: 8264560 heartbeat IPC: 4.031 cumulative IPC: 3.872 (Simulation time: 00 hr 02 min 36 sec)
Heartbeat CPU 0 instructions: 32500236 cycles: 8401888 heartbeat IPC: 3.641 cumulative IPC: 3.868 (Simulation time: 00 hr 02 min 39 sec)
Heartbeat CPU 0 instructions: 33000239 cycles: 8538141 heartbeat IPC: 3.67 cumulative IPC: 3.865 (Simulation time: 00 hr 02 min 41 sec)
Heartbeat CPU 0 instructions: 33500243 cycles: 8662548 heartbeat IPC: 4.019 cumulative IPC: 3.867 (Simulation time: 00 hr 02 min 44 sec)
Heartbeat CPU 0 instructions: 34000245 cycles: 8791875 heartbeat IPC: 3.866 cumulative IPC: 3.867 (Simulation time: 00 hr 02 min 46 sec)
Heartbeat CPU 0 instructions: 34500247 cycles: 8931604 heartbeat IPC: 3.578 cumulative IPC: 3.863 (Simulation time: 00 hr 02 min 49 sec)
Heartbeat CPU 0 instructions: 35000248 cycles: 9060791 heartbeat IPC: 3.87 cumulative IPC: 3.863 (Simulation time: 00 hr 02 min 51 sec)
Heartbeat CPU 0 instructions: 35500255 cycles: 9195520 heartbeat IPC: 3.711 cumulative IPC: 3.861 (Simulation time: 00 hr 02 min 53 sec)
Heartbeat CPU 0 instructions: 36000259 cycles: 9321108 heartbeat IPC: 3.981 cumulative IPC: 3.862 (Simulation time: 00 hr 02 min 56 sec)
Heartbeat CPU 0 instructions: 36500260 cycles: 9447247 heartbeat IPC: 3.964 cumulative IPC: 3.864 (Simulation time: 00 hr 02 min 58 sec)
Heartbeat CPU 0 instructions: 37000260 cycles: 9564416 heartbeat IPC: 4.267 cumulative IPC: 3.869 (Simulation time: 00 hr 03 min 00 sec)
Heartbeat CPU 0 instructions: 37500261 cycles: 9692711 heartbeat IPC: 3.897 cumulative IPC: 3.869 (Simulation time: 00 hr 03 min 02 sec)
Heartbeat CPU 0 instructions: 38000265 cycles: 9826014 heartbeat IPC: 3.751 cumulative IPC: 3.867 (Simulation time: 00 hr 03 min 05 sec)
Heartbeat CPU 0 instructions: 38500269 cycles: 9956528 heartbeat IPC: 3.831 cumulative IPC: 3.867 (Simulation time: 00 hr 03 min 07 sec)
Heartbeat CPU 0 instructions: 39000275 cycles: 10084353 heartbeat IPC: 3.912 cumulative IPC: 3.867 (Simulation time: 00 hr 03 min 10 sec)
Heartbeat CPU 0 instructions: 39500278 cycles: 10211860 heartbeat IPC: 3.921 cumulative IPC: 3.868 (Simulation time: 00 hr 03 min 12 sec)
Heartbeat CPU 0 instructions: 40000279 cycles: 10332568 heartbeat IPC: 4.142 cumulative IPC: 3.871 (Simulation time: 00 hr 03 min 14 sec)
Heartbeat CPU 0 instructions: 40500283 cycles: 10459904 heartbeat IPC: 3.927 cumulative IPC: 3.872 (Simulation time: 00 hr 03 min 17 sec)
Heartbeat CPU 0 instructions: 41000287 cycles: 10598935 heartbeat IPC: 3.596 cumulative IPC: 3.868 (Simulation time: 00 hr 03 min 19 sec)
Heartbeat CPU 0 instructions: 41500290 cycles: 10730129 heartbeat IPC: 3.811 cumulative IPC: 3.868 (Simulation time: 00 hr 03 min 22 sec)
Heartbeat CPU 0 instructions: 42000290 cycles: 10852768 heartbeat IPC: 4.077 cumulative IPC: 3.87 (Simulation time: 00 hr 03 min 24 sec)
Heartbeat CPU 0 instructions: 42500297 cycles: 10985934 heartbeat IPC: 3.755 cumulative IPC: 3.869 (Simulation time: 00 hr 03 min 26 sec)
Heartbeat CPU 0 instructions: 43000300 cycles: 11125815 heartbeat IPC: 3.574 cumulative IPC: 3.865 (Simulation time: 00 hr 03 min 29 sec)
Heartbeat CPU 0 instructions: 43500301 cycles: 11255535 heartbeat IPC: 3.854 cumulative IPC: 3.865 (Simulation time: 00 hr 03 min 31 sec)
Heartbeat CPU 0 instructions: 44000308 cycles: 11386005 heartbeat IPC: 3.832 cumulative IPC: 3.864 (Simulation time: 00 hr 03 min 34 sec)
Heartbeat CPU 0 instructions: 44500312 cycles: 11510669 heartbeat IPC: 4.011 cumulative IPC: 3.866 (Simulation time: 00 hr 03 min 36 sec)
Heartbeat CPU 0 instructions: 45000318 cycles: 11637826 heartbeat IPC: 3.932 cumulative IPC: 3.867 (Simulation time: 00 hr 03 min 38 sec)
Heartbeat CPU 0 instructions: 45500322 cycles: 11755172 heartbeat IPC: 4.261 cumulative IPC: 3.871 (Simulation time: 00 hr 03 min 40 sec)
Heartbeat CPU 0 instructions: 46000324 cycles: 11887893 heartbeat IPC: 3.767 cumulative IPC: 3.87 (Simulation time: 00 hr 03 min 43 sec)
Heartbeat CPU 0 instructions: 46500331 cycles: 12024033 heartbeat IPC: 3.673 cumulative IPC: 3.867 (Simulation time: 00 hr 03 min 45 sec)
Heartbeat CPU 0 instructions: 47000333 cycles: 12150624 heartbeat IPC: 3.95 cumulative IPC: 3.868 (Simulation time: 00 hr 03 min 48 sec)
Heartbeat CPU 0 instructions: 47500339 cycles: 12281205 heartbeat IPC: 3.829 cumulative IPC: 3.868 (Simulation time: 00 hr 03 min 50 sec)
Heartbeat CPU 0 instructions: 48000341 cycles: 12406537 heartbeat IPC: 3.989 cumulative IPC: 3.869 (Simulation time: 00 hr 03 min 52 sec)
Heartbeat CPU 0 instructions: 48500342 cycles: 12531033 heartbeat IPC: 4.016 cumulative IPC: 3.87 (Simulation time: 00 hr 03 min 54 sec)
Heartbeat CPU 0 instructions: 49000344 cycles: 12659790 heartbeat IPC: 3.883 cumulative IPC: 3.871 (Simulation time: 00 hr 03 min 57 sec)
Heartbeat CPU 0 instructions: 49500347 cycles: 12796128 heartbeat IPC: 3.667 cumulative IPC: 3.868 (Simulation time: 00 hr 03 min 59 sec)
Warmup finished CPU 0 instructions: 50000003 cycles: 12922751 cumulative IPC: 3.869 (Simulation time: 00 hr 04 min 02 sec)
Warmup complete CPU 0 instructions: 50000003 cycles: 12922751 cumulative IPC: 3.869 (Simulation time: 00 hr 04 min 02 sec)
Heartbeat CPU 0 instructions: 50000347 cycles: 12922794 heartbeat IPC: 3.947 cumulative IPC: 8 (Simulation time: 00 hr 04 min 02 sec)
Heartbeat CPU 0 instructions: 50500348 cycles: 13685299 heartbeat IPC: 0.6557 cumulative IPC: 0.6561 (Simulation time: 00 hr 04 min 14 sec)
Heartbeat CPU 0 instructions: 51000351 cycles: 14496874 heartbeat IPC: 0.6161 cumulative IPC: 0.6355 (Simulation time: 00 hr 04 min 27 sec)
Heartbeat CPU 0 instructions: 51500356 cycles: 15397527 heartbeat IPC: 0.5552 cumulative IPC: 0.6063 (Simulation time: 00 hr 04 min 42 sec)
Heartbeat CPU 0 instructions: 52000359 cycles: 16241300 heartbeat IPC: 0.5926 cumulative IPC: 0.6028 (Simulation time: 00 hr 04 min 56 sec)
Heartbeat CPU 0 instructions: 52500360 cycles: 17059773 heartbeat IPC: 0.6109 cumulative IPC: 0.6044 (Simulation time: 00 hr 05 min 09 sec)
Heartbeat CPU 0 instructions: 53000361 cycles: 17807994 heartbeat IPC: 0.6683 cumulative IPC: 0.6142 (Simulation time: 00 hr 05 min 21 sec)
Heartbeat CPU 0 instructions: 53500367 cycles: 18584024 heartbeat IPC: 0.6443 cumulative IPC: 0.6183 (Simulation time: 00 hr 05 min 34 sec)
Heartbeat CPU 0 instructions: 54000373 cycles: 19114085 heartbeat IPC: 0.9433 cumulative IPC: 0.6461 (Simulation time: 00 hr 05 min 43 sec)
Heartbeat CPU 0 instructions: 54500375 cycles: 20062014 heartbeat IPC: 0.5275 cumulative IPC: 0.6304 (Simulation time: 00 hr 05 min 58 sec)
Heartbeat CPU 0 instructions: 55000377 cycles: 21042225 heartbeat IPC: 0.5101 cumulative IPC: 0.6158 (Simulation time: 00 hr 06 min 13 sec)
Heartbeat CPU 0 instructions: 55500380 cycles: 21844001 heartbeat IPC: 0.6236 cumulative IPC: 0.6165 (Simulation time: 00 hr 06 min 26 sec)
Heartbeat CPU 0 instructions: 56000386 cycles: 22677619 heartbeat IPC: 0.5998 cumulative IPC: 0.6151 (Simulation time: 00 hr 06 min 39 sec)
Heartbeat CPU 0 instructions: 56500387 cycles: 23440695 heartbeat IPC: 0.6552 cumulative IPC: 0.618 (Simulation time: 00 hr 06 min 51 sec)
Heartbeat CPU 0 instructions: 57000390 cycles: 24273890 heartbeat IPC: 0.6001 cumulative IPC: 0.6167 (Simulation time: 00 hr 07 min 05 sec)
Heartbeat CPU 0 instructions: 57500394 cycles: 25013351 heartbeat IPC: 0.6762 cumulative IPC: 0.6203 (Simulation time: 00 hr 07 min 16 sec)
Heartbeat CPU 0 instructions: 58000401 cycles: 25883274 heartbeat IPC: 0.5748 cumulative IPC: 0.6173 (Simulation time: 00 hr 07 min 30 sec)
Heartbeat CPU 0 instructions: 58500405 cycles: 26672263 heartbeat IPC: 0.6337 cumulative IPC: 0.6182 (Simulation time: 00 hr 07 min 43 sec)
Heartbeat CPU 0 instructions: 59000407 cycles: 27450223 heartbeat IPC: 0.6427 cumulative IPC: 0.6195 (Simulation time: 00 hr 07 min 55 sec)
Heartbeat CPU 0 instructions: 59500409 cycles: 28244555 heartbeat IPC: 0.6295 cumulative IPC: 0.6201 (Simulation time: 00 hr 08 min 07 sec)
Heartbeat CPU 0 instructions: 60000415 cycles: 29148858 heartbeat IPC: 0.5529 cumulative IPC: 0.6163 (Simulation time: 00 hr 08 min 21 sec)
Heartbeat CPU 0 instructions: 60500418 cycles: 29960186 heartbeat IPC: 0.6163 cumulative IPC: 0.6163 (Simulation time: 00 hr 08 min 34 sec)
Heartbeat CPU 0 instructions: 61000418 cycles: 30763762 heartbeat IPC: 0.6222 cumulative IPC: 0.6166 (Simulation time: 00 hr 08 min 47 sec)
Heartbeat CPU 0 instructions: 61500420 cycles: 31548580 heartbeat IPC: 0.6371 cumulative IPC: 0.6174 (Simulation time: 00 hr 08 min 59 sec)
Heartbeat CPU 0 instructions: 62000420 cycles: 32265447 heartbeat IPC: 0.6975 cumulative IPC: 0.6204 (Simulation time: 00 hr 09 min 10 sec)
Heartbeat CPU 0 instructions: 62500426 cycles: 32869431 heartbeat IPC: 0.8278 cumulative IPC: 0.6267 (Simulation time: 00 hr 09 min 19 sec)
Heartbeat CPU 0 instructions: 63000427 cycles: 33860275 heartbeat IPC: 0.5046 cumulative IPC: 0.6209 (Simulation time: 00 hr 09 min 34 sec)
Heartbeat CPU 0 instructions: 63500434 cycles: 34779742 heartbeat IPC: 0.5438 cumulative IPC: 0.6177 (Simulation time: 00 hr 09 min 48 sec)
Heartbeat CPU 0 instructions: 64000437 cycles: 35660994 heartbeat IPC: 0.5674 cumulative IPC: 0.6157 (Simulation time: 00 hr 10 min 01 sec)
Heartbeat CPU 0 instructions: 64500441 cycles: 36535425 heartbeat IPC: 0.5718 cumulative IPC: 0.6141 (Simulation time: 00 hr 10 min 14 sec)
Heartbeat CPU 0 instructions: 65000445 cycles: 37267829 heartbeat IPC: 0.6827 cumulative IPC: 0.6162 (Simulation time: 00 hr 10 min 25 sec)
Heartbeat CPU 0 instructions: 65500449 cycles: 38122987 heartbeat IPC: 0.5847 cumulative IPC: 0.6151 (Simulation time: 00 hr 10 min 38 sec)
Heartbeat CPU 0 instructions: 66000456 cycles: 38870558 heartbeat IPC: 0.6688 cumulative IPC: 0.6166 (Simulation time: 00 hr 10 min 49 sec)
Heartbeat CPU 0 instructions: 66500461 cycles: 39655197 heartbeat IPC: 0.6372 cumulative IPC: 0.6172 (Simulation time: 00 hr 11 min 01 sec)
Heartbeat CPU 0 instructions: 67000466 cycles: 40441619 heartbeat IPC: 0.6358 cumulative IPC: 0.6178 (Simulation time: 00 hr 11 min 13 sec)
Heartbeat CPU 0 instructions: 67500473 cycles: 41185767 heartbeat IPC: 0.6719 cumulative IPC: 0.6192 (Simulation time: 00 hr 11 min 24 sec)
Heartbeat CPU 0 instructions: 68000474 cycles: 41989856 heartbeat IPC: 0.6218 cumulative IPC: 0.6193 (Simulation time: 00 hr 11 min 36 sec)
Heartbeat CPU 0 instructions: 68500476 cycles: 42880617 heartbeat IPC: 0.5613 cumulative IPC: 0.6175 (Simulation time: 00 hr 11 min 49 sec)
Heartbeat CPU 0 instructions: 69000476 cycles: 43656005 heartbeat IPC: 0.6448 cumulative IPC: 0.6182 (Simulation time: 00 hr 12 min 01 sec)
Heartbeat CPU 0 instructions: 69500481 cycles: 44445874 heartbeat IPC: 0.633 cumulative IPC: 0.6186 (Simulation time: 00 hr 12 min 12 sec)
Heartbeat CPU 0 instructions: 70000484 cycles: 45186587 heartbeat IPC: 0.675 cumulative IPC: 0.6199 (Simulation time: 00 hr 12 min 23 sec)
Heartbeat CPU 0 instructions: 70500484 cycles: 45927135 heartbeat IPC: 0.6752 cumulative IPC: 0.6211 (Simulation time: 00 hr 12 min 35 sec)
Heartbeat CPU 0 instructions: 71000484 cycles: 46563215 heartbeat IPC: 0.7861 cumulative IPC: 0.6243 (Simulation time: 00 hr 12 min 44 sec)
Heartbeat CPU 0 instructions: 71500484 cycles: 47557966 heartbeat IPC: 0.5026 cumulative IPC: 0.6208 (Simulation time: 00 hr 12 min 59 sec)
Heartbeat CPU 0 instructions: 72000485 cycles: 48425970 heartbeat IPC: 0.576 cumulative IPC: 0.6197 (Simulation time: 00 hr 13 min 11 sec)
Heartbeat CPU 0 instructions: 72500489 cycles: 49361081 heartbeat IPC: 0.5347 cumulative IPC: 0.6175 (Simulation time: 00 hr 13 min 25 sec)
Heartbeat CPU 0 instructions: 73000489 cycles: 50239053 heartbeat IPC: 0.5695 cumulative IPC: 0.6164 (Simulation time: 00 hr 13 min 38 sec)
Heartbeat CPU 0 instructions: 73500489 cycles: 50993195 heartbeat IPC: 0.663 cumulative IPC: 0.6173 (Simulation time: 00 hr 13 min 49 sec)
Heartbeat CPU 0 instructions: 74000491 cycles: 51848777 heartbeat IPC: 0.5844 cumulative IPC: 0.6166 (Simulation time: 00 hr 14 min 01 sec)
Heartbeat CPU 0 instructions: 74500495 cycles: 52582946 heartbeat IPC: 0.681 cumulative IPC: 0.6178 (Simulation time: 00 hr 14 min 12 sec)
Heartbeat CPU 0 instructions: 75000498 cycles: 53367327 heartbeat IPC: 0.6374 cumulative IPC: 0.6181 (Simulation time: 00 hr 14 min 23 sec)
Heartbeat CPU 0 instructions: 75500504 cycles: 54183146 heartbeat IPC: 0.6129 cumulative IPC: 0.618 (Simulation time: 00 hr 14 min 35 sec)
Heartbeat CPU 0 instructions: 76000505 cycles: 54914884 heartbeat IPC: 0.6833 cumulative IPC: 0.6192 (Simulation time: 00 hr 14 min 45 sec)
Heartbeat CPU 0 instructions: 76500508 cycles: 55738643 heartbeat IPC: 0.607 cumulative IPC: 0.6189 (Simulation time: 00 hr 14 min 57 sec)
Heartbeat CPU 0 instructions: 77000510 cycles: 56627029 heartbeat IPC: 0.5628 cumulative IPC: 0.6178 (Simulation time: 00 hr 15 min 10 sec)
Heartbeat CPU 0 instructions: 77500515 cycles: 57395685 heartbeat IPC: 0.6505 cumulative IPC: 0.6184 (Simulation time: 00 hr 15 min 21 sec)
Heartbeat CPU 0 instructions: 78000515 cycles: 58137815 heartbeat IPC: 0.6737 cumulative IPC: 0.6193 (Simulation time: 00 hr 15 min 31 sec)
Heartbeat CPU 0 instructions: 78500522 cycles: 58920555 heartbeat IPC: 0.6388 cumulative IPC: 0.6196 (Simulation time: 00 hr 15 min 43 sec)
Heartbeat CPU 0 instructions: 79000526 cycles: 59571536 heartbeat IPC: 0.7681 cumulative IPC: 0.6217 (Simulation time: 00 hr 15 min 52 sec)
Heartbeat CPU 0 instructions: 79500527 cycles: 60306453 heartbeat IPC: 0.6804 cumulative IPC: 0.6226 (Simulation time: 00 hr 16 min 03 sec)
Heartbeat CPU 0 instructions: 80000528 cycles: 61265695 heartbeat IPC: 0.5212 cumulative IPC: 0.6206 (Simulation time: 00 hr 16 min 16 sec)
Heartbeat CPU 0 instructions: 80500529 cycles: 62100957 heartbeat IPC: 0.5986 cumulative IPC: 0.6202 (Simulation time: 00 hr 16 min 28 sec)
Heartbeat CPU 0 instructions: 81000536 cycles: 63045634 heartbeat IPC: 0.5293 cumulative IPC: 0.6185 (Simulation time: 00 hr 16 min 41 sec)
Heartbeat CPU 0 instructions: 81500543 cycles: 63926243 heartbeat IPC: 0.5678 cumulative IPC: 0.6176 (Simulation time: 00 hr 16 min 53 sec)
Heartbeat CPU 0 instructions: 82000544 cycles: 64724038 heartbeat IPC: 0.6267 cumulative IPC: 0.6178 (Simulation time: 00 hr 17 min 05 sec)
Heartbeat CPU 0 instructions: 82500550 cycles: 65557810 heartbeat IPC: 0.5997 cumulative IPC: 0.6175 (Simulation time: 00 hr 17 min 16 sec)
Heartbeat CPU 0 instructions: 83000557 cycles: 66286370 heartbeat IPC: 0.6863 cumulative IPC: 0.6184 (Simulation time: 00 hr 17 min 27 sec)
Heartbeat CPU 0 instructions: 83500558 cycles: 67075984 heartbeat IPC: 0.6332 cumulative IPC: 0.6186 (Simulation time: 00 hr 17 min 38 sec)
Heartbeat CPU 0 instructions: 84000558 cycles: 67911449 heartbeat IPC: 0.5985 cumulative IPC: 0.6183 (Simulation time: 00 hr 17 min 50 sec)
Heartbeat CPU 0 instructions: 84500564 cycles: 68722781 heartbeat IPC: 0.6163 cumulative IPC: 0.6183 (Simulation time: 00 hr 18 min 01 sec)
Heartbeat CPU 0 instructions: 85000569 cycles: 69523017 heartbeat IPC: 0.6248 cumulative IPC: 0.6184 (Simulation time: 00 hr 18 min 12 sec)
Heartbeat CPU 0 instructions: 85500571 cycles: 70378425 heartbeat IPC: 0.5845 cumulative IPC: 0.6179 (Simulation time: 00 hr 18 min 24 sec)
Heartbeat CPU 0 instructions: 86000572 cycles: 71129805 heartbeat IPC: 0.6654 cumulative IPC: 0.6185 (Simulation time: 00 hr 18 min 35 sec)
Heartbeat CPU 0 instructions: 86500577 cycles: 71875682 heartbeat IPC: 0.6704 cumulative IPC: 0.6191 (Simulation time: 00 hr 18 min 45 sec)
Heartbeat CPU 0 instructions: 87000577 cycles: 72754285 heartbeat IPC: 0.5691 cumulative IPC: 0.6184 (Simulation time: 00 hr 18 min 57 sec)
Heartbeat CPU 0 instructions: 87500583 cycles: 73400347 heartbeat IPC: 0.7739 cumulative IPC: 0.6201 (Simulation time: 00 hr 19 min 06 sec)
Heartbeat CPU 0 instructions: 88000585 cycles: 74106502 heartbeat IPC: 0.7081 cumulative IPC: 0.6211 (Simulation time: 00 hr 19 min 16 sec)
Heartbeat CPU 0 instructions: 88500590 cycles: 75019677 heartbeat IPC: 0.5475 cumulative IPC: 0.62 (Simulation time: 00 hr 19 min 29 sec)
Heartbeat CPU 0 instructions: 89000592 cycles: 75842601 heartbeat IPC: 0.6076 cumulative IPC: 0.6198 (Simulation time: 00 hr 19 min 40 sec)
Heartbeat CPU 0 instructions: 89500599 cycles: 76783001 heartbeat IPC: 0.5317 cumulative IPC: 0.6185 (Simulation time: 00 hr 19 min 53 sec)
Heartbeat CPU 0 instructions: 90000606 cycles: 77737346 heartbeat IPC: 0.5239 cumulative IPC: 0.6172 (Simulation time: 00 hr 20 min 06 sec)
Heartbeat CPU 0 instructions: 90500606 cycles: 78622207 heartbeat IPC: 0.5651 cumulative IPC: 0.6165 (Simulation time: 00 hr 20 min 18 sec)
Heartbeat CPU 0 instructions: 91000613 cycles: 79392818 heartbeat IPC: 0.6488 cumulative IPC: 0.6168 (Simulation time: 00 hr 20 min 28 sec)
Heartbeat CPU 0 instructions: 91500617 cycles: 80152977 heartbeat IPC: 0.6578 cumulative IPC: 0.6173 (Simulation time: 00 hr 20 min 39 sec)
Heartbeat CPU 0 instructions: 92000622 cycles: 80978030 heartbeat IPC: 0.606 cumulative IPC: 0.6172 (Simulation time: 00 hr 20 min 50 sec)
Heartbeat CPU 0 instructions: 92500623 cycles: 81879100 heartbeat IPC: 0.5549 cumulative IPC: 0.6163 (Simulation time: 00 hr 21 min 02 sec)
Heartbeat CPU 0 instructions: 93000627 cycles: 82789707 heartbeat IPC: 0.5491 cumulative IPC: 0.6155 (Simulation time: 00 hr 21 min 15 sec)
Heartbeat CPU 0 instructions: 93500630 cycles: 83571066 heartbeat IPC: 0.6399 cumulative IPC: 0.6157 (Simulation time: 00 hr 21 min 25 sec)
Heartbeat CPU 0 instructions: 94000635 cycles: 84320783 heartbeat IPC: 0.6669 cumulative IPC: 0.6163 (Simulation time: 00 hr 21 min 36 sec)
Heartbeat CPU 0 instructions: 94500638 cycles: 85052776 heartbeat IPC: 0.6831 cumulative IPC: 0.617 (Simulation time: 00 hr 21 min 46 sec)
Heartbeat CPU 0 instructions: 95000638 cycles: 85816066 heartbeat IPC: 0.6551 cumulative IPC: 0.6173 (Simulation time: 00 hr 21 min 56 sec)
Heartbeat CPU 0 instructions: 95500638 cycles: 86640464 heartbeat IPC: 0.6065 cumulative IPC: 0.6172 (Simulation time: 00 hr 22 min 07 sec)
Heartbeat CPU 0 instructions: 96000641 cycles: 87169127 heartbeat IPC: 0.9458 cumulative IPC: 0.6196 (Simulation time: 00 hr 22 min 14 sec)
Heartbeat CPU 0 instructions: 96500648 cycles: 88226644 heartbeat IPC: 0.4728 cumulative IPC: 0.6175 (Simulation time: 00 hr 22 min 28 sec)
Heartbeat CPU 0 instructions: 97000652 cycles: 88961646 heartbeat IPC: 0.6803 cumulative IPC: 0.6181 (Simulation time: 00 hr 22 min 38 sec)
Heartbeat CPU 0 instructions: 97500657 cycles: 89853408 heartbeat IPC: 0.5607 cumulative IPC: 0.6174 (Simulation time: 00 hr 22 min 50 sec)
Heartbeat CPU 0 instructions: 98000661 cycles: 90660753 heartbeat IPC: 0.6193 cumulative IPC: 0.6175 (Simulation time: 00 hr 23 min 01 sec)
Heartbeat CPU 0 instructions: 98500664 cycles: 91687200 heartbeat IPC: 0.4871 cumulative IPC: 0.6158 (Simulation time: 00 hr 23 min 15 sec)
Heartbeat CPU 0 instructions: 99000669 cycles: 92612400 heartbeat IPC: 0.5404 cumulative IPC: 0.6149 (Simulation time: 00 hr 23 min 27 sec)
Heartbeat CPU 0 instructions: 99500672 cycles: 93276887 heartbeat IPC: 0.7525 cumulative IPC: 0.616 (Simulation time: 00 hr 23 min 36 sec)
Heartbeat CPU 0 instructions: 100000674 cycles: 94082741 heartbeat IPC: 0.6205 cumulative IPC: 0.6161 (Simulation time: 00 hr 23 min 47 sec)
Heartbeat CPU 0 instructions: 100500678 cycles: 94889914 heartbeat IPC: 0.6195 cumulative IPC: 0.6161 (Simulation time: 00 hr 23 min 58 sec)
Heartbeat CPU 0 instructions: 101000684 cycles: 95746373 heartbeat IPC: 0.5838 cumulative IPC: 0.6158 (Simulation time: 00 hr 24 min 09 sec)
Heartbeat CPU 0 instructions: 101500688 cycles: 96657415 heartbeat IPC: 0.5488 cumulative IPC: 0.615 (Simulation time: 00 hr 24 min 21 sec)
Heartbeat CPU 0 instructions: 102000688 cycles: 97481260 heartbeat IPC: 0.6069 cumulative IPC: 0.615 (Simulation time: 00 hr 24 min 32 sec)
Heartbeat CPU 0 instructions: 102500691 cycles: 98237723 heartbeat IPC: 0.661 cumulative IPC: 0.6154 (Simulation time: 00 hr 24 min 42 sec)
Heartbeat CPU 0 instructions: 103000698 cycles: 98972552 heartbeat IPC: 0.6804 cumulative IPC: 0.6159 (Simulation time: 00 hr 24 min 52 sec)
Heartbeat CPU 0 instructions: 103500704 cycles: 99789850 heartbeat IPC: 0.6118 cumulative IPC: 0.6159 (Simulation time: 00 hr 25 min 03 sec)
Heartbeat CPU 0 instructions: 104000707 cycles: 100406293 heartbeat IPC: 0.8111 cumulative IPC: 0.6173 (Simulation time: 00 hr 25 min 12 sec)
Heartbeat CPU 0 instructions: 104500713 cycles: 101117258 heartbeat IPC: 0.7033 cumulative IPC: 0.618 (Simulation time: 00 hr 25 min 21 sec)
Heartbeat CPU 0 instructions: 105000713 cycles: 102149164 heartbeat IPC: 0.4845 cumulative IPC: 0.6164 (Simulation time: 00 hr 25 min 34 sec)
Heartbeat CPU 0 instructions: 105500717 cycles: 102899071 heartbeat IPC: 0.6668 cumulative IPC: 0.6168 (Simulation time: 00 hr 25 min 44 sec)
Heartbeat CPU 0 instructions: 106000723 cycles: 103801529 heartbeat IPC: 0.554 cumulative IPC: 0.6162 (Simulation time: 00 hr 25 min 56 sec)
Heartbeat CPU 0 instructions: 106500729 cycles: 104678363 heartbeat IPC: 0.5702 cumulative IPC: 0.6158 (Simulation time: 00 hr 26 min 08 sec)
Heartbeat CPU 0 instructions: 107000736 cycles: 105640164 heartbeat IPC: 0.5199 cumulative IPC: 0.6148 (Simulation time: 00 hr 26 min 20 sec)
Heartbeat CPU 0 instructions: 107500740 cycles: 106504295 heartbeat IPC: 0.5786 cumulative IPC: 0.6144 (Simulation time: 00 hr 26 min 32 sec)
Heartbeat CPU 0 instructions: 108000744 cycles: 107156517 heartbeat IPC: 0.7666 cumulative IPC: 0.6155 (Simulation time: 00 hr 26 min 40 sec)
Heartbeat CPU 0 instructions: 108500746 cycles: 107934930 heartbeat IPC: 0.6423 cumulative IPC: 0.6157 (Simulation time: 00 hr 26 min 51 sec)
Heartbeat CPU 0 instructions: 109000753 cycles: 108840062 heartbeat IPC: 0.5524 cumulative IPC: 0.6151 (Simulation time: 00 hr 27 min 03 sec)
Heartbeat CPU 0 instructions: 109500754 cycles: 109775192 heartbeat IPC: 0.5347 cumulative IPC: 0.6143 (Simulation time: 00 hr 27 min 15 sec)
Heartbeat CPU 0 instructions: 110000759 cycles: 110576539 heartbeat IPC: 0.624 cumulative IPC: 0.6144 (Simulation time: 00 hr 27 min 25 sec)
Heartbeat CPU 0 instructions: 110500760 cycles: 111365495 heartbeat IPC: 0.6338 cumulative IPC: 0.6146 (Simulation time: 00 hr 27 min 36 sec)
Heartbeat CPU 0 instructions: 111000762 cycles: 112131199 heartbeat IPC: 0.653 cumulative IPC: 0.6149 (Simulation time: 00 hr 27 min 46 sec)
Heartbeat CPU 0 instructions: 111500764 cycles: 112889223 heartbeat IPC: 0.6596 cumulative IPC: 0.6152 (Simulation time: 00 hr 27 min 56 sec)
Heartbeat CPU 0 instructions: 112000771 cycles: 113723127 heartbeat IPC: 0.5996 cumulative IPC: 0.6151 (Simulation time: 00 hr 28 min 07 sec)
Heartbeat CPU 0 instructions: 112500772 cycles: 114271085 heartbeat IPC: 0.9125 cumulative IPC: 0.6167 (Simulation time: 00 hr 28 min 15 sec)
Heartbeat CPU 0 instructions: 113000773 cycles: 115174996 heartbeat IPC: 0.5532 cumulative IPC: 0.6161 (Simulation time: 00 hr 28 min 27 sec)
Heartbeat CPU 0 instructions: 113500774 cycles: 116042353 heartbeat IPC: 0.5765 cumulative IPC: 0.6158 (Simulation time: 00 hr 28 min 38 sec)
Heartbeat CPU 0 instructions: 114000776 cycles: 116869664 heartbeat IPC: 0.6044 cumulative IPC: 0.6157 (Simulation time: 00 hr 28 min 49 sec)
Heartbeat CPU 0 instructions: 114500777 cycles: 117604500 heartbeat IPC: 0.6804 cumulative IPC: 0.6162 (Simulation time: 00 hr 28 min 59 sec)
Heartbeat CPU 0 instructions: 115000779 cycles: 118631055 heartbeat IPC: 0.4871 cumulative IPC: 0.6149 (Simulation time: 00 hr 29 min 12 sec)
Heartbeat CPU 0 instructions: 115500782 cycles: 119529460 heartbeat IPC: 0.5565 cumulative IPC: 0.6144 (Simulation time: 00 hr 29 min 24 sec)
Heartbeat CPU 0 instructions: 116000786 cycles: 120269677 heartbeat IPC: 0.6755 cumulative IPC: 0.6148 (Simulation time: 00 hr 29 min 34 sec)
Heartbeat CPU 0 instructions: 116500789 cycles: 120961819 heartbeat IPC: 0.7224 cumulative IPC: 0.6155 (Simulation time: 00 hr 29 min 43 sec)
Heartbeat CPU 0 instructions: 117000790 cycles: 121737855 heartbeat IPC: 0.6443 cumulative IPC: 0.6157 (Simulation time: 00 hr 29 min 53 sec)
Heartbeat CPU 0 instructions: 117500796 cycles: 122631842 heartbeat IPC: 0.5593 cumulative IPC: 0.6153 (Simulation time: 00 hr 30 min 05 sec)
Heartbeat CPU 0 instructions: 118000796 cycles: 123570628 heartbeat IPC: 0.5326 cumulative IPC: 0.6146 (Simulation time: 00 hr 30 min 17 sec)
Heartbeat CPU 0 instructions: 118500796 cycles: 124387452 heartbeat IPC: 0.6121 cumulative IPC: 0.6146 (Simulation time: 00 hr 30 min 28 sec)
Heartbeat CPU 0 instructions: 119000798 cycles: 125153674 heartbeat IPC: 0.6526 cumulative IPC: 0.6148 (Simulation time: 00 hr 30 min 38 sec)
Heartbeat CPU 0 instructions: 119500805 cycles: 125929596 heartbeat IPC: 0.6444 cumulative IPC: 0.615 (Simulation time: 00 hr 30 min 49 sec)
Heartbeat CPU 0 instructions: 120000808 cycles: 126773717 heartbeat IPC: 0.5923 cumulative IPC: 0.6148 (Simulation time: 00 hr 31 min 00 sec)
Heartbeat CPU 0 instructions: 120500814 cycles: 127483083 heartbeat IPC: 0.7049 cumulative IPC: 0.6154 (Simulation time: 00 hr 31 min 09 sec)
Heartbeat CPU 0 instructions: 121000821 cycles: 128012093 heartbeat IPC: 0.9452 cumulative IPC: 0.6169 (Simulation time: 00 hr 31 min 17 sec)
Heartbeat CPU 0 instructions: 121500824 cycles: 129070074 heartbeat IPC: 0.4726 cumulative IPC: 0.6156 (Simulation time: 00 hr 31 min 30 sec)
Heartbeat CPU 0 instructions: 122000829 cycles: 129888889 heartbeat IPC: 0.6106 cumulative IPC: 0.6156 (Simulation time: 00 hr 31 min 41 sec)
Heartbeat CPU 0 instructions: 122500831 cycles: 130756808 heartbeat IPC: 0.5761 cumulative IPC: 0.6153 (Simulation time: 00 hr 31 min 53 sec)
Heartbeat CPU 0 instructions: 123000835 cycles: 131423134 heartbeat IPC: 0.7504 cumulative IPC: 0.616 (Simulation time: 00 hr 32 min 02 sec)
Heartbeat CPU 0 instructions: 123500841 cycles: 132451654 heartbeat IPC: 0.4861 cumulative IPC: 0.6149 (Simulation time: 00 hr 32 min 15 sec)
Heartbeat CPU 0 instructions: 124000842 cycles: 133390036 heartbeat IPC: 0.5328 cumulative IPC: 0.6143 (Simulation time: 00 hr 32 min 27 sec)
Heartbeat CPU 0 instructions: 124500845 cycles: 134062477 heartbeat IPC: 0.7436 cumulative IPC: 0.615 (Simulation time: 00 hr 32 min 36 sec)
Heartbeat CPU 0 instructions: 125000849 cycles: 134868937 heartbeat IPC: 0.62 cumulative IPC: 0.615 (Simulation time: 00 hr 32 min 47 sec)
Heartbeat CPU 0 instructions: 125500852 cycles: 135710646 heartbeat IPC: 0.594 cumulative IPC: 0.6149 (Simulation time: 00 hr 32 min 58 sec)
Heartbeat CPU 0 instructions: 126000856 cycles: 136470616 heartbeat IPC: 0.6579 cumulative IPC: 0.6152 (Simulation time: 00 hr 33 min 08 sec)
Heartbeat CPU 0 instructions: 126500859 cycles: 137416091 heartbeat IPC: 0.5288 cumulative IPC: 0.6145 (Simulation time: 00 hr 33 min 20 sec)
Heartbeat CPU 0 instructions: 127000859 cycles: 138302348 heartbeat IPC: 0.5642 cumulative IPC: 0.6141 (Simulation time: 00 hr 33 min 32 sec)
Heartbeat CPU 0 instructions: 127500865 cycles: 139068390 heartbeat IPC: 0.6527 cumulative IPC: 0.6144 (Simulation time: 00 hr 33 min 42 sec)
Heartbeat CPU 0 instructions: 128000867 cycles: 139899964 heartbeat IPC: 0.6013 cumulative IPC: 0.6143 (Simulation time: 00 hr 33 min 53 sec)
Heartbeat CPU 0 instructions: 128500868 cycles: 140728019 heartbeat IPC: 0.6038 cumulative IPC: 0.6142 (Simulation time: 00 hr 34 min 04 sec)
Heartbeat CPU 0 instructions: 129000871 cycles: 141227562 heartbeat IPC: 1.001 cumulative IPC: 0.6157 (Simulation time: 00 hr 34 min 11 sec)
Heartbeat CPU 0 instructions: 129500873 cycles: 141965437 heartbeat IPC: 0.6776 cumulative IPC: 0.6161 (Simulation time: 00 hr 34 min 21 sec)
Heartbeat CPU 0 instructions: 130000874 cycles: 142919666 heartbeat IPC: 0.524 cumulative IPC: 0.6154 (Simulation time: 00 hr 34 min 33 sec)
Heartbeat CPU 0 instructions: 130500875 cycles: 143819693 heartbeat IPC: 0.5555 cumulative IPC: 0.615 (Simulation time: 00 hr 34 min 45 sec)
Heartbeat CPU 0 instructions: 131000879 cycles: 144602621 heartbeat IPC: 0.6386 cumulative IPC: 0.6151 (Simulation time: 00 hr 34 min 55 sec)
Heartbeat CPU 0 instructions: 131500882 cycles: 145328921 heartbeat IPC: 0.6884 cumulative IPC: 0.6155 (Simulation time: 00 hr 35 min 05 sec)
Heartbeat CPU 0 instructions: 132000885 cycles: 146273337 heartbeat IPC: 0.5294 cumulative IPC: 0.6149 (Simulation time: 00 hr 35 min 17 sec)
Heartbeat CPU 0 instructions: 132500889 cycles: 147253899 heartbeat IPC: 0.5099 cumulative IPC: 0.6142 (Simulation time: 00 hr 35 min 30 sec)
Heartbeat CPU 0 instructions: 133000889 cycles: 147977488 heartbeat IPC: 0.691 cumulative IPC: 0.6146 (Simulation time: 00 hr 35 min 40 sec)
Heartbeat CPU 0 instructions: 133500893 cycles: 148839968 heartbeat IPC: 0.5797 cumulative IPC: 0.6144 (Simulation time: 00 hr 35 min 51 sec)
Heartbeat CPU 0 instructions: 134000893 cycles: 149645995 heartbeat IPC: 0.6203 cumulative IPC: 0.6144 (Simulation time: 00 hr 36 min 02 sec)
Heartbeat CPU 0 instructions: 134500897 cycles: 150519831 heartbeat IPC: 0.5722 cumulative IPC: 0.6141 (Simulation time: 00 hr 36 min 13 sec)
Heartbeat CPU 0 instructions: 135000902 cycles: 151390951 heartbeat IPC: 0.574 cumulative IPC: 0.6139 (Simulation time: 00 hr 36 min 25 sec)
Heartbeat CPU 0 instructions: 135500902 cycles: 152220586 heartbeat IPC: 0.6027 cumulative IPC: 0.6138 (Simulation time: 00 hr 36 min 36 sec)
Heartbeat CPU 0 instructions: 136000903 cycles: 152953503 heartbeat IPC: 0.6822 cumulative IPC: 0.6142 (Simulation time: 00 hr 36 min 46 sec)
Heartbeat CPU 0 instructions: 136500906 cycles: 153841814 heartbeat IPC: 0.5629 cumulative IPC: 0.6138 (Simulation time: 00 hr 36 min 57 sec)
Heartbeat CPU 0 instructions: 137000910 cycles: 154578488 heartbeat IPC: 0.6787 cumulative IPC: 0.6142 (Simulation time: 00 hr 37 min 07 sec)
Heartbeat CPU 0 instructions: 137500914 cycles: 155096414 heartbeat IPC: 0.9654 cumulative IPC: 0.6155 (Simulation time: 00 hr 37 min 14 sec)
Heartbeat CPU 0 instructions: 138000914 cycles: 155876609 heartbeat IPC: 0.6409 cumulative IPC: 0.6156 (Simulation time: 00 hr 37 min 24 sec)
Heartbeat CPU 0 instructions: 138500914 cycles: 156868517 heartbeat IPC: 0.5041 cumulative IPC: 0.6148 (Simulation time: 00 hr 37 min 37 sec)
Heartbeat CPU 0 instructions: 139000918 cycles: 157697903 heartbeat IPC: 0.6029 cumulative IPC: 0.6148 (Simulation time: 00 hr 37 min 48 sec)
Heartbeat CPU 0 instructions: 139500924 cycles: 158390180 heartbeat IPC: 0.7223 cumulative IPC: 0.6153 (Simulation time: 00 hr 37 min 57 sec)
Heartbeat CPU 0 instructions: 140000927 cycles: 159256675 heartbeat IPC: 0.577 cumulative IPC: 0.615 (Simulation time: 00 hr 38 min 09 sec)
Heartbeat CPU 0 instructions: 140500931 cycles: 160029848 heartbeat IPC: 0.6467 cumulative IPC: 0.6152 (Simulation time: 00 hr 38 min 19 sec)
Heartbeat CPU 0 instructions: 141000937 cycles: 161026386 heartbeat IPC: 0.5017 cumulative IPC: 0.6144 (Simulation time: 00 hr 38 min 32 sec)
Heartbeat CPU 0 instructions: 141500938 cycles: 161932025 heartbeat IPC: 0.5521 cumulative IPC: 0.6141 (Simulation time: 00 hr 38 min 44 sec)
Heartbeat CPU 0 instructions: 142000942 cycles: 162743907 heartbeat IPC: 0.6159 cumulative IPC: 0.6141 (Simulation time: 00 hr 38 min 55 sec)
Heartbeat CPU 0 instructions: 142500945 cycles: 163495895 heartbeat IPC: 0.6649 cumulative IPC: 0.6143 (Simulation time: 00 hr 39 min 05 sec)
Heartbeat CPU 0 instructions: 143000946 cycles: 164405023 heartbeat IPC: 0.55 cumulative IPC: 0.6139 (Simulation time: 00 hr 39 min 16 sec)
Heartbeat CPU 0 instructions: 143500952 cycles: 165277089 heartbeat IPC: 0.5734 cumulative IPC: 0.6137 (Simulation time: 00 hr 39 min 28 sec)
Heartbeat CPU 0 instructions: 144000953 cycles: 166046655 heartbeat IPC: 0.6497 cumulative IPC: 0.6139 (Simulation time: 00 hr 39 min 38 sec)
Heartbeat CPU 0 instructions: 144500956 cycles: 166837609 heartbeat IPC: 0.6322 cumulative IPC: 0.614 (Simulation time: 00 hr 39 min 49 sec)
Heartbeat CPU 0 instructions: 145000957 cycles: 167728194 heartbeat IPC: 0.5614 cumulative IPC: 0.6137 (Simulation time: 00 hr 40 min 00 sec)
Heartbeat CPU 0 instructions: 145500957 cycles: 168312767 heartbeat IPC: 0.8553 cumulative IPC: 0.6146 (Simulation time: 00 hr 40 min 08 sec)
Heartbeat CPU 0 instructions: 146000957 cycles: 168842537 heartbeat IPC: 0.9438 cumulative IPC: 0.6157 (Simulation time: 00 hr 40 min 15 sec)
Heartbeat CPU 0 instructions: 146500957 cycles: 169749215 heartbeat IPC: 0.5515 cumulative IPC: 0.6153 (Simulation time: 00 hr 40 min 27 sec)
Heartbeat CPU 0 instructions: 147000962 cycles: 170713382 heartbeat IPC: 0.5186 cumulative IPC: 0.6147 (Simulation time: 00 hr 40 min 40 sec)
Heartbeat CPU 0 instructions: 147500963 cycles: 171483871 heartbeat IPC: 0.6489 cumulative IPC: 0.6149 (Simulation time: 00 hr 40 min 50 sec)
Heartbeat CPU 0 instructions: 148000970 cycles: 172155167 heartbeat IPC: 0.7448 cumulative IPC: 0.6155 (Simulation time: 00 hr 40 min 59 sec)
Heartbeat CPU 0 instructions: 148500970 cycles: 173067083 heartbeat IPC: 0.5483 cumulative IPC: 0.6151 (Simulation time: 00 hr 41 min 11 sec)
Heartbeat CPU 0 instructions: 149000970 cycles: 173780147 heartbeat IPC: 0.7012 cumulative IPC: 0.6155 (Simulation time: 00 hr 41 min 21 sec)
Heartbeat CPU 0 instructions: 149500977 cycles: 174796167 heartbeat IPC: 0.4921 cumulative IPC: 0.6147 (Simulation time: 00 hr 41 min 34 sec)
Heartbeat CPU 0 instructions: 150000979 cycles: 175742150 heartbeat IPC: 0.5286 cumulative IPC: 0.6142 (Simulation time: 00 hr 41 min 46 sec)
Heartbeat CPU 0 instructions: 150500980 cycles: 176531065 heartbeat IPC: 0.6338 cumulative IPC: 0.6143 (Simulation time: 00 hr 41 min 57 sec)
Heartbeat CPU 0 instructions: 151000983 cycles: 177294443 heartbeat IPC: 0.655 cumulative IPC: 0.6145 (Simulation time: 00 hr 42 min 07 sec)
Heartbeat CPU 0 instructions: 151500988 cycles: 178148267 heartbeat IPC: 0.5856 cumulative IPC: 0.6143 (Simulation time: 00 hr 42 min 18 sec)
Heartbeat CPU 0 instructions: 152000994 cycles: 179006263 heartbeat IPC: 0.5828 cumulative IPC: 0.6142 (Simulation time: 00 hr 42 min 29 sec)
Heartbeat CPU 0 instructions: 152500995 cycles: 179745513 heartbeat IPC: 0.6764 cumulative IPC: 0.6144 (Simulation time: 00 hr 42 min 39 sec)
Heartbeat CPU 0 instructions: 153000997 cycles: 180566141 heartbeat IPC: 0.6093 cumulative IPC: 0.6144 (Simulation time: 00 hr 42 min 50 sec)
Heartbeat CPU 0 instructions: 153501002 cycles: 181463312 heartbeat IPC: 0.5573 cumulative IPC: 0.6141 (Simulation time: 00 hr 43 min 02 sec)
Heartbeat CPU 0 instructions: 154001002 cycles: 182008624 heartbeat IPC: 0.9169 cumulative IPC: 0.6151 (Simulation time: 00 hr 43 min 09 sec)
Heartbeat CPU 0 instructions: 154501008 cycles: 182567253 heartbeat IPC: 0.8951 cumulative IPC: 0.616 (Simulation time: 00 hr 43 min 17 sec)
Heartbeat CPU 0 instructions: 155001008 cycles: 183510205 heartbeat IPC: 0.5302 cumulative IPC: 0.6155 (Simulation time: 00 hr 43 min 29 sec)
Heartbeat CPU 0 instructions: 155501013 cycles: 184441668 heartbeat IPC: 0.5368 cumulative IPC: 0.6151 (Simulation time: 00 hr 43 min 41 sec)
Heartbeat CPU 0 instructions: 156001015 cycles: 185219502 heartbeat IPC: 0.6428 cumulative IPC: 0.6152 (Simulation time: 00 hr 43 min 52 sec)
Heartbeat CPU 0 instructions: 156501021 cycles: 185915556 heartbeat IPC: 0.7183 cumulative IPC: 0.6156 (Simulation time: 00 hr 44 min 01 sec)
Heartbeat CPU 0 instructions: 157001021 cycles: 186775883 heartbeat IPC: 0.5812 cumulative IPC: 0.6155 (Simulation time: 00 hr 44 min 12 sec)
Heartbeat CPU 0 instructions: 157501025 cycles: 187546026 heartbeat IPC: 0.6492 cumulative IPC: 0.6156 (Simulation time: 00 hr 44 min 23 sec)
Heartbeat CPU 0 instructions: 158001032 cycles: 188504717 heartbeat IPC: 0.5216 cumulative IPC: 0.6151 (Simulation time: 00 hr 44 min 35 sec)
Heartbeat CPU 0 instructions: 158501034 cycles: 189479709 heartbeat IPC: 0.5128 cumulative IPC: 0.6145 (Simulation time: 00 hr 44 min 48 sec)
Heartbeat CPU 0 instructions: 159001035 cycles: 190241200 heartbeat IPC: 0.6566 cumulative IPC: 0.6147 (Simulation time: 00 hr 44 min 58 sec)
Heartbeat CPU 0 instructions: 159501040 cycles: 191023994 heartbeat IPC: 0.6387 cumulative IPC: 0.6148 (Simulation time: 00 hr 45 min 08 sec)
Heartbeat CPU 0 instructions: 160001041 cycles: 191902409 heartbeat IPC: 0.5692 cumulative IPC: 0.6146 (Simulation time: 00 hr 45 min 20 sec)
Heartbeat CPU 0 instructions: 160501046 cycles: 192761418 heartbeat IPC: 0.5821 cumulative IPC: 0.6144 (Simulation time: 00 hr 45 min 31 sec)
Heartbeat CPU 0 instructions: 161001046 cycles: 193484400 heartbeat IPC: 0.6916 cumulative IPC: 0.6148 (Simulation time: 00 hr 45 min 41 sec)
Heartbeat CPU 0 instructions: 161501049 cycles: 194334332 heartbeat IPC: 0.5883 cumulative IPC: 0.6146 (Simulation time: 00 hr 45 min 52 sec)
Heartbeat CPU 0 instructions: 162001054 cycles: 195221086 heartbeat IPC: 0.5639 cumulative IPC: 0.6144 (Simulation time: 00 hr 46 min 03 sec)
Heartbeat CPU 0 instructions: 162501054 cycles: 195717120 heartbeat IPC: 1.008 cumulative IPC: 0.6155 (Simulation time: 00 hr 46 min 10 sec)
Heartbeat CPU 0 instructions: 163001057 cycles: 196364485 heartbeat IPC: 0.7724 cumulative IPC: 0.616 (Simulation time: 00 hr 46 min 19 sec)
Heartbeat CPU 0 instructions: 163501061 cycles: 197270498 heartbeat IPC: 0.5519 cumulative IPC: 0.6157 (Simulation time: 00 hr 46 min 31 sec)
Heartbeat CPU 0 instructions: 164001066 cycles: 198197781 heartbeat IPC: 0.5392 cumulative IPC: 0.6153 (Simulation time: 00 hr 46 min 43 sec)
Heartbeat CPU 0 instructions: 164501073 cycles: 199001698 heartbeat IPC: 0.622 cumulative IPC: 0.6153 (Simulation time: 00 hr 46 min 54 sec)
Heartbeat CPU 0 instructions: 165001074 cycles: 199706650 heartbeat IPC: 0.7093 cumulative IPC: 0.6157 (Simulation time: 00 hr 47 min 03 sec)
Heartbeat CPU 0 instructions: 165501076 cycles: 200551192 heartbeat IPC: 0.592 cumulative IPC: 0.6156 (Simulation time: 00 hr 47 min 14 sec)
Heartbeat CPU 0 instructions: 166001078 cycles: 201386431 heartbeat IPC: 0.5986 cumulative IPC: 0.6155 (Simulation time: 00 hr 47 min 25 sec)
Heartbeat CPU 0 instructions: 166501078 cycles: 202225154 heartbeat IPC: 0.5961 cumulative IPC: 0.6154 (Simulation time: 00 hr 47 min 36 sec)
Heartbeat CPU 0 instructions: 167001080 cycles: 203155612 heartbeat IPC: 0.5374 cumulative IPC: 0.615 (Simulation time: 00 hr 47 min 48 sec)
Heartbeat CPU 0 instructions: 167501086 cycles: 203887069 heartbeat IPC: 0.6836 cumulative IPC: 0.6153 (Simulation time: 00 hr 47 min 58 sec)
Heartbeat CPU 0 instructions: 168001093 cycles: 204692467 heartbeat IPC: 0.6208 cumulative IPC: 0.6153 (Simulation time: 00 hr 48 min 09 sec)
Heartbeat CPU 0 instructions: 168501100 cycles: 205539222 heartbeat IPC: 0.5905 cumulative IPC: 0.6152 (Simulation time: 00 hr 48 min 20 sec)
Heartbeat CPU 0 instructions: 169001105 cycles: 206345164 heartbeat IPC: 0.6204 cumulative IPC: 0.6152 (Simulation time: 00 hr 48 min 31 sec)
Heartbeat CPU 0 instructions: 169501108 cycles: 207119551 heartbeat IPC: 0.6457 cumulative IPC: 0.6154 (Simulation time: 00 hr 48 min 41 sec)
Heartbeat CPU 0 instructions: 170001114 cycles: 207953255 heartbeat IPC: 0.5997 cumulative IPC: 0.6153 (Simulation time: 00 hr 48 min 52 sec)
Heartbeat CPU 0 instructions: 170501116 cycles: 208805696 heartbeat IPC: 0.5866 cumulative IPC: 0.6152 (Simulation time: 00 hr 49 min 03 sec)
Heartbeat CPU 0 instructions: 171001118 cycles: 209333164 heartbeat IPC: 0.9479 cumulative IPC: 0.6161 (Simulation time: 00 hr 49 min 10 sec)
Heartbeat CPU 0 instructions: 171501118 cycles: 209947000 heartbeat IPC: 0.8145 cumulative IPC: 0.6167 (Simulation time: 00 hr 49 min 18 sec)
Heartbeat CPU 0 instructions: 172001123 cycles: 210845125 heartbeat IPC: 0.5567 cumulative IPC: 0.6164 (Simulation time: 00 hr 49 min 30 sec)
Heartbeat CPU 0 instructions: 172501123 cycles: 211765619 heartbeat IPC: 0.5432 cumulative IPC: 0.6161 (Simulation time: 00 hr 49 min 42 sec)
Heartbeat CPU 0 instructions: 173001129 cycles: 212644486 heartbeat IPC: 0.5689 cumulative IPC: 0.6159 (Simulation time: 00 hr 49 min 54 sec)
Heartbeat CPU 0 instructions: 173501133 cycles: 213373565 heartbeat IPC: 0.6858 cumulative IPC: 0.6161 (Simulation time: 00 hr 50 min 04 sec)
Heartbeat CPU 0 instructions: 174001138 cycles: 214177030 heartbeat IPC: 0.6223 cumulative IPC: 0.6161 (Simulation time: 00 hr 50 min 14 sec)
Heartbeat CPU 0 instructions: 174501139 cycles: 214969132 heartbeat IPC: 0.6312 cumulative IPC: 0.6162 (Simulation time: 00 hr 50 min 25 sec)
Heartbeat CPU 0 instructions: 175001141 cycles: 215746680 heartbeat IPC: 0.643 cumulative IPC: 0.6163 (Simulation time: 00 hr 50 min 35 sec)
Heartbeat CPU 0 instructions: 175501147 cycles: 216700415 heartbeat IPC: 0.5243 cumulative IPC: 0.6159 (Simulation time: 00 hr 50 min 48 sec)
Heartbeat CPU 0 instructions: 176001149 cycles: 217434236 heartbeat IPC: 0.6814 cumulative IPC: 0.6161 (Simulation time: 00 hr 50 min 57 sec)
Heartbeat CPU 0 instructions: 176501149 cycles: 218242879 heartbeat IPC: 0.6183 cumulative IPC: 0.6161 (Simulation time: 00 hr 51 min 08 sec)
Heartbeat CPU 0 instructions: 177001151 cycles: 219067996 heartbeat IPC: 0.606 cumulative IPC: 0.6161 (Simulation time: 00 hr 51 min 19 sec)
Heartbeat CPU 0 instructions: 177501157 cycles: 219824296 heartbeat IPC: 0.6611 cumulative IPC: 0.6162 (Simulation time: 00 hr 51 min 29 sec)
Heartbeat CPU 0 instructions: 178001163 cycles: 220676145 heartbeat IPC: 0.587 cumulative IPC: 0.6161 (Simulation time: 00 hr 51 min 40 sec)
Heartbeat CPU 0 instructions: 178501170 cycles: 221478888 heartbeat IPC: 0.6229 cumulative IPC: 0.6161 (Simulation time: 00 hr 51 min 51 sec)
Heartbeat CPU 0 instructions: 179001173 cycles: 222321422 heartbeat IPC: 0.5935 cumulative IPC: 0.6161 (Simulation time: 00 hr 52 min 02 sec)
Heartbeat CPU 0 instructions: 179501180 cycles: 222914238 heartbeat IPC: 0.8434 cumulative IPC: 0.6167 (Simulation time: 00 hr 52 min 10 sec)
Heartbeat CPU 0 instructions: 180001186 cycles: 223499597 heartbeat IPC: 0.8542 cumulative IPC: 0.6174 (Simulation time: 00 hr 52 min 18 sec)
Heartbeat CPU 0 instructions: 180501193 cycles: 224345489 heartbeat IPC: 0.5911 cumulative IPC: 0.6173 (Simulation time: 00 hr 52 min 29 sec)
Heartbeat CPU 0 instructions: 181001197 cycles: 225256120 heartbeat IPC: 0.5491 cumulative IPC: 0.617 (Simulation time: 00 hr 52 min 41 sec)
Heartbeat CPU 0 instructions: 181501199 cycles: 226152160 heartbeat IPC: 0.558 cumulative IPC: 0.6167 (Simulation time: 00 hr 52 min 53 sec)
Heartbeat CPU 0 instructions: 182001206 cycles: 226937667 heartbeat IPC: 0.6365 cumulative IPC: 0.6168 (Simulation time: 00 hr 53 min 03 sec)
Heartbeat CPU 0 instructions: 182501208 cycles: 227736296 heartbeat IPC: 0.6261 cumulative IPC: 0.6168 (Simulation time: 00 hr 53 min 14 sec)
Heartbeat CPU 0 instructions: 183001210 cycles: 228489735 heartbeat IPC: 0.6636 cumulative IPC: 0.617 (Simulation time: 00 hr 53 min 24 sec)
Heartbeat CPU 0 instructions: 183501210 cycles: 229231304 heartbeat IPC: 0.6742 cumulative IPC: 0.6172 (Simulation time: 00 hr 53 min 34 sec)
Heartbeat CPU 0 instructions: 184001215 cycles: 230182549 heartbeat IPC: 0.5256 cumulative IPC: 0.6168 (Simulation time: 00 hr 53 min 46 sec)
Heartbeat CPU 0 instructions: 184501221 cycles: 230929528 heartbeat IPC: 0.6694 cumulative IPC: 0.617 (Simulation time: 00 hr 53 min 56 sec)
Heartbeat CPU 0 instructions: 185001228 cycles: 231739539 heartbeat IPC: 0.6173 cumulative IPC: 0.617 (Simulation time: 00 hr 54 min 07 sec)
Heartbeat CPU 0 instructions: 185501228 cycles: 232585104 heartbeat IPC: 0.5913 cumulative IPC: 0.6169 (Simulation time: 00 hr 54 min 18 sec)
Heartbeat CPU 0 instructions: 186001228 cycles: 233336194 heartbeat IPC: 0.6657 cumulative IPC: 0.617 (Simulation time: 00 hr 54 min 28 sec)
Heartbeat CPU 0 instructions: 186501232 cycles: 234196725 heartbeat IPC: 0.581 cumulative IPC: 0.6169 (Simulation time: 00 hr 54 min 39 sec)
Heartbeat CPU 0 instructions: 187001234 cycles: 234932076 heartbeat IPC: 0.68 cumulative IPC: 0.6171 (Simulation time: 00 hr 54 min 49 sec)
Heartbeat CPU 0 instructions: 187501234 cycles: 235814996 heartbeat IPC: 0.5663 cumulative IPC: 0.6169 (Simulation time: 00 hr 55 min 00 sec)
Heartbeat CPU 0 instructions: 188001241 cycles: 236501659 heartbeat IPC: 0.7282 cumulative IPC: 0.6172 (Simulation time: 00 hr 55 min 10 sec)
Heartbeat CPU 0 instructions: 188501244 cycles: 237067241 heartbeat IPC: 0.8841 cumulative IPC: 0.6179 (Simulation time: 00 hr 55 min 17 sec)
Heartbeat CPU 0 instructions: 189001244 cycles: 237914435 heartbeat IPC: 0.5902 cumulative IPC: 0.6178 (Simulation time: 00 hr 55 min 28 sec)
Heartbeat CPU 0 instructions: 189501248 cycles: 238818774 heartbeat IPC: 0.5529 cumulative IPC: 0.6175 (Simulation time: 00 hr 55 min 40 sec)
Heartbeat CPU 0 instructions: 190001250 cycles: 239719600 heartbeat IPC: 0.555 cumulative IPC: 0.6173 (Simulation time: 00 hr 55 min 52 sec)
Heartbeat CPU 0 instructions: 190501252 cycles: 240566472 heartbeat IPC: 0.5904 cumulative IPC: 0.6172 (Simulation time: 00 hr 56 min 03 sec)
Heartbeat CPU 0 instructions: 191001252 cycles: 241343680 heartbeat IPC: 0.6433 cumulative IPC: 0.6173 (Simulation time: 00 hr 56 min 13 sec)
Heartbeat CPU 0 instructions: 191501255 cycles: 242120899 heartbeat IPC: 0.6433 cumulative IPC: 0.6174 (Simulation time: 00 hr 56 min 24 sec)
Heartbeat CPU 0 instructions: 192001261 cycles: 242785338 heartbeat IPC: 0.7525 cumulative IPC: 0.6178 (Simulation time: 00 hr 56 min 33 sec)
Heartbeat CPU 0 instructions: 192501263 cycles: 243690979 heartbeat IPC: 0.5521 cumulative IPC: 0.6175 (Simulation time: 00 hr 56 min 45 sec)
Heartbeat CPU 0 instructions: 193001268 cycles: 244445491 heartbeat IPC: 0.6627 cumulative IPC: 0.6177 (Simulation time: 00 hr 56 min 54 sec)
Heartbeat CPU 0 instructions: 193501270 cycles: 245231347 heartbeat IPC: 0.6363 cumulative IPC: 0.6177 (Simulation time: 00 hr 57 min 05 sec)
Heartbeat CPU 0 instructions: 194001270 cycles: 246095728 heartbeat IPC: 0.5784 cumulative IPC: 0.6176 (Simulation time: 00 hr 57 min 16 sec)
Heartbeat CPU 0 instructions: 194501274 cycles: 246876346 heartbeat IPC: 0.6405 cumulative IPC: 0.6176 (Simulation time: 00 hr 57 min 27 sec)
Heartbeat CPU 0 instructions: 195001274 cycles: 247771970 heartbeat IPC: 0.5583 cumulative IPC: 0.6174 (Simulation time: 00 hr 57 min 38 sec)
Heartbeat CPU 0 instructions: 195501280 cycles: 248451301 heartbeat IPC: 0.736 cumulative IPC: 0.6178 (Simulation time: 00 hr 57 min 47 sec)
Heartbeat CPU 0 instructions: 196001283 cycles: 249325907 heartbeat IPC: 0.5717 cumulative IPC: 0.6176 (Simulation time: 00 hr 57 min 59 sec)
Heartbeat CPU 0 instructions: 196501283 cycles: 250079913 heartbeat IPC: 0.6631 cumulative IPC: 0.6177 (Simulation time: 00 hr 58 min 09 sec)
Heartbeat CPU 0 instructions: 197001290 cycles: 250661631 heartbeat IPC: 0.8595 cumulative IPC: 0.6183 (Simulation time: 00 hr 58 min 17 sec)
Heartbeat CPU 0 instructions: 197501295 cycles: 251509467 heartbeat IPC: 0.5897 cumulative IPC: 0.6182 (Simulation time: 00 hr 58 min 28 sec)
Heartbeat CPU 0 instructions: 198001295 cycles: 252378387 heartbeat IPC: 0.5754 cumulative IPC: 0.6181 (Simulation time: 00 hr 58 min 39 sec)
Heartbeat CPU 0 instructions: 198501295 cycles: 253239269 heartbeat IPC: 0.5808 cumulative IPC: 0.6179 (Simulation time: 00 hr 58 min 51 sec)
Heartbeat CPU 0 instructions: 199001297 cycles: 254131512 heartbeat IPC: 0.5604 cumulative IPC: 0.6177 (Simulation time: 00 hr 59 min 02 sec)
Heartbeat CPU 0 instructions: 199501301 cycles: 254920403 heartbeat IPC: 0.6338 cumulative IPC: 0.6178 (Simulation time: 00 hr 59 min 13 sec)
Heartbeat CPU 0 instructions: 200001307 cycles: 255699921 heartbeat IPC: 0.6414 cumulative IPC: 0.6179 (Simulation time: 00 hr 59 min 23 sec)
Heartbeat CPU 0 instructions: 200501311 cycles: 256374929 heartbeat IPC: 0.7407 cumulative IPC: 0.6182 (Simulation time: 00 hr 59 min 32 sec)
Heartbeat CPU 0 instructions: 201001313 cycles: 257258547 heartbeat IPC: 0.5659 cumulative IPC: 0.618 (Simulation time: 00 hr 59 min 44 sec)
Heartbeat CPU 0 instructions: 201501317 cycles: 258021119 heartbeat IPC: 0.6557 cumulative IPC: 0.6181 (Simulation time: 00 hr 59 min 54 sec)
Heartbeat CPU 0 instructions: 202001318 cycles: 258827135 heartbeat IPC: 0.6203 cumulative IPC: 0.6181 (Simulation time: 01 hr 00 min 05 sec)
Heartbeat CPU 0 instructions: 202501321 cycles: 259749533 heartbeat IPC: 0.5421 cumulative IPC: 0.6178 (Simulation time: 01 hr 00 min 17 sec)
Heartbeat CPU 0 instructions: 203001325 cycles: 260486591 heartbeat IPC: 0.6784 cumulative IPC: 0.618 (Simulation time: 01 hr 00 min 27 sec)
Heartbeat CPU 0 instructions: 203501329 cycles: 261372665 heartbeat IPC: 0.5643 cumulative IPC: 0.6178 (Simulation time: 01 hr 00 min 38 sec)
Heartbeat CPU 0 instructions: 204001333 cycles: 262060892 heartbeat IPC: 0.7265 cumulative IPC: 0.6181 (Simulation time: 01 hr 00 min 47 sec)
Heartbeat CPU 0 instructions: 204501335 cycles: 262916948 heartbeat IPC: 0.5841 cumulative IPC: 0.618 (Simulation time: 01 hr 00 min 59 sec)
Heartbeat CPU 0 instructions: 205001337 cycles: 263692386 heartbeat IPC: 0.6448 cumulative IPC: 0.6181 (Simulation time: 01 hr 01 min 09 sec)
Heartbeat CPU 0 instructions: 205501340 cycles: 264296196 heartbeat IPC: 0.8281 cumulative IPC: 0.6186 (Simulation time: 01 hr 01 min 17 sec)
Heartbeat CPU 0 instructions: 206001345 cycles: 265161976 heartbeat IPC: 0.5775 cumulative IPC: 0.6185 (Simulation time: 01 hr 01 min 29 sec)
Heartbeat CPU 0 instructions: 206501349 cycles: 266049662 heartbeat IPC: 0.5633 cumulative IPC: 0.6183 (Simulation time: 01 hr 01 min 40 sec)
Heartbeat CPU 0 instructions: 207001352 cycles: 266929775 heartbeat IPC: 0.5681 cumulative IPC: 0.6181 (Simulation time: 01 hr 01 min 52 sec)
Heartbeat CPU 0 instructions: 207501353 cycles: 267823507 heartbeat IPC: 0.5595 cumulative IPC: 0.6179 (Simulation time: 01 hr 02 min 03 sec)
Heartbeat CPU 0 instructions: 208001357 cycles: 268587228 heartbeat IPC: 0.6547 cumulative IPC: 0.618 (Simulation time: 01 hr 02 min 14 sec)
Heartbeat CPU 0 instructions: 208501360 cycles: 269351768 heartbeat IPC: 0.654 cumulative IPC: 0.6181 (Simulation time: 01 hr 02 min 24 sec)
Heartbeat CPU 0 instructions: 209001364 cycles: 270061290 heartbeat IPC: 0.7047 cumulative IPC: 0.6183 (Simulation time: 01 hr 02 min 33 sec)
Heartbeat CPU 0 instructions: 209501364 cycles: 270926841 heartbeat IPC: 0.5777 cumulative IPC: 0.6182 (Simulation time: 01 hr 02 min 45 sec)
Heartbeat CPU 0 instructions: 210001371 cycles: 271700589 heartbeat IPC: 0.6462 cumulative IPC: 0.6183 (Simulation time: 01 hr 02 min 55 sec)
Heartbeat CPU 0 instructions: 210501377 cycles: 272553182 heartbeat IPC: 0.5865 cumulative IPC: 0.6182 (Simulation time: 01 hr 03 min 06 sec)
Heartbeat CPU 0 instructions: 211001383 cycles: 273489779 heartbeat IPC: 0.5339 cumulative IPC: 0.6179 (Simulation time: 01 hr 03 min 18 sec)
Heartbeat CPU 0 instructions: 211501387 cycles: 274159483 heartbeat IPC: 0.7466 cumulative IPC: 0.6182 (Simulation time: 01 hr 03 min 27 sec)
Heartbeat CPU 0 instructions: 212001387 cycles: 275038907 heartbeat IPC: 0.5686 cumulative IPC: 0.6181 (Simulation time: 01 hr 03 min 39 sec)
Heartbeat CPU 0 instructions: 212501391 cycles: 275784465 heartbeat IPC: 0.6706 cumulative IPC: 0.6182 (Simulation time: 01 hr 03 min 49 sec)
Heartbeat CPU 0 instructions: 213001391 cycles: 276644197 heartbeat IPC: 0.5816 cumulative IPC: 0.6181 (Simulation time: 01 hr 04 min 00 sec)
Heartbeat CPU 0 instructions: 213501393 cycles: 277343759 heartbeat IPC: 0.7147 cumulative IPC: 0.6183 (Simulation time: 01 hr 04 min 10 sec)
Heartbeat CPU 0 instructions: 214001395 cycles: 278078207 heartbeat IPC: 0.6808 cumulative IPC: 0.6185 (Simulation time: 01 hr 04 min 19 sec)
Heartbeat CPU 0 instructions: 214501402 cycles: 278926742 heartbeat IPC: 0.5893 cumulative IPC: 0.6184 (Simulation time: 01 hr 04 min 31 sec)
Heartbeat CPU 0 instructions: 215001409 cycles: 279795631 heartbeat IPC: 0.5755 cumulative IPC: 0.6183 (Simulation time: 01 hr 04 min 42 sec)
Heartbeat CPU 0 instructions: 215501415 cycles: 280709438 heartbeat IPC: 0.5472 cumulative IPC: 0.618 (Simulation time: 01 hr 04 min 54 sec)
Heartbeat CPU 0 instructions: 216001416 cycles: 281613780 heartbeat IPC: 0.5529 cumulative IPC: 0.6178 (Simulation time: 01 hr 05 min 06 sec)
Heartbeat CPU 0 instructions: 216501418 cycles: 282372500 heartbeat IPC: 0.659 cumulative IPC: 0.6179 (Simulation time: 01 hr 05 min 16 sec)
Heartbeat CPU 0 instructions: 217001419 cycles: 283097693 heartbeat IPC: 0.6895 cumulative IPC: 0.6181 (Simulation time: 01 hr 05 min 26 sec)
Heartbeat CPU 0 instructions: 217501422 cycles: 283876000 heartbeat IPC: 0.6424 cumulative IPC: 0.6182 (Simulation time: 01 hr 05 min 36 sec)
Heartbeat CPU 0 instructions: 218001425 cycles: 284752396 heartbeat IPC: 0.5705 cumulative IPC: 0.618 (Simulation time: 01 hr 05 min 47 sec)
Heartbeat CPU 0 instructions: 218501428 cycles: 285595821 heartbeat IPC: 0.5928 cumulative IPC: 0.618 (Simulation time: 01 hr 05 min 59 sec)
Heartbeat CPU 0 instructions: 219001429 cycles: 286458519 heartbeat IPC: 0.5796 cumulative IPC: 0.6178 (Simulation time: 01 hr 06 min 10 sec)
Heartbeat CPU 0 instructions: 219501433 cycles: 287340754 heartbeat IPC: 0.5667 cumulative IPC: 0.6177 (Simulation time: 01 hr 06 min 21 sec)
Heartbeat CPU 0 instructions: 220001433 cycles: 288141603 heartbeat IPC: 0.6243 cumulative IPC: 0.6177 (Simulation time: 01 hr 06 min 32 sec)
Heartbeat CPU 0 instructions: 220501436 cycles: 289008270 heartbeat IPC: 0.5769 cumulative IPC: 0.6176 (Simulation time: 01 hr 06 min 43 sec)
Heartbeat CPU 0 instructions: 221001443 cycles: 289818370 heartbeat IPC: 0.6172 cumulative IPC: 0.6176 (Simulation time: 01 hr 06 min 54 sec)
Heartbeat CPU 0 instructions: 221501448 cycles: 290692727 heartbeat IPC: 0.5719 cumulative IPC: 0.6174 (Simulation time: 01 hr 07 min 06 sec)
Heartbeat CPU 0 instructions: 222001450 cycles: 291240794 heartbeat IPC: 0.9123 cumulative IPC: 0.618 (Simulation time: 01 hr 07 min 13 sec)
Heartbeat CPU 0 instructions: 222501456 cycles: 292150312 heartbeat IPC: 0.5497 cumulative IPC: 0.6178 (Simulation time: 01 hr 07 min 25 sec)
Heartbeat CPU 0 instructions: 223001457 cycles: 292977842 heartbeat IPC: 0.6042 cumulative IPC: 0.6177 (Simulation time: 01 hr 07 min 36 sec)
Heartbeat CPU 0 instructions: 223501459 cycles: 293832541 heartbeat IPC: 0.585 cumulative IPC: 0.6176 (Simulation time: 01 hr 07 min 47 sec)
Heartbeat CPU 0 instructions: 224001462 cycles: 294820102 heartbeat IPC: 0.5063 cumulative IPC: 0.6173 (Simulation time: 01 hr 08 min 00 sec)
Heartbeat CPU 0 instructions: 224501468 cycles: 295648611 heartbeat IPC: 0.6035 cumulative IPC: 0.6172 (Simulation time: 01 hr 08 min 11 sec)
Heartbeat CPU 0 instructions: 225001472 cycles: 296478714 heartbeat IPC: 0.6023 cumulative IPC: 0.6172 (Simulation time: 01 hr 08 min 22 sec)
Heartbeat CPU 0 instructions: 225501477 cycles: 297212584 heartbeat IPC: 0.6813 cumulative IPC: 0.6173 (Simulation time: 01 hr 08 min 32 sec)
Heartbeat CPU 0 instructions: 226001479 cycles: 298097727 heartbeat IPC: 0.5649 cumulative IPC: 0.6172 (Simulation time: 01 hr 08 min 44 sec)
Heartbeat CPU 0 instructions: 226501483 cycles: 298967989 heartbeat IPC: 0.5745 cumulative IPC: 0.617 (Simulation time: 01 hr 08 min 55 sec)
Heartbeat CPU 0 instructions: 227001487 cycles: 299883984 heartbeat IPC: 0.5459 cumulative IPC: 0.6168 (Simulation time: 01 hr 09 min 07 sec)
Heartbeat CPU 0 instructions: 227501492 cycles: 300754988 heartbeat IPC: 0.5741 cumulative IPC: 0.6167 (Simulation time: 01 hr 09 min 19 sec)
Heartbeat CPU 0 instructions: 228001494 cycles: 301460901 heartbeat IPC: 0.7083 cumulative IPC: 0.6169 (Simulation time: 01 hr 09 min 28 sec)
Heartbeat CPU 0 instructions: 228501497 cycles: 302437113 heartbeat IPC: 0.5122 cumulative IPC: 0.6166 (Simulation time: 01 hr 09 min 41 sec)
Heartbeat CPU 0 instructions: 229001500 cycles: 303263308 heartbeat IPC: 0.6052 cumulative IPC: 0.6165 (Simulation time: 01 hr 09 min 52 sec)
Heartbeat CPU 0 instructions: 229501507 cycles: 304110413 heartbeat IPC: 0.5903 cumulative IPC: 0.6164 (Simulation time: 01 hr 10 min 03 sec)
Heartbeat CPU 0 instructions: 230001508 cycles: 304746622 heartbeat IPC: 0.7859 cumulative IPC: 0.6168 (Simulation time: 01 hr 10 min 11 sec)
Heartbeat CPU 0 instructions: 230501514 cycles: 305577373 heartbeat IPC: 0.6019 cumulative IPC: 0.6168 (Simulation time: 01 hr 10 min 22 sec)
Heartbeat CPU 0 instructions: 231001519 cycles: 306456551 heartbeat IPC: 0.5687 cumulative IPC: 0.6166 (Simulation time: 01 hr 10 min 34 sec)
Heartbeat CPU 0 instructions: 231501519 cycles: 307333255 heartbeat IPC: 0.5703 cumulative IPC: 0.6165 (Simulation time: 01 hr 10 min 46 sec)
Heartbeat CPU 0 instructions: 232001520 cycles: 308339232 heartbeat IPC: 0.497 cumulative IPC: 0.6161 (Simulation time: 01 hr 10 min 59 sec)
Heartbeat CPU 0 instructions: 232501521 cycles: 309215751 heartbeat IPC: 0.5704 cumulative IPC: 0.6159 (Simulation time: 01 hr 11 min 10 sec)
Heartbeat CPU 0 instructions: 233001521 cycles: 310086206 heartbeat IPC: 0.5744 cumulative IPC: 0.6158 (Simulation time: 01 hr 11 min 22 sec)
Heartbeat CPU 0 instructions: 233501525 cycles: 310866878 heartbeat IPC: 0.6405 cumulative IPC: 0.6159 (Simulation time: 01 hr 11 min 32 sec)
Heartbeat CPU 0 instructions: 234001528 cycles: 311745279 heartbeat IPC: 0.5692 cumulative IPC: 0.6158 (Simulation time: 01 hr 11 min 44 sec)
Heartbeat CPU 0 instructions: 234501533 cycles: 312666209 heartbeat IPC: 0.5429 cumulative IPC: 0.6155 (Simulation time: 01 hr 11 min 56 sec)
Heartbeat CPU 0 instructions: 235001533 cycles: 313562038 heartbeat IPC: 0.5581 cumulative IPC: 0.6154 (Simulation time: 01 hr 12 min 07 sec)
Heartbeat CPU 0 instructions: 235501534 cycles: 314379734 heartbeat IPC: 0.6115 cumulative IPC: 0.6153 (Simulation time: 01 hr 12 min 18 sec)
Heartbeat CPU 0 instructions: 236001537 cycles: 315071341 heartbeat IPC: 0.723 cumulative IPC: 0.6156 (Simulation time: 01 hr 12 min 28 sec)
Heartbeat CPU 0 instructions: 236501544 cycles: 316104261 heartbeat IPC: 0.4841 cumulative IPC: 0.6151 (Simulation time: 01 hr 12 min 41 sec)
Heartbeat CPU 0 instructions: 237001549 cycles: 316954090 heartbeat IPC: 0.5884 cumulative IPC: 0.6151 (Simulation time: 01 hr 12 min 52 sec)
Heartbeat CPU 0 instructions: 237501552 cycles: 317797485 heartbeat IPC: 0.5928 cumulative IPC: 0.615 (Simulation time: 01 hr 13 min 03 sec)
Heartbeat CPU 0 instructions: 238001559 cycles: 318370474 heartbeat IPC: 0.8726 cumulative IPC: 0.6155 (Simulation time: 01 hr 13 min 11 sec)
Heartbeat CPU 0 instructions: 238501566 cycles: 319216068 heartbeat IPC: 0.5913 cumulative IPC: 0.6154 (Simulation time: 01 hr 13 min 22 sec)
Heartbeat CPU 0 instructions: 239001573 cycles: 320085969 heartbeat IPC: 0.5748 cumulative IPC: 0.6153 (Simulation time: 01 hr 13 min 34 sec)
Heartbeat CPU 0 instructions: 239501573 cycles: 320987568 heartbeat IPC: 0.5546 cumulative IPC: 0.6151 (Simulation time: 01 hr 13 min 46 sec)
Heartbeat CPU 0 instructions: 240001580 cycles: 322000924 heartbeat IPC: 0.4934 cumulative IPC: 0.6147 (Simulation time: 01 hr 13 min 59 sec)
Heartbeat CPU 0 instructions: 240501586 cycles: 322854646 heartbeat IPC: 0.5857 cumulative IPC: 0.6147 (Simulation time: 01 hr 14 min 10 sec)
Heartbeat CPU 0 instructions: 241001590 cycles: 323750973 heartbeat IPC: 0.5578 cumulative IPC: 0.6145 (Simulation time: 01 hr 14 min 22 sec)
Heartbeat CPU 0 instructions: 241501595 cycles: 324579498 heartbeat IPC: 0.6035 cumulative IPC: 0.6145 (Simulation time: 01 hr 14 min 33 sec)
Heartbeat CPU 0 instructions: 242001598 cycles: 325423219 heartbeat IPC: 0.5926 cumulative IPC: 0.6144 (Simulation time: 01 hr 14 min 44 sec)
Heartbeat CPU 0 instructions: 242501602 cycles: 326419530 heartbeat IPC: 0.5019 cumulative IPC: 0.614 (Simulation time: 01 hr 14 min 57 sec)
Heartbeat CPU 0 instructions: 243001602 cycles: 327216226 heartbeat IPC: 0.6276 cumulative IPC: 0.6141 (Simulation time: 01 hr 15 min 08 sec)
Heartbeat CPU 0 instructions: 243501604 cycles: 328004032 heartbeat IPC: 0.6347 cumulative IPC: 0.6141 (Simulation time: 01 hr 15 min 18 sec)
Heartbeat CPU 0 instructions: 244001606 cycles: 328706136 heartbeat IPC: 0.7121 cumulative IPC: 0.6144 (Simulation time: 01 hr 15 min 27 sec)
Heartbeat CPU 0 instructions: 244501609 cycles: 329743479 heartbeat IPC: 0.482 cumulative IPC: 0.6139 (Simulation time: 01 hr 15 min 41 sec)
Heartbeat CPU 0 instructions: 245001611 cycles: 330690691 heartbeat IPC: 0.5279 cumulative IPC: 0.6137 (Simulation time: 01 hr 15 min 53 sec)
Heartbeat CPU 0 instructions: 245501616 cycles: 331499293 heartbeat IPC: 0.6184 cumulative IPC: 0.6137 (Simulation time: 01 hr 16 min 04 sec)
Heartbeat CPU 0 instructions: 246001617 cycles: 332032028 heartbeat IPC: 0.9386 cumulative IPC: 0.6142 (Simulation time: 01 hr 16 min 11 sec)
Heartbeat CPU 0 instructions: 246501619 cycles: 332891753 heartbeat IPC: 0.5816 cumulative IPC: 0.6141 (Simulation time: 01 hr 16 min 22 sec)
Heartbeat CPU 0 instructions: 247001624 cycles: 333783239 heartbeat IPC: 0.5609 cumulative IPC: 0.614 (Simulation time: 01 hr 16 min 34 sec)
Heartbeat CPU 0 instructions: 247501626 cycles: 334683202 heartbeat IPC: 0.5556 cumulative IPC: 0.6138 (Simulation time: 01 hr 16 min 46 sec)
Heartbeat CPU 0 instructions: 248001633 cycles: 335680327 heartbeat IPC: 0.5014 cumulative IPC: 0.6135 (Simulation time: 01 hr 16 min 59 sec)
Heartbeat CPU 0 instructions: 248501633 cycles: 336497488 heartbeat IPC: 0.6119 cumulative IPC: 0.6135 (Simulation time: 01 hr 17 min 10 sec)
Heartbeat CPU 0 instructions: 249001633 cycles: 337412067 heartbeat IPC: 0.5467 cumulative IPC: 0.6133 (Simulation time: 01 hr 17 min 22 sec)
Heartbeat CPU 0 instructions: 249501636 cycles: 338214693 heartbeat IPC: 0.623 cumulative IPC: 0.6133 (Simulation time: 01 hr 17 min 32 sec)
Simulation finished CPU 0 instructions: 200000000 cycles: 326072294 cumulative IPC: 0.6134 (Simulation time: 01 hr 17 min 43 sec)
Simulation complete CPU 0 instructions: 200000000 cycles: 326072294 cumulative IPC: 0.6134 (Simulation time: 01 hr 17 min 43 sec)

ChampSim completed all CPUs

=== Simulation ===
CPU 0 runs /local-ssd/ben/dpc4-traces/SPEC17/619.lbm_s-2677B.champsimtrace.xz

Region of Interest Statistics

CPU 0 cumulative IPC: 0.6134 instructions: 200000000 cycles: 326072294
CPU 0 Branch Prediction Accuracy: 97.09% MPKI: 0.5251 Average ROB Occupancy at Mispredict: 345.2
Branch type MPKI
BRANCH_DIRECT_JUMP: 0
BRANCH_INDIRECT: 0
BRANCH_CONDITIONAL: 0.5251
BRANCH_DIRECT_CALL: 0
BRANCH_INDIRECT_CALL: 0
BRANCH_RETURN: 0

cpu0->cpu0_STLB TOTAL        ACCESS:     276159 HIT:     126375 MISS:     149784 MSHR_MERGE:          0
cpu0->cpu0_STLB LOAD         ACCESS:     276159 HIT:     126375 MISS:     149784 MSHR_MERGE:          0
cpu0->cpu0_STLB RFO          ACCESS:          0 HIT:          0 MISS:          0 MSHR_MERGE:          0
cpu0->cpu0_STLB PREFETCH     ACCESS:          0 HIT:          0 MISS:          0 MSHR_MERGE:          0
cpu0->cpu0_STLB WRITE        ACCESS:          0 HIT:          0 MISS:          0 MSHR_MERGE:          0
cpu0->cpu0_STLB TRANSLATION  ACCESS:          0 HIT:          0 MISS:          0 MSHR_MERGE:          0
cpu0->cpu0_STLB PREFETCH REQUESTED:          0 ISSUED:          0 USEFUL:          0 USELESS:          0
cpu0->cpu0_STLB AVERAGE MISS LATENCY: 273.4 cycles
cpu0->cpu0_L2C TOTAL        ACCESS:   36790004 HIT:   26412428 MISS:   10377576 MSHR_MERGE:     775101
cpu0->cpu0_L2C LOAD         ACCESS:    1538872 HIT:    1165974 MISS:     372898 MSHR_MERGE:     151270
cpu0->cpu0_L2C RFO          ACCESS:   13528389 HIT:    6341012 MISS:    7187377 MSHR_MERGE:          0
cpu0->cpu0_L2C PREFETCH     ACCESS:    8173608 HIT:    5375218 MISS:    2798390 MSHR_MERGE:     623831
cpu0->cpu0_L2C WRITE        ACCESS:   13530224 HIT:   13530224 MISS:          0 MSHR_MERGE:          0
cpu0->cpu0_L2C TRANSLATION  ACCESS:      18911 HIT:          0 MISS:      18911 MSHR_MERGE:          0
cpu0->cpu0_L2C PREFETCH REQUESTED:    8202573 ISSUED:    7316399 USEFUL:    2022589 USELESS:      49881
cpu0->cpu0_L2C AVERAGE MISS LATENCY: 616.4 cycles
cpu0->cpu0_L1I TOTAL        ACCESS:   33529844 HIT:   33529844 MISS:          0 MSHR_MERGE:          0
cpu0->cpu0_L1I LOAD         ACCESS:   33529844 HIT:   33529844 MISS:          0 MSHR_MERGE:          0
cpu0->cpu0_L1I RFO          ACCESS:          0 HIT:          0 MISS:          0 MSHR_MERGE:          0
cpu0->cpu0_L1I PREFETCH     ACCESS:          0 HIT:          0 MISS:          0 MSHR_MERGE:          0
cpu0->cpu0_L1I WRITE        ACCESS:          0 HIT:          0 MISS:          0 MSHR_MERGE:          0
cpu0->cpu0_L1I TRANSLATION  ACCESS:          0 HIT:          0 MISS:          0 MSHR_MERGE:          0
cpu0->cpu0_L1I PREFETCH REQUESTED:          0 ISSUED:          0 USEFUL:          0 USELESS:          0
cpu0->cpu0_L1I AVERAGE MISS LATENCY: - cycles
cpu0->cpu0_L1D TOTAL        ACCESS:   45298551 HIT:   28112876 MISS:   17185675 MSHR_MERGE:    1240443
cpu0->cpu0_L1D LOAD         ACCESS:    7631624 HIT:    5982930 MISS:    1648694 MSHR_MERGE:     109822
cpu0->cpu0_L1D RFO          ACCESS:          0 HIT:          0 MISS:          0 MSHR_MERGE:          0
cpu0->cpu0_L1D PREFETCH     ACCESS:    1477141 HIT:     498801 MISS:     978340 MSHR_MERGE:     121131
cpu0->cpu0_L1D WRITE        ACCESS:   35890072 HIT:   21350342 MISS:   14539730 MSHR_MERGE:    1009490
cpu0->cpu0_L1D TRANSLATION  ACCESS:     299714 HIT:     280803 MISS:      18911 MSHR_MERGE:          0
cpu0->cpu0_L1D PREFETCH REQUESTED:    2241707 ISSUED:    1477142 USEFUL:     857203 USELESS:          9
cpu0->cpu0_L1D AVERAGE MISS LATENCY: 319.3 cycles
cpu0->cpu0_ITLB TOTAL        ACCESS:   23924445 HIT:   23924445 MISS:          0 MSHR_MERGE:          0
cpu0->cpu0_ITLB LOAD         ACCESS:   23924445 HIT:   23924445 MISS:          0 MSHR_MERGE:          0
cpu0->cpu0_ITLB RFO          ACCESS:          0 HIT:          0 MISS:          0 MSHR_MERGE:          0
cpu0->cpu0_ITLB PREFETCH     ACCESS:          0 HIT:          0 MISS:          0 MSHR_MERGE:          0
cpu0->cpu0_ITLB WRITE        ACCESS:          0 HIT:          0 MISS:          0 MSHR_MERGE:          0
cpu0->cpu0_ITLB TRANSLATION  ACCESS:          0 HIT:          0 MISS:          0 MSHR_MERGE:          0
cpu0->cpu0_ITLB PREFETCH REQUESTED:          0 ISSUED:          0 USEFUL:          0 USELESS:          0
cpu0->cpu0_ITLB AVERAGE MISS LATENCY: - cycles
cpu0->cpu0_DTLB TOTAL        ACCESS:   41911249 HIT:   41330592 MISS:     580657 MSHR_MERGE:     304498
cpu0->cpu0_DTLB LOAD         ACCESS:   41911249 HIT:   41330592 MISS:     580657 MSHR_MERGE:     304498
cpu0->cpu0_DTLB RFO          ACCESS:          0 HIT:          0 MISS:          0 MSHR_MERGE:          0
cpu0->cpu0_DTLB PREFETCH     ACCESS:          0 HIT:          0 MISS:          0 MSHR_MERGE:          0
cpu0->cpu0_DTLB WRITE        ACCESS:          0 HIT:          0 MISS:          0 MSHR_MERGE:          0
cpu0->cpu0_DTLB TRANSLATION  ACCESS:          0 HIT:          0 MISS:          0 MSHR_MERGE:          0
cpu0->cpu0_DTLB PREFETCH REQUESTED:          0 ISSUED:          0 USEFUL:          0 USELESS:          0
cpu0->cpu0_DTLB AVERAGE MISS LATENCY: 153.8 cycles
cpu0->LLC TOTAL        ACCESS:   19108165 HIT:    2097704 MISS:   17010461 MSHR_MERGE:     730229
cpu0->LLC LOAD         ACCESS:     221628 HIT:      66999 MISS:     154629 MSHR_MERGE:      34752
cpu0->LLC RFO          ACCESS:    7187377 HIT:          0 MISS:    7187377 MSHR_MERGE:          0
cpu0->LLC PREFETCH     ACCESS:    4492779 HIT:    1516990 MISS:    2975789 MSHR_MERGE:     695477
cpu0->LLC WRITE        ACCESS:    7187470 HIT:     513715 MISS:    6673755 MSHR_MERGE:          0
cpu0->LLC TRANSLATION  ACCESS:      18911 HIT:          0 MISS:      18911 MSHR_MERGE:          0
cpu0->LLC PREFETCH REQUESTED:    2318692 ISSUED:    2318220 USEFUL:    1618689 USELESS:     435411
cpu0->LLC AVERAGE MISS LATENCY: 323.1 cycles

DRAM Statistics

Channel 0 RQ ROW_BUFFER_HIT:     671157
  ROW_BUFFER_MISS:    8935306
  AVG DBUS CONGESTED CYCLE: 13.54
Channel 0 WQ ROW_BUFFER_HIT:     698227
  ROW_BUFFER_MISS:    6486658
  FULL:     648882
Channel 0 REFRESHES ISSUED:      27171
