[VMEM] WARNING: physical memory size is smaller than virtual memory size.

*** ChampSim Multicore Out-of-Order Simulator ***
Warmup Instructions: 50000000
Simulation Instructions: 200000000
Number of CPUs: 1
Page size: 4096
Core 0: /local-ssd/ben/dpc4-traces/Graph/Ligra/ligra_BellmanFord.com-lj.ungraph.gcc_6.3.0_O3.drop_22250M.length_250M.champsimtrace.xz
 L1D Berti prefetcher
Off-chip DRAM Size: 64 GiB Channels: 1 Width: 64-bit Data Rate: 4807 MT/s
Heartbeat CPU 0 instructions: 500003 cycles: 141838 heartbeat IPC: 3.525 cumulative IPC: 3.525 (Simulation time: 00 hr 00 min 02 sec)
Heartbeat CPU 0 instructions: 1000004 cycles: 285021 heartbeat IPC: 3.492 cumulative IPC: 3.509 (Simulation time: 00 hr 00 min 04 sec)
Heartbeat CPU 0 instructions: 1500008 cycles: 428553 heartbeat IPC: 3.484 cumulative IPC: 3.5 (Simulation time: 00 hr 00 min 07 sec)
Heartbeat CPU 0 instructions: 2000008 cycles: 571587 heartbeat IPC: 3.496 cumulative IPC: 3.499 (Simulation time: 00 hr 00 min 09 sec)
Heartbeat CPU 0 instructions: 2500013 cycles: 713611 heartbeat IPC: 3.521 cumulative IPC: 3.503 (Simulation time: 00 hr 00 min 11 sec)
Heartbeat CPU 0 instructions: 3000020 cycles: 856084 heartbeat IPC: 3.509 cumulative IPC: 3.504 (Simulation time: 00 hr 00 min 13 sec)
Heartbeat CPU 0 instructions: 3500025 cycles: 998965 heartbeat IPC: 3.499 cumulative IPC: 3.504 (Simulation time: 00 hr 00 min 16 sec)
Heartbeat CPU 0 instructions: 4000032 cycles: 1142079 heartbeat IPC: 3.494 cumulative IPC: 3.502 (Simulation time: 00 hr 00 min 18 sec)
Heartbeat CPU 0 instructions: 4500037 cycles: 1283734 heartbeat IPC: 3.53 cumulative IPC: 3.505 (Simulation time: 00 hr 00 min 20 sec)
Heartbeat CPU 0 instructions: 5000038 cycles: 1426505 heartbeat IPC: 3.502 cumulative IPC: 3.505 (Simulation time: 00 hr 00 min 23 sec)
Heartbeat CPU 0 instructions: 5500045 cycles: 1569652 heartbeat IPC: 3.493 cumulative IPC: 3.504 (Simulation time: 00 hr 00 min 25 sec)
Heartbeat CPU 0 instructions: 6000052 cycles: 1713152 heartbeat IPC: 3.484 cumulative IPC: 3.502 (Simulation time: 00 hr 00 min 27 sec)
Heartbeat CPU 0 instructions: 6500053 cycles: 1857174 heartbeat IPC: 3.472 cumulative IPC: 3.5 (Simulation time: 00 hr 00 min 30 sec)
Heartbeat CPU 0 instructions: 7000057 cycles: 1999368 heartbeat IPC: 3.516 cumulative IPC: 3.501 (Simulation time: 00 hr 00 min 32 sec)
Heartbeat CPU 0 instructions: 7500057 cycles: 2143250 heartbeat IPC: 3.475 cumulative IPC: 3.499 (Simulation time: 00 hr 00 min 35 sec)
Heartbeat CPU 0 instructions: 8000061 cycles: 2285929 heartbeat IPC: 3.504 cumulative IPC: 3.5 (Simulation time: 00 hr 00 min 37 sec)
Heartbeat CPU 0 instructions: 8500066 cycles: 2428479 heartbeat IPC: 3.508 cumulative IPC: 3.5 (Simulation time: 00 hr 00 min 39 sec)
Heartbeat CPU 0 instructions: 9000072 cycles: 2571849 heartbeat IPC: 3.488 cumulative IPC: 3.499 (Simulation time: 00 hr 00 min 42 sec)
Heartbeat CPU 0 instructions: 9500074 cycles: 2714909 heartbeat IPC: 3.495 cumulative IPC: 3.499 (Simulation time: 00 hr 00 min 44 sec)
Heartbeat CPU 0 instructions: 10000075 cycles: 2858633 heartbeat IPC: 3.479 cumulative IPC: 3.498 (Simulation time: 00 hr 00 min 47 sec)
Heartbeat CPU 0 instructions: 10500082 cycles: 3002026 heartbeat IPC: 3.487 cumulative IPC: 3.498 (Simulation time: 00 hr 00 min 49 sec)
Heartbeat CPU 0 instructions: 11000086 cycles: 3144422 heartbeat IPC: 3.511 cumulative IPC: 3.498 (Simulation time: 00 hr 00 min 51 sec)
Heartbeat CPU 0 instructions: 11500089 cycles: 3287657 heartbeat IPC: 3.491 cumulative IPC: 3.498 (Simulation time: 00 hr 00 min 54 sec)
Heartbeat CPU 0 instructions: 12000095 cycles: 3430047 heartbeat IPC: 3.512 cumulative IPC: 3.499 (Simulation time: 00 hr 00 min 56 sec)
Heartbeat CPU 0 instructions: 12500096 cycles: 3573645 heartbeat IPC: 3.482 cumulative IPC: 3.498 (Simulation time: 00 hr 00 min 58 sec)
Heartbeat CPU 0 instructions: 13000096 cycles: 3716427 heartbeat IPC: 3.502 cumulative IPC: 3.498 (Simulation time: 00 hr 01 min 01 sec)
Heartbeat CPU 0 instructions: 13500103 cycles: 3860136 heartbeat IPC: 3.479 cumulative IPC: 3.497 (Simulation time: 00 hr 01 min 03 sec)
Heartbeat CPU 0 instructions: 14000108 cycles: 4003442 heartbeat IPC: 3.489 cumulative IPC: 3.497 (Simulation time: 00 hr 01 min 06 sec)
Heartbeat CPU 0 instructions: 14500113 cycles: 4146466 heartbeat IPC: 3.496 cumulative IPC: 3.497 (Simulation time: 00 hr 01 min 08 sec)
Heartbeat CPU 0 instructions: 15000120 cycles: 4288602 heartbeat IPC: 3.518 cumulative IPC: 3.498 (Simulation time: 00 hr 01 min 10 sec)
Heartbeat CPU 0 instructions: 15500126 cycles: 4432295 heartbeat IPC: 3.48 cumulative IPC: 3.497 (Simulation time: 00 hr 01 min 13 sec)
Heartbeat CPU 0 instructions: 16000133 cycles: 4575027 heartbeat IPC: 3.503 cumulative IPC: 3.497 (Simulation time: 00 hr 01 min 15 sec)
Heartbeat CPU 0 instructions: 16500137 cycles: 4717973 heartbeat IPC: 3.498 cumulative IPC: 3.497 (Simulation time: 00 hr 01 min 18 sec)
Heartbeat CPU 0 instructions: 17000141 cycles: 4862529 heartbeat IPC: 3.459 cumulative IPC: 3.496 (Simulation time: 00 hr 01 min 20 sec)
Heartbeat CPU 0 instructions: 17500143 cycles: 5004317 heartbeat IPC: 3.526 cumulative IPC: 3.497 (Simulation time: 00 hr 01 min 22 sec)
Heartbeat CPU 0 instructions: 18000144 cycles: 5146824 heartbeat IPC: 3.509 cumulative IPC: 3.497 (Simulation time: 00 hr 01 min 25 sec)
Heartbeat CPU 0 instructions: 18500151 cycles: 5287886 heartbeat IPC: 3.545 cumulative IPC: 3.499 (Simulation time: 00 hr 01 min 27 sec)
Heartbeat CPU 0 instructions: 19000152 cycles: 5427667 heartbeat IPC: 3.577 cumulative IPC: 3.501 (Simulation time: 00 hr 01 min 29 sec)
Heartbeat CPU 0 instructions: 19500154 cycles: 5570777 heartbeat IPC: 3.494 cumulative IPC: 3.5 (Simulation time: 00 hr 01 min 32 sec)
Heartbeat CPU 0 instructions: 20000155 cycles: 5713779 heartbeat IPC: 3.496 cumulative IPC: 3.5 (Simulation time: 00 hr 01 min 34 sec)
Heartbeat CPU 0 instructions: 20500162 cycles: 5857179 heartbeat IPC: 3.487 cumulative IPC: 3.5 (Simulation time: 00 hr 01 min 37 sec)
Heartbeat CPU 0 instructions: 21000168 cycles: 5999589 heartbeat IPC: 3.511 cumulative IPC: 3.5 (Simulation time: 00 hr 01 min 39 sec)
Heartbeat CPU 0 instructions: 21500172 cycles: 6142972 heartbeat IPC: 3.487 cumulative IPC: 3.5 (Simulation time: 00 hr 01 min 41 sec)
Heartbeat CPU 0 instructions: 22000175 cycles: 6286494 heartbeat IPC: 3.484 cumulative IPC: 3.5 (Simulation time: 00 hr 01 min 44 sec)
Heartbeat CPU 0 instructions: 22500179 cycles: 6427590 heartbeat IPC: 3.544 cumulative IPC: 3.501 (Simulation time: 00 hr 01 min 46 sec)
Heartbeat CPU 0 instructions: 23000181 cycles: 6569882 heartbeat IPC: 3.514 cumulative IPC: 3.501 (Simulation time: 00 hr 01 min 49 sec)
Heartbeat CPU 0 instructions: 23500187 cycles: 6712257 heartbeat IPC: 3.512 cumulative IPC: 3.501 (Simulation time: 00 hr 01 min 51 sec)
Heartbeat CPU 0 instructions: 24000187 cycles: 6855478 heartbeat IPC: 3.491 cumulative IPC: 3.501 (Simulation time: 00 hr 01 min 53 sec)
Heartbeat CPU 0 instructions: 24500188 cycles: 6999574 heartbeat IPC: 3.47 cumulative IPC: 3.5 (Simulation time: 00 hr 01 min 56 sec)
Heartbeat CPU 0 instructions: 25000190 cycles: 7143231 heartbeat IPC: 3.481 cumulative IPC: 3.5 (Simulation time: 00 hr 01 min 58 sec)
Heartbeat CPU 0 instructions: 25500193 cycles: 7286324 heartbeat IPC: 3.494 cumulative IPC: 3.5 (Simulation time: 00 hr 02 min 01 sec)
Heartbeat CPU 0 instructions: 26000199 cycles: 7430004 heartbeat IPC: 3.48 cumulative IPC: 3.499 (Simulation time: 00 hr 02 min 03 sec)
Heartbeat CPU 0 instructions: 26500205 cycles: 7573219 heartbeat IPC: 3.491 cumulative IPC: 3.499 (Simulation time: 00 hr 02 min 05 sec)
Heartbeat CPU 0 instructions: 27000208 cycles: 7716214 heartbeat IPC: 3.497 cumulative IPC: 3.499 (Simulation time: 00 hr 02 min 08 sec)
Heartbeat CPU 0 instructions: 27500214 cycles: 7859512 heartbeat IPC: 3.489 cumulative IPC: 3.499 (Simulation time: 00 hr 02 min 10 sec)
Heartbeat CPU 0 instructions: 28000220 cycles: 8002325 heartbeat IPC: 3.501 cumulative IPC: 3.499 (Simulation time: 00 hr 02 min 13 sec)
Heartbeat CPU 0 instructions: 28500222 cycles: 8144290 heartbeat IPC: 3.522 cumulative IPC: 3.499 (Simulation time: 00 hr 02 min 15 sec)
Heartbeat CPU 0 instructions: 29000228 cycles: 8288156 heartbeat IPC: 3.475 cumulative IPC: 3.499 (Simulation time: 00 hr 02 min 17 sec)
Heartbeat CPU 0 instructions: 29500234 cycles: 8429991 heartbeat IPC: 3.525 cumulative IPC: 3.499 (Simulation time: 00 hr 02 min 20 sec)
Heartbeat CPU 0 instructions: 30000241 cycles: 8573212 heartbeat IPC: 3.491 cumulative IPC: 3.499 (Simulation time: 00 hr 02 min 22 sec)
Heartbeat CPU 0 instructions: 30500242 cycles: 8716017 heartbeat IPC: 3.501 cumulative IPC: 3.499 (Simulation time: 00 hr 02 min 25 sec)
Heartbeat CPU 0 instructions: 31000248 cycles: 8857489 heartbeat IPC: 3.534 cumulative IPC: 3.5 (Simulation time: 00 hr 02 min 27 sec)
Heartbeat CPU 0 instructions: 31500248 cycles: 8999849 heartbeat IPC: 3.512 cumulative IPC: 3.5 (Simulation time: 00 hr 02 min 29 sec)
Heartbeat CPU 0 instructions: 32000253 cycles: 9142385 heartbeat IPC: 3.508 cumulative IPC: 3.5 (Simulation time: 00 hr 02 min 32 sec)
Heartbeat CPU 0 instructions: 32500257 cycles: 9285638 heartbeat IPC: 3.49 cumulative IPC: 3.5 (Simulation time: 00 hr 02 min 34 sec)
Heartbeat CPU 0 instructions: 33000263 cycles: 9428875 heartbeat IPC: 3.491 cumulative IPC: 3.5 (Simulation time: 00 hr 02 min 37 sec)
Heartbeat CPU 0 instructions: 33500264 cycles: 9570946 heartbeat IPC: 3.519 cumulative IPC: 3.5 (Simulation time: 00 hr 02 min 39 sec)
Heartbeat CPU 0 instructions: 34000268 cycles: 9711713 heartbeat IPC: 3.552 cumulative IPC: 3.501 (Simulation time: 00 hr 02 min 41 sec)
Heartbeat CPU 0 instructions: 34500268 cycles: 9854199 heartbeat IPC: 3.509 cumulative IPC: 3.501 (Simulation time: 00 hr 02 min 44 sec)
Heartbeat CPU 0 instructions: 35000273 cycles: 9997087 heartbeat IPC: 3.499 cumulative IPC: 3.501 (Simulation time: 00 hr 02 min 46 sec)
Heartbeat CPU 0 instructions: 35500275 cycles: 10138856 heartbeat IPC: 3.527 cumulative IPC: 3.501 (Simulation time: 00 hr 02 min 49 sec)
Heartbeat CPU 0 instructions: 36000276 cycles: 10281760 heartbeat IPC: 3.499 cumulative IPC: 3.501 (Simulation time: 00 hr 02 min 51 sec)
Heartbeat CPU 0 instructions: 36500277 cycles: 10424310 heartbeat IPC: 3.508 cumulative IPC: 3.501 (Simulation time: 00 hr 02 min 53 sec)
Heartbeat CPU 0 instructions: 37000278 cycles: 10567311 heartbeat IPC: 3.496 cumulative IPC: 3.501 (Simulation time: 00 hr 02 min 56 sec)
Heartbeat CPU 0 instructions: 37500279 cycles: 10709155 heartbeat IPC: 3.525 cumulative IPC: 3.502 (Simulation time: 00 hr 02 min 58 sec)
Heartbeat CPU 0 instructions: 38000283 cycles: 10850987 heartbeat IPC: 3.525 cumulative IPC: 3.502 (Simulation time: 00 hr 03 min 01 sec)
Heartbeat CPU 0 instructions: 38500284 cycles: 10993941 heartbeat IPC: 3.498 cumulative IPC: 3.502 (Simulation time: 00 hr 03 min 03 sec)
Heartbeat CPU 0 instructions: 39000291 cycles: 11135591 heartbeat IPC: 3.53 cumulative IPC: 3.502 (Simulation time: 00 hr 03 min 05 sec)
Heartbeat CPU 0 instructions: 39500295 cycles: 11277801 heartbeat IPC: 3.516 cumulative IPC: 3.502 (Simulation time: 00 hr 03 min 08 sec)
Heartbeat CPU 0 instructions: 40000301 cycles: 11421136 heartbeat IPC: 3.488 cumulative IPC: 3.502 (Simulation time: 00 hr 03 min 10 sec)
Heartbeat CPU 0 instructions: 40500308 cycles: 11562848 heartbeat IPC: 3.528 cumulative IPC: 3.503 (Simulation time: 00 hr 03 min 13 sec)
Heartbeat CPU 0 instructions: 41000313 cycles: 11705004 heartbeat IPC: 3.517 cumulative IPC: 3.503 (Simulation time: 00 hr 03 min 15 sec)
Heartbeat CPU 0 instructions: 41500315 cycles: 11846872 heartbeat IPC: 3.524 cumulative IPC: 3.503 (Simulation time: 00 hr 03 min 18 sec)
Heartbeat CPU 0 instructions: 42000317 cycles: 11988989 heartbeat IPC: 3.518 cumulative IPC: 3.503 (Simulation time: 00 hr 03 min 20 sec)
Heartbeat CPU 0 instructions: 42500321 cycles: 12130717 heartbeat IPC: 3.528 cumulative IPC: 3.504 (Simulation time: 00 hr 03 min 22 sec)
Heartbeat CPU 0 instructions: 43000321 cycles: 12272862 heartbeat IPC: 3.518 cumulative IPC: 3.504 (Simulation time: 00 hr 03 min 25 sec)
Heartbeat CPU 0 instructions: 43500326 cycles: 12414066 heartbeat IPC: 3.541 cumulative IPC: 3.504 (Simulation time: 00 hr 03 min 27 sec)
Heartbeat CPU 0 instructions: 44000331 cycles: 12555472 heartbeat IPC: 3.536 cumulative IPC: 3.504 (Simulation time: 00 hr 03 min 30 sec)
Heartbeat CPU 0 instructions: 44500332 cycles: 12697158 heartbeat IPC: 3.529 cumulative IPC: 3.505 (Simulation time: 00 hr 03 min 32 sec)
Heartbeat CPU 0 instructions: 45000335 cycles: 12839728 heartbeat IPC: 3.507 cumulative IPC: 3.505 (Simulation time: 00 hr 03 min 34 sec)
Heartbeat CPU 0 instructions: 45500338 cycles: 12982571 heartbeat IPC: 3.5 cumulative IPC: 3.505 (Simulation time: 00 hr 03 min 37 sec)
Heartbeat CPU 0 instructions: 46000338 cycles: 13125404 heartbeat IPC: 3.501 cumulative IPC: 3.505 (Simulation time: 00 hr 03 min 39 sec)
Heartbeat CPU 0 instructions: 46500343 cycles: 13267401 heartbeat IPC: 3.521 cumulative IPC: 3.505 (Simulation time: 00 hr 03 min 42 sec)
Heartbeat CPU 0 instructions: 47000347 cycles: 13409900 heartbeat IPC: 3.509 cumulative IPC: 3.505 (Simulation time: 00 hr 03 min 44 sec)
Heartbeat CPU 0 instructions: 47500352 cycles: 13551227 heartbeat IPC: 3.538 cumulative IPC: 3.505 (Simulation time: 00 hr 03 min 46 sec)
Heartbeat CPU 0 instructions: 48000356 cycles: 13692781 heartbeat IPC: 3.532 cumulative IPC: 3.506 (Simulation time: 00 hr 03 min 49 sec)
Heartbeat CPU 0 instructions: 48500361 cycles: 13834319 heartbeat IPC: 3.533 cumulative IPC: 3.506 (Simulation time: 00 hr 03 min 51 sec)
Heartbeat CPU 0 instructions: 49000365 cycles: 13975477 heartbeat IPC: 3.542 cumulative IPC: 3.506 (Simulation time: 00 hr 03 min 54 sec)
Heartbeat CPU 0 instructions: 49500367 cycles: 14117286 heartbeat IPC: 3.526 cumulative IPC: 3.506 (Simulation time: 00 hr 03 min 56 sec)
Warmup halting CPU 0 at instruction 50000000 cycle 14259351 for remainder of phase
Warmup finished CPU 0 instructions: 50000000 cycles: 14259351 cumulative IPC: 3.506 (Simulation time: 00 hr 03 min 58 sec)
Warmup complete CPU 0 instructions: 50000000 cycles: 14259351 cumulative IPC: 3.506 (Simulation time: 00 hr 03 min 58 sec)
Heartbeat CPU 0 instructions: 50000367 cycles: 14259416 heartbeat IPC: 3.518 cumulative IPC: 5.646 (Simulation time: 00 hr 03 min 58 sec)
Heartbeat CPU 0 instructions: 50500368 cycles: 14590215 heartbeat IPC: 1.511 cumulative IPC: 1.512 (Simulation time: 00 hr 04 min 03 sec)
Heartbeat CPU 0 instructions: 51000371 cycles: 14913481 heartbeat IPC: 1.547 cumulative IPC: 1.529 (Simulation time: 00 hr 04 min 07 sec)
Heartbeat CPU 0 instructions: 51500378 cycles: 15223475 heartbeat IPC: 1.613 cumulative IPC: 1.556 (Simulation time: 00 hr 04 min 11 sec)
Heartbeat CPU 0 instructions: 52000378 cycles: 15535399 heartbeat IPC: 1.603 cumulative IPC: 1.568 (Simulation time: 00 hr 04 min 15 sec)
Heartbeat CPU 0 instructions: 52500382 cycles: 15849421 heartbeat IPC: 1.592 cumulative IPC: 1.572 (Simulation time: 00 hr 04 min 19 sec)
Heartbeat CPU 0 instructions: 53000382 cycles: 16172402 heartbeat IPC: 1.548 cumulative IPC: 1.568 (Simulation time: 00 hr 04 min 24 sec)
Heartbeat CPU 0 instructions: 53500383 cycles: 16490542 heartbeat IPC: 1.572 cumulative IPC: 1.569 (Simulation time: 00 hr 04 min 28 sec)
Heartbeat CPU 0 instructions: 54000383 cycles: 16821065 heartbeat IPC: 1.513 cumulative IPC: 1.562 (Simulation time: 00 hr 04 min 32 sec)
Heartbeat CPU 0 instructions: 54500389 cycles: 17157452 heartbeat IPC: 1.486 cumulative IPC: 1.553 (Simulation time: 00 hr 04 min 36 sec)
Heartbeat CPU 0 instructions: 55000396 cycles: 17487906 heartbeat IPC: 1.513 cumulative IPC: 1.549 (Simulation time: 00 hr 04 min 41 sec)
Heartbeat CPU 0 instructions: 55500400 cycles: 17816132 heartbeat IPC: 1.523 cumulative IPC: 1.546 (Simulation time: 00 hr 04 min 45 sec)
Heartbeat CPU 0 instructions: 56000402 cycles: 18142514 heartbeat IPC: 1.532 cumulative IPC: 1.545 (Simulation time: 00 hr 04 min 49 sec)
Heartbeat CPU 0 instructions: 56500402 cycles: 18471499 heartbeat IPC: 1.52 cumulative IPC: 1.543 (Simulation time: 00 hr 04 min 53 sec)
Heartbeat CPU 0 instructions: 57000404 cycles: 18811176 heartbeat IPC: 1.472 cumulative IPC: 1.538 (Simulation time: 00 hr 04 min 58 sec)
Heartbeat CPU 0 instructions: 57500410 cycles: 19149238 heartbeat IPC: 1.479 cumulative IPC: 1.534 (Simulation time: 00 hr 05 min 02 sec)
Heartbeat CPU 0 instructions: 58000414 cycles: 19487494 heartbeat IPC: 1.478 cumulative IPC: 1.53 (Simulation time: 00 hr 05 min 06 sec)
Heartbeat CPU 0 instructions: 58500418 cycles: 19813169 heartbeat IPC: 1.535 cumulative IPC: 1.531 (Simulation time: 00 hr 05 min 11 sec)
Heartbeat CPU 0 instructions: 59000423 cycles: 20130538 heartbeat IPC: 1.575 cumulative IPC: 1.533 (Simulation time: 00 hr 05 min 15 sec)
Heartbeat CPU 0 instructions: 59500430 cycles: 20461249 heartbeat IPC: 1.512 cumulative IPC: 1.532 (Simulation time: 00 hr 05 min 19 sec)
Heartbeat CPU 0 instructions: 60000436 cycles: 20795024 heartbeat IPC: 1.498 cumulative IPC: 1.53 (Simulation time: 00 hr 05 min 23 sec)
Heartbeat CPU 0 instructions: 60500441 cycles: 21127403 heartbeat IPC: 1.504 cumulative IPC: 1.529 (Simulation time: 00 hr 05 min 28 sec)
Heartbeat CPU 0 instructions: 61000441 cycles: 21503008 heartbeat IPC: 1.331 cumulative IPC: 1.519 (Simulation time: 00 hr 05 min 32 sec)
Heartbeat CPU 0 instructions: 61500444 cycles: 21928489 heartbeat IPC: 1.175 cumulative IPC: 1.5 (Simulation time: 00 hr 05 min 37 sec)
Heartbeat CPU 0 instructions: 62000444 cycles: 22381569 heartbeat IPC: 1.104 cumulative IPC: 1.477 (Simulation time: 00 hr 05 min 42 sec)
Heartbeat CPU 0 instructions: 62500447 cycles: 22735170 heartbeat IPC: 1.414 cumulative IPC: 1.475 (Simulation time: 00 hr 05 min 46 sec)
Heartbeat CPU 0 instructions: 63000450 cycles: 23043617 heartbeat IPC: 1.621 cumulative IPC: 1.48 (Simulation time: 00 hr 05 min 50 sec)
Heartbeat CPU 0 instructions: 63500453 cycles: 23330855 heartbeat IPC: 1.741 cumulative IPC: 1.488 (Simulation time: 00 hr 05 min 54 sec)
Heartbeat CPU 0 instructions: 64000459 cycles: 23633312 heartbeat IPC: 1.653 cumulative IPC: 1.494 (Simulation time: 00 hr 05 min 58 sec)
Heartbeat CPU 0 instructions: 64500463 cycles: 23943730 heartbeat IPC: 1.611 cumulative IPC: 1.497 (Simulation time: 00 hr 06 min 02 sec)
Heartbeat CPU 0 instructions: 65000469 cycles: 24263549 heartbeat IPC: 1.563 cumulative IPC: 1.499 (Simulation time: 00 hr 06 min 06 sec)
Heartbeat CPU 0 instructions: 65500474 cycles: 24589672 heartbeat IPC: 1.533 cumulative IPC: 1.5 (Simulation time: 00 hr 06 min 10 sec)
Heartbeat CPU 0 instructions: 66000479 cycles: 24921715 heartbeat IPC: 1.506 cumulative IPC: 1.501 (Simulation time: 00 hr 06 min 14 sec)
Heartbeat CPU 0 instructions: 66500481 cycles: 25251452 heartbeat IPC: 1.516 cumulative IPC: 1.501 (Simulation time: 00 hr 06 min 19 sec)
Heartbeat CPU 0 instructions: 67000485 cycles: 25567081 heartbeat IPC: 1.584 cumulative IPC: 1.503 (Simulation time: 00 hr 06 min 23 sec)
Heartbeat CPU 0 instructions: 67500492 cycles: 25884341 heartbeat IPC: 1.576 cumulative IPC: 1.505 (Simulation time: 00 hr 06 min 27 sec)
Heartbeat CPU 0 instructions: 68000494 cycles: 26208033 heartbeat IPC: 1.545 cumulative IPC: 1.506 (Simulation time: 00 hr 06 min 31 sec)
Heartbeat CPU 0 instructions: 68500497 cycles: 26543193 heartbeat IPC: 1.492 cumulative IPC: 1.506 (Simulation time: 00 hr 06 min 35 sec)
Heartbeat CPU 0 instructions: 69000498 cycles: 26863466 heartbeat IPC: 1.561 cumulative IPC: 1.507 (Simulation time: 00 hr 06 min 40 sec)
Heartbeat CPU 0 instructions: 69500499 cycles: 27198987 heartbeat IPC: 1.49 cumulative IPC: 1.507 (Simulation time: 00 hr 06 min 44 sec)
Heartbeat CPU 0 instructions: 70000502 cycles: 27529891 heartbeat IPC: 1.511 cumulative IPC: 1.507 (Simulation time: 00 hr 06 min 48 sec)
Heartbeat CPU 0 instructions: 70500507 cycles: 27859440 heartbeat IPC: 1.517 cumulative IPC: 1.507 (Simulation time: 00 hr 06 min 52 sec)
Heartbeat CPU 0 instructions: 71000511 cycles: 28198091 heartbeat IPC: 1.476 cumulative IPC: 1.507 (Simulation time: 00 hr 06 min 57 sec)
Heartbeat CPU 0 instructions: 71500511 cycles: 28533324 heartbeat IPC: 1.491 cumulative IPC: 1.506 (Simulation time: 00 hr 07 min 01 sec)
Heartbeat CPU 0 instructions: 72000515 cycles: 28937777 heartbeat IPC: 1.236 cumulative IPC: 1.499 (Simulation time: 00 hr 07 min 06 sec)
Heartbeat CPU 0 instructions: 72500522 cycles: 29278761 heartbeat IPC: 1.466 cumulative IPC: 1.498 (Simulation time: 00 hr 07 min 10 sec)
Heartbeat CPU 0 instructions: 73000529 cycles: 29608101 heartbeat IPC: 1.518 cumulative IPC: 1.499 (Simulation time: 00 hr 07 min 14 sec)
Heartbeat CPU 0 instructions: 73500533 cycles: 29929967 heartbeat IPC: 1.553 cumulative IPC: 1.5 (Simulation time: 00 hr 07 min 18 sec)
Heartbeat CPU 0 instructions: 74000534 cycles: 30241508 heartbeat IPC: 1.605 cumulative IPC: 1.502 (Simulation time: 00 hr 07 min 22 sec)
Heartbeat CPU 0 instructions: 74500537 cycles: 30561472 heartbeat IPC: 1.563 cumulative IPC: 1.503 (Simulation time: 00 hr 07 min 27 sec)
Heartbeat CPU 0 instructions: 75000541 cycles: 30899177 heartbeat IPC: 1.481 cumulative IPC: 1.502 (Simulation time: 00 hr 07 min 31 sec)
Heartbeat CPU 0 instructions: 75500548 cycles: 31233100 heartbeat IPC: 1.497 cumulative IPC: 1.502 (Simulation time: 00 hr 07 min 35 sec)
Heartbeat CPU 0 instructions: 76000550 cycles: 31564644 heartbeat IPC: 1.508 cumulative IPC: 1.502 (Simulation time: 00 hr 07 min 39 sec)
Heartbeat CPU 0 instructions: 76500556 cycles: 31883882 heartbeat IPC: 1.566 cumulative IPC: 1.504 (Simulation time: 00 hr 07 min 43 sec)
Heartbeat CPU 0 instructions: 77000558 cycles: 32198331 heartbeat IPC: 1.59 cumulative IPC: 1.505 (Simulation time: 00 hr 07 min 48 sec)
Heartbeat CPU 0 instructions: 77500561 cycles: 32519350 heartbeat IPC: 1.558 cumulative IPC: 1.506 (Simulation time: 00 hr 07 min 52 sec)
Heartbeat CPU 0 instructions: 78000563 cycles: 32843396 heartbeat IPC: 1.543 cumulative IPC: 1.507 (Simulation time: 00 hr 07 min 56 sec)
Heartbeat CPU 0 instructions: 78500565 cycles: 33170524 heartbeat IPC: 1.528 cumulative IPC: 1.507 (Simulation time: 00 hr 08 min 00 sec)
Heartbeat CPU 0 instructions: 79000569 cycles: 33497581 heartbeat IPC: 1.529 cumulative IPC: 1.507 (Simulation time: 00 hr 08 min 05 sec)
Heartbeat CPU 0 instructions: 79500572 cycles: 33828049 heartbeat IPC: 1.513 cumulative IPC: 1.508 (Simulation time: 00 hr 08 min 09 sec)
Heartbeat CPU 0 instructions: 80000579 cycles: 34155824 heartbeat IPC: 1.525 cumulative IPC: 1.508 (Simulation time: 00 hr 08 min 13 sec)
Heartbeat CPU 0 instructions: 80500583 cycles: 34487932 heartbeat IPC: 1.506 cumulative IPC: 1.508 (Simulation time: 00 hr 08 min 17 sec)
Heartbeat CPU 0 instructions: 81000586 cycles: 34812350 heartbeat IPC: 1.541 cumulative IPC: 1.508 (Simulation time: 00 hr 08 min 22 sec)
Heartbeat CPU 0 instructions: 81500593 cycles: 35143584 heartbeat IPC: 1.51 cumulative IPC: 1.508 (Simulation time: 00 hr 08 min 26 sec)
Heartbeat CPU 0 instructions: 82000597 cycles: 35473804 heartbeat IPC: 1.514 cumulative IPC: 1.508 (Simulation time: 00 hr 08 min 30 sec)
Heartbeat CPU 0 instructions: 82500599 cycles: 35803289 heartbeat IPC: 1.518 cumulative IPC: 1.509 (Simulation time: 00 hr 08 min 34 sec)
Heartbeat CPU 0 instructions: 83000604 cycles: 36134214 heartbeat IPC: 1.511 cumulative IPC: 1.509 (Simulation time: 00 hr 08 min 39 sec)
Heartbeat CPU 0 instructions: 83500607 cycles: 36461497 heartbeat IPC: 1.528 cumulative IPC: 1.509 (Simulation time: 00 hr 08 min 43 sec)
Heartbeat CPU 0 instructions: 84000612 cycles: 36796507 heartbeat IPC: 1.493 cumulative IPC: 1.509 (Simulation time: 00 hr 08 min 47 sec)
Heartbeat CPU 0 instructions: 84500616 cycles: 37127743 heartbeat IPC: 1.51 cumulative IPC: 1.509 (Simulation time: 00 hr 08 min 51 sec)
Heartbeat CPU 0 instructions: 85000616 cycles: 37463229 heartbeat IPC: 1.49 cumulative IPC: 1.508 (Simulation time: 00 hr 08 min 55 sec)
Heartbeat CPU 0 instructions: 85500616 cycles: 37796509 heartbeat IPC: 1.5 cumulative IPC: 1.508 (Simulation time: 00 hr 09 min 00 sec)
Heartbeat CPU 0 instructions: 86000616 cycles: 38125726 heartbeat IPC: 1.519 cumulative IPC: 1.508 (Simulation time: 00 hr 09 min 04 sec)
Heartbeat CPU 0 instructions: 86500621 cycles: 38458977 heartbeat IPC: 1.5 cumulative IPC: 1.508 (Simulation time: 00 hr 09 min 08 sec)
Heartbeat CPU 0 instructions: 87000624 cycles: 38800564 heartbeat IPC: 1.464 cumulative IPC: 1.508 (Simulation time: 00 hr 09 min 13 sec)
Heartbeat CPU 0 instructions: 87500630 cycles: 39116608 heartbeat IPC: 1.582 cumulative IPC: 1.509 (Simulation time: 00 hr 09 min 17 sec)
Heartbeat CPU 0 instructions: 88000635 cycles: 39442232 heartbeat IPC: 1.536 cumulative IPC: 1.509 (Simulation time: 00 hr 09 min 21 sec)
Heartbeat CPU 0 instructions: 88500635 cycles: 39778353 heartbeat IPC: 1.488 cumulative IPC: 1.509 (Simulation time: 00 hr 09 min 25 sec)
Heartbeat CPU 0 instructions: 89000641 cycles: 40101662 heartbeat IPC: 1.547 cumulative IPC: 1.509 (Simulation time: 00 hr 09 min 29 sec)
Heartbeat CPU 0 instructions: 89500642 cycles: 40429393 heartbeat IPC: 1.526 cumulative IPC: 1.509 (Simulation time: 00 hr 09 min 33 sec)
Heartbeat CPU 0 instructions: 90000643 cycles: 40761500 heartbeat IPC: 1.506 cumulative IPC: 1.509 (Simulation time: 00 hr 09 min 37 sec)
Heartbeat CPU 0 instructions: 90500648 cycles: 41097696 heartbeat IPC: 1.487 cumulative IPC: 1.509 (Simulation time: 00 hr 09 min 42 sec)
Heartbeat CPU 0 instructions: 91000654 cycles: 41440505 heartbeat IPC: 1.459 cumulative IPC: 1.508 (Simulation time: 00 hr 09 min 46 sec)
Heartbeat CPU 0 instructions: 91500656 cycles: 41764476 heartbeat IPC: 1.543 cumulative IPC: 1.509 (Simulation time: 00 hr 09 min 50 sec)
Heartbeat CPU 0 instructions: 92000657 cycles: 42102277 heartbeat IPC: 1.48 cumulative IPC: 1.508 (Simulation time: 00 hr 09 min 55 sec)
Heartbeat CPU 0 instructions: 92500663 cycles: 42431304 heartbeat IPC: 1.52 cumulative IPC: 1.509 (Simulation time: 00 hr 09 min 59 sec)
Heartbeat CPU 0 instructions: 93000668 cycles: 42757101 heartbeat IPC: 1.535 cumulative IPC: 1.509 (Simulation time: 00 hr 10 min 03 sec)
Heartbeat CPU 0 instructions: 93500670 cycles: 43097229 heartbeat IPC: 1.47 cumulative IPC: 1.508 (Simulation time: 00 hr 10 min 07 sec)
Heartbeat CPU 0 instructions: 94000670 cycles: 43418103 heartbeat IPC: 1.558 cumulative IPC: 1.509 (Simulation time: 00 hr 10 min 11 sec)
Heartbeat CPU 0 instructions: 94500671 cycles: 43752647 heartbeat IPC: 1.495 cumulative IPC: 1.509 (Simulation time: 00 hr 10 min 15 sec)
Heartbeat CPU 0 instructions: 95000674 cycles: 44093035 heartbeat IPC: 1.469 cumulative IPC: 1.508 (Simulation time: 00 hr 10 min 20 sec)
Heartbeat CPU 0 instructions: 95500678 cycles: 44428414 heartbeat IPC: 1.491 cumulative IPC: 1.508 (Simulation time: 00 hr 10 min 24 sec)
Heartbeat CPU 0 instructions: 96000684 cycles: 44753086 heartbeat IPC: 1.54 cumulative IPC: 1.509 (Simulation time: 00 hr 10 min 28 sec)
Heartbeat CPU 0 instructions: 96500689 cycles: 45074042 heartbeat IPC: 1.558 cumulative IPC: 1.509 (Simulation time: 00 hr 10 min 32 sec)
Heartbeat CPU 0 instructions: 97000696 cycles: 45406430 heartbeat IPC: 1.504 cumulative IPC: 1.509 (Simulation time: 00 hr 10 min 36 sec)
Heartbeat CPU 0 instructions: 97500701 cycles: 45736727 heartbeat IPC: 1.514 cumulative IPC: 1.509 (Simulation time: 00 hr 10 min 41 sec)
Heartbeat CPU 0 instructions: 98000706 cycles: 46065783 heartbeat IPC: 1.52 cumulative IPC: 1.509 (Simulation time: 00 hr 10 min 45 sec)
Heartbeat CPU 0 instructions: 98500706 cycles: 46398086 heartbeat IPC: 1.505 cumulative IPC: 1.509 (Simulation time: 00 hr 10 min 49 sec)
Heartbeat CPU 0 instructions: 99000712 cycles: 46726958 heartbeat IPC: 1.52 cumulative IPC: 1.509 (Simulation time: 00 hr 10 min 53 sec)
Heartbeat CPU 0 instructions: 99500719 cycles: 47064117 heartbeat IPC: 1.483 cumulative IPC: 1.509 (Simulation time: 00 hr 10 min 58 sec)
Heartbeat CPU 0 instructions: 100000722 cycles: 47398033 heartbeat IPC: 1.497 cumulative IPC: 1.509 (Simulation time: 00 hr 11 min 02 sec)
Heartbeat CPU 0 instructions: 100500724 cycles: 47723565 heartbeat IPC: 1.536 cumulative IPC: 1.509 (Simulation time: 00 hr 11 min 06 sec)
Heartbeat CPU 0 instructions: 101000729 cycles: 48049679 heartbeat IPC: 1.533 cumulative IPC: 1.509 (Simulation time: 00 hr 11 min 10 sec)
Heartbeat CPU 0 instructions: 101500733 cycles: 48378735 heartbeat IPC: 1.52 cumulative IPC: 1.509 (Simulation time: 00 hr 11 min 14 sec)
Heartbeat CPU 0 instructions: 102000734 cycles: 48704344 heartbeat IPC: 1.536 cumulative IPC: 1.51 (Simulation time: 00 hr 11 min 19 sec)
Heartbeat CPU 0 instructions: 102500734 cycles: 49039753 heartbeat IPC: 1.491 cumulative IPC: 1.509 (Simulation time: 00 hr 11 min 23 sec)
Heartbeat CPU 0 instructions: 103000737 cycles: 49375633 heartbeat IPC: 1.489 cumulative IPC: 1.509 (Simulation time: 00 hr 11 min 27 sec)
Heartbeat CPU 0 instructions: 103500738 cycles: 49705362 heartbeat IPC: 1.516 cumulative IPC: 1.509 (Simulation time: 00 hr 11 min 31 sec)
Heartbeat CPU 0 instructions: 104000738 cycles: 50036198 heartbeat IPC: 1.511 cumulative IPC: 1.509 (Simulation time: 00 hr 11 min 36 sec)
Heartbeat CPU 0 instructions: 104500744 cycles: 50372596 heartbeat IPC: 1.486 cumulative IPC: 1.509 (Simulation time: 00 hr 11 min 40 sec)
Heartbeat CPU 0 instructions: 105000746 cycles: 50695216 heartbeat IPC: 1.55 cumulative IPC: 1.51 (Simulation time: 00 hr 11 min 44 sec)
Heartbeat CPU 0 instructions: 105500748 cycles: 51008877 heartbeat IPC: 1.594 cumulative IPC: 1.51 (Simulation time: 00 hr 11 min 48 sec)
Heartbeat CPU 0 instructions: 106000752 cycles: 51341951 heartbeat IPC: 1.501 cumulative IPC: 1.51 (Simulation time: 00 hr 11 min 52 sec)
Heartbeat CPU 0 instructions: 106500757 cycles: 51682278 heartbeat IPC: 1.469 cumulative IPC: 1.51 (Simulation time: 00 hr 11 min 56 sec)
Heartbeat CPU 0 instructions: 107000760 cycles: 52020835 heartbeat IPC: 1.477 cumulative IPC: 1.509 (Simulation time: 00 hr 12 min 01 sec)
Heartbeat CPU 0 instructions: 107500764 cycles: 52350765 heartbeat IPC: 1.515 cumulative IPC: 1.51 (Simulation time: 00 hr 12 min 05 sec)
Heartbeat CPU 0 instructions: 108000767 cycles: 52701099 heartbeat IPC: 1.427 cumulative IPC: 1.509 (Simulation time: 00 hr 12 min 09 sec)
Heartbeat CPU 0 instructions: 108500767 cycles: 53023653 heartbeat IPC: 1.55 cumulative IPC: 1.509 (Simulation time: 00 hr 12 min 13 sec)
Heartbeat CPU 0 instructions: 109000769 cycles: 53346752 heartbeat IPC: 1.548 cumulative IPC: 1.509 (Simulation time: 00 hr 12 min 18 sec)
Heartbeat CPU 0 instructions: 109500771 cycles: 53673151 heartbeat IPC: 1.532 cumulative IPC: 1.51 (Simulation time: 00 hr 12 min 22 sec)
Heartbeat CPU 0 instructions: 110000774 cycles: 53993214 heartbeat IPC: 1.562 cumulative IPC: 1.51 (Simulation time: 00 hr 12 min 26 sec)
Heartbeat CPU 0 instructions: 110500777 cycles: 54322603 heartbeat IPC: 1.518 cumulative IPC: 1.51 (Simulation time: 00 hr 12 min 30 sec)
Heartbeat CPU 0 instructions: 111000783 cycles: 54648960 heartbeat IPC: 1.532 cumulative IPC: 1.51 (Simulation time: 00 hr 12 min 34 sec)
Heartbeat CPU 0 instructions: 111500787 cycles: 54960300 heartbeat IPC: 1.606 cumulative IPC: 1.511 (Simulation time: 00 hr 12 min 39 sec)
Heartbeat CPU 0 instructions: 112000792 cycles: 55298335 heartbeat IPC: 1.479 cumulative IPC: 1.511 (Simulation time: 00 hr 12 min 43 sec)
Heartbeat CPU 0 instructions: 112500798 cycles: 55631353 heartbeat IPC: 1.501 cumulative IPC: 1.511 (Simulation time: 00 hr 12 min 47 sec)
Heartbeat CPU 0 instructions: 113000799 cycles: 55970656 heartbeat IPC: 1.474 cumulative IPC: 1.51 (Simulation time: 00 hr 12 min 52 sec)
Heartbeat CPU 0 instructions: 113500804 cycles: 56301452 heartbeat IPC: 1.512 cumulative IPC: 1.51 (Simulation time: 00 hr 12 min 56 sec)
Heartbeat CPU 0 instructions: 114000807 cycles: 56639652 heartbeat IPC: 1.478 cumulative IPC: 1.51 (Simulation time: 00 hr 13 min 00 sec)
Heartbeat CPU 0 instructions: 114500807 cycles: 56970918 heartbeat IPC: 1.509 cumulative IPC: 1.51 (Simulation time: 00 hr 13 min 04 sec)
Heartbeat CPU 0 instructions: 115000810 cycles: 57299043 heartbeat IPC: 1.524 cumulative IPC: 1.51 (Simulation time: 00 hr 13 min 08 sec)
Heartbeat CPU 0 instructions: 115500811 cycles: 57635725 heartbeat IPC: 1.485 cumulative IPC: 1.51 (Simulation time: 00 hr 13 min 13 sec)
Heartbeat CPU 0 instructions: 116000814 cycles: 57965291 heartbeat IPC: 1.517 cumulative IPC: 1.51 (Simulation time: 00 hr 13 min 17 sec)
Heartbeat CPU 0 instructions: 116500816 cycles: 58297621 heartbeat IPC: 1.505 cumulative IPC: 1.51 (Simulation time: 00 hr 13 min 21 sec)
Heartbeat CPU 0 instructions: 117000818 cycles: 58622670 heartbeat IPC: 1.538 cumulative IPC: 1.51 (Simulation time: 00 hr 13 min 25 sec)
Heartbeat CPU 0 instructions: 117500824 cycles: 58957890 heartbeat IPC: 1.492 cumulative IPC: 1.51 (Simulation time: 00 hr 13 min 29 sec)
Heartbeat CPU 0 instructions: 118000824 cycles: 59299907 heartbeat IPC: 1.462 cumulative IPC: 1.51 (Simulation time: 00 hr 13 min 34 sec)
Heartbeat CPU 0 instructions: 118500825 cycles: 59619264 heartbeat IPC: 1.566 cumulative IPC: 1.51 (Simulation time: 00 hr 13 min 38 sec)
Heartbeat CPU 0 instructions: 119000827 cycles: 59951651 heartbeat IPC: 1.504 cumulative IPC: 1.51 (Simulation time: 00 hr 13 min 42 sec)
Heartbeat CPU 0 instructions: 119500834 cycles: 60279823 heartbeat IPC: 1.524 cumulative IPC: 1.51 (Simulation time: 00 hr 13 min 46 sec)
Heartbeat CPU 0 instructions: 120000839 cycles: 60631565 heartbeat IPC: 1.422 cumulative IPC: 1.51 (Simulation time: 00 hr 13 min 50 sec)
Heartbeat CPU 0 instructions: 120500844 cycles: 60979556 heartbeat IPC: 1.437 cumulative IPC: 1.509 (Simulation time: 00 hr 13 min 55 sec)
Heartbeat CPU 0 instructions: 121000851 cycles: 61323232 heartbeat IPC: 1.455 cumulative IPC: 1.509 (Simulation time: 00 hr 13 min 59 sec)
Heartbeat CPU 0 instructions: 121500853 cycles: 61703001 heartbeat IPC: 1.317 cumulative IPC: 1.507 (Simulation time: 00 hr 14 min 03 sec)
Heartbeat CPU 0 instructions: 122000853 cycles: 62052226 heartbeat IPC: 1.432 cumulative IPC: 1.507 (Simulation time: 00 hr 14 min 07 sec)
Heartbeat CPU 0 instructions: 122500857 cycles: 62376028 heartbeat IPC: 1.544 cumulative IPC: 1.507 (Simulation time: 00 hr 14 min 11 sec)
Heartbeat CPU 0 instructions: 123000857 cycles: 62709476 heartbeat IPC: 1.499 cumulative IPC: 1.507 (Simulation time: 00 hr 14 min 15 sec)
Heartbeat CPU 0 instructions: 123500862 cycles: 63043906 heartbeat IPC: 1.495 cumulative IPC: 1.507 (Simulation time: 00 hr 14 min 20 sec)
Heartbeat CPU 0 instructions: 124000862 cycles: 63380661 heartbeat IPC: 1.485 cumulative IPC: 1.506 (Simulation time: 00 hr 14 min 24 sec)
Heartbeat CPU 0 instructions: 124500866 cycles: 63693538 heartbeat IPC: 1.598 cumulative IPC: 1.507 (Simulation time: 00 hr 14 min 28 sec)
Heartbeat CPU 0 instructions: 125000867 cycles: 64016225 heartbeat IPC: 1.549 cumulative IPC: 1.507 (Simulation time: 00 hr 14 min 32 sec)
Heartbeat CPU 0 instructions: 125500867 cycles: 64343049 heartbeat IPC: 1.53 cumulative IPC: 1.507 (Simulation time: 00 hr 14 min 36 sec)
Heartbeat CPU 0 instructions: 126000872 cycles: 64687241 heartbeat IPC: 1.453 cumulative IPC: 1.507 (Simulation time: 00 hr 14 min 40 sec)
Heartbeat CPU 0 instructions: 126500875 cycles: 65042195 heartbeat IPC: 1.409 cumulative IPC: 1.506 (Simulation time: 00 hr 14 min 44 sec)
Heartbeat CPU 0 instructions: 127000881 cycles: 65389955 heartbeat IPC: 1.438 cumulative IPC: 1.506 (Simulation time: 00 hr 14 min 49 sec)
Heartbeat CPU 0 instructions: 127500883 cycles: 65738649 heartbeat IPC: 1.434 cumulative IPC: 1.505 (Simulation time: 00 hr 14 min 53 sec)
Heartbeat CPU 0 instructions: 128000888 cycles: 66068659 heartbeat IPC: 1.515 cumulative IPC: 1.506 (Simulation time: 00 hr 14 min 57 sec)
Heartbeat CPU 0 instructions: 128500894 cycles: 66390454 heartbeat IPC: 1.554 cumulative IPC: 1.506 (Simulation time: 00 hr 15 min 01 sec)
Heartbeat CPU 0 instructions: 129000897 cycles: 66712228 heartbeat IPC: 1.554 cumulative IPC: 1.506 (Simulation time: 00 hr 15 min 05 sec)
Heartbeat CPU 0 instructions: 129500897 cycles: 67042711 heartbeat IPC: 1.513 cumulative IPC: 1.506 (Simulation time: 00 hr 15 min 09 sec)
Heartbeat CPU 0 instructions: 130000903 cycles: 67381145 heartbeat IPC: 1.477 cumulative IPC: 1.506 (Simulation time: 00 hr 15 min 13 sec)
Heartbeat CPU 0 instructions: 130500903 cycles: 67718226 heartbeat IPC: 1.483 cumulative IPC: 1.506 (Simulation time: 00 hr 15 min 17 sec)
Heartbeat CPU 0 instructions: 131000908 cycles: 68056266 heartbeat IPC: 1.479 cumulative IPC: 1.506 (Simulation time: 00 hr 15 min 22 sec)
Heartbeat CPU 0 instructions: 131500908 cycles: 68383622 heartbeat IPC: 1.527 cumulative IPC: 1.506 (Simulation time: 00 hr 15 min 26 sec)
Heartbeat CPU 0 instructions: 132000908 cycles: 68718267 heartbeat IPC: 1.494 cumulative IPC: 1.506 (Simulation time: 00 hr 15 min 30 sec)
Heartbeat CPU 0 instructions: 132500910 cycles: 69048137 heartbeat IPC: 1.516 cumulative IPC: 1.506 (Simulation time: 00 hr 15 min 34 sec)
Heartbeat CPU 0 instructions: 133000914 cycles: 69396138 heartbeat IPC: 1.437 cumulative IPC: 1.505 (Simulation time: 00 hr 15 min 38 sec)
Heartbeat CPU 0 instructions: 133500919 cycles: 69744097 heartbeat IPC: 1.437 cumulative IPC: 1.505 (Simulation time: 00 hr 15 min 42 sec)
Heartbeat CPU 0 instructions: 134000920 cycles: 70074956 heartbeat IPC: 1.511 cumulative IPC: 1.505 (Simulation time: 00 hr 15 min 46 sec)
Heartbeat CPU 0 instructions: 134500925 cycles: 70406145 heartbeat IPC: 1.51 cumulative IPC: 1.505 (Simulation time: 00 hr 15 min 50 sec)
Heartbeat CPU 0 instructions: 135000929 cycles: 70739595 heartbeat IPC: 1.499 cumulative IPC: 1.505 (Simulation time: 00 hr 15 min 55 sec)
Heartbeat CPU 0 instructions: 135500933 cycles: 71076155 heartbeat IPC: 1.486 cumulative IPC: 1.505 (Simulation time: 00 hr 15 min 59 sec)
Heartbeat CPU 0 instructions: 136000940 cycles: 71406854 heartbeat IPC: 1.512 cumulative IPC: 1.505 (Simulation time: 00 hr 16 min 03 sec)
Heartbeat CPU 0 instructions: 136500942 cycles: 71748481 heartbeat IPC: 1.464 cumulative IPC: 1.505 (Simulation time: 00 hr 16 min 07 sec)
Heartbeat CPU 0 instructions: 137000949 cycles: 72090038 heartbeat IPC: 1.464 cumulative IPC: 1.504 (Simulation time: 00 hr 16 min 11 sec)
Heartbeat CPU 0 instructions: 137500956 cycles: 72428521 heartbeat IPC: 1.477 cumulative IPC: 1.504 (Simulation time: 00 hr 16 min 15 sec)
Heartbeat CPU 0 instructions: 138000960 cycles: 72767422 heartbeat IPC: 1.475 cumulative IPC: 1.504 (Simulation time: 00 hr 16 min 19 sec)
Heartbeat CPU 0 instructions: 138500963 cycles: 73110567 heartbeat IPC: 1.457 cumulative IPC: 1.504 (Simulation time: 00 hr 16 min 24 sec)
Heartbeat CPU 0 instructions: 139000970 cycles: 73447545 heartbeat IPC: 1.484 cumulative IPC: 1.504 (Simulation time: 00 hr 16 min 28 sec)
Heartbeat CPU 0 instructions: 139500975 cycles: 73778199 heartbeat IPC: 1.512 cumulative IPC: 1.504 (Simulation time: 00 hr 16 min 32 sec)
Heartbeat CPU 0 instructions: 140000981 cycles: 74106381 heartbeat IPC: 1.524 cumulative IPC: 1.504 (Simulation time: 00 hr 16 min 36 sec)
Heartbeat CPU 0 instructions: 140500988 cycles: 74427283 heartbeat IPC: 1.558 cumulative IPC: 1.504 (Simulation time: 00 hr 16 min 40 sec)
Heartbeat CPU 0 instructions: 141000990 cycles: 74777020 heartbeat IPC: 1.43 cumulative IPC: 1.504 (Simulation time: 00 hr 16 min 44 sec)
Heartbeat CPU 0 instructions: 141500995 cycles: 75105025 heartbeat IPC: 1.524 cumulative IPC: 1.504 (Simulation time: 00 hr 16 min 48 sec)
Heartbeat CPU 0 instructions: 142001000 cycles: 75441290 heartbeat IPC: 1.487 cumulative IPC: 1.504 (Simulation time: 00 hr 16 min 53 sec)
Heartbeat CPU 0 instructions: 142501003 cycles: 75770173 heartbeat IPC: 1.52 cumulative IPC: 1.504 (Simulation time: 00 hr 16 min 57 sec)
Heartbeat CPU 0 instructions: 143001005 cycles: 76099058 heartbeat IPC: 1.52 cumulative IPC: 1.504 (Simulation time: 00 hr 17 min 01 sec)
Heartbeat CPU 0 instructions: 143501012 cycles: 76430720 heartbeat IPC: 1.508 cumulative IPC: 1.504 (Simulation time: 00 hr 17 min 05 sec)
Heartbeat CPU 0 instructions: 144001012 cycles: 76768788 heartbeat IPC: 1.479 cumulative IPC: 1.504 (Simulation time: 00 hr 17 min 09 sec)
Heartbeat CPU 0 instructions: 144501013 cycles: 77118459 heartbeat IPC: 1.43 cumulative IPC: 1.503 (Simulation time: 00 hr 17 min 13 sec)
Heartbeat CPU 0 instructions: 145001017 cycles: 77454650 heartbeat IPC: 1.487 cumulative IPC: 1.503 (Simulation time: 00 hr 17 min 17 sec)
Heartbeat CPU 0 instructions: 145501021 cycles: 77802872 heartbeat IPC: 1.436 cumulative IPC: 1.503 (Simulation time: 00 hr 17 min 21 sec)
Heartbeat CPU 0 instructions: 146001026 cycles: 78136132 heartbeat IPC: 1.5 cumulative IPC: 1.503 (Simulation time: 00 hr 17 min 25 sec)
Heartbeat CPU 0 instructions: 146501030 cycles: 78471305 heartbeat IPC: 1.492 cumulative IPC: 1.503 (Simulation time: 00 hr 17 min 30 sec)
Heartbeat CPU 0 instructions: 147001031 cycles: 78802914 heartbeat IPC: 1.508 cumulative IPC: 1.503 (Simulation time: 00 hr 17 min 34 sec)
Heartbeat CPU 0 instructions: 147501035 cycles: 79147061 heartbeat IPC: 1.453 cumulative IPC: 1.503 (Simulation time: 00 hr 17 min 38 sec)
Heartbeat CPU 0 instructions: 148001040 cycles: 79472449 heartbeat IPC: 1.537 cumulative IPC: 1.503 (Simulation time: 00 hr 17 min 42 sec)
Heartbeat CPU 0 instructions: 148501041 cycles: 79823060 heartbeat IPC: 1.426 cumulative IPC: 1.502 (Simulation time: 00 hr 17 min 46 sec)
Heartbeat CPU 0 instructions: 149001041 cycles: 80205249 heartbeat IPC: 1.308 cumulative IPC: 1.501 (Simulation time: 00 hr 17 min 50 sec)
Heartbeat CPU 0 instructions: 149501042 cycles: 80552248 heartbeat IPC: 1.441 cumulative IPC: 1.501 (Simulation time: 00 hr 17 min 54 sec)
Heartbeat CPU 0 instructions: 150001046 cycles: 80894785 heartbeat IPC: 1.46 cumulative IPC: 1.501 (Simulation time: 00 hr 17 min 58 sec)
Heartbeat CPU 0 instructions: 150501046 cycles: 81220575 heartbeat IPC: 1.535 cumulative IPC: 1.501 (Simulation time: 00 hr 18 min 02 sec)
Heartbeat CPU 0 instructions: 151001053 cycles: 81552501 heartbeat IPC: 1.506 cumulative IPC: 1.501 (Simulation time: 00 hr 18 min 06 sec)
Heartbeat CPU 0 instructions: 151501056 cycles: 81894451 heartbeat IPC: 1.462 cumulative IPC: 1.501 (Simulation time: 00 hr 18 min 10 sec)
Heartbeat CPU 0 instructions: 152001056 cycles: 82224233 heartbeat IPC: 1.516 cumulative IPC: 1.501 (Simulation time: 00 hr 18 min 14 sec)
Heartbeat CPU 0 instructions: 152501059 cycles: 82571543 heartbeat IPC: 1.44 cumulative IPC: 1.5 (Simulation time: 00 hr 18 min 18 sec)
Heartbeat CPU 0 instructions: 153001062 cycles: 82923226 heartbeat IPC: 1.422 cumulative IPC: 1.5 (Simulation time: 00 hr 18 min 22 sec)
Heartbeat CPU 0 instructions: 153501062 cycles: 83278361 heartbeat IPC: 1.408 cumulative IPC: 1.5 (Simulation time: 00 hr 18 min 27 sec)
Heartbeat CPU 0 instructions: 154001065 cycles: 83626044 heartbeat IPC: 1.438 cumulative IPC: 1.499 (Simulation time: 00 hr 18 min 31 sec)
Heartbeat CPU 0 instructions: 154501067 cycles: 83958790 heartbeat IPC: 1.503 cumulative IPC: 1.499 (Simulation time: 00 hr 18 min 35 sec)
Heartbeat CPU 0 instructions: 155001070 cycles: 84363384 heartbeat IPC: 1.236 cumulative IPC: 1.498 (Simulation time: 00 hr 18 min 39 sec)
Heartbeat CPU 0 instructions: 155501070 cycles: 84699491 heartbeat IPC: 1.488 cumulative IPC: 1.498 (Simulation time: 00 hr 18 min 43 sec)
Heartbeat CPU 0 instructions: 156001077 cycles: 85032453 heartbeat IPC: 1.502 cumulative IPC: 1.498 (Simulation time: 00 hr 18 min 47 sec)
Heartbeat CPU 0 instructions: 156501077 cycles: 85401497 heartbeat IPC: 1.355 cumulative IPC: 1.497 (Simulation time: 00 hr 18 min 51 sec)
Heartbeat CPU 0 instructions: 157001080 cycles: 85735693 heartbeat IPC: 1.496 cumulative IPC: 1.497 (Simulation time: 00 hr 18 min 55 sec)
Heartbeat CPU 0 instructions: 157501085 cycles: 86067891 heartbeat IPC: 1.505 cumulative IPC: 1.497 (Simulation time: 00 hr 18 min 59 sec)
Heartbeat CPU 0 instructions: 158001087 cycles: 86389912 heartbeat IPC: 1.553 cumulative IPC: 1.497 (Simulation time: 00 hr 19 min 03 sec)
Heartbeat CPU 0 instructions: 158501089 cycles: 86735686 heartbeat IPC: 1.446 cumulative IPC: 1.497 (Simulation time: 00 hr 19 min 07 sec)
Heartbeat CPU 0 instructions: 159001089 cycles: 87085927 heartbeat IPC: 1.428 cumulative IPC: 1.497 (Simulation time: 00 hr 19 min 11 sec)
Heartbeat CPU 0 instructions: 159501094 cycles: 87461800 heartbeat IPC: 1.33 cumulative IPC: 1.496 (Simulation time: 00 hr 19 min 15 sec)
Heartbeat CPU 0 instructions: 160001100 cycles: 87820242 heartbeat IPC: 1.395 cumulative IPC: 1.495 (Simulation time: 00 hr 19 min 19 sec)
Heartbeat CPU 0 instructions: 160501104 cycles: 88207593 heartbeat IPC: 1.291 cumulative IPC: 1.494 (Simulation time: 00 hr 19 min 23 sec)
Heartbeat CPU 0 instructions: 161001110 cycles: 88550890 heartbeat IPC: 1.456 cumulative IPC: 1.494 (Simulation time: 00 hr 19 min 27 sec)
Heartbeat CPU 0 instructions: 161501115 cycles: 88880133 heartbeat IPC: 1.519 cumulative IPC: 1.494 (Simulation time: 00 hr 19 min 31 sec)
Heartbeat CPU 0 instructions: 162001122 cycles: 89199123 heartbeat IPC: 1.567 cumulative IPC: 1.495 (Simulation time: 00 hr 19 min 35 sec)
Heartbeat CPU 0 instructions: 162501129 cycles: 89507991 heartbeat IPC: 1.619 cumulative IPC: 1.495 (Simulation time: 00 hr 19 min 39 sec)
Heartbeat CPU 0 instructions: 163001134 cycles: 89852534 heartbeat IPC: 1.451 cumulative IPC: 1.495 (Simulation time: 00 hr 19 min 43 sec)
Heartbeat CPU 0 instructions: 163501134 cycles: 90191144 heartbeat IPC: 1.477 cumulative IPC: 1.495 (Simulation time: 00 hr 19 min 47 sec)
Heartbeat CPU 0 instructions: 164001138 cycles: 90541178 heartbeat IPC: 1.428 cumulative IPC: 1.494 (Simulation time: 00 hr 19 min 51 sec)
Heartbeat CPU 0 instructions: 164501141 cycles: 90890308 heartbeat IPC: 1.432 cumulative IPC: 1.494 (Simulation time: 00 hr 19 min 55 sec)
Heartbeat CPU 0 instructions: 165001141 cycles: 91246729 heartbeat IPC: 1.403 cumulative IPC: 1.494 (Simulation time: 00 hr 19 min 59 sec)
Heartbeat CPU 0 instructions: 165501141 cycles: 91597771 heartbeat IPC: 1.424 cumulative IPC: 1.493 (Simulation time: 00 hr 20 min 03 sec)
Heartbeat CPU 0 instructions: 166001146 cycles: 91943667 heartbeat IPC: 1.446 cumulative IPC: 1.493 (Simulation time: 00 hr 20 min 07 sec)
Heartbeat CPU 0 instructions: 166501148 cycles: 92282712 heartbeat IPC: 1.475 cumulative IPC: 1.493 (Simulation time: 00 hr 20 min 11 sec)
Heartbeat CPU 0 instructions: 167001154 cycles: 92636880 heartbeat IPC: 1.412 cumulative IPC: 1.493 (Simulation time: 00 hr 20 min 15 sec)
Heartbeat CPU 0 instructions: 167501159 cycles: 92990633 heartbeat IPC: 1.413 cumulative IPC: 1.492 (Simulation time: 00 hr 20 min 19 sec)
Heartbeat CPU 0 instructions: 168001163 cycles: 93349700 heartbeat IPC: 1.393 cumulative IPC: 1.492 (Simulation time: 00 hr 20 min 23 sec)
Heartbeat CPU 0 instructions: 168501170 cycles: 93704067 heartbeat IPC: 1.411 cumulative IPC: 1.492 (Simulation time: 00 hr 20 min 27 sec)
Heartbeat CPU 0 instructions: 169001170 cycles: 94047937 heartbeat IPC: 1.454 cumulative IPC: 1.491 (Simulation time: 00 hr 20 min 31 sec)
Heartbeat CPU 0 instructions: 169501175 cycles: 94412039 heartbeat IPC: 1.373 cumulative IPC: 1.491 (Simulation time: 00 hr 20 min 35 sec)
Heartbeat CPU 0 instructions: 170001178 cycles: 94748601 heartbeat IPC: 1.486 cumulative IPC: 1.491 (Simulation time: 00 hr 20 min 39 sec)
Heartbeat CPU 0 instructions: 170501178 cycles: 95119463 heartbeat IPC: 1.348 cumulative IPC: 1.49 (Simulation time: 00 hr 20 min 43 sec)
Heartbeat CPU 0 instructions: 171001180 cycles: 95481896 heartbeat IPC: 1.38 cumulative IPC: 1.49 (Simulation time: 00 hr 20 min 47 sec)
Heartbeat CPU 0 instructions: 171501180 cycles: 95866623 heartbeat IPC: 1.3 cumulative IPC: 1.489 (Simulation time: 00 hr 20 min 52 sec)
Heartbeat CPU 0 instructions: 172001181 cycles: 96212465 heartbeat IPC: 1.446 cumulative IPC: 1.489 (Simulation time: 00 hr 20 min 56 sec)
Heartbeat CPU 0 instructions: 172501186 cycles: 96546186 heartbeat IPC: 1.498 cumulative IPC: 1.489 (Simulation time: 00 hr 20 min 59 sec)
Heartbeat CPU 0 instructions: 173001192 cycles: 96903881 heartbeat IPC: 1.398 cumulative IPC: 1.488 (Simulation time: 00 hr 21 min 03 sec)
Heartbeat CPU 0 instructions: 173501195 cycles: 97230370 heartbeat IPC: 1.531 cumulative IPC: 1.488 (Simulation time: 00 hr 21 min 07 sec)
Heartbeat CPU 0 instructions: 174001196 cycles: 97578704 heartbeat IPC: 1.435 cumulative IPC: 1.488 (Simulation time: 00 hr 21 min 11 sec)
Heartbeat CPU 0 instructions: 174501202 cycles: 97931506 heartbeat IPC: 1.417 cumulative IPC: 1.488 (Simulation time: 00 hr 21 min 15 sec)
Heartbeat CPU 0 instructions: 175001205 cycles: 98287909 heartbeat IPC: 1.403 cumulative IPC: 1.488 (Simulation time: 00 hr 21 min 19 sec)
Heartbeat CPU 0 instructions: 175501208 cycles: 98642197 heartbeat IPC: 1.411 cumulative IPC: 1.487 (Simulation time: 00 hr 21 min 23 sec)
Heartbeat CPU 0 instructions: 176001208 cycles: 98999254 heartbeat IPC: 1.4 cumulative IPC: 1.487 (Simulation time: 00 hr 21 min 27 sec)
Heartbeat CPU 0 instructions: 176501208 cycles: 99349446 heartbeat IPC: 1.428 cumulative IPC: 1.487 (Simulation time: 00 hr 21 min 31 sec)
Heartbeat CPU 0 instructions: 177001208 cycles: 99718152 heartbeat IPC: 1.356 cumulative IPC: 1.486 (Simulation time: 00 hr 21 min 35 sec)
Heartbeat CPU 0 instructions: 177501211 cycles: 100073740 heartbeat IPC: 1.406 cumulative IPC: 1.486 (Simulation time: 00 hr 21 min 39 sec)
Heartbeat CPU 0 instructions: 178001211 cycles: 100436904 heartbeat IPC: 1.377 cumulative IPC: 1.485 (Simulation time: 00 hr 21 min 43 sec)
Heartbeat CPU 0 instructions: 178501212 cycles: 100760021 heartbeat IPC: 1.547 cumulative IPC: 1.486 (Simulation time: 00 hr 21 min 47 sec)
Heartbeat CPU 0 instructions: 179001216 cycles: 101098366 heartbeat IPC: 1.478 cumulative IPC: 1.486 (Simulation time: 00 hr 21 min 50 sec)
Heartbeat CPU 0 instructions: 179501223 cycles: 101459249 heartbeat IPC: 1.386 cumulative IPC: 1.485 (Simulation time: 00 hr 21 min 54 sec)
Heartbeat CPU 0 instructions: 180001224 cycles: 101825073 heartbeat IPC: 1.367 cumulative IPC: 1.485 (Simulation time: 00 hr 21 min 58 sec)
Heartbeat CPU 0 instructions: 180501229 cycles: 102191403 heartbeat IPC: 1.365 cumulative IPC: 1.484 (Simulation time: 00 hr 22 min 02 sec)
Heartbeat CPU 0 instructions: 181001234 cycles: 102546663 heartbeat IPC: 1.407 cumulative IPC: 1.484 (Simulation time: 00 hr 22 min 06 sec)
Heartbeat CPU 0 instructions: 181501238 cycles: 102893266 heartbeat IPC: 1.443 cumulative IPC: 1.484 (Simulation time: 00 hr 22 min 10 sec)
Heartbeat CPU 0 instructions: 182001242 cycles: 103265006 heartbeat IPC: 1.345 cumulative IPC: 1.483 (Simulation time: 00 hr 22 min 14 sec)
Heartbeat CPU 0 instructions: 182501243 cycles: 103622976 heartbeat IPC: 1.397 cumulative IPC: 1.483 (Simulation time: 00 hr 22 min 18 sec)
Heartbeat CPU 0 instructions: 183001247 cycles: 103971048 heartbeat IPC: 1.436 cumulative IPC: 1.483 (Simulation time: 00 hr 22 min 22 sec)
Heartbeat CPU 0 instructions: 183501253 cycles: 104320704 heartbeat IPC: 1.43 cumulative IPC: 1.482 (Simulation time: 00 hr 22 min 26 sec)
Heartbeat CPU 0 instructions: 184001259 cycles: 104641525 heartbeat IPC: 1.559 cumulative IPC: 1.483 (Simulation time: 00 hr 22 min 30 sec)
Heartbeat CPU 0 instructions: 184501259 cycles: 104959294 heartbeat IPC: 1.573 cumulative IPC: 1.483 (Simulation time: 00 hr 22 min 33 sec)
Heartbeat CPU 0 instructions: 185001262 cycles: 105319686 heartbeat IPC: 1.387 cumulative IPC: 1.483 (Simulation time: 00 hr 22 min 37 sec)
Heartbeat CPU 0 instructions: 185501265 cycles: 105689832 heartbeat IPC: 1.351 cumulative IPC: 1.482 (Simulation time: 00 hr 22 min 41 sec)
Heartbeat CPU 0 instructions: 186001265 cycles: 106057249 heartbeat IPC: 1.361 cumulative IPC: 1.482 (Simulation time: 00 hr 22 min 45 sec)
Heartbeat CPU 0 instructions: 186501265 cycles: 106449632 heartbeat IPC: 1.274 cumulative IPC: 1.481 (Simulation time: 00 hr 22 min 49 sec)
Heartbeat CPU 0 instructions: 187001268 cycles: 106834789 heartbeat IPC: 1.298 cumulative IPC: 1.48 (Simulation time: 00 hr 22 min 54 sec)
Heartbeat CPU 0 instructions: 187501273 cycles: 107187386 heartbeat IPC: 1.418 cumulative IPC: 1.48 (Simulation time: 00 hr 22 min 57 sec)
Heartbeat CPU 0 instructions: 188001277 cycles: 107548412 heartbeat IPC: 1.385 cumulative IPC: 1.479 (Simulation time: 00 hr 23 min 01 sec)
Heartbeat CPU 0 instructions: 188501282 cycles: 107918229 heartbeat IPC: 1.352 cumulative IPC: 1.479 (Simulation time: 00 hr 23 min 05 sec)
Heartbeat CPU 0 instructions: 189001282 cycles: 108252973 heartbeat IPC: 1.494 cumulative IPC: 1.479 (Simulation time: 00 hr 23 min 09 sec)
Heartbeat CPU 0 instructions: 189501288 cycles: 108620265 heartbeat IPC: 1.361 cumulative IPC: 1.478 (Simulation time: 00 hr 23 min 13 sec)
Heartbeat CPU 0 instructions: 190001293 cycles: 109000487 heartbeat IPC: 1.315 cumulative IPC: 1.478 (Simulation time: 00 hr 23 min 17 sec)
Heartbeat CPU 0 instructions: 190501294 cycles: 109309713 heartbeat IPC: 1.617 cumulative IPC: 1.478 (Simulation time: 00 hr 23 min 21 sec)
Heartbeat CPU 0 instructions: 191001296 cycles: 109642278 heartbeat IPC: 1.503 cumulative IPC: 1.478 (Simulation time: 00 hr 23 min 25 sec)
Heartbeat CPU 0 instructions: 191501298 cycles: 109983001 heartbeat IPC: 1.467 cumulative IPC: 1.478 (Simulation time: 00 hr 23 min 28 sec)
Heartbeat CPU 0 instructions: 192001298 cycles: 110358450 heartbeat IPC: 1.332 cumulative IPC: 1.478 (Simulation time: 00 hr 23 min 32 sec)
Heartbeat CPU 0 instructions: 192501305 cycles: 110748463 heartbeat IPC: 1.282 cumulative IPC: 1.477 (Simulation time: 00 hr 23 min 36 sec)
Heartbeat CPU 0 instructions: 193001306 cycles: 111132178 heartbeat IPC: 1.303 cumulative IPC: 1.476 (Simulation time: 00 hr 23 min 40 sec)
Heartbeat CPU 0 instructions: 193501306 cycles: 111514479 heartbeat IPC: 1.308 cumulative IPC: 1.476 (Simulation time: 00 hr 23 min 44 sec)
Heartbeat CPU 0 instructions: 194001308 cycles: 111891524 heartbeat IPC: 1.326 cumulative IPC: 1.475 (Simulation time: 00 hr 23 min 48 sec)
Heartbeat CPU 0 instructions: 194501313 cycles: 112262104 heartbeat IPC: 1.349 cumulative IPC: 1.474 (Simulation time: 00 hr 23 min 52 sec)
Heartbeat CPU 0 instructions: 195001319 cycles: 112642941 heartbeat IPC: 1.313 cumulative IPC: 1.474 (Simulation time: 00 hr 23 min 56 sec)
Heartbeat CPU 0 instructions: 195501323 cycles: 113005343 heartbeat IPC: 1.38 cumulative IPC: 1.473 (Simulation time: 00 hr 24 min 00 sec)
Heartbeat CPU 0 instructions: 196001327 cycles: 113387846 heartbeat IPC: 1.307 cumulative IPC: 1.473 (Simulation time: 00 hr 24 min 04 sec)
Heartbeat CPU 0 instructions: 196501331 cycles: 113748313 heartbeat IPC: 1.387 cumulative IPC: 1.473 (Simulation time: 00 hr 24 min 07 sec)
Heartbeat CPU 0 instructions: 197001336 cycles: 114057310 heartbeat IPC: 1.618 cumulative IPC: 1.473 (Simulation time: 00 hr 24 min 11 sec)
Heartbeat CPU 0 instructions: 197501339 cycles: 114410777 heartbeat IPC: 1.415 cumulative IPC: 1.473 (Simulation time: 00 hr 24 min 15 sec)
Heartbeat CPU 0 instructions: 198001346 cycles: 114724800 heartbeat IPC: 1.592 cumulative IPC: 1.473 (Simulation time: 00 hr 24 min 19 sec)
Heartbeat CPU 0 instructions: 198501346 cycles: 115022762 heartbeat IPC: 1.678 cumulative IPC: 1.474 (Simulation time: 00 hr 24 min 22 sec)
Heartbeat CPU 0 instructions: 199001352 cycles: 115416693 heartbeat IPC: 1.269 cumulative IPC: 1.473 (Simulation time: 00 hr 24 min 26 sec)
Heartbeat CPU 0 instructions: 199501355 cycles: 115811412 heartbeat IPC: 1.267 cumulative IPC: 1.472 (Simulation time: 00 hr 24 min 30 sec)
Heartbeat CPU 0 instructions: 200001360 cycles: 116213895 heartbeat IPC: 1.242 cumulative IPC: 1.471 (Simulation time: 00 hr 24 min 34 sec)
Heartbeat CPU 0 instructions: 200501366 cycles: 116615805 heartbeat IPC: 1.244 cumulative IPC: 1.47 (Simulation time: 00 hr 24 min 38 sec)
Heartbeat CPU 0 instructions: 201001373 cycles: 117009944 heartbeat IPC: 1.269 cumulative IPC: 1.47 (Simulation time: 00 hr 24 min 42 sec)
Heartbeat CPU 0 instructions: 201501375 cycles: 117397387 heartbeat IPC: 1.291 cumulative IPC: 1.469 (Simulation time: 00 hr 24 min 46 sec)
Heartbeat CPU 0 instructions: 202001376 cycles: 117790615 heartbeat IPC: 1.272 cumulative IPC: 1.468 (Simulation time: 00 hr 24 min 50 sec)
Heartbeat CPU 0 instructions: 202501378 cycles: 118153872 heartbeat IPC: 1.376 cumulative IPC: 1.468 (Simulation time: 00 hr 24 min 54 sec)
Heartbeat CPU 0 instructions: 203001378 cycles: 118537443 heartbeat IPC: 1.304 cumulative IPC: 1.467 (Simulation time: 00 hr 24 min 57 sec)
Heartbeat CPU 0 instructions: 203501383 cycles: 118918007 heartbeat IPC: 1.314 cumulative IPC: 1.467 (Simulation time: 00 hr 25 min 01 sec)
Heartbeat CPU 0 instructions: 204001383 cycles: 119317474 heartbeat IPC: 1.252 cumulative IPC: 1.466 (Simulation time: 00 hr 25 min 05 sec)
Heartbeat CPU 0 instructions: 204501386 cycles: 119719848 heartbeat IPC: 1.243 cumulative IPC: 1.465 (Simulation time: 00 hr 25 min 09 sec)
Heartbeat CPU 0 instructions: 205001392 cycles: 120130501 heartbeat IPC: 1.218 cumulative IPC: 1.464 (Simulation time: 00 hr 25 min 13 sec)
Heartbeat CPU 0 instructions: 205501399 cycles: 120522904 heartbeat IPC: 1.274 cumulative IPC: 1.463 (Simulation time: 00 hr 25 min 16 sec)
Heartbeat CPU 0 instructions: 206001406 cycles: 120919981 heartbeat IPC: 1.259 cumulative IPC: 1.463 (Simulation time: 00 hr 25 min 20 sec)
Heartbeat CPU 0 instructions: 206501407 cycles: 121300946 heartbeat IPC: 1.312 cumulative IPC: 1.462 (Simulation time: 00 hr 25 min 24 sec)
Heartbeat CPU 0 instructions: 207001413 cycles: 121681564 heartbeat IPC: 1.314 cumulative IPC: 1.462 (Simulation time: 00 hr 25 min 27 sec)
Heartbeat CPU 0 instructions: 207501416 cycles: 122063571 heartbeat IPC: 1.309 cumulative IPC: 1.461 (Simulation time: 00 hr 25 min 31 sec)
Heartbeat CPU 0 instructions: 208001419 cycles: 122449668 heartbeat IPC: 1.295 cumulative IPC: 1.46 (Simulation time: 00 hr 25 min 35 sec)
Heartbeat CPU 0 instructions: 208501422 cycles: 122796471 heartbeat IPC: 1.442 cumulative IPC: 1.46 (Simulation time: 00 hr 25 min 39 sec)
Heartbeat CPU 0 instructions: 209001424 cycles: 123180969 heartbeat IPC: 1.3 cumulative IPC: 1.46 (Simulation time: 00 hr 25 min 42 sec)
Heartbeat CPU 0 instructions: 209501424 cycles: 123556231 heartbeat IPC: 1.332 cumulative IPC: 1.459 (Simulation time: 00 hr 25 min 46 sec)
Heartbeat CPU 0 instructions: 210001427 cycles: 123944021 heartbeat IPC: 1.289 cumulative IPC: 1.459 (Simulation time: 00 hr 25 min 50 sec)
Heartbeat CPU 0 instructions: 210501432 cycles: 124314725 heartbeat IPC: 1.349 cumulative IPC: 1.458 (Simulation time: 00 hr 25 min 54 sec)
Heartbeat CPU 0 instructions: 211001433 cycles: 124703644 heartbeat IPC: 1.286 cumulative IPC: 1.458 (Simulation time: 00 hr 25 min 57 sec)
Heartbeat CPU 0 instructions: 211501433 cycles: 125009398 heartbeat IPC: 1.635 cumulative IPC: 1.458 (Simulation time: 00 hr 26 min 01 sec)
Heartbeat CPU 0 instructions: 212001435 cycles: 125329585 heartbeat IPC: 1.562 cumulative IPC: 1.459 (Simulation time: 00 hr 26 min 05 sec)
Heartbeat CPU 0 instructions: 212501435 cycles: 125742182 heartbeat IPC: 1.212 cumulative IPC: 1.458 (Simulation time: 00 hr 26 min 09 sec)
Heartbeat CPU 0 instructions: 213001436 cycles: 126173633 heartbeat IPC: 1.159 cumulative IPC: 1.456 (Simulation time: 00 hr 26 min 13 sec)
Heartbeat CPU 0 instructions: 213501438 cycles: 126563139 heartbeat IPC: 1.284 cumulative IPC: 1.456 (Simulation time: 00 hr 26 min 17 sec)
Heartbeat CPU 0 instructions: 214001438 cycles: 126989512 heartbeat IPC: 1.173 cumulative IPC: 1.455 (Simulation time: 00 hr 26 min 21 sec)
Heartbeat CPU 0 instructions: 214501438 cycles: 127441233 heartbeat IPC: 1.107 cumulative IPC: 1.453 (Simulation time: 00 hr 26 min 25 sec)
Heartbeat CPU 0 instructions: 215001439 cycles: 127791740 heartbeat IPC: 1.427 cumulative IPC: 1.453 (Simulation time: 00 hr 26 min 28 sec)
Heartbeat CPU 0 instructions: 215501441 cycles: 128212689 heartbeat IPC: 1.188 cumulative IPC: 1.452 (Simulation time: 00 hr 26 min 32 sec)
Heartbeat CPU 0 instructions: 216001443 cycles: 128542097 heartbeat IPC: 1.518 cumulative IPC: 1.453 (Simulation time: 00 hr 26 min 36 sec)
Heartbeat CPU 0 instructions: 216501450 cycles: 128897487 heartbeat IPC: 1.407 cumulative IPC: 1.452 (Simulation time: 00 hr 26 min 39 sec)
Heartbeat CPU 0 instructions: 217001450 cycles: 129300110 heartbeat IPC: 1.242 cumulative IPC: 1.452 (Simulation time: 00 hr 26 min 43 sec)
Heartbeat CPU 0 instructions: 217501451 cycles: 129735757 heartbeat IPC: 1.148 cumulative IPC: 1.451 (Simulation time: 00 hr 26 min 47 sec)
Heartbeat CPU 0 instructions: 218001453 cycles: 130177743 heartbeat IPC: 1.131 cumulative IPC: 1.449 (Simulation time: 00 hr 26 min 51 sec)
Heartbeat CPU 0 instructions: 218501456 cycles: 130618745 heartbeat IPC: 1.134 cumulative IPC: 1.448 (Simulation time: 00 hr 26 min 55 sec)
Heartbeat CPU 0 instructions: 219001459 cycles: 131065677 heartbeat IPC: 1.119 cumulative IPC: 1.447 (Simulation time: 00 hr 26 min 59 sec)
Heartbeat CPU 0 instructions: 219501464 cycles: 131479801 heartbeat IPC: 1.207 cumulative IPC: 1.446 (Simulation time: 00 hr 27 min 03 sec)
Heartbeat CPU 0 instructions: 220001466 cycles: 131921064 heartbeat IPC: 1.133 cumulative IPC: 1.445 (Simulation time: 00 hr 27 min 07 sec)
Heartbeat CPU 0 instructions: 220501473 cycles: 132342135 heartbeat IPC: 1.187 cumulative IPC: 1.444 (Simulation time: 00 hr 27 min 10 sec)
Heartbeat CPU 0 instructions: 221001477 cycles: 132769417 heartbeat IPC: 1.17 cumulative IPC: 1.443 (Simulation time: 00 hr 27 min 14 sec)
Heartbeat CPU 0 instructions: 221501478 cycles: 133165933 heartbeat IPC: 1.261 cumulative IPC: 1.442 (Simulation time: 00 hr 27 min 18 sec)
Heartbeat CPU 0 instructions: 222001484 cycles: 133597990 heartbeat IPC: 1.157 cumulative IPC: 1.441 (Simulation time: 00 hr 27 min 22 sec)
Heartbeat CPU 0 instructions: 222501486 cycles: 133899004 heartbeat IPC: 1.661 cumulative IPC: 1.442 (Simulation time: 00 hr 27 min 25 sec)
Heartbeat CPU 0 instructions: 223001487 cycles: 134156813 heartbeat IPC: 1.939 cumulative IPC: 1.443 (Simulation time: 00 hr 27 min 28 sec)
Heartbeat CPU 0 instructions: 223501490 cycles: 134500274 heartbeat IPC: 1.456 cumulative IPC: 1.443 (Simulation time: 00 hr 27 min 32 sec)
Heartbeat CPU 0 instructions: 224001492 cycles: 134945915 heartbeat IPC: 1.122 cumulative IPC: 1.442 (Simulation time: 00 hr 27 min 35 sec)
Heartbeat CPU 0 instructions: 224501496 cycles: 135332557 heartbeat IPC: 1.293 cumulative IPC: 1.441 (Simulation time: 00 hr 27 min 39 sec)
Heartbeat CPU 0 instructions: 225001502 cycles: 135740778 heartbeat IPC: 1.225 cumulative IPC: 1.441 (Simulation time: 00 hr 27 min 43 sec)
Heartbeat CPU 0 instructions: 225501509 cycles: 136208280 heartbeat IPC: 1.07 cumulative IPC: 1.439 (Simulation time: 00 hr 27 min 47 sec)
Heartbeat CPU 0 instructions: 226001516 cycles: 136564456 heartbeat IPC: 1.404 cumulative IPC: 1.439 (Simulation time: 00 hr 27 min 51 sec)
Heartbeat CPU 0 instructions: 226501518 cycles: 136949347 heartbeat IPC: 1.299 cumulative IPC: 1.439 (Simulation time: 00 hr 27 min 55 sec)
Heartbeat CPU 0 instructions: 227001518 cycles: 137381481 heartbeat IPC: 1.157 cumulative IPC: 1.438 (Simulation time: 00 hr 27 min 59 sec)
Heartbeat CPU 0 instructions: 227501519 cycles: 137855482 heartbeat IPC: 1.055 cumulative IPC: 1.436 (Simulation time: 00 hr 28 min 03 sec)
Heartbeat CPU 0 instructions: 228001526 cycles: 138319976 heartbeat IPC: 1.076 cumulative IPC: 1.435 (Simulation time: 00 hr 28 min 07 sec)
Heartbeat CPU 0 instructions: 228501533 cycles: 138763977 heartbeat IPC: 1.126 cumulative IPC: 1.434 (Simulation time: 00 hr 28 min 10 sec)
Heartbeat CPU 0 instructions: 229001534 cycles: 139234423 heartbeat IPC: 1.063 cumulative IPC: 1.432 (Simulation time: 00 hr 28 min 14 sec)
Heartbeat CPU 0 instructions: 229501535 cycles: 139698777 heartbeat IPC: 1.077 cumulative IPC: 1.431 (Simulation time: 00 hr 28 min 18 sec)
Heartbeat CPU 0 instructions: 230001537 cycles: 140096845 heartbeat IPC: 1.256 cumulative IPC: 1.43 (Simulation time: 00 hr 28 min 22 sec)
Heartbeat CPU 0 instructions: 230501538 cycles: 140499383 heartbeat IPC: 1.242 cumulative IPC: 1.43 (Simulation time: 00 hr 28 min 25 sec)
Heartbeat CPU 0 instructions: 231001539 cycles: 140938885 heartbeat IPC: 1.138 cumulative IPC: 1.429 (Simulation time: 00 hr 28 min 29 sec)
Heartbeat CPU 0 instructions: 231501542 cycles: 141392417 heartbeat IPC: 1.102 cumulative IPC: 1.428 (Simulation time: 00 hr 28 min 33 sec)
Heartbeat CPU 0 instructions: 232001549 cycles: 141796548 heartbeat IPC: 1.237 cumulative IPC: 1.427 (Simulation time: 00 hr 28 min 36 sec)
Heartbeat CPU 0 instructions: 232501552 cycles: 142203172 heartbeat IPC: 1.23 cumulative IPC: 1.426 (Simulation time: 00 hr 28 min 40 sec)
Heartbeat CPU 0 instructions: 233001552 cycles: 142645878 heartbeat IPC: 1.129 cumulative IPC: 1.425 (Simulation time: 00 hr 28 min 44 sec)
Heartbeat CPU 0 instructions: 233501555 cycles: 143094157 heartbeat IPC: 1.115 cumulative IPC: 1.424 (Simulation time: 00 hr 28 min 48 sec)
Heartbeat CPU 0 instructions: 234001560 cycles: 143524387 heartbeat IPC: 1.162 cumulative IPC: 1.423 (Simulation time: 00 hr 28 min 51 sec)
Heartbeat CPU 0 instructions: 234501560 cycles: 143983346 heartbeat IPC: 1.089 cumulative IPC: 1.422 (Simulation time: 00 hr 28 min 55 sec)
Heartbeat CPU 0 instructions: 235001560 cycles: 144414968 heartbeat IPC: 1.158 cumulative IPC: 1.421 (Simulation time: 00 hr 28 min 59 sec)
Heartbeat CPU 0 instructions: 235501563 cycles: 144865036 heartbeat IPC: 1.111 cumulative IPC: 1.42 (Simulation time: 00 hr 29 min 03 sec)
Heartbeat CPU 0 instructions: 236001563 cycles: 145308158 heartbeat IPC: 1.128 cumulative IPC: 1.419 (Simulation time: 00 hr 29 min 07 sec)
Heartbeat CPU 0 instructions: 236501570 cycles: 145736481 heartbeat IPC: 1.167 cumulative IPC: 1.419 (Simulation time: 00 hr 29 min 10 sec)
Heartbeat CPU 0 instructions: 237001570 cycles: 146205663 heartbeat IPC: 1.066 cumulative IPC: 1.417 (Simulation time: 00 hr 29 min 14 sec)
Heartbeat CPU 0 instructions: 237501574 cycles: 146655137 heartbeat IPC: 1.112 cumulative IPC: 1.416 (Simulation time: 00 hr 29 min 18 sec)
Heartbeat CPU 0 instructions: 238001574 cycles: 147107134 heartbeat IPC: 1.106 cumulative IPC: 1.415 (Simulation time: 00 hr 29 min 22 sec)
Heartbeat CPU 0 instructions: 238501574 cycles: 147472790 heartbeat IPC: 1.367 cumulative IPC: 1.415 (Simulation time: 00 hr 29 min 25 sec)
Heartbeat CPU 0 instructions: 239001576 cycles: 147960039 heartbeat IPC: 1.026 cumulative IPC: 1.414 (Simulation time: 00 hr 29 min 29 sec)
Heartbeat CPU 0 instructions: 239501582 cycles: 148447209 heartbeat IPC: 1.026 cumulative IPC: 1.412 (Simulation time: 00 hr 29 min 33 sec)
Heartbeat CPU 0 instructions: 240001582 cycles: 148916860 heartbeat IPC: 1.065 cumulative IPC: 1.411 (Simulation time: 00 hr 29 min 37 sec)
Heartbeat CPU 0 instructions: 240501589 cycles: 149372896 heartbeat IPC: 1.096 cumulative IPC: 1.41 (Simulation time: 00 hr 29 min 41 sec)
Heartbeat CPU 0 instructions: 241001593 cycles: 149806227 heartbeat IPC: 1.154 cumulative IPC: 1.409 (Simulation time: 00 hr 29 min 44 sec)
Heartbeat CPU 0 instructions: 241501596 cycles: 150278895 heartbeat IPC: 1.058 cumulative IPC: 1.408 (Simulation time: 00 hr 29 min 48 sec)
Heartbeat CPU 0 instructions: 242001596 cycles: 150667880 heartbeat IPC: 1.285 cumulative IPC: 1.408 (Simulation time: 00 hr 29 min 52 sec)
Heartbeat CPU 0 instructions: 242501598 cycles: 151103493 heartbeat IPC: 1.148 cumulative IPC: 1.407 (Simulation time: 00 hr 29 min 55 sec)
Heartbeat CPU 0 instructions: 243001602 cycles: 151412571 heartbeat IPC: 1.618 cumulative IPC: 1.407 (Simulation time: 00 hr 29 min 59 sec)
Heartbeat CPU 0 instructions: 243501605 cycles: 151818545 heartbeat IPC: 1.232 cumulative IPC: 1.407 (Simulation time: 00 hr 30 min 02 sec)
Heartbeat CPU 0 instructions: 244001608 cycles: 152180009 heartbeat IPC: 1.383 cumulative IPC: 1.407 (Simulation time: 00 hr 30 min 06 sec)
Heartbeat CPU 0 instructions: 244501610 cycles: 152615687 heartbeat IPC: 1.148 cumulative IPC: 1.406 (Simulation time: 00 hr 30 min 10 sec)
Heartbeat CPU 0 instructions: 245001611 cycles: 153051443 heartbeat IPC: 1.147 cumulative IPC: 1.405 (Simulation time: 00 hr 30 min 14 sec)
Heartbeat CPU 0 instructions: 245501614 cycles: 153546918 heartbeat IPC: 1.009 cumulative IPC: 1.404 (Simulation time: 00 hr 30 min 18 sec)
Heartbeat CPU 0 instructions: 246001618 cycles: 154021726 heartbeat IPC: 1.053 cumulative IPC: 1.402 (Simulation time: 00 hr 30 min 22 sec)
Heartbeat CPU 0 instructions: 246501622 cycles: 154500073 heartbeat IPC: 1.045 cumulative IPC: 1.401 (Simulation time: 00 hr 30 min 26 sec)
Heartbeat CPU 0 instructions: 247001624 cycles: 154943959 heartbeat IPC: 1.126 cumulative IPC: 1.4 (Simulation time: 00 hr 30 min 29 sec)
Heartbeat CPU 0 instructions: 247501630 cycles: 155336887 heartbeat IPC: 1.273 cumulative IPC: 1.4 (Simulation time: 00 hr 30 min 33 sec)
Heartbeat CPU 0 instructions: 248001630 cycles: 155767428 heartbeat IPC: 1.161 cumulative IPC: 1.399 (Simulation time: 00 hr 30 min 36 sec)
Heartbeat CPU 0 instructions: 248501632 cycles: 156170917 heartbeat IPC: 1.239 cumulative IPC: 1.399 (Simulation time: 00 hr 30 min 40 sec)
Heartbeat CPU 0 instructions: 249001633 cycles: 156604839 heartbeat IPC: 1.152 cumulative IPC: 1.398 (Simulation time: 00 hr 30 min 44 sec)
Heartbeat CPU 0 instructions: 249501636 cycles: 157019961 heartbeat IPC: 1.204 cumulative IPC: 1.397 (Simulation time: 00 hr 30 min 47 sec)
*** Reached end of trace: (0, "/local-ssd/ben/dpc4-traces/Graph/Ligra/ligra_BellmanFord.com-lj.ungraph.gcc_6.3.0_O3.drop_22250M.length_250M.champsimtrace.xz")
Simulation finished CPU 0 instructions: 200000003 cycles: 143170942 cumulative IPC: 1.397 (Simulation time: 00 hr 30 min 51 sec)
Simulation complete CPU 0 instructions: 200000003 cycles: 143170942 cumulative IPC: 1.397 (Simulation time: 00 hr 30 min 51 sec)

ChampSim completed all CPUs

=== Simulation ===
CPU 0 runs /local-ssd/ben/dpc4-traces/Graph/Ligra/ligra_BellmanFord.com-lj.ungraph.gcc_6.3.0_O3.drop_22250M.length_250M.champsimtrace.xz

Region of Interest Statistics

CPU 0 cumulative IPC: 1.397 instructions: 200000003 cycles: 143170942
CPU 0 Branch Prediction Accuracy: 86.26% MPKI: 12.12 Average ROB Occupancy at Mispredict: 41.09
Branch type MPKI
BRANCH_DIRECT_JUMP: 0
BRANCH_INDIRECT: 0
BRANCH_CONDITIONAL: 12.12
BRANCH_DIRECT_CALL: 0
BRANCH_INDIRECT_CALL: 0
BRANCH_RETURN: 0

cpu0->cpu0_STLB TOTAL        ACCESS:      78105 HIT:          0 MISS:      78105 MSHR_MERGE:          0
cpu0->cpu0_STLB LOAD         ACCESS:      78105 HIT:          0 MISS:      78105 MSHR_MERGE:          0
cpu0->cpu0_STLB RFO          ACCESS:          0 HIT:          0 MISS:          0 MSHR_MERGE:          0
cpu0->cpu0_STLB PREFETCH     ACCESS:          0 HIT:          0 MISS:          0 MSHR_MERGE:          0
cpu0->cpu0_STLB WRITE        ACCESS:          0 HIT:          0 MISS:          0 MSHR_MERGE:          0
cpu0->cpu0_STLB TRANSLATION  ACCESS:          0 HIT:          0 MISS:          0 MSHR_MERGE:          0
cpu0->cpu0_STLB PREFETCH REQUESTED:          0 ISSUED:          0 USEFUL:          0 USELESS:          0
cpu0->cpu0_STLB AVERAGE MISS LATENCY: 274.4 cycles
cpu0->cpu0_L2C TOTAL        ACCESS:   20857764 HIT:   13444155 MISS:    7413609 MSHR_MERGE:    2404924
cpu0->cpu0_L2C LOAD         ACCESS:     299581 HIT:     202912 MISS:      96669 MSHR_MERGE:      19682
cpu0->cpu0_L2C RFO          ACCESS:    2279473 HIT:          0 MISS:    2279473 MSHR_MERGE:          0
cpu0->cpu0_L2C PREFETCH     ACCESS:   15986010 HIT:   10958459 MISS:    5027551 MSHR_MERGE:    2385242
cpu0->cpu0_L2C WRITE        ACCESS:    2279792 HIT:    2279792 MISS:          0 MSHR_MERGE:          0
cpu0->cpu0_L2C TRANSLATION  ACCESS:      12908 HIT:       2992 MISS:       9916 MSHR_MERGE:          0
cpu0->cpu0_L2C PREFETCH REQUESTED:   13980554 ISSUED:   13566226 USEFUL:    2287354 USELESS:     199356
cpu0->cpu0_L2C AVERAGE MISS LATENCY: 471.8 cycles
cpu0->cpu0_L1I TOTAL        ACCESS:   14923349 HIT:   14923349 MISS:          0 MSHR_MERGE:          0
cpu0->cpu0_L1I LOAD         ACCESS:   14923349 HIT:   14923349 MISS:          0 MSHR_MERGE:          0
cpu0->cpu0_L1I RFO          ACCESS:          0 HIT:          0 MISS:          0 MSHR_MERGE:          0
cpu0->cpu0_L1I PREFETCH     ACCESS:          0 HIT:          0 MISS:          0 MSHR_MERGE:          0
cpu0->cpu0_L1I WRITE        ACCESS:          0 HIT:          0 MISS:          0 MSHR_MERGE:          0
cpu0->cpu0_L1I TRANSLATION  ACCESS:          0 HIT:          0 MISS:          0 MSHR_MERGE:          0
cpu0->cpu0_L1I PREFETCH REQUESTED:          0 ISSUED:          0 USEFUL:          0 USELESS:          0
cpu0->cpu0_L1I AVERAGE MISS LATENCY: - cycles
cpu0->cpu0_L1D TOTAL        ACCESS:   54637921 HIT:   14787681 MISS:   39850240 MSHR_MERGE:   34838492
cpu0->cpu0_L1D LOAD         ACCESS:   15388642 HIT:   14264729 MISS:    1123913 MSHR_MERGE:     824332
cpu0->cpu0_L1D RFO          ACCESS:          0 HIT:          0 MISS:          0 MSHR_MERGE:          0
cpu0->cpu0_L1D PREFETCH     ACCESS:    2621336 HIT:     125578 MISS:    2495758 MSHR_MERGE:      75972
cpu0->cpu0_L1D WRITE        ACCESS:   36471579 HIT:     253918 MISS:   36217661 MSHR_MERGE:   33938188
cpu0->cpu0_L1D TRANSLATION  ACCESS:     156364 HIT:     143456 MISS:      12908 MSHR_MERGE:          0
cpu0->cpu0_L1D PREFETCH REQUESTED:    2697429 ISSUED:    2621336 USEFUL:    2419714 USELESS:         72
cpu0->cpu0_L1D AVERAGE MISS LATENCY: 437.7 cycles
cpu0->cpu0_ITLB TOTAL        ACCESS:    9110598 HIT:    9110598 MISS:          0 MSHR_MERGE:          0
cpu0->cpu0_ITLB LOAD         ACCESS:    9110598 HIT:    9110598 MISS:          0 MSHR_MERGE:          0
cpu0->cpu0_ITLB RFO          ACCESS:          0 HIT:          0 MISS:          0 MSHR_MERGE:          0
cpu0->cpu0_ITLB PREFETCH     ACCESS:          0 HIT:          0 MISS:          0 MSHR_MERGE:          0
cpu0->cpu0_ITLB WRITE        ACCESS:          0 HIT:          0 MISS:          0 MSHR_MERGE:          0
cpu0->cpu0_ITLB TRANSLATION  ACCESS:          0 HIT:          0 MISS:          0 MSHR_MERGE:          0
cpu0->cpu0_ITLB PREFETCH REQUESTED:          0 ISSUED:          0 USEFUL:          0 USELESS:          0
cpu0->cpu0_ITLB AVERAGE MISS LATENCY: - cycles
cpu0->cpu0_DTLB TOTAL        ACCESS:   48776178 HIT:   47870815 MISS:     905363 MSHR_MERGE:     827258
cpu0->cpu0_DTLB LOAD         ACCESS:   48776178 HIT:   47870815 MISS:     905363 MSHR_MERGE:     827258
cpu0->cpu0_DTLB RFO          ACCESS:          0 HIT:          0 MISS:          0 MSHR_MERGE:          0
cpu0->cpu0_DTLB PREFETCH     ACCESS:          0 HIT:          0 MISS:          0 MSHR_MERGE:          0
cpu0->cpu0_DTLB WRITE        ACCESS:          0 HIT:          0 MISS:          0 MSHR_MERGE:          0
cpu0->cpu0_DTLB TRANSLATION  ACCESS:          0 HIT:          0 MISS:          0 MSHR_MERGE:          0
cpu0->cpu0_DTLB PREFETCH REQUESTED:          0 ISSUED:          0 USEFUL:          0 USELESS:          0
cpu0->cpu0_DTLB AVERAGE MISS LATENCY: 280.4 cycles
cpu0->LLC TOTAL        ACCESS:    9930608 HIT:    2166662 MISS:    7763946 MSHR_MERGE:     671300
cpu0->LLC LOAD         ACCESS:      76987 HIT:        124 MISS:      76863 MSHR_MERGE:        298
cpu0->LLC RFO          ACCESS:    2279473 HIT:          0 MISS:    2279473 MSHR_MERGE:          0
cpu0->LLC PREFETCH     ACCESS:    5276408 HIT:    1957597 MISS:    3318811 MSHR_MERGE:     671002
cpu0->LLC WRITE        ACCESS:    2287824 HIT:     208941 MISS:    2078883 MSHR_MERGE:          0
cpu0->LLC TRANSLATION  ACCESS:       9916 HIT:          0 MISS:       9916 MSHR_MERGE:          0
cpu0->LLC PREFETCH REQUESTED:    2644535 ISSUED:    2634093 USEFUL:    1957834 USELESS:     416896
cpu0->LLC AVERAGE MISS LATENCY: 246.4 cycles

DRAM Statistics

Channel 0 RQ ROW_BUFFER_HIT:     231004
  ROW_BUFFER_MISS:    4782757
  AVG DBUS CONGESTED CYCLE: 9.507
Channel 0 WQ ROW_BUFFER_HIT:     125923
  ROW_BUFFER_MISS:    2169014
  FULL:     293702
Channel 0 REFRESHES ISSUED:      11930
