[VMEM] WARNING: physical memory size is smaller than virtual memory size.

*** ChampSim Multicore Out-of-Order Simulator ***
Warmup Instructions: 50000000
Simulation Instructions: 200000000
Number of CPUs: 1
Page size: 4096
Core 0: /local-ssd/ben/dpc4-traces/Graph/Ligra/ligra_CF.com-lj.ungraph.gcc_6.3.0_O3.drop_184750M.length_250M.champsimtrace.xz
 L1D Berti prefetcher
Off-chip DRAM Size: 64 GiB Channels: 1 Width: 64-bit Data Rate: 4807 MT/s
Heartbeat CPU 0 instructions: 500006 cycles: 190064 heartbeat IPC: 2.631 cumulative IPC: 2.631 (Simulation time: 00 hr 00 min 03 sec)
Heartbeat CPU 0 instructions: 1000009 cycles: 333512 heartbeat IPC: 3.486 cumulative IPC: 2.998 (Simulation time: 00 hr 00 min 05 sec)
Heartbeat CPU 0 instructions: 1500009 cycles: 461456 heartbeat IPC: 3.908 cumulative IPC: 3.251 (Simulation time: 00 hr 00 min 06 sec)
Heartbeat CPU 0 instructions: 2000009 cycles: 606385 heartbeat IPC: 3.45 cumulative IPC: 3.298 (Simulation time: 00 hr 00 min 08 sec)
Heartbeat CPU 0 instructions: 2500014 cycles: 745344 heartbeat IPC: 3.598 cumulative IPC: 3.354 (Simulation time: 00 hr 00 min 10 sec)
Heartbeat CPU 0 instructions: 3000014 cycles: 903382 heartbeat IPC: 3.164 cumulative IPC: 3.321 (Simulation time: 00 hr 00 min 13 sec)
Heartbeat CPU 0 instructions: 3500014 cycles: 1052590 heartbeat IPC: 3.351 cumulative IPC: 3.325 (Simulation time: 00 hr 00 min 15 sec)
Heartbeat CPU 0 instructions: 4000018 cycles: 1213007 heartbeat IPC: 3.117 cumulative IPC: 3.298 (Simulation time: 00 hr 00 min 18 sec)
Heartbeat CPU 0 instructions: 4500022 cycles: 1356972 heartbeat IPC: 3.473 cumulative IPC: 3.316 (Simulation time: 00 hr 00 min 20 sec)
Heartbeat CPU 0 instructions: 5000022 cycles: 1503149 heartbeat IPC: 3.421 cumulative IPC: 3.326 (Simulation time: 00 hr 00 min 22 sec)
Heartbeat CPU 0 instructions: 5500022 cycles: 1649263 heartbeat IPC: 3.422 cumulative IPC: 3.335 (Simulation time: 00 hr 00 min 25 sec)
Heartbeat CPU 0 instructions: 6000024 cycles: 1809691 heartbeat IPC: 3.117 cumulative IPC: 3.315 (Simulation time: 00 hr 00 min 27 sec)
Heartbeat CPU 0 instructions: 6500030 cycles: 1966001 heartbeat IPC: 3.199 cumulative IPC: 3.306 (Simulation time: 00 hr 00 min 30 sec)
Heartbeat CPU 0 instructions: 7000034 cycles: 2111445 heartbeat IPC: 3.438 cumulative IPC: 3.315 (Simulation time: 00 hr 00 min 32 sec)
Heartbeat CPU 0 instructions: 7500038 cycles: 2281638 heartbeat IPC: 2.938 cumulative IPC: 3.287 (Simulation time: 00 hr 00 min 35 sec)
Heartbeat CPU 0 instructions: 8000045 cycles: 2425833 heartbeat IPC: 3.468 cumulative IPC: 3.298 (Simulation time: 00 hr 00 min 37 sec)
Heartbeat CPU 0 instructions: 8500050 cycles: 2576857 heartbeat IPC: 3.311 cumulative IPC: 3.299 (Simulation time: 00 hr 00 min 40 sec)
Heartbeat CPU 0 instructions: 9000050 cycles: 2716533 heartbeat IPC: 3.58 cumulative IPC: 3.313 (Simulation time: 00 hr 00 min 42 sec)
Heartbeat CPU 0 instructions: 9500050 cycles: 2849137 heartbeat IPC: 3.771 cumulative IPC: 3.334 (Simulation time: 00 hr 00 min 44 sec)
Heartbeat CPU 0 instructions: 10000057 cycles: 2979870 heartbeat IPC: 3.825 cumulative IPC: 3.356 (Simulation time: 00 hr 00 min 46 sec)
Heartbeat CPU 0 instructions: 10500058 cycles: 3123095 heartbeat IPC: 3.491 cumulative IPC: 3.362 (Simulation time: 00 hr 00 min 48 sec)
Heartbeat CPU 0 instructions: 11000065 cycles: 3239783 heartbeat IPC: 4.285 cumulative IPC: 3.395 (Simulation time: 00 hr 00 min 50 sec)
Heartbeat CPU 0 instructions: 11500065 cycles: 3340731 heartbeat IPC: 4.953 cumulative IPC: 3.442 (Simulation time: 00 hr 00 min 51 sec)
Heartbeat CPU 0 instructions: 12000070 cycles: 3450711 heartbeat IPC: 4.546 cumulative IPC: 3.478 (Simulation time: 00 hr 00 min 53 sec)
Heartbeat CPU 0 instructions: 12500070 cycles: 3578926 heartbeat IPC: 3.9 cumulative IPC: 3.493 (Simulation time: 00 hr 00 min 55 sec)
Heartbeat CPU 0 instructions: 13000071 cycles: 3683965 heartbeat IPC: 4.76 cumulative IPC: 3.529 (Simulation time: 00 hr 00 min 56 sec)
Heartbeat CPU 0 instructions: 13500071 cycles: 3790737 heartbeat IPC: 4.683 cumulative IPC: 3.561 (Simulation time: 00 hr 00 min 58 sec)
Heartbeat CPU 0 instructions: 14000074 cycles: 3910134 heartbeat IPC: 4.188 cumulative IPC: 3.58 (Simulation time: 00 hr 00 min 59 sec)
Heartbeat CPU 0 instructions: 14500075 cycles: 4050751 heartbeat IPC: 3.556 cumulative IPC: 3.58 (Simulation time: 00 hr 01 min 02 sec)
Heartbeat CPU 0 instructions: 15000082 cycles: 4185899 heartbeat IPC: 3.7 cumulative IPC: 3.583 (Simulation time: 00 hr 01 min 04 sec)
Heartbeat CPU 0 instructions: 15500087 cycles: 4333950 heartbeat IPC: 3.377 cumulative IPC: 3.576 (Simulation time: 00 hr 01 min 06 sec)
Heartbeat CPU 0 instructions: 16000088 cycles: 4480662 heartbeat IPC: 3.408 cumulative IPC: 3.571 (Simulation time: 00 hr 01 min 09 sec)
Heartbeat CPU 0 instructions: 16500094 cycles: 4625103 heartbeat IPC: 3.462 cumulative IPC: 3.568 (Simulation time: 00 hr 01 min 11 sec)
Heartbeat CPU 0 instructions: 17000101 cycles: 4770571 heartbeat IPC: 3.437 cumulative IPC: 3.564 (Simulation time: 00 hr 01 min 13 sec)
Heartbeat CPU 0 instructions: 17500102 cycles: 4911940 heartbeat IPC: 3.537 cumulative IPC: 3.563 (Simulation time: 00 hr 01 min 15 sec)
Heartbeat CPU 0 instructions: 18000106 cycles: 5052174 heartbeat IPC: 3.565 cumulative IPC: 3.563 (Simulation time: 00 hr 01 min 18 sec)
Heartbeat CPU 0 instructions: 18500107 cycles: 5184041 heartbeat IPC: 3.792 cumulative IPC: 3.569 (Simulation time: 00 hr 01 min 20 sec)
Heartbeat CPU 0 instructions: 19000114 cycles: 5329139 heartbeat IPC: 3.446 cumulative IPC: 3.565 (Simulation time: 00 hr 01 min 22 sec)
Heartbeat CPU 0 instructions: 19500118 cycles: 5474590 heartbeat IPC: 3.438 cumulative IPC: 3.562 (Simulation time: 00 hr 01 min 24 sec)
Heartbeat CPU 0 instructions: 20000122 cycles: 5623147 heartbeat IPC: 3.366 cumulative IPC: 3.557 (Simulation time: 00 hr 01 min 27 sec)
Heartbeat CPU 0 instructions: 20500123 cycles: 5766955 heartbeat IPC: 3.477 cumulative IPC: 3.555 (Simulation time: 00 hr 01 min 29 sec)
Heartbeat CPU 0 instructions: 21000130 cycles: 5919079 heartbeat IPC: 3.287 cumulative IPC: 3.548 (Simulation time: 00 hr 01 min 32 sec)
Heartbeat CPU 0 instructions: 21500134 cycles: 6031985 heartbeat IPC: 4.428 cumulative IPC: 3.564 (Simulation time: 00 hr 01 min 33 sec)
Heartbeat CPU 0 instructions: 22000138 cycles: 6177551 heartbeat IPC: 3.435 cumulative IPC: 3.561 (Simulation time: 00 hr 01 min 36 sec)
Heartbeat CPU 0 instructions: 22500139 cycles: 6322688 heartbeat IPC: 3.445 cumulative IPC: 3.559 (Simulation time: 00 hr 01 min 38 sec)
Heartbeat CPU 0 instructions: 23000142 cycles: 6456833 heartbeat IPC: 3.727 cumulative IPC: 3.562 (Simulation time: 00 hr 01 min 40 sec)
Heartbeat CPU 0 instructions: 23500142 cycles: 6608135 heartbeat IPC: 3.305 cumulative IPC: 3.556 (Simulation time: 00 hr 01 min 43 sec)
Heartbeat CPU 0 instructions: 24000146 cycles: 6753003 heartbeat IPC: 3.451 cumulative IPC: 3.554 (Simulation time: 00 hr 01 min 45 sec)
Heartbeat CPU 0 instructions: 24500150 cycles: 6904865 heartbeat IPC: 3.292 cumulative IPC: 3.548 (Simulation time: 00 hr 01 min 48 sec)
Heartbeat CPU 0 instructions: 25000156 cycles: 7049781 heartbeat IPC: 3.45 cumulative IPC: 3.546 (Simulation time: 00 hr 01 min 50 sec)
Heartbeat CPU 0 instructions: 25500162 cycles: 7187365 heartbeat IPC: 3.634 cumulative IPC: 3.548 (Simulation time: 00 hr 01 min 52 sec)
Heartbeat CPU 0 instructions: 26000162 cycles: 7311226 heartbeat IPC: 4.037 cumulative IPC: 3.556 (Simulation time: 00 hr 01 min 54 sec)
Heartbeat CPU 0 instructions: 26500165 cycles: 7445679 heartbeat IPC: 3.719 cumulative IPC: 3.559 (Simulation time: 00 hr 01 min 56 sec)
Heartbeat CPU 0 instructions: 27000168 cycles: 7581716 heartbeat IPC: 3.675 cumulative IPC: 3.561 (Simulation time: 00 hr 01 min 58 sec)
Heartbeat CPU 0 instructions: 27500174 cycles: 7721584 heartbeat IPC: 3.575 cumulative IPC: 3.561 (Simulation time: 00 hr 02 min 01 sec)
Heartbeat CPU 0 instructions: 28000178 cycles: 7838219 heartbeat IPC: 4.287 cumulative IPC: 3.572 (Simulation time: 00 hr 02 min 02 sec)
Heartbeat CPU 0 instructions: 28500178 cycles: 7979435 heartbeat IPC: 3.541 cumulative IPC: 3.572 (Simulation time: 00 hr 02 min 05 sec)
Heartbeat CPU 0 instructions: 29000178 cycles: 8123397 heartbeat IPC: 3.473 cumulative IPC: 3.57 (Simulation time: 00 hr 02 min 07 sec)
Heartbeat CPU 0 instructions: 29500182 cycles: 8262561 heartbeat IPC: 3.593 cumulative IPC: 3.57 (Simulation time: 00 hr 02 min 09 sec)
Heartbeat CPU 0 instructions: 30000189 cycles: 8372842 heartbeat IPC: 4.534 cumulative IPC: 3.583 (Simulation time: 00 hr 02 min 11 sec)
Heartbeat CPU 0 instructions: 30500193 cycles: 8474015 heartbeat IPC: 4.942 cumulative IPC: 3.599 (Simulation time: 00 hr 02 min 12 sec)
Heartbeat CPU 0 instructions: 31000193 cycles: 8574645 heartbeat IPC: 4.969 cumulative IPC: 3.615 (Simulation time: 00 hr 02 min 14 sec)
Heartbeat CPU 0 instructions: 31500196 cycles: 8674844 heartbeat IPC: 4.99 cumulative IPC: 3.631 (Simulation time: 00 hr 02 min 15 sec)
Heartbeat CPU 0 instructions: 32000200 cycles: 8775273 heartbeat IPC: 4.979 cumulative IPC: 3.647 (Simulation time: 00 hr 02 min 16 sec)
Heartbeat CPU 0 instructions: 32500204 cycles: 8875472 heartbeat IPC: 4.99 cumulative IPC: 3.662 (Simulation time: 00 hr 02 min 18 sec)
Heartbeat CPU 0 instructions: 33000207 cycles: 8975781 heartbeat IPC: 4.985 cumulative IPC: 3.677 (Simulation time: 00 hr 02 min 19 sec)
Heartbeat CPU 0 instructions: 33500207 cycles: 9076093 heartbeat IPC: 4.984 cumulative IPC: 3.691 (Simulation time: 00 hr 02 min 20 sec)
Heartbeat CPU 0 instructions: 34000212 cycles: 9176403 heartbeat IPC: 4.985 cumulative IPC: 3.705 (Simulation time: 00 hr 02 min 22 sec)
Heartbeat CPU 0 instructions: 34500214 cycles: 9277218 heartbeat IPC: 4.96 cumulative IPC: 3.719 (Simulation time: 00 hr 02 min 23 sec)
Heartbeat CPU 0 instructions: 35000214 cycles: 9377755 heartbeat IPC: 4.973 cumulative IPC: 3.732 (Simulation time: 00 hr 02 min 24 sec)
Heartbeat CPU 0 instructions: 35500217 cycles: 9477959 heartbeat IPC: 4.99 cumulative IPC: 3.746 (Simulation time: 00 hr 02 min 26 sec)
Heartbeat CPU 0 instructions: 36000219 cycles: 9579045 heartbeat IPC: 4.946 cumulative IPC: 3.758 (Simulation time: 00 hr 02 min 27 sec)
Heartbeat CPU 0 instructions: 36500219 cycles: 9679353 heartbeat IPC: 4.985 cumulative IPC: 3.771 (Simulation time: 00 hr 02 min 28 sec)
Heartbeat CPU 0 instructions: 37000220 cycles: 9779453 heartbeat IPC: 4.995 cumulative IPC: 3.783 (Simulation time: 00 hr 02 min 30 sec)
Heartbeat CPU 0 instructions: 37500222 cycles: 9879755 heartbeat IPC: 4.985 cumulative IPC: 3.796 (Simulation time: 00 hr 02 min 31 sec)
Heartbeat CPU 0 instructions: 38000228 cycles: 9979859 heartbeat IPC: 4.995 cumulative IPC: 3.808 (Simulation time: 00 hr 02 min 32 sec)
Heartbeat CPU 0 instructions: 38500234 cycles: 10116395 heartbeat IPC: 3.662 cumulative IPC: 3.806 (Simulation time: 00 hr 02 min 35 sec)
Heartbeat CPU 0 instructions: 39000234 cycles: 10265702 heartbeat IPC: 3.349 cumulative IPC: 3.799 (Simulation time: 00 hr 02 min 37 sec)
Heartbeat CPU 0 instructions: 39500238 cycles: 10409440 heartbeat IPC: 3.479 cumulative IPC: 3.795 (Simulation time: 00 hr 02 min 39 sec)
Heartbeat CPU 0 instructions: 40000238 cycles: 10550969 heartbeat IPC: 3.533 cumulative IPC: 3.791 (Simulation time: 00 hr 02 min 42 sec)
Heartbeat CPU 0 instructions: 40500238 cycles: 10692557 heartbeat IPC: 3.531 cumulative IPC: 3.788 (Simulation time: 00 hr 02 min 44 sec)
Heartbeat CPU 0 instructions: 41000242 cycles: 10822999 heartbeat IPC: 3.833 cumulative IPC: 3.788 (Simulation time: 00 hr 02 min 46 sec)
Heartbeat CPU 0 instructions: 41500246 cycles: 10948541 heartbeat IPC: 3.983 cumulative IPC: 3.79 (Simulation time: 00 hr 02 min 48 sec)
Heartbeat CPU 0 instructions: 42000250 cycles: 11084718 heartbeat IPC: 3.672 cumulative IPC: 3.789 (Simulation time: 00 hr 02 min 50 sec)
Heartbeat CPU 0 instructions: 42500254 cycles: 11206176 heartbeat IPC: 4.117 cumulative IPC: 3.793 (Simulation time: 00 hr 02 min 52 sec)
Heartbeat CPU 0 instructions: 43000258 cycles: 11327338 heartbeat IPC: 4.127 cumulative IPC: 3.796 (Simulation time: 00 hr 02 min 54 sec)
Heartbeat CPU 0 instructions: 43500264 cycles: 11447359 heartbeat IPC: 4.166 cumulative IPC: 3.8 (Simulation time: 00 hr 02 min 56 sec)
Heartbeat CPU 0 instructions: 44000269 cycles: 11571639 heartbeat IPC: 4.023 cumulative IPC: 3.802 (Simulation time: 00 hr 02 min 58 sec)
Heartbeat CPU 0 instructions: 44500274 cycles: 11705435 heartbeat IPC: 3.737 cumulative IPC: 3.802 (Simulation time: 00 hr 03 min 00 sec)
Heartbeat CPU 0 instructions: 45000274 cycles: 11846061 heartbeat IPC: 3.556 cumulative IPC: 3.799 (Simulation time: 00 hr 03 min 02 sec)
Heartbeat CPU 0 instructions: 45500277 cycles: 11980046 heartbeat IPC: 3.732 cumulative IPC: 3.798 (Simulation time: 00 hr 03 min 04 sec)
Heartbeat CPU 0 instructions: 46000282 cycles: 12108663 heartbeat IPC: 3.888 cumulative IPC: 3.799 (Simulation time: 00 hr 03 min 07 sec)
Heartbeat CPU 0 instructions: 46500282 cycles: 12249214 heartbeat IPC: 3.557 cumulative IPC: 3.796 (Simulation time: 00 hr 03 min 09 sec)
Heartbeat CPU 0 instructions: 47000283 cycles: 12385224 heartbeat IPC: 3.676 cumulative IPC: 3.795 (Simulation time: 00 hr 03 min 11 sec)
Heartbeat CPU 0 instructions: 47500286 cycles: 12520516 heartbeat IPC: 3.696 cumulative IPC: 3.794 (Simulation time: 00 hr 03 min 13 sec)
Heartbeat CPU 0 instructions: 48000288 cycles: 12655462 heartbeat IPC: 3.705 cumulative IPC: 3.793 (Simulation time: 00 hr 03 min 15 sec)
Heartbeat CPU 0 instructions: 48500290 cycles: 12756072 heartbeat IPC: 4.97 cumulative IPC: 3.802 (Simulation time: 00 hr 03 min 17 sec)
Heartbeat CPU 0 instructions: 49000296 cycles: 12856671 heartbeat IPC: 4.97 cumulative IPC: 3.811 (Simulation time: 00 hr 03 min 18 sec)
Heartbeat CPU 0 instructions: 49500297 cycles: 12957077 heartbeat IPC: 4.98 cumulative IPC: 3.82 (Simulation time: 00 hr 03 min 19 sec)
Warmup halting CPU 0 at instruction 50000005 cycle 13057511 for remainder of phase
Warmup finished CPU 0 instructions: 50000005 cycles: 13057511 cumulative IPC: 3.829 (Simulation time: 00 hr 03 min 21 sec)
Warmup complete CPU 0 instructions: 50000005 cycles: 13057511 cumulative IPC: 3.829 (Simulation time: 00 hr 03 min 21 sec)
Heartbeat CPU 0 instructions: 50000301 cycles: 13057586 heartbeat IPC: 4.975 cumulative IPC: 3.947 (Simulation time: 00 hr 03 min 21 sec)
Heartbeat CPU 0 instructions: 50500305 cycles: 13204784 heartbeat IPC: 3.397 cumulative IPC: 3.397 (Simulation time: 00 hr 03 min 22 sec)
Heartbeat CPU 0 instructions: 51000312 cycles: 13352859 heartbeat IPC: 3.377 cumulative IPC: 3.387 (Simulation time: 00 hr 03 min 24 sec)
Heartbeat CPU 0 instructions: 51500316 cycles: 13500083 heartbeat IPC: 3.396 cumulative IPC: 3.39 (Simulation time: 00 hr 03 min 25 sec)
Heartbeat CPU 0 instructions: 52000321 cycles: 13648201 heartbeat IPC: 3.376 cumulative IPC: 3.386 (Simulation time: 00 hr 03 min 27 sec)
Heartbeat CPU 0 instructions: 52500321 cycles: 13796184 heartbeat IPC: 3.379 cumulative IPC: 3.385 (Simulation time: 00 hr 03 min 29 sec)
Heartbeat CPU 0 instructions: 53000323 cycles: 13944344 heartbeat IPC: 3.375 cumulative IPC: 3.383 (Simulation time: 00 hr 03 min 30 sec)
Heartbeat CPU 0 instructions: 53500323 cycles: 14097933 heartbeat IPC: 3.255 cumulative IPC: 3.364 (Simulation time: 00 hr 03 min 32 sec)
Heartbeat CPU 0 instructions: 54000323 cycles: 14435172 heartbeat IPC: 1.483 cumulative IPC: 2.904 (Simulation time: 00 hr 03 min 35 sec)
Heartbeat CPU 0 instructions: 54500328 cycles: 15011766 heartbeat IPC: 0.8672 cumulative IPC: 2.303 (Simulation time: 00 hr 03 min 40 sec)
Heartbeat CPU 0 instructions: 55000329 cycles: 15528127 heartbeat IPC: 0.9683 cumulative IPC: 2.024 (Simulation time: 00 hr 03 min 45 sec)
Heartbeat CPU 0 instructions: 55500332 cycles: 15983116 heartbeat IPC: 1.099 cumulative IPC: 1.88 (Simulation time: 00 hr 03 min 49 sec)
Heartbeat CPU 0 instructions: 56000333 cycles: 16324561 heartbeat IPC: 1.464 cumulative IPC: 1.837 (Simulation time: 00 hr 03 min 52 sec)
Heartbeat CPU 0 instructions: 56500335 cycles: 16895478 heartbeat IPC: 0.8758 cumulative IPC: 1.694 (Simulation time: 00 hr 03 min 56 sec)
Heartbeat CPU 0 instructions: 57000340 cycles: 17387571 heartbeat IPC: 1.016 cumulative IPC: 1.617 (Simulation time: 00 hr 04 min 01 sec)
Heartbeat CPU 0 instructions: 57500342 cycles: 17907078 heartbeat IPC: 0.9625 cumulative IPC: 1.547 (Simulation time: 00 hr 04 min 05 sec)
Heartbeat CPU 0 instructions: 58000344 cycles: 18498635 heartbeat IPC: 0.8452 cumulative IPC: 1.47 (Simulation time: 00 hr 04 min 10 sec)
Heartbeat CPU 0 instructions: 58500347 cycles: 19113595 heartbeat IPC: 0.8131 cumulative IPC: 1.404 (Simulation time: 00 hr 04 min 16 sec)
Heartbeat CPU 0 instructions: 59000353 cycles: 19860022 heartbeat IPC: 0.6699 cumulative IPC: 1.323 (Simulation time: 00 hr 04 min 22 sec)
Heartbeat CPU 0 instructions: 59500355 cycles: 20657810 heartbeat IPC: 0.6267 cumulative IPC: 1.25 (Simulation time: 00 hr 04 min 28 sec)
Heartbeat CPU 0 instructions: 60000359 cycles: 21405761 heartbeat IPC: 0.6685 cumulative IPC: 1.198 (Simulation time: 00 hr 04 min 34 sec)
Heartbeat CPU 0 instructions: 60500363 cycles: 22163691 heartbeat IPC: 0.6597 cumulative IPC: 1.153 (Simulation time: 00 hr 04 min 40 sec)
Heartbeat CPU 0 instructions: 61000368 cycles: 22805236 heartbeat IPC: 0.7794 cumulative IPC: 1.129 (Simulation time: 00 hr 04 min 46 sec)
Heartbeat CPU 0 instructions: 61500368 cycles: 23565031 heartbeat IPC: 0.6581 cumulative IPC: 1.094 (Simulation time: 00 hr 04 min 52 sec)
Heartbeat CPU 0 instructions: 62000372 cycles: 24234383 heartbeat IPC: 0.747 cumulative IPC: 1.074 (Simulation time: 00 hr 04 min 58 sec)
Heartbeat CPU 0 instructions: 62500372 cycles: 24946435 heartbeat IPC: 0.7022 cumulative IPC: 1.051 (Simulation time: 00 hr 05 min 03 sec)
Heartbeat CPU 0 instructions: 63000376 cycles: 25651764 heartbeat IPC: 0.7089 cumulative IPC: 1.032 (Simulation time: 00 hr 05 min 09 sec)
Heartbeat CPU 0 instructions: 63500381 cycles: 26229653 heartbeat IPC: 0.8652 cumulative IPC: 1.025 (Simulation time: 00 hr 05 min 14 sec)
Heartbeat CPU 0 instructions: 64000383 cycles: 26859588 heartbeat IPC: 0.7937 cumulative IPC: 1.014 (Simulation time: 00 hr 05 min 19 sec)
Heartbeat CPU 0 instructions: 64500384 cycles: 27331057 heartbeat IPC: 1.061 cumulative IPC: 1.016 (Simulation time: 00 hr 05 min 23 sec)
Heartbeat CPU 0 instructions: 65000389 cycles: 28032516 heartbeat IPC: 0.7128 cumulative IPC: 1.002 (Simulation time: 00 hr 05 min 29 sec)
Heartbeat CPU 0 instructions: 65500389 cycles: 28509482 heartbeat IPC: 1.048 cumulative IPC: 1.003 (Simulation time: 00 hr 05 min 33 sec)
Heartbeat CPU 0 instructions: 66000396 cycles: 29095284 heartbeat IPC: 0.8535 cumulative IPC: 0.9977 (Simulation time: 00 hr 05 min 38 sec)
Heartbeat CPU 0 instructions: 66500396 cycles: 29640182 heartbeat IPC: 0.9176 cumulative IPC: 0.995 (Simulation time: 00 hr 05 min 43 sec)
Heartbeat CPU 0 instructions: 67000398 cycles: 29929579 heartbeat IPC: 1.728 cumulative IPC: 1.008 (Simulation time: 00 hr 05 min 46 sec)
Heartbeat CPU 0 instructions: 67500400 cycles: 30080405 heartbeat IPC: 3.315 cumulative IPC: 1.028 (Simulation time: 00 hr 05 min 47 sec)
Heartbeat CPU 0 instructions: 68000401 cycles: 30308425 heartbeat IPC: 2.193 cumulative IPC: 1.043 (Simulation time: 00 hr 05 min 50 sec)
Heartbeat CPU 0 instructions: 68500408 cycles: 30897785 heartbeat IPC: 0.8484 cumulative IPC: 1.037 (Simulation time: 00 hr 05 min 55 sec)
Heartbeat CPU 0 instructions: 69000409 cycles: 31469446 heartbeat IPC: 0.8746 cumulative IPC: 1.032 (Simulation time: 00 hr 06 min 00 sec)
Heartbeat CPU 0 instructions: 69500413 cycles: 32024301 heartbeat IPC: 0.9011 cumulative IPC: 1.028 (Simulation time: 00 hr 06 min 04 sec)
Heartbeat CPU 0 instructions: 70000420 cycles: 32434632 heartbeat IPC: 1.219 cumulative IPC: 1.032 (Simulation time: 00 hr 06 min 08 sec)
Heartbeat CPU 0 instructions: 70500423 cycles: 32858374 heartbeat IPC: 1.18 cumulative IPC: 1.035 (Simulation time: 00 hr 06 min 12 sec)
Heartbeat CPU 0 instructions: 71000423 cycles: 33229943 heartbeat IPC: 1.346 cumulative IPC: 1.041 (Simulation time: 00 hr 06 min 15 sec)
Heartbeat CPU 0 instructions: 71500425 cycles: 33616714 heartbeat IPC: 1.293 cumulative IPC: 1.046 (Simulation time: 00 hr 06 min 19 sec)
Heartbeat CPU 0 instructions: 72000427 cycles: 34223658 heartbeat IPC: 0.8238 cumulative IPC: 1.039 (Simulation time: 00 hr 06 min 24 sec)
Heartbeat CPU 0 instructions: 72500432 cycles: 34929312 heartbeat IPC: 0.7086 cumulative IPC: 1.029 (Simulation time: 00 hr 06 min 30 sec)
Heartbeat CPU 0 instructions: 73000436 cycles: 35550286 heartbeat IPC: 0.8052 cumulative IPC: 1.023 (Simulation time: 00 hr 06 min 35 sec)
Heartbeat CPU 0 instructions: 73500437 cycles: 36057478 heartbeat IPC: 0.9858 cumulative IPC: 1.022 (Simulation time: 00 hr 06 min 39 sec)
Heartbeat CPU 0 instructions: 74000442 cycles: 36534241 heartbeat IPC: 1.049 cumulative IPC: 1.022 (Simulation time: 00 hr 06 min 44 sec)
Heartbeat CPU 0 instructions: 74500443 cycles: 37044218 heartbeat IPC: 0.9804 cumulative IPC: 1.021 (Simulation time: 00 hr 06 min 48 sec)
Heartbeat CPU 0 instructions: 75000448 cycles: 37588641 heartbeat IPC: 0.9184 cumulative IPC: 1.019 (Simulation time: 00 hr 06 min 53 sec)
Heartbeat CPU 0 instructions: 75500452 cycles: 38109176 heartbeat IPC: 0.9606 cumulative IPC: 1.018 (Simulation time: 00 hr 06 min 57 sec)
Heartbeat CPU 0 instructions: 76000457 cycles: 38542602 heartbeat IPC: 1.154 cumulative IPC: 1.02 (Simulation time: 00 hr 07 min 01 sec)
Heartbeat CPU 0 instructions: 76500464 cycles: 39174044 heartbeat IPC: 0.7918 cumulative IPC: 1.015 (Simulation time: 00 hr 07 min 07 sec)
Heartbeat CPU 0 instructions: 77000467 cycles: 39822122 heartbeat IPC: 0.7715 cumulative IPC: 1.009 (Simulation time: 00 hr 07 min 12 sec)
Heartbeat CPU 0 instructions: 77500469 cycles: 40373619 heartbeat IPC: 0.9066 cumulative IPC: 1.007 (Simulation time: 00 hr 07 min 17 sec)
Heartbeat CPU 0 instructions: 78000470 cycles: 40981657 heartbeat IPC: 0.8223 cumulative IPC: 1.003 (Simulation time: 00 hr 07 min 22 sec)
Heartbeat CPU 0 instructions: 78500473 cycles: 41359574 heartbeat IPC: 1.323 cumulative IPC: 1.007 (Simulation time: 00 hr 07 min 25 sec)
Heartbeat CPU 0 instructions: 79000479 cycles: 41845124 heartbeat IPC: 1.03 cumulative IPC: 1.007 (Simulation time: 00 hr 07 min 30 sec)
Heartbeat CPU 0 instructions: 79500484 cycles: 42536927 heartbeat IPC: 0.7228 cumulative IPC: 1.001 (Simulation time: 00 hr 07 min 35 sec)
Heartbeat CPU 0 instructions: 80000487 cycles: 43246788 heartbeat IPC: 0.7044 cumulative IPC: 0.9937 (Simulation time: 00 hr 07 min 41 sec)
Heartbeat CPU 0 instructions: 80500492 cycles: 43732108 heartbeat IPC: 1.03 cumulative IPC: 0.9943 (Simulation time: 00 hr 07 min 46 sec)
Heartbeat CPU 0 instructions: 81000496 cycles: 44266651 heartbeat IPC: 0.9354 cumulative IPC: 0.9933 (Simulation time: 00 hr 07 min 50 sec)
Heartbeat CPU 0 instructions: 81500500 cycles: 44949636 heartbeat IPC: 0.7321 cumulative IPC: 0.9877 (Simulation time: 00 hr 07 min 56 sec)
Heartbeat CPU 0 instructions: 82000504 cycles: 45431424 heartbeat IPC: 1.038 cumulative IPC: 0.9885 (Simulation time: 00 hr 08 min 00 sec)
Heartbeat CPU 0 instructions: 82500505 cycles: 45848019 heartbeat IPC: 1.2 cumulative IPC: 0.9912 (Simulation time: 00 hr 08 min 04 sec)
Heartbeat CPU 0 instructions: 83000505 cycles: 46448520 heartbeat IPC: 0.8326 cumulative IPC: 0.9883 (Simulation time: 00 hr 08 min 09 sec)
Heartbeat CPU 0 instructions: 83500507 cycles: 47070042 heartbeat IPC: 0.8045 cumulative IPC: 0.9849 (Simulation time: 00 hr 08 min 14 sec)
Heartbeat CPU 0 instructions: 84000511 cycles: 47768525 heartbeat IPC: 0.7158 cumulative IPC: 0.9795 (Simulation time: 00 hr 08 min 20 sec)
Heartbeat CPU 0 instructions: 84500511 cycles: 48261646 heartbeat IPC: 1.014 cumulative IPC: 0.98 (Simulation time: 00 hr 08 min 24 sec)
Heartbeat CPU 0 instructions: 85000515 cycles: 48918594 heartbeat IPC: 0.7611 cumulative IPC: 0.976 (Simulation time: 00 hr 08 min 29 sec)
Heartbeat CPU 0 instructions: 85500520 cycles: 49468435 heartbeat IPC: 0.9094 cumulative IPC: 0.975 (Simulation time: 00 hr 08 min 34 sec)
Heartbeat CPU 0 instructions: 86000522 cycles: 50010099 heartbeat IPC: 0.9231 cumulative IPC: 0.9742 (Simulation time: 00 hr 08 min 39 sec)
Heartbeat CPU 0 instructions: 86500528 cycles: 50689033 heartbeat IPC: 0.7365 cumulative IPC: 0.9699 (Simulation time: 00 hr 08 min 44 sec)
Heartbeat CPU 0 instructions: 87000529 cycles: 51236596 heartbeat IPC: 0.9131 cumulative IPC: 0.9691 (Simulation time: 00 hr 08 min 49 sec)
Heartbeat CPU 0 instructions: 87500531 cycles: 51762846 heartbeat IPC: 0.9501 cumulative IPC: 0.9689 (Simulation time: 00 hr 08 min 54 sec)
Heartbeat CPU 0 instructions: 88000533 cycles: 52247888 heartbeat IPC: 1.031 cumulative IPC: 0.9696 (Simulation time: 00 hr 08 min 58 sec)
Heartbeat CPU 0 instructions: 88500535 cycles: 52619047 heartbeat IPC: 1.347 cumulative IPC: 0.9732 (Simulation time: 00 hr 09 min 01 sec)
Heartbeat CPU 0 instructions: 89000537 cycles: 52987664 heartbeat IPC: 1.356 cumulative IPC: 0.9767 (Simulation time: 00 hr 09 min 05 sec)
Heartbeat CPU 0 instructions: 89500537 cycles: 53564206 heartbeat IPC: 0.8672 cumulative IPC: 0.9752 (Simulation time: 00 hr 09 min 10 sec)
Heartbeat CPU 0 instructions: 90000541 cycles: 54082588 heartbeat IPC: 0.9645 cumulative IPC: 0.975 (Simulation time: 00 hr 09 min 14 sec)
Heartbeat CPU 0 instructions: 90500544 cycles: 54643785 heartbeat IPC: 0.891 cumulative IPC: 0.9739 (Simulation time: 00 hr 09 min 19 sec)
Heartbeat CPU 0 instructions: 91000547 cycles: 55138777 heartbeat IPC: 1.01 cumulative IPC: 0.9743 (Simulation time: 00 hr 09 min 23 sec)
Heartbeat CPU 0 instructions: 91500551 cycles: 55717481 heartbeat IPC: 0.864 cumulative IPC: 0.9728 (Simulation time: 00 hr 09 min 28 sec)
Heartbeat CPU 0 instructions: 92000551 cycles: 56429388 heartbeat IPC: 0.7023 cumulative IPC: 0.9684 (Simulation time: 00 hr 09 min 34 sec)
Heartbeat CPU 0 instructions: 92500553 cycles: 57006749 heartbeat IPC: 0.866 cumulative IPC: 0.967 (Simulation time: 00 hr 09 min 39 sec)
Heartbeat CPU 0 instructions: 93000560 cycles: 57527676 heartbeat IPC: 0.9598 cumulative IPC: 0.967 (Simulation time: 00 hr 09 min 43 sec)
Heartbeat CPU 0 instructions: 93500560 cycles: 58129678 heartbeat IPC: 0.8306 cumulative IPC: 0.9651 (Simulation time: 00 hr 09 min 48 sec)
Heartbeat CPU 0 instructions: 94000564 cycles: 58781273 heartbeat IPC: 0.7674 cumulative IPC: 0.9623 (Simulation time: 00 hr 09 min 54 sec)
Heartbeat CPU 0 instructions: 94500571 cycles: 59357268 heartbeat IPC: 0.8681 cumulative IPC: 0.9611 (Simulation time: 00 hr 09 min 59 sec)
Heartbeat CPU 0 instructions: 95000572 cycles: 59950763 heartbeat IPC: 0.8425 cumulative IPC: 0.9596 (Simulation time: 00 hr 10 min 04 sec)
Heartbeat CPU 0 instructions: 95500575 cycles: 60468747 heartbeat IPC: 0.9653 cumulative IPC: 0.9597 (Simulation time: 00 hr 10 min 08 sec)
Heartbeat CPU 0 instructions: 96000575 cycles: 60652308 heartbeat IPC: 2.724 cumulative IPC: 0.9665 (Simulation time: 00 hr 10 min 10 sec)
Heartbeat CPU 0 instructions: 96500575 cycles: 60830797 heartbeat IPC: 2.801 cumulative IPC: 0.9734 (Simulation time: 00 hr 10 min 12 sec)
Heartbeat CPU 0 instructions: 97000580 cycles: 60989682 heartbeat IPC: 3.147 cumulative IPC: 0.9806 (Simulation time: 00 hr 10 min 14 sec)
Heartbeat CPU 0 instructions: 97500585 cycles: 61160396 heartbeat IPC: 2.929 cumulative IPC: 0.9875 (Simulation time: 00 hr 10 min 15 sec)
Heartbeat CPU 0 instructions: 98000588 cycles: 61322027 heartbeat IPC: 3.093 cumulative IPC: 0.9945 (Simulation time: 00 hr 10 min 17 sec)
Heartbeat CPU 0 instructions: 98500588 cycles: 61920676 heartbeat IPC: 0.8352 cumulative IPC: 0.9926 (Simulation time: 00 hr 10 min 22 sec)
Heartbeat CPU 0 instructions: 99000589 cycles: 62481398 heartbeat IPC: 0.8917 cumulative IPC: 0.9914 (Simulation time: 00 hr 10 min 27 sec)
Heartbeat CPU 0 instructions: 99500593 cycles: 63015406 heartbeat IPC: 0.9363 cumulative IPC: 0.9908 (Simulation time: 00 hr 10 min 32 sec)
Heartbeat CPU 0 instructions: 100000596 cycles: 63586979 heartbeat IPC: 0.8748 cumulative IPC: 0.9895 (Simulation time: 00 hr 10 min 37 sec)
Heartbeat CPU 0 instructions: 100500597 cycles: 64104212 heartbeat IPC: 0.9667 cumulative IPC: 0.9893 (Simulation time: 00 hr 10 min 41 sec)
Heartbeat CPU 0 instructions: 101000597 cycles: 64615666 heartbeat IPC: 0.9776 cumulative IPC: 0.9892 (Simulation time: 00 hr 10 min 45 sec)
Heartbeat CPU 0 instructions: 101500599 cycles: 65151783 heartbeat IPC: 0.9326 cumulative IPC: 0.9886 (Simulation time: 00 hr 10 min 50 sec)
Heartbeat CPU 0 instructions: 102000600 cycles: 65707449 heartbeat IPC: 0.8998 cumulative IPC: 0.9877 (Simulation time: 00 hr 10 min 55 sec)
Heartbeat CPU 0 instructions: 102500604 cycles: 66164271 heartbeat IPC: 1.095 cumulative IPC: 0.9886 (Simulation time: 00 hr 10 min 59 sec)
Heartbeat CPU 0 instructions: 103000609 cycles: 66767283 heartbeat IPC: 0.8292 cumulative IPC: 0.9868 (Simulation time: 00 hr 11 min 04 sec)
Heartbeat CPU 0 instructions: 103500616 cycles: 67353631 heartbeat IPC: 0.8527 cumulative IPC: 0.9853 (Simulation time: 00 hr 11 min 09 sec)
Heartbeat CPU 0 instructions: 104000619 cycles: 67851398 heartbeat IPC: 1.004 cumulative IPC: 0.9855 (Simulation time: 00 hr 11 min 13 sec)
Heartbeat CPU 0 instructions: 104500623 cycles: 68552262 heartbeat IPC: 0.7134 cumulative IPC: 0.9821 (Simulation time: 00 hr 11 min 19 sec)
Heartbeat CPU 0 instructions: 105000627 cycles: 69253044 heartbeat IPC: 0.7135 cumulative IPC: 0.9787 (Simulation time: 00 hr 11 min 25 sec)
Heartbeat CPU 0 instructions: 105500630 cycles: 69902863 heartbeat IPC: 0.7694 cumulative IPC: 0.9763 (Simulation time: 00 hr 11 min 30 sec)
Heartbeat CPU 0 instructions: 106000632 cycles: 70458615 heartbeat IPC: 0.8997 cumulative IPC: 0.9756 (Simulation time: 00 hr 11 min 35 sec)
Heartbeat CPU 0 instructions: 106500636 cycles: 71012725 heartbeat IPC: 0.9024 cumulative IPC: 0.9749 (Simulation time: 00 hr 11 min 40 sec)
Heartbeat CPU 0 instructions: 107000637 cycles: 71607765 heartbeat IPC: 0.8403 cumulative IPC: 0.9735 (Simulation time: 00 hr 11 min 45 sec)
Heartbeat CPU 0 instructions: 107500639 cycles: 71958640 heartbeat IPC: 1.425 cumulative IPC: 0.9762 (Simulation time: 00 hr 11 min 48 sec)
Heartbeat CPU 0 instructions: 108000640 cycles: 72476046 heartbeat IPC: 0.9664 cumulative IPC: 0.9761 (Simulation time: 00 hr 11 min 52 sec)
Heartbeat CPU 0 instructions: 108500644 cycles: 73077353 heartbeat IPC: 0.8315 cumulative IPC: 0.9747 (Simulation time: 00 hr 11 min 58 sec)
Heartbeat CPU 0 instructions: 109000644 cycles: 73737432 heartbeat IPC: 0.7575 cumulative IPC: 0.9723 (Simulation time: 00 hr 12 min 03 sec)
Heartbeat CPU 0 instructions: 109500644 cycles: 74282092 heartbeat IPC: 0.918 cumulative IPC: 0.9718 (Simulation time: 00 hr 12 min 08 sec)
Heartbeat CPU 0 instructions: 110000645 cycles: 74890673 heartbeat IPC: 0.8216 cumulative IPC: 0.9704 (Simulation time: 00 hr 12 min 13 sec)
Heartbeat CPU 0 instructions: 110500649 cycles: 75394677 heartbeat IPC: 0.9921 cumulative IPC: 0.9705 (Simulation time: 00 hr 12 min 17 sec)
Heartbeat CPU 0 instructions: 111000656 cycles: 75855305 heartbeat IPC: 1.085 cumulative IPC: 0.9714 (Simulation time: 00 hr 12 min 21 sec)
Heartbeat CPU 0 instructions: 111500656 cycles: 76336590 heartbeat IPC: 1.039 cumulative IPC: 0.9719 (Simulation time: 00 hr 12 min 26 sec)
Heartbeat CPU 0 instructions: 112000657 cycles: 76804209 heartbeat IPC: 1.069 cumulative IPC: 0.9726 (Simulation time: 00 hr 12 min 30 sec)
Heartbeat CPU 0 instructions: 112500659 cycles: 77435771 heartbeat IPC: 0.7917 cumulative IPC: 0.9708 (Simulation time: 00 hr 12 min 35 sec)
Heartbeat CPU 0 instructions: 113000664 cycles: 77924804 heartbeat IPC: 1.022 cumulative IPC: 0.9712 (Simulation time: 00 hr 12 min 39 sec)
Heartbeat CPU 0 instructions: 113500667 cycles: 78415977 heartbeat IPC: 1.018 cumulative IPC: 0.9716 (Simulation time: 00 hr 12 min 44 sec)
Heartbeat CPU 0 instructions: 114000671 cycles: 78993333 heartbeat IPC: 0.866 cumulative IPC: 0.9707 (Simulation time: 00 hr 12 min 49 sec)
Heartbeat CPU 0 instructions: 114500675 cycles: 79590567 heartbeat IPC: 0.8372 cumulative IPC: 0.9695 (Simulation time: 00 hr 12 min 54 sec)
Heartbeat CPU 0 instructions: 115000675 cycles: 80147740 heartbeat IPC: 0.8974 cumulative IPC: 0.9689 (Simulation time: 00 hr 12 min 58 sec)
Heartbeat CPU 0 instructions: 115500680 cycles: 80824847 heartbeat IPC: 0.7384 cumulative IPC: 0.9666 (Simulation time: 00 hr 13 min 04 sec)
Heartbeat CPU 0 instructions: 116000681 cycles: 81490152 heartbeat IPC: 0.7515 cumulative IPC: 0.9645 (Simulation time: 00 hr 13 min 10 sec)
Heartbeat CPU 0 instructions: 116500683 cycles: 82071241 heartbeat IPC: 0.8605 cumulative IPC: 0.9636 (Simulation time: 00 hr 13 min 15 sec)
Heartbeat CPU 0 instructions: 117000684 cycles: 82543886 heartbeat IPC: 1.058 cumulative IPC: 0.9642 (Simulation time: 00 hr 13 min 19 sec)
Heartbeat CPU 0 instructions: 117500685 cycles: 83144300 heartbeat IPC: 0.8328 cumulative IPC: 0.9631 (Simulation time: 00 hr 13 min 24 sec)
Heartbeat CPU 0 instructions: 118000688 cycles: 83593666 heartbeat IPC: 1.113 cumulative IPC: 0.9641 (Simulation time: 00 hr 13 min 28 sec)
Heartbeat CPU 0 instructions: 118500689 cycles: 84094816 heartbeat IPC: 0.9977 cumulative IPC: 0.9643 (Simulation time: 00 hr 13 min 32 sec)
Heartbeat CPU 0 instructions: 119000692 cycles: 84600045 heartbeat IPC: 0.9897 cumulative IPC: 0.9645 (Simulation time: 00 hr 13 min 37 sec)
Heartbeat CPU 0 instructions: 119500693 cycles: 85071413 heartbeat IPC: 1.061 cumulative IPC: 0.9651 (Simulation time: 00 hr 13 min 41 sec)
Heartbeat CPU 0 instructions: 120000700 cycles: 85583942 heartbeat IPC: 0.9756 cumulative IPC: 0.9652 (Simulation time: 00 hr 13 min 45 sec)
Heartbeat CPU 0 instructions: 120500700 cycles: 86114804 heartbeat IPC: 0.9419 cumulative IPC: 0.965 (Simulation time: 00 hr 13 min 50 sec)
Heartbeat CPU 0 instructions: 121000704 cycles: 86590782 heartbeat IPC: 1.05 cumulative IPC: 0.9656 (Simulation time: 00 hr 13 min 54 sec)
Heartbeat CPU 0 instructions: 121500705 cycles: 86997063 heartbeat IPC: 1.231 cumulative IPC: 0.967 (Simulation time: 00 hr 13 min 58 sec)
Heartbeat CPU 0 instructions: 122000707 cycles: 87506092 heartbeat IPC: 0.9823 cumulative IPC: 0.9671 (Simulation time: 00 hr 14 min 02 sec)
Heartbeat CPU 0 instructions: 122500711 cycles: 88081202 heartbeat IPC: 0.8694 cumulative IPC: 0.9664 (Simulation time: 00 hr 14 min 07 sec)
Heartbeat CPU 0 instructions: 123000716 cycles: 88713762 heartbeat IPC: 0.7904 cumulative IPC: 0.9649 (Simulation time: 00 hr 14 min 12 sec)
Heartbeat CPU 0 instructions: 123500720 cycles: 89341913 heartbeat IPC: 0.796 cumulative IPC: 0.9635 (Simulation time: 00 hr 14 min 18 sec)
Heartbeat CPU 0 instructions: 124000721 cycles: 89808093 heartbeat IPC: 1.073 cumulative IPC: 0.9642 (Simulation time: 00 hr 14 min 22 sec)
Heartbeat CPU 0 instructions: 124500721 cycles: 90497279 heartbeat IPC: 0.7255 cumulative IPC: 0.962 (Simulation time: 00 hr 14 min 27 sec)
Heartbeat CPU 0 instructions: 125000725 cycles: 90899404 heartbeat IPC: 1.243 cumulative IPC: 0.9635 (Simulation time: 00 hr 14 min 31 sec)
Heartbeat CPU 0 instructions: 125500727 cycles: 91492341 heartbeat IPC: 0.8433 cumulative IPC: 0.9626 (Simulation time: 00 hr 14 min 36 sec)
Heartbeat CPU 0 instructions: 126000728 cycles: 92120290 heartbeat IPC: 0.7962 cumulative IPC: 0.9613 (Simulation time: 00 hr 14 min 41 sec)
Heartbeat CPU 0 instructions: 126500730 cycles: 92657749 heartbeat IPC: 0.9303 cumulative IPC: 0.9611 (Simulation time: 00 hr 14 min 46 sec)
Heartbeat CPU 0 instructions: 127000733 cycles: 93260948 heartbeat IPC: 0.8289 cumulative IPC: 0.9601 (Simulation time: 00 hr 14 min 51 sec)
Heartbeat CPU 0 instructions: 127500735 cycles: 93845337 heartbeat IPC: 0.8556 cumulative IPC: 0.9593 (Simulation time: 00 hr 14 min 56 sec)
Heartbeat CPU 0 instructions: 128000740 cycles: 94388303 heartbeat IPC: 0.9209 cumulative IPC: 0.9591 (Simulation time: 00 hr 15 min 01 sec)
Heartbeat CPU 0 instructions: 128500744 cycles: 94796634 heartbeat IPC: 1.225 cumulative IPC: 0.9604 (Simulation time: 00 hr 15 min 05 sec)
Heartbeat CPU 0 instructions: 129000745 cycles: 95320082 heartbeat IPC: 0.9552 cumulative IPC: 0.9603 (Simulation time: 00 hr 15 min 09 sec)
Heartbeat CPU 0 instructions: 129500750 cycles: 95797895 heartbeat IPC: 1.046 cumulative IPC: 0.9608 (Simulation time: 00 hr 15 min 13 sec)
Heartbeat CPU 0 instructions: 130000755 cycles: 96159850 heartbeat IPC: 1.381 cumulative IPC: 0.9627 (Simulation time: 00 hr 15 min 17 sec)
Heartbeat CPU 0 instructions: 130500760 cycles: 96481538 heartbeat IPC: 1.554 cumulative IPC: 0.965 (Simulation time: 00 hr 15 min 20 sec)
Heartbeat CPU 0 instructions: 131000760 cycles: 96989933 heartbeat IPC: 0.9835 cumulative IPC: 0.9651 (Simulation time: 00 hr 15 min 24 sec)
Heartbeat CPU 0 instructions: 131500763 cycles: 97612503 heartbeat IPC: 0.8031 cumulative IPC: 0.9639 (Simulation time: 00 hr 15 min 29 sec)
Heartbeat CPU 0 instructions: 132000765 cycles: 98121497 heartbeat IPC: 0.9823 cumulative IPC: 0.964 (Simulation time: 00 hr 15 min 34 sec)
Heartbeat CPU 0 instructions: 132500769 cycles: 98818406 heartbeat IPC: 0.7175 cumulative IPC: 0.962 (Simulation time: 00 hr 15 min 40 sec)
Heartbeat CPU 0 instructions: 133000769 cycles: 99449326 heartbeat IPC: 0.7925 cumulative IPC: 0.9607 (Simulation time: 00 hr 15 min 45 sec)
Heartbeat CPU 0 instructions: 133500775 cycles: 99953622 heartbeat IPC: 0.9915 cumulative IPC: 0.9609 (Simulation time: 00 hr 15 min 49 sec)
Heartbeat CPU 0 instructions: 134000779 cycles: 100444370 heartbeat IPC: 1.019 cumulative IPC: 0.9613 (Simulation time: 00 hr 15 min 54 sec)
Heartbeat CPU 0 instructions: 134500780 cycles: 100987906 heartbeat IPC: 0.9199 cumulative IPC: 0.961 (Simulation time: 00 hr 15 min 58 sec)
Heartbeat CPU 0 instructions: 135000784 cycles: 101678834 heartbeat IPC: 0.7237 cumulative IPC: 0.9591 (Simulation time: 00 hr 16 min 04 sec)
Heartbeat CPU 0 instructions: 135500784 cycles: 102323832 heartbeat IPC: 0.7752 cumulative IPC: 0.9578 (Simulation time: 00 hr 16 min 10 sec)
Heartbeat CPU 0 instructions: 136000784 cycles: 102862197 heartbeat IPC: 0.9287 cumulative IPC: 0.9576 (Simulation time: 00 hr 16 min 14 sec)
Heartbeat CPU 0 instructions: 136500788 cycles: 103430423 heartbeat IPC: 0.8799 cumulative IPC: 0.9572 (Simulation time: 00 hr 16 min 19 sec)
Heartbeat CPU 0 instructions: 137000791 cycles: 103985871 heartbeat IPC: 0.9002 cumulative IPC: 0.9568 (Simulation time: 00 hr 16 min 24 sec)
Heartbeat CPU 0 instructions: 137500793 cycles: 104610836 heartbeat IPC: 0.8 cumulative IPC: 0.9557 (Simulation time: 00 hr 16 min 29 sec)
Heartbeat CPU 0 instructions: 138000795 cycles: 105270484 heartbeat IPC: 0.758 cumulative IPC: 0.9543 (Simulation time: 00 hr 16 min 35 sec)
Heartbeat CPU 0 instructions: 138500799 cycles: 105889430 heartbeat IPC: 0.8078 cumulative IPC: 0.9533 (Simulation time: 00 hr 16 min 40 sec)
Heartbeat CPU 0 instructions: 139000803 cycles: 106470323 heartbeat IPC: 0.8608 cumulative IPC: 0.9528 (Simulation time: 00 hr 16 min 45 sec)
Heartbeat CPU 0 instructions: 139500808 cycles: 107113342 heartbeat IPC: 0.7776 cumulative IPC: 0.9516 (Simulation time: 00 hr 16 min 50 sec)
Heartbeat CPU 0 instructions: 140000811 cycles: 107607204 heartbeat IPC: 1.012 cumulative IPC: 0.9519 (Simulation time: 00 hr 16 min 55 sec)
Heartbeat CPU 0 instructions: 140500815 cycles: 108039564 heartbeat IPC: 1.156 cumulative IPC: 0.9528 (Simulation time: 00 hr 16 min 59 sec)
Heartbeat CPU 0 instructions: 141000816 cycles: 108570054 heartbeat IPC: 0.9425 cumulative IPC: 0.9528 (Simulation time: 00 hr 17 min 03 sec)
Heartbeat CPU 0 instructions: 141500821 cycles: 109076928 heartbeat IPC: 0.9864 cumulative IPC: 0.9529 (Simulation time: 00 hr 17 min 08 sec)
Heartbeat CPU 0 instructions: 142000821 cycles: 109711211 heartbeat IPC: 0.7883 cumulative IPC: 0.9519 (Simulation time: 00 hr 17 min 13 sec)
Heartbeat CPU 0 instructions: 142500825 cycles: 110272956 heartbeat IPC: 0.8901 cumulative IPC: 0.9515 (Simulation time: 00 hr 17 min 18 sec)
Heartbeat CPU 0 instructions: 143000829 cycles: 110714457 heartbeat IPC: 1.133 cumulative IPC: 0.9523 (Simulation time: 00 hr 17 min 22 sec)
Heartbeat CPU 0 instructions: 143500832 cycles: 111130226 heartbeat IPC: 1.203 cumulative IPC: 0.9534 (Simulation time: 00 hr 17 min 26 sec)
Heartbeat CPU 0 instructions: 144000835 cycles: 111699759 heartbeat IPC: 0.8779 cumulative IPC: 0.9529 (Simulation time: 00 hr 17 min 31 sec)
Heartbeat CPU 0 instructions: 144500840 cycles: 112329361 heartbeat IPC: 0.7942 cumulative IPC: 0.9519 (Simulation time: 00 hr 17 min 36 sec)
Heartbeat CPU 0 instructions: 145000840 cycles: 112918038 heartbeat IPC: 0.8494 cumulative IPC: 0.9513 (Simulation time: 00 hr 17 min 41 sec)
Heartbeat CPU 0 instructions: 145500841 cycles: 113543762 heartbeat IPC: 0.7991 cumulative IPC: 0.9504 (Simulation time: 00 hr 17 min 46 sec)
Heartbeat CPU 0 instructions: 146000845 cycles: 114067496 heartbeat IPC: 0.9547 cumulative IPC: 0.9504 (Simulation time: 00 hr 17 min 51 sec)
Heartbeat CPU 0 instructions: 146500846 cycles: 114619744 heartbeat IPC: 0.9054 cumulative IPC: 0.9502 (Simulation time: 00 hr 17 min 56 sec)
Heartbeat CPU 0 instructions: 147000848 cycles: 115230937 heartbeat IPC: 0.8181 cumulative IPC: 0.9494 (Simulation time: 00 hr 18 min 01 sec)
Heartbeat CPU 0 instructions: 147500852 cycles: 115792103 heartbeat IPC: 0.891 cumulative IPC: 0.9491 (Simulation time: 00 hr 18 min 06 sec)
Heartbeat CPU 0 instructions: 148000856 cycles: 116406261 heartbeat IPC: 0.8141 cumulative IPC: 0.9483 (Simulation time: 00 hr 18 min 11 sec)
Heartbeat CPU 0 instructions: 148500859 cycles: 116873886 heartbeat IPC: 1.069 cumulative IPC: 0.9488 (Simulation time: 00 hr 18 min 15 sec)
Heartbeat CPU 0 instructions: 149000864 cycles: 117534439 heartbeat IPC: 0.7569 cumulative IPC: 0.9476 (Simulation time: 00 hr 18 min 21 sec)
Heartbeat CPU 0 instructions: 149500865 cycles: 118112768 heartbeat IPC: 0.8646 cumulative IPC: 0.9471 (Simulation time: 00 hr 18 min 26 sec)
Heartbeat CPU 0 instructions: 150000869 cycles: 118634422 heartbeat IPC: 0.9585 cumulative IPC: 0.9472 (Simulation time: 00 hr 18 min 30 sec)
Heartbeat CPU 0 instructions: 150500876 cycles: 118997246 heartbeat IPC: 1.378 cumulative IPC: 0.9487 (Simulation time: 00 hr 18 min 33 sec)
Heartbeat CPU 0 instructions: 151000876 cycles: 119597289 heartbeat IPC: 0.8333 cumulative IPC: 0.948 (Simulation time: 00 hr 18 min 39 sec)
Heartbeat CPU 0 instructions: 151500877 cycles: 119997940 heartbeat IPC: 1.248 cumulative IPC: 0.9491 (Simulation time: 00 hr 18 min 42 sec)
Heartbeat CPU 0 instructions: 152000884 cycles: 120166483 heartbeat IPC: 2.967 cumulative IPC: 0.9523 (Simulation time: 00 hr 18 min 44 sec)
Heartbeat CPU 0 instructions: 152500885 cycles: 120466721 heartbeat IPC: 1.665 cumulative IPC: 0.9543 (Simulation time: 00 hr 18 min 47 sec)
Heartbeat CPU 0 instructions: 153000887 cycles: 121069913 heartbeat IPC: 0.8289 cumulative IPC: 0.9536 (Simulation time: 00 hr 18 min 52 sec)
Heartbeat CPU 0 instructions: 153500888 cycles: 121692379 heartbeat IPC: 0.8033 cumulative IPC: 0.9527 (Simulation time: 00 hr 18 min 57 sec)
Heartbeat CPU 0 instructions: 154000889 cycles: 122206868 heartbeat IPC: 0.9718 cumulative IPC: 0.9528 (Simulation time: 00 hr 19 min 01 sec)
Heartbeat CPU 0 instructions: 154500891 cycles: 122648615 heartbeat IPC: 1.132 cumulative IPC: 0.9536 (Simulation time: 00 hr 19 min 05 sec)
Heartbeat CPU 0 instructions: 155000895 cycles: 122824348 heartbeat IPC: 2.845 cumulative IPC: 0.9566 (Simulation time: 00 hr 19 min 07 sec)
Heartbeat CPU 0 instructions: 155500900 cycles: 123058865 heartbeat IPC: 2.132 cumulative IPC: 0.9591 (Simulation time: 00 hr 19 min 10 sec)
Heartbeat CPU 0 instructions: 156000905 cycles: 123208733 heartbeat IPC: 3.336 cumulative IPC: 0.9623 (Simulation time: 00 hr 19 min 11 sec)
Heartbeat CPU 0 instructions: 156500909 cycles: 123358083 heartbeat IPC: 3.348 cumulative IPC: 0.9656 (Simulation time: 00 hr 19 min 13 sec)
Heartbeat CPU 0 instructions: 157000909 cycles: 123505658 heartbeat IPC: 3.388 cumulative IPC: 0.9688 (Simulation time: 00 hr 19 min 14 sec)
Heartbeat CPU 0 instructions: 157500911 cycles: 123654525 heartbeat IPC: 3.359 cumulative IPC: 0.972 (Simulation time: 00 hr 19 min 16 sec)
Heartbeat CPU 0 instructions: 158000911 cycles: 123801400 heartbeat IPC: 3.404 cumulative IPC: 0.9752 (Simulation time: 00 hr 19 min 18 sec)
Heartbeat CPU 0 instructions: 158500915 cycles: 124073413 heartbeat IPC: 1.838 cumulative IPC: 0.9773 (Simulation time: 00 hr 19 min 20 sec)
Heartbeat CPU 0 instructions: 159000920 cycles: 124323696 heartbeat IPC: 1.998 cumulative IPC: 0.9796 (Simulation time: 00 hr 19 min 23 sec)
Heartbeat CPU 0 instructions: 159500924 cycles: 124591201 heartbeat IPC: 1.869 cumulative IPC: 0.9818 (Simulation time: 00 hr 19 min 25 sec)
Heartbeat CPU 0 instructions: 160000927 cycles: 124812189 heartbeat IPC: 2.263 cumulative IPC: 0.9843 (Simulation time: 00 hr 19 min 28 sec)
Heartbeat CPU 0 instructions: 160500929 cycles: 125369606 heartbeat IPC: 0.897 cumulative IPC: 0.9839 (Simulation time: 00 hr 19 min 32 sec)
Heartbeat CPU 0 instructions: 161000931 cycles: 125938340 heartbeat IPC: 0.8791 cumulative IPC: 0.9833 (Simulation time: 00 hr 19 min 37 sec)
Heartbeat CPU 0 instructions: 161500936 cycles: 126562656 heartbeat IPC: 0.8009 cumulative IPC: 0.9823 (Simulation time: 00 hr 19 min 43 sec)
Heartbeat CPU 0 instructions: 162000939 cycles: 127046954 heartbeat IPC: 1.032 cumulative IPC: 0.9826 (Simulation time: 00 hr 19 min 47 sec)
Heartbeat CPU 0 instructions: 162500943 cycles: 127534644 heartbeat IPC: 1.025 cumulative IPC: 0.9827 (Simulation time: 00 hr 19 min 51 sec)
Heartbeat CPU 0 instructions: 163000947 cycles: 127808176 heartbeat IPC: 1.828 cumulative IPC: 0.9848 (Simulation time: 00 hr 19 min 54 sec)
Heartbeat CPU 0 instructions: 163500947 cycles: 128331194 heartbeat IPC: 0.956 cumulative IPC: 0.9846 (Simulation time: 00 hr 19 min 58 sec)
Heartbeat CPU 0 instructions: 164000952 cycles: 128825478 heartbeat IPC: 1.012 cumulative IPC: 0.9847 (Simulation time: 00 hr 20 min 02 sec)
Heartbeat CPU 0 instructions: 164500953 cycles: 129270039 heartbeat IPC: 1.125 cumulative IPC: 0.9853 (Simulation time: 00 hr 20 min 06 sec)
Heartbeat CPU 0 instructions: 165000960 cycles: 129826720 heartbeat IPC: 0.8982 cumulative IPC: 0.9849 (Simulation time: 00 hr 20 min 11 sec)
Heartbeat CPU 0 instructions: 165500963 cycles: 130334339 heartbeat IPC: 0.985 cumulative IPC: 0.9849 (Simulation time: 00 hr 20 min 15 sec)
Heartbeat CPU 0 instructions: 166000964 cycles: 130697313 heartbeat IPC: 1.378 cumulative IPC: 0.9861 (Simulation time: 00 hr 20 min 18 sec)
Heartbeat CPU 0 instructions: 166500965 cycles: 131163176 heartbeat IPC: 1.073 cumulative IPC: 0.9864 (Simulation time: 00 hr 20 min 23 sec)
Heartbeat CPU 0 instructions: 167000968 cycles: 131781842 heartbeat IPC: 0.8082 cumulative IPC: 0.9855 (Simulation time: 00 hr 20 min 28 sec)
Heartbeat CPU 0 instructions: 167500968 cycles: 132433067 heartbeat IPC: 0.7678 cumulative IPC: 0.9843 (Simulation time: 00 hr 20 min 33 sec)
Heartbeat CPU 0 instructions: 168000975 cycles: 132901341 heartbeat IPC: 1.068 cumulative IPC: 0.9846 (Simulation time: 00 hr 20 min 37 sec)
Heartbeat CPU 0 instructions: 168500979 cycles: 133282421 heartbeat IPC: 1.312 cumulative IPC: 0.9857 (Simulation time: 00 hr 20 min 41 sec)
Heartbeat CPU 0 instructions: 169000983 cycles: 133812150 heartbeat IPC: 0.9439 cumulative IPC: 0.9855 (Simulation time: 00 hr 20 min 45 sec)
Heartbeat CPU 0 instructions: 169500985 cycles: 134434290 heartbeat IPC: 0.8037 cumulative IPC: 0.9845 (Simulation time: 00 hr 20 min 51 sec)
Heartbeat CPU 0 instructions: 170000985 cycles: 134888694 heartbeat IPC: 1.1 cumulative IPC: 0.985 (Simulation time: 00 hr 20 min 55 sec)
Heartbeat CPU 0 instructions: 170500987 cycles: 135403818 heartbeat IPC: 0.9706 cumulative IPC: 0.9849 (Simulation time: 00 hr 20 min 59 sec)
Heartbeat CPU 0 instructions: 171000987 cycles: 135922202 heartbeat IPC: 0.9645 cumulative IPC: 0.9848 (Simulation time: 00 hr 21 min 03 sec)
Heartbeat CPU 0 instructions: 171500989 cycles: 136467780 heartbeat IPC: 0.9165 cumulative IPC: 0.9845 (Simulation time: 00 hr 21 min 08 sec)
Heartbeat CPU 0 instructions: 172000993 cycles: 136775721 heartbeat IPC: 1.624 cumulative IPC: 0.9861 (Simulation time: 00 hr 21 min 11 sec)
Heartbeat CPU 0 instructions: 172500996 cycles: 137387257 heartbeat IPC: 0.8176 cumulative IPC: 0.9853 (Simulation time: 00 hr 21 min 16 sec)
Heartbeat CPU 0 instructions: 173001003 cycles: 137932221 heartbeat IPC: 0.9175 cumulative IPC: 0.985 (Simulation time: 00 hr 21 min 21 sec)
Heartbeat CPU 0 instructions: 173501004 cycles: 138352880 heartbeat IPC: 1.189 cumulative IPC: 0.9857 (Simulation time: 00 hr 21 min 24 sec)
Heartbeat CPU 0 instructions: 174001007 cycles: 138860765 heartbeat IPC: 0.9845 cumulative IPC: 0.9857 (Simulation time: 00 hr 21 min 29 sec)
Heartbeat CPU 0 instructions: 174501009 cycles: 139406324 heartbeat IPC: 0.9165 cumulative IPC: 0.9854 (Simulation time: 00 hr 21 min 33 sec)
Heartbeat CPU 0 instructions: 175001009 cycles: 139798391 heartbeat IPC: 1.275 cumulative IPC: 0.9863 (Simulation time: 00 hr 21 min 37 sec)
Heartbeat CPU 0 instructions: 175501011 cycles: 140394285 heartbeat IPC: 0.8391 cumulative IPC: 0.9856 (Simulation time: 00 hr 21 min 42 sec)
Heartbeat CPU 0 instructions: 176001014 cycles: 140814729 heartbeat IPC: 1.189 cumulative IPC: 0.9863 (Simulation time: 00 hr 21 min 46 sec)
Heartbeat CPU 0 instructions: 176501016 cycles: 141346242 heartbeat IPC: 0.9407 cumulative IPC: 0.9861 (Simulation time: 00 hr 21 min 50 sec)
Heartbeat CPU 0 instructions: 177001017 cycles: 141892191 heartbeat IPC: 0.9158 cumulative IPC: 0.9858 (Simulation time: 00 hr 21 min 55 sec)
Heartbeat CPU 0 instructions: 177501024 cycles: 142175592 heartbeat IPC: 1.764 cumulative IPC: 0.9875 (Simulation time: 00 hr 21 min 58 sec)
Heartbeat CPU 0 instructions: 178001028 cycles: 142520851 heartbeat IPC: 1.448 cumulative IPC: 0.9887 (Simulation time: 00 hr 22 min 01 sec)
Heartbeat CPU 0 instructions: 178501032 cycles: 142936623 heartbeat IPC: 1.203 cumulative IPC: 0.9894 (Simulation time: 00 hr 22 min 04 sec)
Heartbeat CPU 0 instructions: 179001032 cycles: 143407880 heartbeat IPC: 1.061 cumulative IPC: 0.9896 (Simulation time: 00 hr 22 min 08 sec)
Heartbeat CPU 0 instructions: 179501037 cycles: 143902541 heartbeat IPC: 1.011 cumulative IPC: 0.9897 (Simulation time: 00 hr 22 min 13 sec)
Heartbeat CPU 0 instructions: 180001043 cycles: 144484093 heartbeat IPC: 0.8598 cumulative IPC: 0.9892 (Simulation time: 00 hr 22 min 18 sec)
Heartbeat CPU 0 instructions: 180501047 cycles: 145075977 heartbeat IPC: 0.8448 cumulative IPC: 0.9885 (Simulation time: 00 hr 22 min 23 sec)
Heartbeat CPU 0 instructions: 181001052 cycles: 145664405 heartbeat IPC: 0.8497 cumulative IPC: 0.9879 (Simulation time: 00 hr 22 min 28 sec)
Heartbeat CPU 0 instructions: 181501056 cycles: 146235567 heartbeat IPC: 0.8754 cumulative IPC: 0.9874 (Simulation time: 00 hr 22 min 32 sec)
Heartbeat CPU 0 instructions: 182001056 cycles: 146800629 heartbeat IPC: 0.8849 cumulative IPC: 0.987 (Simulation time: 00 hr 22 min 37 sec)
Heartbeat CPU 0 instructions: 182501056 cycles: 147461685 heartbeat IPC: 0.7564 cumulative IPC: 0.9858 (Simulation time: 00 hr 22 min 42 sec)
Heartbeat CPU 0 instructions: 183001056 cycles: 148091034 heartbeat IPC: 0.7945 cumulative IPC: 0.9849 (Simulation time: 00 hr 22 min 48 sec)
Heartbeat CPU 0 instructions: 183501061 cycles: 148748920 heartbeat IPC: 0.76 cumulative IPC: 0.9839 (Simulation time: 00 hr 22 min 53 sec)
Heartbeat CPU 0 instructions: 184001063 cycles: 149292637 heartbeat IPC: 0.9196 cumulative IPC: 0.9836 (Simulation time: 00 hr 22 min 57 sec)
Heartbeat CPU 0 instructions: 184501064 cycles: 149740368 heartbeat IPC: 1.117 cumulative IPC: 0.984 (Simulation time: 00 hr 23 min 01 sec)
Heartbeat CPU 0 instructions: 185001069 cycles: 150087041 heartbeat IPC: 1.442 cumulative IPC: 0.9852 (Simulation time: 00 hr 23 min 04 sec)
Heartbeat CPU 0 instructions: 185501073 cycles: 150566831 heartbeat IPC: 1.042 cumulative IPC: 0.9854 (Simulation time: 00 hr 23 min 08 sec)
Heartbeat CPU 0 instructions: 186001077 cycles: 151108345 heartbeat IPC: 0.9233 cumulative IPC: 0.9852 (Simulation time: 00 hr 23 min 13 sec)
Heartbeat CPU 0 instructions: 186501080 cycles: 151658559 heartbeat IPC: 0.9087 cumulative IPC: 0.9848 (Simulation time: 00 hr 23 min 18 sec)
Heartbeat CPU 0 instructions: 187001085 cycles: 152269548 heartbeat IPC: 0.8184 cumulative IPC: 0.9841 (Simulation time: 00 hr 23 min 23 sec)
Heartbeat CPU 0 instructions: 187501088 cycles: 152847819 heartbeat IPC: 0.8647 cumulative IPC: 0.9836 (Simulation time: 00 hr 23 min 27 sec)
Heartbeat CPU 0 instructions: 188001088 cycles: 153438037 heartbeat IPC: 0.8471 cumulative IPC: 0.9831 (Simulation time: 00 hr 23 min 32 sec)
Heartbeat CPU 0 instructions: 188501091 cycles: 153949397 heartbeat IPC: 0.9778 cumulative IPC: 0.983 (Simulation time: 00 hr 23 min 36 sec)
Heartbeat CPU 0 instructions: 189001095 cycles: 154576986 heartbeat IPC: 0.7967 cumulative IPC: 0.9822 (Simulation time: 00 hr 23 min 41 sec)
Heartbeat CPU 0 instructions: 189501097 cycles: 155162827 heartbeat IPC: 0.8535 cumulative IPC: 0.9817 (Simulation time: 00 hr 23 min 46 sec)
Heartbeat CPU 0 instructions: 190001100 cycles: 155708344 heartbeat IPC: 0.9166 cumulative IPC: 0.9814 (Simulation time: 00 hr 23 min 50 sec)
Heartbeat CPU 0 instructions: 190501105 cycles: 156162360 heartbeat IPC: 1.101 cumulative IPC: 0.9818 (Simulation time: 00 hr 23 min 54 sec)
Heartbeat CPU 0 instructions: 191001108 cycles: 156473028 heartbeat IPC: 1.609 cumulative IPC: 0.9832 (Simulation time: 00 hr 23 min 57 sec)
Heartbeat CPU 0 instructions: 191501111 cycles: 157100540 heartbeat IPC: 0.7968 cumulative IPC: 0.9824 (Simulation time: 00 hr 24 min 02 sec)
Heartbeat CPU 0 instructions: 192001111 cycles: 157716405 heartbeat IPC: 0.8119 cumulative IPC: 0.9816 (Simulation time: 00 hr 24 min 07 sec)
Heartbeat CPU 0 instructions: 192501111 cycles: 157866784 heartbeat IPC: 3.325 cumulative IPC: 0.9841 (Simulation time: 00 hr 24 min 08 sec)
Heartbeat CPU 0 instructions: 193001115 cycles: 158014158 heartbeat IPC: 3.393 cumulative IPC: 0.9865 (Simulation time: 00 hr 24 min 10 sec)
Heartbeat CPU 0 instructions: 193501120 cycles: 158161347 heartbeat IPC: 3.397 cumulative IPC: 0.989 (Simulation time: 00 hr 24 min 11 sec)
Heartbeat CPU 0 instructions: 194001121 cycles: 158309141 heartbeat IPC: 3.383 cumulative IPC: 0.9914 (Simulation time: 00 hr 24 min 13 sec)
Heartbeat CPU 0 instructions: 194501128 cycles: 158455802 heartbeat IPC: 3.409 cumulative IPC: 0.9938 (Simulation time: 00 hr 24 min 15 sec)
Heartbeat CPU 0 instructions: 195001129 cycles: 158602127 heartbeat IPC: 3.417 cumulative IPC: 0.9963 (Simulation time: 00 hr 24 min 16 sec)
Heartbeat CPU 0 instructions: 195501133 cycles: 158750720 heartbeat IPC: 3.365 cumulative IPC: 0.9987 (Simulation time: 00 hr 24 min 18 sec)
Heartbeat CPU 0 instructions: 196001140 cycles: 158896660 heartbeat IPC: 3.426 cumulative IPC: 1.001 (Simulation time: 00 hr 24 min 19 sec)
Heartbeat CPU 0 instructions: 196501140 cycles: 159043048 heartbeat IPC: 3.416 cumulative IPC: 1.004 (Simulation time: 00 hr 24 min 21 sec)
Heartbeat CPU 0 instructions: 197001145 cycles: 159188870 heartbeat IPC: 3.429 cumulative IPC: 1.006 (Simulation time: 00 hr 24 min 22 sec)
Heartbeat CPU 0 instructions: 197501149 cycles: 159334665 heartbeat IPC: 3.43 cumulative IPC: 1.008 (Simulation time: 00 hr 24 min 24 sec)
Heartbeat CPU 0 instructions: 198001149 cycles: 159493598 heartbeat IPC: 3.146 cumulative IPC: 1.011 (Simulation time: 00 hr 24 min 25 sec)
Heartbeat CPU 0 instructions: 198501150 cycles: 159639796 heartbeat IPC: 3.42 cumulative IPC: 1.013 (Simulation time: 00 hr 24 min 27 sec)
Heartbeat CPU 0 instructions: 199001153 cycles: 159786725 heartbeat IPC: 3.403 cumulative IPC: 1.015 (Simulation time: 00 hr 24 min 28 sec)
Heartbeat CPU 0 instructions: 199501157 cycles: 159933540 heartbeat IPC: 3.406 cumulative IPC: 1.018 (Simulation time: 00 hr 24 min 30 sec)
Heartbeat CPU 0 instructions: 200001159 cycles: 160081160 heartbeat IPC: 3.387 cumulative IPC: 1.02 (Simulation time: 00 hr 24 min 31 sec)
Heartbeat CPU 0 instructions: 200501163 cycles: 160228692 heartbeat IPC: 3.389 cumulative IPC: 1.023 (Simulation time: 00 hr 24 min 33 sec)
Heartbeat CPU 0 instructions: 201001165 cycles: 160376300 heartbeat IPC: 3.387 cumulative IPC: 1.025 (Simulation time: 00 hr 24 min 34 sec)
Heartbeat CPU 0 instructions: 201501167 cycles: 160523722 heartbeat IPC: 3.392 cumulative IPC: 1.027 (Simulation time: 00 hr 24 min 36 sec)
Heartbeat CPU 0 instructions: 202001168 cycles: 160672274 heartbeat IPC: 3.366 cumulative IPC: 1.03 (Simulation time: 00 hr 24 min 37 sec)
Heartbeat CPU 0 instructions: 202501171 cycles: 160829034 heartbeat IPC: 3.19 cumulative IPC: 1.032 (Simulation time: 00 hr 24 min 39 sec)
Heartbeat CPU 0 instructions: 203001173 cycles: 160983283 heartbeat IPC: 3.242 cumulative IPC: 1.034 (Simulation time: 00 hr 24 min 41 sec)
Heartbeat CPU 0 instructions: 203501177 cycles: 161133610 heartbeat IPC: 3.326 cumulative IPC: 1.037 (Simulation time: 00 hr 24 min 42 sec)
Heartbeat CPU 0 instructions: 204001177 cycles: 161284053 heartbeat IPC: 3.324 cumulative IPC: 1.039 (Simulation time: 00 hr 24 min 44 sec)
Heartbeat CPU 0 instructions: 204501177 cycles: 161442153 heartbeat IPC: 3.163 cumulative IPC: 1.041 (Simulation time: 00 hr 24 min 45 sec)
Heartbeat CPU 0 instructions: 205001181 cycles: 161745822 heartbeat IPC: 1.647 cumulative IPC: 1.042 (Simulation time: 00 hr 24 min 48 sec)
Heartbeat CPU 0 instructions: 205501184 cycles: 162229069 heartbeat IPC: 1.035 cumulative IPC: 1.042 (Simulation time: 00 hr 24 min 52 sec)
Heartbeat CPU 0 instructions: 206001185 cycles: 162792109 heartbeat IPC: 0.888 cumulative IPC: 1.042 (Simulation time: 00 hr 24 min 56 sec)
Heartbeat CPU 0 instructions: 206501186 cycles: 163360501 heartbeat IPC: 0.8797 cumulative IPC: 1.041 (Simulation time: 00 hr 25 min 01 sec)
Heartbeat CPU 0 instructions: 207001188 cycles: 163908777 heartbeat IPC: 0.912 cumulative IPC: 1.041 (Simulation time: 00 hr 25 min 05 sec)
Heartbeat CPU 0 instructions: 207501195 cycles: 164513759 heartbeat IPC: 0.8265 cumulative IPC: 1.04 (Simulation time: 00 hr 25 min 10 sec)
Heartbeat CPU 0 instructions: 208001199 cycles: 165106673 heartbeat IPC: 0.8433 cumulative IPC: 1.039 (Simulation time: 00 hr 25 min 15 sec)
Heartbeat CPU 0 instructions: 208501201 cycles: 165673005 heartbeat IPC: 0.8829 cumulative IPC: 1.039 (Simulation time: 00 hr 25 min 20 sec)
Heartbeat CPU 0 instructions: 209001204 cycles: 166312154 heartbeat IPC: 0.7823 cumulative IPC: 1.037 (Simulation time: 00 hr 25 min 25 sec)
Heartbeat CPU 0 instructions: 209501204 cycles: 166901551 heartbeat IPC: 0.8483 cumulative IPC: 1.037 (Simulation time: 00 hr 25 min 30 sec)
Heartbeat CPU 0 instructions: 210001204 cycles: 167500629 heartbeat IPC: 0.8346 cumulative IPC: 1.036 (Simulation time: 00 hr 25 min 35 sec)
Heartbeat CPU 0 instructions: 210501208 cycles: 168041433 heartbeat IPC: 0.9246 cumulative IPC: 1.036 (Simulation time: 00 hr 25 min 39 sec)
Heartbeat CPU 0 instructions: 211001209 cycles: 168344263 heartbeat IPC: 1.651 cumulative IPC: 1.037 (Simulation time: 00 hr 25 min 42 sec)
Heartbeat CPU 0 instructions: 211501213 cycles: 168627115 heartbeat IPC: 1.768 cumulative IPC: 1.038 (Simulation time: 00 hr 25 min 44 sec)
Heartbeat CPU 0 instructions: 212001213 cycles: 169080104 heartbeat IPC: 1.104 cumulative IPC: 1.038 (Simulation time: 00 hr 25 min 48 sec)
Heartbeat CPU 0 instructions: 212501215 cycles: 169578543 heartbeat IPC: 1.003 cumulative IPC: 1.038 (Simulation time: 00 hr 25 min 52 sec)
Heartbeat CPU 0 instructions: 213001220 cycles: 169896935 heartbeat IPC: 1.57 cumulative IPC: 1.039 (Simulation time: 00 hr 25 min 55 sec)
Heartbeat CPU 0 instructions: 213501223 cycles: 170170976 heartbeat IPC: 1.825 cumulative IPC: 1.041 (Simulation time: 00 hr 25 min 57 sec)
Heartbeat CPU 0 instructions: 214001223 cycles: 170353066 heartbeat IPC: 2.746 cumulative IPC: 1.043 (Simulation time: 00 hr 25 min 59 sec)
Heartbeat CPU 0 instructions: 214501228 cycles: 170645521 heartbeat IPC: 1.71 cumulative IPC: 1.044 (Simulation time: 00 hr 26 min 02 sec)
Heartbeat CPU 0 instructions: 215001228 cycles: 171061332 heartbeat IPC: 1.202 cumulative IPC: 1.044 (Simulation time: 00 hr 26 min 05 sec)
Heartbeat CPU 0 instructions: 215501232 cycles: 171609610 heartbeat IPC: 0.912 cumulative IPC: 1.044 (Simulation time: 00 hr 26 min 10 sec)
Heartbeat CPU 0 instructions: 216001233 cycles: 172222618 heartbeat IPC: 0.8157 cumulative IPC: 1.043 (Simulation time: 00 hr 26 min 14 sec)
Heartbeat CPU 0 instructions: 216501235 cycles: 172692862 heartbeat IPC: 1.063 cumulative IPC: 1.043 (Simulation time: 00 hr 26 min 18 sec)
Heartbeat CPU 0 instructions: 217001235 cycles: 173246721 heartbeat IPC: 0.9028 cumulative IPC: 1.043 (Simulation time: 00 hr 26 min 23 sec)
Heartbeat CPU 0 instructions: 217501237 cycles: 173866865 heartbeat IPC: 0.8063 cumulative IPC: 1.042 (Simulation time: 00 hr 26 min 28 sec)
Heartbeat CPU 0 instructions: 218001239 cycles: 174508316 heartbeat IPC: 0.7795 cumulative IPC: 1.041 (Simulation time: 00 hr 26 min 33 sec)
Heartbeat CPU 0 instructions: 218501240 cycles: 175119786 heartbeat IPC: 0.8177 cumulative IPC: 1.04 (Simulation time: 00 hr 26 min 38 sec)
Heartbeat CPU 0 instructions: 219001247 cycles: 175563785 heartbeat IPC: 1.126 cumulative IPC: 1.04 (Simulation time: 00 hr 26 min 41 sec)
Heartbeat CPU 0 instructions: 219501252 cycles: 176017765 heartbeat IPC: 1.101 cumulative IPC: 1.04 (Simulation time: 00 hr 26 min 45 sec)
Heartbeat CPU 0 instructions: 220001257 cycles: 176454256 heartbeat IPC: 1.146 cumulative IPC: 1.04 (Simulation time: 00 hr 26 min 48 sec)
Heartbeat CPU 0 instructions: 220501259 cycles: 176881969 heartbeat IPC: 1.169 cumulative IPC: 1.041 (Simulation time: 00 hr 26 min 52 sec)
Heartbeat CPU 0 instructions: 221001263 cycles: 177372804 heartbeat IPC: 1.019 cumulative IPC: 1.041 (Simulation time: 00 hr 26 min 56 sec)
Heartbeat CPU 0 instructions: 221501264 cycles: 177935091 heartbeat IPC: 0.8892 cumulative IPC: 1.04 (Simulation time: 00 hr 27 min 00 sec)
Heartbeat CPU 0 instructions: 222001268 cycles: 178393225 heartbeat IPC: 1.091 cumulative IPC: 1.04 (Simulation time: 00 hr 27 min 04 sec)
Heartbeat CPU 0 instructions: 222501271 cycles: 179047748 heartbeat IPC: 0.7639 cumulative IPC: 1.039 (Simulation time: 00 hr 27 min 09 sec)
Heartbeat CPU 0 instructions: 223001272 cycles: 179551958 heartbeat IPC: 0.9917 cumulative IPC: 1.039 (Simulation time: 00 hr 27 min 13 sec)
Heartbeat CPU 0 instructions: 223501272 cycles: 180030601 heartbeat IPC: 1.045 cumulative IPC: 1.039 (Simulation time: 00 hr 27 min 17 sec)
Heartbeat CPU 0 instructions: 224001277 cycles: 180589549 heartbeat IPC: 0.8945 cumulative IPC: 1.039 (Simulation time: 00 hr 27 min 21 sec)
Heartbeat CPU 0 instructions: 224501278 cycles: 181159439 heartbeat IPC: 0.8774 cumulative IPC: 1.038 (Simulation time: 00 hr 27 min 26 sec)
Heartbeat CPU 0 instructions: 225001280 cycles: 181757234 heartbeat IPC: 0.8364 cumulative IPC: 1.037 (Simulation time: 00 hr 27 min 30 sec)
Heartbeat CPU 0 instructions: 225501280 cycles: 182354836 heartbeat IPC: 0.8367 cumulative IPC: 1.037 (Simulation time: 00 hr 27 min 35 sec)
Heartbeat CPU 0 instructions: 226001282 cycles: 182947178 heartbeat IPC: 0.8441 cumulative IPC: 1.036 (Simulation time: 00 hr 27 min 40 sec)
Heartbeat CPU 0 instructions: 226501288 cycles: 183590426 heartbeat IPC: 0.7773 cumulative IPC: 1.035 (Simulation time: 00 hr 27 min 45 sec)
Heartbeat CPU 0 instructions: 227001293 cycles: 184122921 heartbeat IPC: 0.939 cumulative IPC: 1.035 (Simulation time: 00 hr 27 min 49 sec)
Heartbeat CPU 0 instructions: 227501295 cycles: 184540221 heartbeat IPC: 1.198 cumulative IPC: 1.035 (Simulation time: 00 hr 27 min 52 sec)
Heartbeat CPU 0 instructions: 228001296 cycles: 184982082 heartbeat IPC: 1.132 cumulative IPC: 1.035 (Simulation time: 00 hr 27 min 56 sec)
Heartbeat CPU 0 instructions: 228501299 cycles: 185448065 heartbeat IPC: 1.073 cumulative IPC: 1.035 (Simulation time: 00 hr 27 min 59 sec)
Heartbeat CPU 0 instructions: 229001299 cycles: 185944906 heartbeat IPC: 1.006 cumulative IPC: 1.035 (Simulation time: 00 hr 28 min 03 sec)
Heartbeat CPU 0 instructions: 229501304 cycles: 186481666 heartbeat IPC: 0.9315 cumulative IPC: 1.035 (Simulation time: 00 hr 28 min 07 sec)
Heartbeat CPU 0 instructions: 230001308 cycles: 187015351 heartbeat IPC: 0.9369 cumulative IPC: 1.035 (Simulation time: 00 hr 28 min 12 sec)
Heartbeat CPU 0 instructions: 230501309 cycles: 187511427 heartbeat IPC: 1.008 cumulative IPC: 1.035 (Simulation time: 00 hr 28 min 15 sec)
Heartbeat CPU 0 instructions: 231001312 cycles: 187998110 heartbeat IPC: 1.027 cumulative IPC: 1.035 (Simulation time: 00 hr 28 min 19 sec)
Heartbeat CPU 0 instructions: 231501312 cycles: 188444890 heartbeat IPC: 1.119 cumulative IPC: 1.035 (Simulation time: 00 hr 28 min 23 sec)
Heartbeat CPU 0 instructions: 232001313 cycles: 188722080 heartbeat IPC: 1.804 cumulative IPC: 1.036 (Simulation time: 00 hr 28 min 25 sec)
Heartbeat CPU 0 instructions: 232501315 cycles: 189091909 heartbeat IPC: 1.352 cumulative IPC: 1.037 (Simulation time: 00 hr 28 min 28 sec)
Heartbeat CPU 0 instructions: 233001319 cycles: 189462894 heartbeat IPC: 1.348 cumulative IPC: 1.037 (Simulation time: 00 hr 28 min 31 sec)
Heartbeat CPU 0 instructions: 233501319 cycles: 189859096 heartbeat IPC: 1.262 cumulative IPC: 1.038 (Simulation time: 00 hr 28 min 35 sec)
Heartbeat CPU 0 instructions: 234001323 cycles: 190011840 heartbeat IPC: 3.273 cumulative IPC: 1.04 (Simulation time: 00 hr 28 min 36 sec)
Heartbeat CPU 0 instructions: 234501324 cycles: 190161190 heartbeat IPC: 3.348 cumulative IPC: 1.042 (Simulation time: 00 hr 28 min 37 sec)
Heartbeat CPU 0 instructions: 235001327 cycles: 190359113 heartbeat IPC: 2.526 cumulative IPC: 1.043 (Simulation time: 00 hr 28 min 39 sec)
Heartbeat CPU 0 instructions: 235501332 cycles: 190842588 heartbeat IPC: 1.034 cumulative IPC: 1.043 (Simulation time: 00 hr 28 min 43 sec)
Heartbeat CPU 0 instructions: 236001332 cycles: 191443785 heartbeat IPC: 0.8317 cumulative IPC: 1.043 (Simulation time: 00 hr 28 min 48 sec)
Heartbeat CPU 0 instructions: 236501333 cycles: 191978333 heartbeat IPC: 0.9354 cumulative IPC: 1.042 (Simulation time: 00 hr 28 min 52 sec)
Heartbeat CPU 0 instructions: 237001333 cycles: 192604285 heartbeat IPC: 0.7988 cumulative IPC: 1.042 (Simulation time: 00 hr 28 min 57 sec)
Heartbeat CPU 0 instructions: 237501334 cycles: 193179168 heartbeat IPC: 0.8697 cumulative IPC: 1.041 (Simulation time: 00 hr 29 min 01 sec)
Heartbeat CPU 0 instructions: 238001339 cycles: 193759798 heartbeat IPC: 0.8611 cumulative IPC: 1.04 (Simulation time: 00 hr 29 min 06 sec)
Heartbeat CPU 0 instructions: 238501343 cycles: 194428281 heartbeat IPC: 0.748 cumulative IPC: 1.039 (Simulation time: 00 hr 29 min 11 sec)
Heartbeat CPU 0 instructions: 239001345 cycles: 195018201 heartbeat IPC: 0.8476 cumulative IPC: 1.039 (Simulation time: 00 hr 29 min 15 sec)
Heartbeat CPU 0 instructions: 239501352 cycles: 195547771 heartbeat IPC: 0.9442 cumulative IPC: 1.038 (Simulation time: 00 hr 29 min 19 sec)
Heartbeat CPU 0 instructions: 240001352 cycles: 196257896 heartbeat IPC: 0.7041 cumulative IPC: 1.037 (Simulation time: 00 hr 29 min 24 sec)
Heartbeat CPU 0 instructions: 240501355 cycles: 196903248 heartbeat IPC: 0.7748 cumulative IPC: 1.036 (Simulation time: 00 hr 29 min 29 sec)
Heartbeat CPU 0 instructions: 241001360 cycles: 197517214 heartbeat IPC: 0.8144 cumulative IPC: 1.035 (Simulation time: 00 hr 29 min 34 sec)
Heartbeat CPU 0 instructions: 241501364 cycles: 198017920 heartbeat IPC: 0.9986 cumulative IPC: 1.035 (Simulation time: 00 hr 29 min 38 sec)
Heartbeat CPU 0 instructions: 242001368 cycles: 198453824 heartbeat IPC: 1.147 cumulative IPC: 1.036 (Simulation time: 00 hr 29 min 41 sec)
Heartbeat CPU 0 instructions: 242501368 cycles: 198875113 heartbeat IPC: 1.187 cumulative IPC: 1.036 (Simulation time: 00 hr 29 min 45 sec)
Heartbeat CPU 0 instructions: 243001371 cycles: 199512535 heartbeat IPC: 0.7844 cumulative IPC: 1.035 (Simulation time: 00 hr 29 min 49 sec)
Heartbeat CPU 0 instructions: 243501376 cycles: 200131309 heartbeat IPC: 0.8081 cumulative IPC: 1.034 (Simulation time: 00 hr 29 min 54 sec)
Heartbeat CPU 0 instructions: 244001376 cycles: 200719748 heartbeat IPC: 0.8497 cumulative IPC: 1.034 (Simulation time: 00 hr 29 min 59 sec)
Heartbeat CPU 0 instructions: 244501376 cycles: 201329916 heartbeat IPC: 0.8194 cumulative IPC: 1.033 (Simulation time: 00 hr 30 min 03 sec)
Heartbeat CPU 0 instructions: 245001380 cycles: 201843532 heartbeat IPC: 0.9735 cumulative IPC: 1.033 (Simulation time: 00 hr 30 min 07 sec)
Heartbeat CPU 0 instructions: 245501384 cycles: 202413829 heartbeat IPC: 0.8767 cumulative IPC: 1.032 (Simulation time: 00 hr 30 min 12 sec)
Heartbeat CPU 0 instructions: 246001385 cycles: 202961462 heartbeat IPC: 0.913 cumulative IPC: 1.032 (Simulation time: 00 hr 30 min 16 sec)
Heartbeat CPU 0 instructions: 246501388 cycles: 203418332 heartbeat IPC: 1.094 cumulative IPC: 1.032 (Simulation time: 00 hr 30 min 19 sec)
Heartbeat CPU 0 instructions: 247001392 cycles: 204007522 heartbeat IPC: 0.8486 cumulative IPC: 1.032 (Simulation time: 00 hr 30 min 24 sec)
Heartbeat CPU 0 instructions: 247501396 cycles: 204595901 heartbeat IPC: 0.8498 cumulative IPC: 1.031 (Simulation time: 00 hr 30 min 28 sec)
Heartbeat CPU 0 instructions: 248001398 cycles: 205138830 heartbeat IPC: 0.9209 cumulative IPC: 1.031 (Simulation time: 00 hr 30 min 32 sec)
Heartbeat CPU 0 instructions: 248501403 cycles: 205550352 heartbeat IPC: 1.215 cumulative IPC: 1.031 (Simulation time: 00 hr 30 min 36 sec)
Heartbeat CPU 0 instructions: 249001404 cycles: 205720967 heartbeat IPC: 2.931 cumulative IPC: 1.033 (Simulation time: 00 hr 30 min 37 sec)
Heartbeat CPU 0 instructions: 249501408 cycles: 206121204 heartbeat IPC: 1.249 cumulative IPC: 1.033 (Simulation time: 00 hr 30 min 40 sec)
*** Reached end of trace: (0, "/local-ssd/ben/dpc4-traces/Graph/Ligra/ligra_CF.com-lj.ungraph.gcc_6.3.0_O3.drop_184750M.length_250M.champsimtrace.xz")
Simulation finished CPU 0 instructions: 200000003 cycles: 193541322 cumulative IPC: 1.033 (Simulation time: 00 hr 30 min 44 sec)
Simulation complete CPU 0 instructions: 200000003 cycles: 193541322 cumulative IPC: 1.033 (Simulation time: 00 hr 30 min 44 sec)

ChampSim completed all CPUs

=== Simulation ===
CPU 0 runs /local-ssd/ben/dpc4-traces/Graph/Ligra/ligra_CF.com-lj.ungraph.gcc_6.3.0_O3.drop_184750M.length_250M.champsimtrace.xz

Region of Interest Statistics

CPU 0 cumulative IPC: 1.033 instructions: 200000003 cycles: 193541322
CPU 0 Branch Prediction Accuracy: 94.25% MPKI: 7.977 Average ROB Occupancy at Mispredict: 119.6
Branch type MPKI
BRANCH_DIRECT_JUMP: 0
BRANCH_INDIRECT: 0
BRANCH_CONDITIONAL: 7.977
BRANCH_DIRECT_CALL: 0
BRANCH_INDIRECT_CALL: 0
BRANCH_RETURN: 0

cpu0->cpu0_STLB TOTAL        ACCESS:     657867 HIT:     333512 MISS:     324355 MSHR_MERGE:          0
cpu0->cpu0_STLB LOAD         ACCESS:     657867 HIT:     333512 MISS:     324355 MSHR_MERGE:          0
cpu0->cpu0_STLB RFO          ACCESS:          0 HIT:          0 MISS:          0 MSHR_MERGE:          0
cpu0->cpu0_STLB PREFETCH     ACCESS:          0 HIT:          0 MISS:          0 MSHR_MERGE:          0
cpu0->cpu0_STLB WRITE        ACCESS:          0 HIT:          0 MISS:          0 MSHR_MERGE:          0
cpu0->cpu0_STLB TRANSLATION  ACCESS:          0 HIT:          0 MISS:          0 MSHR_MERGE:          0
cpu0->cpu0_STLB PREFETCH REQUESTED:          0 ISSUED:          0 USEFUL:          0 USELESS:          0
cpu0->cpu0_STLB AVERAGE MISS LATENCY: 194.2 cycles
cpu0->cpu0_L2C TOTAL        ACCESS:    8692376 HIT:    4390176 MISS:    4302200 MSHR_MERGE:    1548254
cpu0->cpu0_L2C LOAD         ACCESS:    1460576 HIT:     306925 MISS:    1153651 MSHR_MERGE:      70129
cpu0->cpu0_L2C RFO          ACCESS:          0 HIT:          0 MISS:          0 MSHR_MERGE:          0
cpu0->cpu0_L2C PREFETCH     ACCESS:    6632947 HIT:    3658416 MISS:    2974531 MSHR_MERGE:    1478125
cpu0->cpu0_L2C WRITE        ACCESS:     287425 HIT:     287425 MISS:          0 MSHR_MERGE:          0
cpu0->cpu0_L2C TRANSLATION  ACCESS:     311428 HIT:     137410 MISS:     174018 MSHR_MERGE:          0
cpu0->cpu0_L2C PREFETCH REQUESTED:    5857971 ISSUED:    5769891 USEFUL:     812738 USELESS:     526188
cpu0->cpu0_L2C AVERAGE MISS LATENCY: 240.7 cycles
cpu0->cpu0_L1I TOTAL        ACCESS:    2694993 HIT:    2694993 MISS:          0 MSHR_MERGE:          0
cpu0->cpu0_L1I LOAD         ACCESS:    2694993 HIT:    2694993 MISS:          0 MSHR_MERGE:          0
cpu0->cpu0_L1I RFO          ACCESS:          0 HIT:          0 MISS:          0 MSHR_MERGE:          0
cpu0->cpu0_L1I PREFETCH     ACCESS:          0 HIT:          0 MISS:          0 MSHR_MERGE:          0
cpu0->cpu0_L1I WRITE        ACCESS:          0 HIT:          0 MISS:          0 MSHR_MERGE:          0
cpu0->cpu0_L1I TRANSLATION  ACCESS:          0 HIT:          0 MISS:          0 MSHR_MERGE:          0
cpu0->cpu0_L1I PREFETCH REQUESTED:          0 ISSUED:          0 USEFUL:          0 USELESS:          0
cpu0->cpu0_L1I AVERAGE MISS LATENCY: - cycles
cpu0->cpu0_L1D TOTAL        ACCESS:   42161300 HIT:   35312417 MISS:    6848883 MSHR_MERGE:    4213816
cpu0->cpu0_L1D LOAD         ACCESS:   30932872 HIT:   25308854 MISS:    5624018 MSHR_MERGE:    4163442
cpu0->cpu0_L1D RFO          ACCESS:          0 HIT:          0 MISS:          0 MSHR_MERGE:          0
cpu0->cpu0_L1D PREFETCH     ACCESS:    1195054 HIT:     286206 MISS:     908848 MSHR_MERGE:      45785
cpu0->cpu0_L1D WRITE        ACCESS:    9197283 HIT:    9197283 MISS:          0 MSHR_MERGE:          0
cpu0->cpu0_L1D TRANSLATION  ACCESS:     836091 HIT:     520074 MISS:     316017 MSHR_MERGE:       4589
cpu0->cpu0_L1D PREFETCH REQUESTED:    1195306 ISSUED:    1195054 USEFUL:     667708 USELESS:     195322
cpu0->cpu0_L1D AVERAGE MISS LATENCY: 187.7 cycles
cpu0->cpu0_ITLB TOTAL        ACCESS:    2694992 HIT:    2694992 MISS:          0 MSHR_MERGE:          0
cpu0->cpu0_ITLB LOAD         ACCESS:    2694992 HIT:    2694992 MISS:          0 MSHR_MERGE:          0
cpu0->cpu0_ITLB RFO          ACCESS:          0 HIT:          0 MISS:          0 MSHR_MERGE:          0
cpu0->cpu0_ITLB PREFETCH     ACCESS:          0 HIT:          0 MISS:          0 MSHR_MERGE:          0
cpu0->cpu0_ITLB WRITE        ACCESS:          0 HIT:          0 MISS:          0 MSHR_MERGE:          0
cpu0->cpu0_ITLB TRANSLATION  ACCESS:          0 HIT:          0 MISS:          0 MSHR_MERGE:          0
cpu0->cpu0_ITLB PREFETCH REQUESTED:          0 ISSUED:          0 USEFUL:          0 USELESS:          0
cpu0->cpu0_ITLB AVERAGE MISS LATENCY: - cycles
cpu0->cpu0_DTLB TOTAL        ACCESS:   38016541 HIT:   34861267 MISS:    3155274 MSHR_MERGE:    2497407
cpu0->cpu0_DTLB LOAD         ACCESS:   38016541 HIT:   34861267 MISS:    3155274 MSHR_MERGE:    2497407
cpu0->cpu0_DTLB RFO          ACCESS:          0 HIT:          0 MISS:          0 MSHR_MERGE:          0
cpu0->cpu0_DTLB PREFETCH     ACCESS:          0 HIT:          0 MISS:          0 MSHR_MERGE:          0
cpu0->cpu0_DTLB WRITE        ACCESS:          0 HIT:          0 MISS:          0 MSHR_MERGE:          0
cpu0->cpu0_DTLB TRANSLATION  ACCESS:          0 HIT:          0 MISS:          0 MSHR_MERGE:          0
cpu0->cpu0_DTLB PREFETCH REQUESTED:          0 ISSUED:          0 USEFUL:          0 USELESS:          0
cpu0->cpu0_DTLB AVERAGE MISS LATENCY: 101.2 cycles
cpu0->LLC TOTAL        ACCESS:    5472602 HIT:     977940 MISS:    4494662 MSHR_MERGE:     839010
cpu0->LLC LOAD         ACCESS:    1083522 HIT:      55212 MISS:    1028310 MSHR_MERGE:       1037
cpu0->LLC RFO          ACCESS:          0 HIT:          0 MISS:          0 MSHR_MERGE:          0
cpu0->LLC PREFETCH     ACCESS:    3927817 HIT:     699135 MISS:    3228682 MSHR_MERGE:     837973
cpu0->LLC WRITE        ACCESS:     287246 HIT:     219774 MISS:      67472 MSHR_MERGE:          0
cpu0->LLC TRANSLATION  ACCESS:     174017 HIT:       3819 MISS:     170198 MSHR_MERGE:          0
cpu0->LLC PREFETCH REQUESTED:    2434333 ISSUED:    2431411 USEFUL:     572984 USELESS:     883124
cpu0->LLC AVERAGE MISS LATENCY: 220.1 cycles

DRAM Statistics

Channel 0 RQ ROW_BUFFER_HIT:      62402
  ROW_BUFFER_MISS:    3525778
  AVG DBUS CONGESTED CYCLE: 15.19
Channel 0 WQ ROW_BUFFER_HIT:      91302
  ROW_BUFFER_MISS:     196164
  FULL:          0
Channel 0 REFRESHES ISSUED:      16127
