[VMEM] WARNING: physical memory size is smaller than virtual memory size.

*** ChampSim Multicore Out-of-Order Simulator ***
Warmup Instructions: 50000000
Simulation Instructions: 200000000
Number of CPUs: 1
Page size: 4096
Core 0: /local-ssd/ben/dpc4-traces/gtraces_v2/tango_0003.champsim.gz
 L1D Berti prefetcher
Off-chip DRAM Size: 64 GiB Channels: 1 Width: 64-bit Data Rate: 4807 MT/s
[BTB] WARNING: target of return is a lower address than the corresponding call. This is usually a problem with your trace.
[BTB] WARNING: target of return is a lower address than the corresponding call. This is usually a problem with your trace.
[BTB] WARNING: target of return is a lower address than the corresponding call. This is usually a problem with your trace.
Heartbeat CPU 0 instructions: 500004 cycles: 251241 heartbeat IPC: 1.99 cumulative IPC: 1.99 (Simulation time: 00 hr 00 min 03 sec)
[BTB] WARNING: target of return is a lower address than the corresponding call. This is usually a problem with your trace.
[BTB] WARNING: target of return is a lower address than the corresponding call. This is usually a problem with your trace.
[BTB] WARNING: target of return is a lower address than the corresponding call. This is usually a problem with your trace.
[BTB] WARNING: target of return is a lower address than the corresponding call. This is usually a problem with your trace.
[BTB] WARNING: target of return is a lower address than the corresponding call. This is usually a problem with your trace.
[BTB] WARNING: target of return is a lower address than the corresponding call. This is usually a problem with your trace.
[BTB] WARNING: target of return is a lower address than the corresponding call. This is usually a problem with your trace.
Heartbeat CPU 0 instructions: 1000008 cycles: 386684 heartbeat IPC: 3.692 cumulative IPC: 2.586 (Simulation time: 00 hr 00 min 05 sec)
Heartbeat CPU 0 instructions: 1500015 cycles: 490633 heartbeat IPC: 4.81 cumulative IPC: 3.057 (Simulation time: 00 hr 00 min 07 sec)
Heartbeat CPU 0 instructions: 2000020 cycles: 674409 heartbeat IPC: 2.721 cumulative IPC: 2.966 (Simulation time: 00 hr 00 min 10 sec)
Heartbeat CPU 0 instructions: 2500027 cycles: 865246 heartbeat IPC: 2.62 cumulative IPC: 2.889 (Simulation time: 00 hr 00 min 13 sec)
Heartbeat CPU 0 instructions: 3000028 cycles: 1056334 heartbeat IPC: 2.617 cumulative IPC: 2.84 (Simulation time: 00 hr 00 min 16 sec)
Heartbeat CPU 0 instructions: 3500034 cycles: 1223472 heartbeat IPC: 2.992 cumulative IPC: 2.861 (Simulation time: 00 hr 00 min 18 sec)
Heartbeat CPU 0 instructions: 4000038 cycles: 1392352 heartbeat IPC: 2.961 cumulative IPC: 2.873 (Simulation time: 00 hr 00 min 21 sec)
Heartbeat CPU 0 instructions: 4500038 cycles: 1592281 heartbeat IPC: 2.501 cumulative IPC: 2.826 (Simulation time: 00 hr 00 min 24 sec)
Heartbeat CPU 0 instructions: 5000043 cycles: 1737857 heartbeat IPC: 3.435 cumulative IPC: 2.877 (Simulation time: 00 hr 00 min 27 sec)
Heartbeat CPU 0 instructions: 5500050 cycles: 1908634 heartbeat IPC: 2.928 cumulative IPC: 2.882 (Simulation time: 00 hr 00 min 30 sec)
Heartbeat CPU 0 instructions: 6000056 cycles: 2057722 heartbeat IPC: 3.354 cumulative IPC: 2.916 (Simulation time: 00 hr 00 min 32 sec)
Heartbeat CPU 0 instructions: 6500057 cycles: 2181206 heartbeat IPC: 4.049 cumulative IPC: 2.98 (Simulation time: 00 hr 00 min 34 sec)
Heartbeat CPU 0 instructions: 7000062 cycles: 2283838 heartbeat IPC: 4.872 cumulative IPC: 3.065 (Simulation time: 00 hr 00 min 35 sec)
Heartbeat CPU 0 instructions: 7500063 cycles: 2387746 heartbeat IPC: 4.812 cumulative IPC: 3.141 (Simulation time: 00 hr 00 min 36 sec)
Heartbeat CPU 0 instructions: 8000064 cycles: 2495950 heartbeat IPC: 4.621 cumulative IPC: 3.205 (Simulation time: 00 hr 00 min 38 sec)
Heartbeat CPU 0 instructions: 8500069 cycles: 2599890 heartbeat IPC: 4.811 cumulative IPC: 3.269 (Simulation time: 00 hr 00 min 39 sec)
Heartbeat CPU 0 instructions: 9000071 cycles: 2709491 heartbeat IPC: 4.562 cumulative IPC: 3.322 (Simulation time: 00 hr 00 min 41 sec)
Heartbeat CPU 0 instructions: 9500077 cycles: 2871893 heartbeat IPC: 3.079 cumulative IPC: 3.308 (Simulation time: 00 hr 00 min 44 sec)
Heartbeat CPU 0 instructions: 10000084 cycles: 3016064 heartbeat IPC: 3.468 cumulative IPC: 3.316 (Simulation time: 00 hr 00 min 46 sec)
Heartbeat CPU 0 instructions: 10500090 cycles: 3159363 heartbeat IPC: 3.489 cumulative IPC: 3.323 (Simulation time: 00 hr 00 min 49 sec)
Heartbeat CPU 0 instructions: 11000095 cycles: 3298069 heartbeat IPC: 3.605 cumulative IPC: 3.335 (Simulation time: 00 hr 00 min 51 sec)
Heartbeat CPU 0 instructions: 11500102 cycles: 3442476 heartbeat IPC: 3.462 cumulative IPC: 3.341 (Simulation time: 00 hr 00 min 54 sec)
Heartbeat CPU 0 instructions: 12000106 cycles: 3587988 heartbeat IPC: 3.436 cumulative IPC: 3.345 (Simulation time: 00 hr 00 min 57 sec)
Heartbeat CPU 0 instructions: 12500110 cycles: 3736082 heartbeat IPC: 3.376 cumulative IPC: 3.346 (Simulation time: 00 hr 00 min 59 sec)
Heartbeat CPU 0 instructions: 13000110 cycles: 3883403 heartbeat IPC: 3.394 cumulative IPC: 3.348 (Simulation time: 00 hr 01 min 02 sec)
Heartbeat CPU 0 instructions: 13500116 cycles: 4022919 heartbeat IPC: 3.584 cumulative IPC: 3.356 (Simulation time: 00 hr 01 min 04 sec)
Heartbeat CPU 0 instructions: 14000121 cycles: 4184484 heartbeat IPC: 3.095 cumulative IPC: 3.346 (Simulation time: 00 hr 01 min 07 sec)
Heartbeat CPU 0 instructions: 14500124 cycles: 4353868 heartbeat IPC: 2.952 cumulative IPC: 3.33 (Simulation time: 00 hr 01 min 10 sec)
Heartbeat CPU 0 instructions: 15000125 cycles: 4487283 heartbeat IPC: 3.748 cumulative IPC: 3.343 (Simulation time: 00 hr 01 min 12 sec)
Heartbeat CPU 0 instructions: 15500128 cycles: 4628147 heartbeat IPC: 3.55 cumulative IPC: 3.349 (Simulation time: 00 hr 01 min 15 sec)
Heartbeat CPU 0 instructions: 16000129 cycles: 4773636 heartbeat IPC: 3.437 cumulative IPC: 3.352 (Simulation time: 00 hr 01 min 17 sec)
Heartbeat CPU 0 instructions: 16500130 cycles: 4910451 heartbeat IPC: 3.655 cumulative IPC: 3.36 (Simulation time: 00 hr 01 min 20 sec)
Heartbeat CPU 0 instructions: 17000133 cycles: 5050159 heartbeat IPC: 3.579 cumulative IPC: 3.366 (Simulation time: 00 hr 01 min 22 sec)
Heartbeat CPU 0 instructions: 17500134 cycles: 5190835 heartbeat IPC: 3.554 cumulative IPC: 3.371 (Simulation time: 00 hr 01 min 25 sec)
Heartbeat CPU 0 instructions: 18000138 cycles: 5331658 heartbeat IPC: 3.551 cumulative IPC: 3.376 (Simulation time: 00 hr 01 min 27 sec)
Heartbeat CPU 0 instructions: 18500144 cycles: 5467438 heartbeat IPC: 3.682 cumulative IPC: 3.384 (Simulation time: 00 hr 01 min 30 sec)
Heartbeat CPU 0 instructions: 19000147 cycles: 5609764 heartbeat IPC: 3.513 cumulative IPC: 3.387 (Simulation time: 00 hr 01 min 32 sec)
Heartbeat CPU 0 instructions: 19500151 cycles: 5773742 heartbeat IPC: 3.049 cumulative IPC: 3.377 (Simulation time: 00 hr 01 min 35 sec)
Heartbeat CPU 0 instructions: 20000151 cycles: 5899662 heartbeat IPC: 3.971 cumulative IPC: 3.39 (Simulation time: 00 hr 01 min 37 sec)
Heartbeat CPU 0 instructions: 20500155 cycles: 6017762 heartbeat IPC: 4.234 cumulative IPC: 3.407 (Simulation time: 00 hr 01 min 39 sec)
Heartbeat CPU 0 instructions: 21000158 cycles: 6167314 heartbeat IPC: 3.343 cumulative IPC: 3.405 (Simulation time: 00 hr 01 min 41 sec)
Heartbeat CPU 0 instructions: 21500161 cycles: 6311084 heartbeat IPC: 3.478 cumulative IPC: 3.407 (Simulation time: 00 hr 01 min 44 sec)
Heartbeat CPU 0 instructions: 22000163 cycles: 6437699 heartbeat IPC: 3.949 cumulative IPC: 3.417 (Simulation time: 00 hr 01 min 46 sec)
Heartbeat CPU 0 instructions: 22500166 cycles: 6559766 heartbeat IPC: 4.096 cumulative IPC: 3.43 (Simulation time: 00 hr 01 min 48 sec)
Heartbeat CPU 0 instructions: 23000167 cycles: 6711648 heartbeat IPC: 3.292 cumulative IPC: 3.427 (Simulation time: 00 hr 01 min 50 sec)
Heartbeat CPU 0 instructions: 23500169 cycles: 6863341 heartbeat IPC: 3.296 cumulative IPC: 3.424 (Simulation time: 00 hr 01 min 53 sec)
Heartbeat CPU 0 instructions: 24000174 cycles: 7014464 heartbeat IPC: 3.309 cumulative IPC: 3.422 (Simulation time: 00 hr 01 min 55 sec)
Heartbeat CPU 0 instructions: 24500176 cycles: 7171579 heartbeat IPC: 3.182 cumulative IPC: 3.416 (Simulation time: 00 hr 01 min 58 sec)
Heartbeat CPU 0 instructions: 25000183 cycles: 7321005 heartbeat IPC: 3.346 cumulative IPC: 3.415 (Simulation time: 00 hr 02 min 01 sec)
Heartbeat CPU 0 instructions: 25500183 cycles: 7463014 heartbeat IPC: 3.521 cumulative IPC: 3.417 (Simulation time: 00 hr 02 min 03 sec)
Heartbeat CPU 0 instructions: 26000184 cycles: 7580076 heartbeat IPC: 4.271 cumulative IPC: 3.43 (Simulation time: 00 hr 02 min 05 sec)
Heartbeat CPU 0 instructions: 26500185 cycles: 7709008 heartbeat IPC: 3.878 cumulative IPC: 3.438 (Simulation time: 00 hr 02 min 07 sec)
Heartbeat CPU 0 instructions: 27000186 cycles: 7835818 heartbeat IPC: 3.943 cumulative IPC: 3.446 (Simulation time: 00 hr 02 min 09 sec)
Heartbeat CPU 0 instructions: 27500189 cycles: 7990921 heartbeat IPC: 3.224 cumulative IPC: 3.441 (Simulation time: 00 hr 02 min 12 sec)
Heartbeat CPU 0 instructions: 28000194 cycles: 8129676 heartbeat IPC: 3.604 cumulative IPC: 3.444 (Simulation time: 00 hr 02 min 14 sec)
Heartbeat CPU 0 instructions: 28500199 cycles: 8271307 heartbeat IPC: 3.53 cumulative IPC: 3.446 (Simulation time: 00 hr 02 min 17 sec)
Heartbeat CPU 0 instructions: 29000203 cycles: 8417558 heartbeat IPC: 3.419 cumulative IPC: 3.445 (Simulation time: 00 hr 02 min 19 sec)
Heartbeat CPU 0 instructions: 29500206 cycles: 8556220 heartbeat IPC: 3.606 cumulative IPC: 3.448 (Simulation time: 00 hr 02 min 22 sec)
Heartbeat CPU 0 instructions: 30000213 cycles: 8693049 heartbeat IPC: 3.654 cumulative IPC: 3.451 (Simulation time: 00 hr 02 min 24 sec)
Heartbeat CPU 0 instructions: 30500214 cycles: 8829875 heartbeat IPC: 3.654 cumulative IPC: 3.454 (Simulation time: 00 hr 02 min 26 sec)
Heartbeat CPU 0 instructions: 31000215 cycles: 8953834 heartbeat IPC: 4.034 cumulative IPC: 3.462 (Simulation time: 00 hr 02 min 28 sec)
Heartbeat CPU 0 instructions: 31500216 cycles: 9092158 heartbeat IPC: 3.615 cumulative IPC: 3.465 (Simulation time: 00 hr 02 min 31 sec)
Heartbeat CPU 0 instructions: 32000216 cycles: 9250033 heartbeat IPC: 3.167 cumulative IPC: 3.459 (Simulation time: 00 hr 02 min 34 sec)
Heartbeat CPU 0 instructions: 32500218 cycles: 9418629 heartbeat IPC: 2.966 cumulative IPC: 3.451 (Simulation time: 00 hr 02 min 36 sec)
Heartbeat CPU 0 instructions: 33000222 cycles: 9600466 heartbeat IPC: 2.75 cumulative IPC: 3.437 (Simulation time: 00 hr 02 min 39 sec)
Heartbeat CPU 0 instructions: 33500223 cycles: 9723304 heartbeat IPC: 4.07 cumulative IPC: 3.445 (Simulation time: 00 hr 02 min 41 sec)
Heartbeat CPU 0 instructions: 34000229 cycles: 9824260 heartbeat IPC: 4.953 cumulative IPC: 3.461 (Simulation time: 00 hr 02 min 43 sec)
Heartbeat CPU 0 instructions: 34500230 cycles: 9924731 heartbeat IPC: 4.977 cumulative IPC: 3.476 (Simulation time: 00 hr 02 min 44 sec)
Heartbeat CPU 0 instructions: 35000230 cycles: 10042346 heartbeat IPC: 4.251 cumulative IPC: 3.485 (Simulation time: 00 hr 02 min 46 sec)
Heartbeat CPU 0 instructions: 35500232 cycles: 10180765 heartbeat IPC: 3.612 cumulative IPC: 3.487 (Simulation time: 00 hr 02 min 49 sec)
Heartbeat CPU 0 instructions: 36000232 cycles: 10339236 heartbeat IPC: 3.155 cumulative IPC: 3.482 (Simulation time: 00 hr 02 min 51 sec)
Heartbeat CPU 0 instructions: 36500232 cycles: 10479548 heartbeat IPC: 3.563 cumulative IPC: 3.483 (Simulation time: 00 hr 02 min 54 sec)
Heartbeat CPU 0 instructions: 37000236 cycles: 10618572 heartbeat IPC: 3.597 cumulative IPC: 3.484 (Simulation time: 00 hr 02 min 56 sec)
Heartbeat CPU 0 instructions: 37500237 cycles: 10760432 heartbeat IPC: 3.525 cumulative IPC: 3.485 (Simulation time: 00 hr 02 min 59 sec)
Heartbeat CPU 0 instructions: 38000244 cycles: 10892755 heartbeat IPC: 3.779 cumulative IPC: 3.489 (Simulation time: 00 hr 03 min 01 sec)
Heartbeat CPU 0 instructions: 38500251 cycles: 11037530 heartbeat IPC: 3.454 cumulative IPC: 3.488 (Simulation time: 00 hr 03 min 03 sec)
Heartbeat CPU 0 instructions: 39000252 cycles: 11194786 heartbeat IPC: 3.18 cumulative IPC: 3.484 (Simulation time: 00 hr 03 min 06 sec)
Heartbeat CPU 0 instructions: 39500255 cycles: 11351963 heartbeat IPC: 3.181 cumulative IPC: 3.48 (Simulation time: 00 hr 03 min 09 sec)
Heartbeat CPU 0 instructions: 40000262 cycles: 11458262 heartbeat IPC: 4.704 cumulative IPC: 3.491 (Simulation time: 00 hr 03 min 11 sec)
Heartbeat CPU 0 instructions: 40500262 cycles: 11559159 heartbeat IPC: 4.956 cumulative IPC: 3.504 (Simulation time: 00 hr 03 min 12 sec)
Heartbeat CPU 0 instructions: 41000264 cycles: 11659164 heartbeat IPC: 5 cumulative IPC: 3.517 (Simulation time: 00 hr 03 min 14 sec)
Heartbeat CPU 0 instructions: 41500267 cycles: 11780814 heartbeat IPC: 4.11 cumulative IPC: 3.523 (Simulation time: 00 hr 03 min 16 sec)
Heartbeat CPU 0 instructions: 42000272 cycles: 11906151 heartbeat IPC: 3.989 cumulative IPC: 3.528 (Simulation time: 00 hr 03 min 18 sec)
Heartbeat CPU 0 instructions: 42500273 cycles: 12034626 heartbeat IPC: 3.892 cumulative IPC: 3.531 (Simulation time: 00 hr 03 min 21 sec)
Heartbeat CPU 0 instructions: 43000276 cycles: 12178961 heartbeat IPC: 3.464 cumulative IPC: 3.531 (Simulation time: 00 hr 03 min 23 sec)
Heartbeat CPU 0 instructions: 43500283 cycles: 12331329 heartbeat IPC: 3.282 cumulative IPC: 3.528 (Simulation time: 00 hr 03 min 26 sec)
Heartbeat CPU 0 instructions: 44000288 cycles: 12469898 heartbeat IPC: 3.608 cumulative IPC: 3.529 (Simulation time: 00 hr 03 min 28 sec)
Heartbeat CPU 0 instructions: 44500289 cycles: 12606278 heartbeat IPC: 3.666 cumulative IPC: 3.53 (Simulation time: 00 hr 03 min 31 sec)
Heartbeat CPU 0 instructions: 45000291 cycles: 12749622 heartbeat IPC: 3.488 cumulative IPC: 3.53 (Simulation time: 00 hr 03 min 33 sec)
Heartbeat CPU 0 instructions: 45500295 cycles: 12890986 heartbeat IPC: 3.537 cumulative IPC: 3.53 (Simulation time: 00 hr 03 min 36 sec)
Heartbeat CPU 0 instructions: 46000301 cycles: 13019029 heartbeat IPC: 3.905 cumulative IPC: 3.533 (Simulation time: 00 hr 03 min 38 sec)
Heartbeat CPU 0 instructions: 46500302 cycles: 13143764 heartbeat IPC: 4.009 cumulative IPC: 3.538 (Simulation time: 00 hr 03 min 40 sec)
Heartbeat CPU 0 instructions: 47000308 cycles: 13301816 heartbeat IPC: 3.164 cumulative IPC: 3.533 (Simulation time: 00 hr 03 min 43 sec)
Heartbeat CPU 0 instructions: 47500309 cycles: 13433492 heartbeat IPC: 3.797 cumulative IPC: 3.536 (Simulation time: 00 hr 03 min 45 sec)
Heartbeat CPU 0 instructions: 48000313 cycles: 13563140 heartbeat IPC: 3.857 cumulative IPC: 3.539 (Simulation time: 00 hr 03 min 48 sec)
Heartbeat CPU 0 instructions: 48500318 cycles: 13695119 heartbeat IPC: 3.789 cumulative IPC: 3.541 (Simulation time: 00 hr 03 min 50 sec)
Heartbeat CPU 0 instructions: 49000321 cycles: 13827771 heartbeat IPC: 3.769 cumulative IPC: 3.544 (Simulation time: 00 hr 03 min 52 sec)
Heartbeat CPU 0 instructions: 49500325 cycles: 13976760 heartbeat IPC: 3.356 cumulative IPC: 3.542 (Simulation time: 00 hr 03 min 55 sec)
Warmup halting CPU 0 at instruction 50000004 cycle 14090340 for remainder of phase
Warmup finished CPU 0 instructions: 50000004 cycles: 14090340 cumulative IPC: 3.549 (Simulation time: 00 hr 03 min 57 sec)
Warmup complete CPU 0 instructions: 50000004 cycles: 14090340 cumulative IPC: 3.549 (Simulation time: 00 hr 03 min 57 sec)
Heartbeat CPU 0 instructions: 50000326 cycles: 14090453 heartbeat IPC: 4.398 cumulative IPC: 2.85 (Simulation time: 00 hr 03 min 57 sec)
Heartbeat CPU 0 instructions: 50500330 cycles: 15207979 heartbeat IPC: 0.4474 cumulative IPC: 0.4477 (Simulation time: 00 hr 04 min 04 sec)
Heartbeat CPU 0 instructions: 51000331 cycles: 16122201 heartbeat IPC: 0.5469 cumulative IPC: 0.4923 (Simulation time: 00 hr 04 min 12 sec)
Heartbeat CPU 0 instructions: 51500334 cycles: 16447824 heartbeat IPC: 1.536 cumulative IPC: 0.6364 (Simulation time: 00 hr 04 min 15 sec)
Heartbeat CPU 0 instructions: 52000337 cycles: 17783774 heartbeat IPC: 0.3743 cumulative IPC: 0.5416 (Simulation time: 00 hr 04 min 24 sec)
Heartbeat CPU 0 instructions: 52500338 cycles: 18737326 heartbeat IPC: 0.5244 cumulative IPC: 0.5381 (Simulation time: 00 hr 04 min 31 sec)
Heartbeat CPU 0 instructions: 53000338 cycles: 19832657 heartbeat IPC: 0.4565 cumulative IPC: 0.5225 (Simulation time: 00 hr 04 min 38 sec)
Heartbeat CPU 0 instructions: 53500339 cycles: 21202406 heartbeat IPC: 0.365 cumulative IPC: 0.4922 (Simulation time: 00 hr 04 min 47 sec)
Heartbeat CPU 0 instructions: 54000345 cycles: 22283596 heartbeat IPC: 0.4625 cumulative IPC: 0.4882 (Simulation time: 00 hr 04 min 54 sec)
Heartbeat CPU 0 instructions: 54500345 cycles: 23422464 heartbeat IPC: 0.439 cumulative IPC: 0.4822 (Simulation time: 00 hr 05 min 02 sec)
Heartbeat CPU 0 instructions: 55000345 cycles: 25014338 heartbeat IPC: 0.3141 cumulative IPC: 0.4577 (Simulation time: 00 hr 05 min 12 sec)
Heartbeat CPU 0 instructions: 55500346 cycles: 25683162 heartbeat IPC: 0.7476 cumulative IPC: 0.4745 (Simulation time: 00 hr 05 min 18 sec)
Heartbeat CPU 0 instructions: 56000348 cycles: 26012830 heartbeat IPC: 1.517 cumulative IPC: 0.5033 (Simulation time: 00 hr 05 min 21 sec)
Heartbeat CPU 0 instructions: 56500352 cycles: 27382170 heartbeat IPC: 0.3651 cumulative IPC: 0.489 (Simulation time: 00 hr 05 min 30 sec)
Heartbeat CPU 0 instructions: 57000356 cycles: 27852576 heartbeat IPC: 1.063 cumulative IPC: 0.5087 (Simulation time: 00 hr 05 min 35 sec)
Heartbeat CPU 0 instructions: 57500358 cycles: 28563552 heartbeat IPC: 0.7033 cumulative IPC: 0.5182 (Simulation time: 00 hr 05 min 40 sec)
Heartbeat CPU 0 instructions: 58000359 cycles: 29359659 heartbeat IPC: 0.6281 cumulative IPC: 0.5239 (Simulation time: 00 hr 05 min 45 sec)
Heartbeat CPU 0 instructions: 58500361 cycles: 29884807 heartbeat IPC: 0.9521 cumulative IPC: 0.5382 (Simulation time: 00 hr 05 min 50 sec)
Heartbeat CPU 0 instructions: 59000363 cycles: 30104552 heartbeat IPC: 2.275 cumulative IPC: 0.562 (Simulation time: 00 hr 05 min 52 sec)
Heartbeat CPU 0 instructions: 59500363 cycles: 30803491 heartbeat IPC: 0.7154 cumulative IPC: 0.5684 (Simulation time: 00 hr 05 min 57 sec)
Heartbeat CPU 0 instructions: 60000367 cycles: 31619136 heartbeat IPC: 0.613 cumulative IPC: 0.5705 (Simulation time: 00 hr 06 min 03 sec)
Heartbeat CPU 0 instructions: 60500370 cycles: 32225131 heartbeat IPC: 0.8251 cumulative IPC: 0.579 (Simulation time: 00 hr 06 min 08 sec)
Heartbeat CPU 0 instructions: 61000374 cycles: 32642367 heartbeat IPC: 1.198 cumulative IPC: 0.5929 (Simulation time: 00 hr 06 min 12 sec)
Heartbeat CPU 0 instructions: 61500379 cycles: 33457595 heartbeat IPC: 0.6133 cumulative IPC: 0.5938 (Simulation time: 00 hr 06 min 17 sec)
Heartbeat CPU 0 instructions: 62000386 cycles: 33835219 heartbeat IPC: 1.324 cumulative IPC: 0.6078 (Simulation time: 00 hr 06 min 21 sec)
Heartbeat CPU 0 instructions: 62500386 cycles: 34144540 heartbeat IPC: 1.616 cumulative IPC: 0.6233 (Simulation time: 00 hr 06 min 24 sec)
Heartbeat CPU 0 instructions: 63000388 cycles: 34427649 heartbeat IPC: 1.766 cumulative IPC: 0.6392 (Simulation time: 00 hr 06 min 26 sec)
Heartbeat CPU 0 instructions: 63500390 cycles: 35387158 heartbeat IPC: 0.5211 cumulative IPC: 0.6339 (Simulation time: 00 hr 06 min 33 sec)
Heartbeat CPU 0 instructions: 64000390 cycles: 36861752 heartbeat IPC: 0.3391 cumulative IPC: 0.6148 (Simulation time: 00 hr 06 min 43 sec)
Heartbeat CPU 0 instructions: 64500393 cycles: 37355340 heartbeat IPC: 1.013 cumulative IPC: 0.6233 (Simulation time: 00 hr 06 min 47 sec)
Heartbeat CPU 0 instructions: 65000393 cycles: 37555721 heartbeat IPC: 2.495 cumulative IPC: 0.6393 (Simulation time: 00 hr 06 min 49 sec)
Heartbeat CPU 0 instructions: 65500397 cycles: 37970427 heartbeat IPC: 1.206 cumulative IPC: 0.6491 (Simulation time: 00 hr 06 min 52 sec)
Heartbeat CPU 0 instructions: 66000404 cycles: 39102458 heartbeat IPC: 0.4417 cumulative IPC: 0.6397 (Simulation time: 00 hr 07 min 00 sec)
Heartbeat CPU 0 instructions: 66500406 cycles: 41141712 heartbeat IPC: 0.2452 cumulative IPC: 0.61 (Simulation time: 00 hr 07 min 12 sec)
Heartbeat CPU 0 instructions: 67000406 cycles: 42188230 heartbeat IPC: 0.4778 cumulative IPC: 0.605 (Simulation time: 00 hr 07 min 19 sec)
Heartbeat CPU 0 instructions: 67500413 cycles: 43033045 heartbeat IPC: 0.5919 cumulative IPC: 0.6047 (Simulation time: 00 hr 07 min 26 sec)
Heartbeat CPU 0 instructions: 68000415 cycles: 44342221 heartbeat IPC: 0.3819 cumulative IPC: 0.595 (Simulation time: 00 hr 07 min 34 sec)
Heartbeat CPU 0 instructions: 68500419 cycles: 45437369 heartbeat IPC: 0.4566 cumulative IPC: 0.5902 (Simulation time: 00 hr 07 min 41 sec)
Heartbeat CPU 0 instructions: 69000424 cycles: 46404698 heartbeat IPC: 0.5169 cumulative IPC: 0.588 (Simulation time: 00 hr 07 min 48 sec)
Heartbeat CPU 0 instructions: 69500427 cycles: 46849951 heartbeat IPC: 1.123 cumulative IPC: 0.5953 (Simulation time: 00 hr 07 min 52 sec)
Heartbeat CPU 0 instructions: 70000427 cycles: 47090373 heartbeat IPC: 2.08 cumulative IPC: 0.6061 (Simulation time: 00 hr 07 min 55 sec)
Heartbeat CPU 0 instructions: 70500427 cycles: 47781696 heartbeat IPC: 0.7233 cumulative IPC: 0.6085 (Simulation time: 00 hr 08 min 00 sec)
Heartbeat CPU 0 instructions: 71000430 cycles: 48694258 heartbeat IPC: 0.5479 cumulative IPC: 0.6069 (Simulation time: 00 hr 08 min 08 sec)
Heartbeat CPU 0 instructions: 71500434 cycles: 49221637 heartbeat IPC: 0.9481 cumulative IPC: 0.612 (Simulation time: 00 hr 08 min 13 sec)
Heartbeat CPU 0 instructions: 72000435 cycles: 49719095 heartbeat IPC: 1.005 cumulative IPC: 0.6175 (Simulation time: 00 hr 08 min 18 sec)
Heartbeat CPU 0 instructions: 72500438 cycles: 50207930 heartbeat IPC: 1.023 cumulative IPC: 0.623 (Simulation time: 00 hr 08 min 22 sec)
Heartbeat CPU 0 instructions: 73000438 cycles: 51135579 heartbeat IPC: 0.539 cumulative IPC: 0.6209 (Simulation time: 00 hr 08 min 29 sec)
Heartbeat CPU 0 instructions: 73500438 cycles: 51863644 heartbeat IPC: 0.6868 cumulative IPC: 0.6221 (Simulation time: 00 hr 08 min 34 sec)
Heartbeat CPU 0 instructions: 74000443 cycles: 52276968 heartbeat IPC: 1.21 cumulative IPC: 0.6285 (Simulation time: 00 hr 08 min 39 sec)
Heartbeat CPU 0 instructions: 74500447 cycles: 52767573 heartbeat IPC: 1.019 cumulative IPC: 0.6335 (Simulation time: 00 hr 08 min 43 sec)
Heartbeat CPU 0 instructions: 75000452 cycles: 54418842 heartbeat IPC: 0.3028 cumulative IPC: 0.6199 (Simulation time: 00 hr 08 min 55 sec)
Heartbeat CPU 0 instructions: 75500452 cycles: 55408908 heartbeat IPC: 0.505 cumulative IPC: 0.6172 (Simulation time: 00 hr 09 min 02 sec)
Heartbeat CPU 0 instructions: 76000454 cycles: 56750881 heartbeat IPC: 0.3726 cumulative IPC: 0.6095 (Simulation time: 00 hr 09 min 11 sec)
Heartbeat CPU 0 instructions: 76500457 cycles: 58521210 heartbeat IPC: 0.2824 cumulative IPC: 0.5964 (Simulation time: 00 hr 09 min 22 sec)
Heartbeat CPU 0 instructions: 77000457 cycles: 59784854 heartbeat IPC: 0.3957 cumulative IPC: 0.5909 (Simulation time: 00 hr 09 min 31 sec)
Heartbeat CPU 0 instructions: 77500457 cycles: 61406389 heartbeat IPC: 0.3083 cumulative IPC: 0.5812 (Simulation time: 00 hr 09 min 41 sec)
Heartbeat CPU 0 instructions: 78000458 cycles: 62400597 heartbeat IPC: 0.5029 cumulative IPC: 0.5796 (Simulation time: 00 hr 09 min 48 sec)
Heartbeat CPU 0 instructions: 78500459 cycles: 62975767 heartbeat IPC: 0.8693 cumulative IPC: 0.583 (Simulation time: 00 hr 09 min 53 sec)
Heartbeat CPU 0 instructions: 79000460 cycles: 64113049 heartbeat IPC: 0.4396 cumulative IPC: 0.5797 (Simulation time: 00 hr 10 min 00 sec)
Heartbeat CPU 0 instructions: 79500464 cycles: 65781392 heartbeat IPC: 0.2997 cumulative IPC: 0.5707 (Simulation time: 00 hr 10 min 12 sec)
Heartbeat CPU 0 instructions: 80000465 cycles: 67428621 heartbeat IPC: 0.3035 cumulative IPC: 0.5625 (Simulation time: 00 hr 10 min 22 sec)
Heartbeat CPU 0 instructions: 80500465 cycles: 68652895 heartbeat IPC: 0.4084 cumulative IPC: 0.559 (Simulation time: 00 hr 10 min 30 sec)
Heartbeat CPU 0 instructions: 81000467 cycles: 70106292 heartbeat IPC: 0.344 cumulative IPC: 0.5534 (Simulation time: 00 hr 10 min 40 sec)
Heartbeat CPU 0 instructions: 81500467 cycles: 71088284 heartbeat IPC: 0.5092 cumulative IPC: 0.5527 (Simulation time: 00 hr 10 min 47 sec)
Heartbeat CPU 0 instructions: 82000469 cycles: 72480654 heartbeat IPC: 0.3591 cumulative IPC: 0.548 (Simulation time: 00 hr 10 min 56 sec)
Heartbeat CPU 0 instructions: 82500475 cycles: 73284901 heartbeat IPC: 0.6217 cumulative IPC: 0.549 (Simulation time: 00 hr 11 min 02 sec)
Heartbeat CPU 0 instructions: 83000475 cycles: 73681626 heartbeat IPC: 1.26 cumulative IPC: 0.5538 (Simulation time: 00 hr 11 min 06 sec)
Heartbeat CPU 0 instructions: 83500475 cycles: 74436328 heartbeat IPC: 0.6625 cumulative IPC: 0.5551 (Simulation time: 00 hr 11 min 12 sec)
Heartbeat CPU 0 instructions: 84000477 cycles: 74954040 heartbeat IPC: 0.9658 cumulative IPC: 0.5586 (Simulation time: 00 hr 11 min 17 sec)
Heartbeat CPU 0 instructions: 84500481 cycles: 75370448 heartbeat IPC: 1.201 cumulative IPC: 0.563 (Simulation time: 00 hr 11 min 20 sec)
Heartbeat CPU 0 instructions: 85000481 cycles: 75796230 heartbeat IPC: 1.174 cumulative IPC: 0.5672 (Simulation time: 00 hr 11 min 24 sec)
Heartbeat CPU 0 instructions: 85500485 cycles: 76422089 heartbeat IPC: 0.7989 cumulative IPC: 0.5695 (Simulation time: 00 hr 11 min 30 sec)
Heartbeat CPU 0 instructions: 86000488 cycles: 76996073 heartbeat IPC: 0.8711 cumulative IPC: 0.5723 (Simulation time: 00 hr 11 min 35 sec)
Heartbeat CPU 0 instructions: 86500488 cycles: 77578355 heartbeat IPC: 0.8587 cumulative IPC: 0.5749 (Simulation time: 00 hr 11 min 41 sec)
Heartbeat CPU 0 instructions: 87000489 cycles: 78058337 heartbeat IPC: 1.042 cumulative IPC: 0.5784 (Simulation time: 00 hr 11 min 45 sec)
Heartbeat CPU 0 instructions: 87500489 cycles: 78458580 heartbeat IPC: 1.249 cumulative IPC: 0.5826 (Simulation time: 00 hr 11 min 49 sec)
Heartbeat CPU 0 instructions: 88000495 cycles: 78984672 heartbeat IPC: 0.9504 cumulative IPC: 0.5856 (Simulation time: 00 hr 11 min 54 sec)
Heartbeat CPU 0 instructions: 88500496 cycles: 79442705 heartbeat IPC: 1.092 cumulative IPC: 0.5891 (Simulation time: 00 hr 11 min 58 sec)
Heartbeat CPU 0 instructions: 89000501 cycles: 79927465 heartbeat IPC: 1.031 cumulative IPC: 0.5924 (Simulation time: 00 hr 12 min 02 sec)
Heartbeat CPU 0 instructions: 89500507 cycles: 80244491 heartbeat IPC: 1.577 cumulative IPC: 0.5971 (Simulation time: 00 hr 12 min 05 sec)
Heartbeat CPU 0 instructions: 90000507 cycles: 80710992 heartbeat IPC: 1.072 cumulative IPC: 0.6004 (Simulation time: 00 hr 12 min 10 sec)
Heartbeat CPU 0 instructions: 90500509 cycles: 81220643 heartbeat IPC: 0.9811 cumulative IPC: 0.6033 (Simulation time: 00 hr 12 min 14 sec)
Heartbeat CPU 0 instructions: 91000511 cycles: 81598905 heartbeat IPC: 1.322 cumulative IPC: 0.6073 (Simulation time: 00 hr 12 min 18 sec)
Heartbeat CPU 0 instructions: 91500515 cycles: 81875969 heartbeat IPC: 1.805 cumulative IPC: 0.6122 (Simulation time: 00 hr 12 min 21 sec)
Heartbeat CPU 0 instructions: 92000520 cycles: 82115142 heartbeat IPC: 2.091 cumulative IPC: 0.6174 (Simulation time: 00 hr 12 min 24 sec)
Heartbeat CPU 0 instructions: 92500524 cycles: 82738770 heartbeat IPC: 0.8018 cumulative IPC: 0.6191 (Simulation time: 00 hr 12 min 29 sec)
Heartbeat CPU 0 instructions: 93000524 cycles: 83179722 heartbeat IPC: 1.134 cumulative IPC: 0.6224 (Simulation time: 00 hr 12 min 33 sec)
Heartbeat CPU 0 instructions: 93500530 cycles: 83498760 heartbeat IPC: 1.567 cumulative IPC: 0.6267 (Simulation time: 00 hr 12 min 36 sec)
Heartbeat CPU 0 instructions: 94000534 cycles: 84011630 heartbeat IPC: 0.9749 cumulative IPC: 0.6293 (Simulation time: 00 hr 12 min 40 sec)
Heartbeat CPU 0 instructions: 94500534 cycles: 84499742 heartbeat IPC: 1.024 cumulative IPC: 0.632 (Simulation time: 00 hr 12 min 45 sec)
Heartbeat CPU 0 instructions: 95000535 cycles: 84793166 heartbeat IPC: 1.704 cumulative IPC: 0.6365 (Simulation time: 00 hr 12 min 48 sec)
Heartbeat CPU 0 instructions: 95500535 cycles: 85081302 heartbeat IPC: 1.735 cumulative IPC: 0.6409 (Simulation time: 00 hr 12 min 51 sec)
Heartbeat CPU 0 instructions: 96000537 cycles: 85332480 heartbeat IPC: 1.991 cumulative IPC: 0.6457 (Simulation time: 00 hr 12 min 54 sec)
Heartbeat CPU 0 instructions: 96500537 cycles: 85542838 heartbeat IPC: 2.377 cumulative IPC: 0.6508 (Simulation time: 00 hr 12 min 56 sec)
Heartbeat CPU 0 instructions: 97000537 cycles: 86147713 heartbeat IPC: 0.8266 cumulative IPC: 0.6523 (Simulation time: 00 hr 13 min 02 sec)
Heartbeat CPU 0 instructions: 97500537 cycles: 88004916 heartbeat IPC: 0.2692 cumulative IPC: 0.6426 (Simulation time: 00 hr 13 min 14 sec)
Heartbeat CPU 0 instructions: 98000539 cycles: 89165376 heartbeat IPC: 0.4309 cumulative IPC: 0.6394 (Simulation time: 00 hr 13 min 22 sec)
Heartbeat CPU 0 instructions: 98500539 cycles: 89678325 heartbeat IPC: 0.9748 cumulative IPC: 0.6416 (Simulation time: 00 hr 13 min 26 sec)
Heartbeat CPU 0 instructions: 99000546 cycles: 90568321 heartbeat IPC: 0.5618 cumulative IPC: 0.6407 (Simulation time: 00 hr 13 min 34 sec)
Heartbeat CPU 0 instructions: 99500548 cycles: 91549658 heartbeat IPC: 0.5095 cumulative IPC: 0.6391 (Simulation time: 00 hr 13 min 41 sec)
Heartbeat CPU 0 instructions: 100000554 cycles: 92884227 heartbeat IPC: 0.3747 cumulative IPC: 0.6346 (Simulation time: 00 hr 13 min 50 sec)
Heartbeat CPU 0 instructions: 100500557 cycles: 93824373 heartbeat IPC: 0.5318 cumulative IPC: 0.6334 (Simulation time: 00 hr 13 min 57 sec)
Heartbeat CPU 0 instructions: 101000564 cycles: 94897918 heartbeat IPC: 0.4658 cumulative IPC: 0.6311 (Simulation time: 00 hr 14 min 04 sec)
Heartbeat CPU 0 instructions: 101500565 cycles: 95969485 heartbeat IPC: 0.4666 cumulative IPC: 0.629 (Simulation time: 00 hr 14 min 13 sec)
Heartbeat CPU 0 instructions: 102000567 cycles: 97032070 heartbeat IPC: 0.4706 cumulative IPC: 0.627 (Simulation time: 00 hr 14 min 21 sec)
Heartbeat CPU 0 instructions: 102500567 cycles: 98360496 heartbeat IPC: 0.3764 cumulative IPC: 0.623 (Simulation time: 00 hr 14 min 29 sec)
Heartbeat CPU 0 instructions: 103000574 cycles: 99356832 heartbeat IPC: 0.5018 cumulative IPC: 0.6216 (Simulation time: 00 hr 14 min 36 sec)
Heartbeat CPU 0 instructions: 103500575 cycles: 100582792 heartbeat IPC: 0.4078 cumulative IPC: 0.6186 (Simulation time: 00 hr 14 min 44 sec)
Heartbeat CPU 0 instructions: 104000576 cycles: 100837752 heartbeat IPC: 1.961 cumulative IPC: 0.6225 (Simulation time: 00 hr 14 min 47 sec)
Heartbeat CPU 0 instructions: 104500583 cycles: 101299001 heartbeat IPC: 1.084 cumulative IPC: 0.6249 (Simulation time: 00 hr 14 min 51 sec)
Heartbeat CPU 0 instructions: 105000586 cycles: 102730069 heartbeat IPC: 0.3494 cumulative IPC: 0.6205 (Simulation time: 00 hr 15 min 00 sec)
Heartbeat CPU 0 instructions: 105500590 cycles: 103599760 heartbeat IPC: 0.5749 cumulative IPC: 0.6201 (Simulation time: 00 hr 15 min 06 sec)
Heartbeat CPU 0 instructions: 106000590 cycles: 104044262 heartbeat IPC: 1.125 cumulative IPC: 0.6225 (Simulation time: 00 hr 15 min 09 sec)
Heartbeat CPU 0 instructions: 106500591 cycles: 105142535 heartbeat IPC: 0.4553 cumulative IPC: 0.6205 (Simulation time: 00 hr 15 min 17 sec)
Heartbeat CPU 0 instructions: 107000591 cycles: 106180929 heartbeat IPC: 0.4815 cumulative IPC: 0.619 (Simulation time: 00 hr 15 min 24 sec)
Heartbeat CPU 0 instructions: 107500592 cycles: 107386547 heartbeat IPC: 0.4147 cumulative IPC: 0.6163 (Simulation time: 00 hr 15 min 32 sec)
Heartbeat CPU 0 instructions: 108000592 cycles: 107757584 heartbeat IPC: 1.348 cumulative IPC: 0.6192 (Simulation time: 00 hr 15 min 36 sec)
Heartbeat CPU 0 instructions: 108500594 cycles: 108886369 heartbeat IPC: 0.443 cumulative IPC: 0.6171 (Simulation time: 00 hr 15 min 44 sec)
Heartbeat CPU 0 instructions: 109000596 cycles: 110873012 heartbeat IPC: 0.2517 cumulative IPC: 0.6096 (Simulation time: 00 hr 15 min 56 sec)
Heartbeat CPU 0 instructions: 109500596 cycles: 112158865 heartbeat IPC: 0.3888 cumulative IPC: 0.6067 (Simulation time: 00 hr 16 min 04 sec)
Heartbeat CPU 0 instructions: 110000599 cycles: 113323064 heartbeat IPC: 0.4295 cumulative IPC: 0.6046 (Simulation time: 00 hr 16 min 12 sec)
Heartbeat CPU 0 instructions: 110500599 cycles: 114290317 heartbeat IPC: 0.5169 cumulative IPC: 0.6038 (Simulation time: 00 hr 16 min 19 sec)
Heartbeat CPU 0 instructions: 111000599 cycles: 115566810 heartbeat IPC: 0.3917 cumulative IPC: 0.6011 (Simulation time: 00 hr 16 min 28 sec)
Heartbeat CPU 0 instructions: 111500599 cycles: 116777325 heartbeat IPC: 0.413 cumulative IPC: 0.5989 (Simulation time: 00 hr 16 min 36 sec)
Heartbeat CPU 0 instructions: 112000601 cycles: 117829290 heartbeat IPC: 0.4753 cumulative IPC: 0.5977 (Simulation time: 00 hr 16 min 43 sec)
Heartbeat CPU 0 instructions: 112500601 cycles: 118730115 heartbeat IPC: 0.555 cumulative IPC: 0.5973 (Simulation time: 00 hr 16 min 50 sec)
Heartbeat CPU 0 instructions: 113000601 cycles: 120204702 heartbeat IPC: 0.3391 cumulative IPC: 0.5937 (Simulation time: 00 hr 16 min 59 sec)
Heartbeat CPU 0 instructions: 113500605 cycles: 121585271 heartbeat IPC: 0.3622 cumulative IPC: 0.5907 (Simulation time: 00 hr 17 min 08 sec)
Heartbeat CPU 0 instructions: 114000606 cycles: 123384073 heartbeat IPC: 0.278 cumulative IPC: 0.5856 (Simulation time: 00 hr 17 min 20 sec)
Heartbeat CPU 0 instructions: 114500606 cycles: 124288123 heartbeat IPC: 0.5531 cumulative IPC: 0.5853 (Simulation time: 00 hr 17 min 27 sec)
Heartbeat CPU 0 instructions: 115000609 cycles: 124972125 heartbeat IPC: 0.731 cumulative IPC: 0.5862 (Simulation time: 00 hr 17 min 33 sec)
Heartbeat CPU 0 instructions: 115500610 cycles: 125633387 heartbeat IPC: 0.7561 cumulative IPC: 0.5872 (Simulation time: 00 hr 17 min 39 sec)
Heartbeat CPU 0 instructions: 116000612 cycles: 126229408 heartbeat IPC: 0.8389 cumulative IPC: 0.5886 (Simulation time: 00 hr 17 min 45 sec)
Heartbeat CPU 0 instructions: 116500618 cycles: 126804128 heartbeat IPC: 0.87 cumulative IPC: 0.59 (Simulation time: 00 hr 17 min 51 sec)
Heartbeat CPU 0 instructions: 117000624 cycles: 127293883 heartbeat IPC: 1.021 cumulative IPC: 0.5919 (Simulation time: 00 hr 17 min 56 sec)
Heartbeat CPU 0 instructions: 117500625 cycles: 127590946 heartbeat IPC: 1.683 cumulative IPC: 0.5947 (Simulation time: 00 hr 17 min 59 sec)
Heartbeat CPU 0 instructions: 118000631 cycles: 128113278 heartbeat IPC: 0.9573 cumulative IPC: 0.5964 (Simulation time: 00 hr 18 min 06 sec)
Heartbeat CPU 0 instructions: 118500632 cycles: 128999606 heartbeat IPC: 0.5641 cumulative IPC: 0.5961 (Simulation time: 00 hr 18 min 13 sec)
Heartbeat CPU 0 instructions: 119000632 cycles: 129592081 heartbeat IPC: 0.8439 cumulative IPC: 0.5974 (Simulation time: 00 hr 18 min 19 sec)
Heartbeat CPU 0 instructions: 119500638 cycles: 130137415 heartbeat IPC: 0.9169 cumulative IPC: 0.5989 (Simulation time: 00 hr 18 min 24 sec)
Heartbeat CPU 0 instructions: 120000639 cycles: 130505820 heartbeat IPC: 1.357 cumulative IPC: 0.6013 (Simulation time: 00 hr 18 min 29 sec)
Heartbeat CPU 0 instructions: 120500640 cycles: 131246886 heartbeat IPC: 0.6747 cumulative IPC: 0.6018 (Simulation time: 00 hr 18 min 34 sec)
Heartbeat CPU 0 instructions: 121000644 cycles: 132490864 heartbeat IPC: 0.4019 cumulative IPC: 0.5997 (Simulation time: 00 hr 18 min 43 sec)
Heartbeat CPU 0 instructions: 121500650 cycles: 134566730 heartbeat IPC: 0.2409 cumulative IPC: 0.5935 (Simulation time: 00 hr 18 min 57 sec)
Heartbeat CPU 0 instructions: 122000651 cycles: 135901436 heartbeat IPC: 0.3746 cumulative IPC: 0.5911 (Simulation time: 00 hr 19 min 06 sec)
Heartbeat CPU 0 instructions: 122500652 cycles: 136612490 heartbeat IPC: 0.7032 cumulative IPC: 0.5917 (Simulation time: 00 hr 19 min 11 sec)
Heartbeat CPU 0 instructions: 123000655 cycles: 137643768 heartbeat IPC: 0.4848 cumulative IPC: 0.5908 (Simulation time: 00 hr 19 min 19 sec)
Heartbeat CPU 0 instructions: 123500655 cycles: 138919056 heartbeat IPC: 0.3921 cumulative IPC: 0.5888 (Simulation time: 00 hr 19 min 27 sec)
Heartbeat CPU 0 instructions: 124000656 cycles: 140152853 heartbeat IPC: 0.4053 cumulative IPC: 0.587 (Simulation time: 00 hr 19 min 35 sec)
Heartbeat CPU 0 instructions: 124500658 cycles: 141260297 heartbeat IPC: 0.4515 cumulative IPC: 0.5858 (Simulation time: 00 hr 19 min 43 sec)
Heartbeat CPU 0 instructions: 125000658 cycles: 141841858 heartbeat IPC: 0.8598 cumulative IPC: 0.5871 (Simulation time: 00 hr 19 min 48 sec)
Heartbeat CPU 0 instructions: 125500660 cycles: 142696701 heartbeat IPC: 0.5849 cumulative IPC: 0.5871 (Simulation time: 00 hr 19 min 54 sec)
Heartbeat CPU 0 instructions: 126000660 cycles: 144383568 heartbeat IPC: 0.2964 cumulative IPC: 0.5833 (Simulation time: 00 hr 20 min 05 sec)
Heartbeat CPU 0 instructions: 126500661 cycles: 145453551 heartbeat IPC: 0.4673 cumulative IPC: 0.5824 (Simulation time: 00 hr 20 min 12 sec)
Heartbeat CPU 0 instructions: 127000662 cycles: 146678073 heartbeat IPC: 0.4083 cumulative IPC: 0.5808 (Simulation time: 00 hr 20 min 20 sec)
Heartbeat CPU 0 instructions: 127500662 cycles: 147285735 heartbeat IPC: 0.8228 cumulative IPC: 0.5819 (Simulation time: 00 hr 20 min 27 sec)
Heartbeat CPU 0 instructions: 128000664 cycles: 147685485 heartbeat IPC: 1.251 cumulative IPC: 0.5839 (Simulation time: 00 hr 20 min 32 sec)
Heartbeat CPU 0 instructions: 128500670 cycles: 148044480 heartbeat IPC: 1.393 cumulative IPC: 0.586 (Simulation time: 00 hr 20 min 36 sec)
Heartbeat CPU 0 instructions: 129000670 cycles: 148380595 heartbeat IPC: 1.488 cumulative IPC: 0.5883 (Simulation time: 00 hr 20 min 39 sec)
Heartbeat CPU 0 instructions: 129500672 cycles: 148571755 heartbeat IPC: 2.616 cumulative IPC: 0.5912 (Simulation time: 00 hr 20 min 42 sec)
Heartbeat CPU 0 instructions: 130000676 cycles: 148829408 heartbeat IPC: 1.941 cumulative IPC: 0.5937 (Simulation time: 00 hr 20 min 45 sec)
Heartbeat CPU 0 instructions: 130500676 cycles: 149015095 heartbeat IPC: 2.693 cumulative IPC: 0.5966 (Simulation time: 00 hr 20 min 47 sec)
Heartbeat CPU 0 instructions: 131000682 cycles: 149198123 heartbeat IPC: 2.732 cumulative IPC: 0.5995 (Simulation time: 00 hr 20 min 50 sec)
Heartbeat CPU 0 instructions: 131500684 cycles: 150260161 heartbeat IPC: 0.4708 cumulative IPC: 0.5985 (Simulation time: 00 hr 20 min 58 sec)
Heartbeat CPU 0 instructions: 132000684 cycles: 151779777 heartbeat IPC: 0.329 cumulative IPC: 0.5955 (Simulation time: 00 hr 21 min 08 sec)
Heartbeat CPU 0 instructions: 132500684 cycles: 153163443 heartbeat IPC: 0.3614 cumulative IPC: 0.5932 (Simulation time: 00 hr 21 min 18 sec)
Heartbeat CPU 0 instructions: 133000686 cycles: 153985062 heartbeat IPC: 0.6086 cumulative IPC: 0.5933 (Simulation time: 00 hr 21 min 23 sec)
Heartbeat CPU 0 instructions: 133500690 cycles: 155119904 heartbeat IPC: 0.4406 cumulative IPC: 0.5921 (Simulation time: 00 hr 21 min 31 sec)
Heartbeat CPU 0 instructions: 134000690 cycles: 156203259 heartbeat IPC: 0.4615 cumulative IPC: 0.5911 (Simulation time: 00 hr 21 min 38 sec)
Heartbeat CPU 0 instructions: 134500694 cycles: 157758489 heartbeat IPC: 0.3215 cumulative IPC: 0.5882 (Simulation time: 00 hr 21 min 48 sec)
Heartbeat CPU 0 instructions: 135000696 cycles: 159072276 heartbeat IPC: 0.3806 cumulative IPC: 0.5863 (Simulation time: 00 hr 21 min 57 sec)
Heartbeat CPU 0 instructions: 135500697 cycles: 160583981 heartbeat IPC: 0.3308 cumulative IPC: 0.5836 (Simulation time: 00 hr 22 min 06 sec)
Heartbeat CPU 0 instructions: 136000697 cycles: 161450425 heartbeat IPC: 0.5771 cumulative IPC: 0.5836 (Simulation time: 00 hr 22 min 12 sec)
Heartbeat CPU 0 instructions: 136500703 cycles: 162471127 heartbeat IPC: 0.4899 cumulative IPC: 0.583 (Simulation time: 00 hr 22 min 19 sec)
Heartbeat CPU 0 instructions: 137000710 cycles: 163717571 heartbeat IPC: 0.4011 cumulative IPC: 0.5814 (Simulation time: 00 hr 22 min 27 sec)
Heartbeat CPU 0 instructions: 137500710 cycles: 165162782 heartbeat IPC: 0.346 cumulative IPC: 0.5792 (Simulation time: 00 hr 22 min 39 sec)
Heartbeat CPU 0 instructions: 138000710 cycles: 166160898 heartbeat IPC: 0.5009 cumulative IPC: 0.5787 (Simulation time: 00 hr 22 min 48 sec)
Heartbeat CPU 0 instructions: 138500714 cycles: 167040826 heartbeat IPC: 0.5682 cumulative IPC: 0.5786 (Simulation time: 00 hr 22 min 56 sec)
Heartbeat CPU 0 instructions: 139000719 cycles: 168079458 heartbeat IPC: 0.4814 cumulative IPC: 0.578 (Simulation time: 00 hr 23 min 05 sec)
Heartbeat CPU 0 instructions: 139500719 cycles: 169289513 heartbeat IPC: 0.4132 cumulative IPC: 0.5767 (Simulation time: 00 hr 23 min 14 sec)
Heartbeat CPU 0 instructions: 140000723 cycles: 170073474 heartbeat IPC: 0.6378 cumulative IPC: 0.577 (Simulation time: 00 hr 23 min 20 sec)
Heartbeat CPU 0 instructions: 140500725 cycles: 171587086 heartbeat IPC: 0.3303 cumulative IPC: 0.5746 (Simulation time: 00 hr 23 min 30 sec)
Heartbeat CPU 0 instructions: 141000725 cycles: 172312341 heartbeat IPC: 0.6894 cumulative IPC: 0.5751 (Simulation time: 00 hr 23 min 35 sec)
Heartbeat CPU 0 instructions: 141500725 cycles: 172823063 heartbeat IPC: 0.979 cumulative IPC: 0.5764 (Simulation time: 00 hr 23 min 39 sec)
Heartbeat CPU 0 instructions: 142000732 cycles: 173448346 heartbeat IPC: 0.7996 cumulative IPC: 0.5773 (Simulation time: 00 hr 23 min 43 sec)
Heartbeat CPU 0 instructions: 142500739 cycles: 175381051 heartbeat IPC: 0.2587 cumulative IPC: 0.5735 (Simulation time: 00 hr 23 min 56 sec)
Heartbeat CPU 0 instructions: 143000739 cycles: 176509172 heartbeat IPC: 0.4432 cumulative IPC: 0.5726 (Simulation time: 00 hr 24 min 04 sec)
Heartbeat CPU 0 instructions: 143500743 cycles: 178022292 heartbeat IPC: 0.3304 cumulative IPC: 0.5704 (Simulation time: 00 hr 24 min 13 sec)
Heartbeat CPU 0 instructions: 144000743 cycles: 179204004 heartbeat IPC: 0.4231 cumulative IPC: 0.5693 (Simulation time: 00 hr 24 min 21 sec)
Heartbeat CPU 0 instructions: 144500744 cycles: 179872404 heartbeat IPC: 0.7481 cumulative IPC: 0.57 (Simulation time: 00 hr 24 min 26 sec)
Heartbeat CPU 0 instructions: 145000748 cycles: 180217070 heartbeat IPC: 1.451 cumulative IPC: 0.5719 (Simulation time: 00 hr 24 min 30 sec)
Heartbeat CPU 0 instructions: 145500750 cycles: 180568522 heartbeat IPC: 1.423 cumulative IPC: 0.5737 (Simulation time: 00 hr 24 min 34 sec)
Heartbeat CPU 0 instructions: 146000750 cycles: 181805131 heartbeat IPC: 0.4043 cumulative IPC: 0.5724 (Simulation time: 00 hr 24 min 42 sec)
Heartbeat CPU 0 instructions: 146500751 cycles: 182739379 heartbeat IPC: 0.5352 cumulative IPC: 0.5722 (Simulation time: 00 hr 24 min 48 sec)
Heartbeat CPU 0 instructions: 147000754 cycles: 184155296 heartbeat IPC: 0.3531 cumulative IPC: 0.5704 (Simulation time: 00 hr 24 min 57 sec)
Heartbeat CPU 0 instructions: 147500754 cycles: 185188537 heartbeat IPC: 0.4839 cumulative IPC: 0.5699 (Simulation time: 00 hr 25 min 04 sec)
Heartbeat CPU 0 instructions: 148000754 cycles: 186244574 heartbeat IPC: 0.4735 cumulative IPC: 0.5693 (Simulation time: 00 hr 25 min 11 sec)
Heartbeat CPU 0 instructions: 148500755 cycles: 186701077 heartbeat IPC: 1.095 cumulative IPC: 0.5707 (Simulation time: 00 hr 25 min 15 sec)
Heartbeat CPU 0 instructions: 149000757 cycles: 187690968 heartbeat IPC: 0.5051 cumulative IPC: 0.5703 (Simulation time: 00 hr 25 min 21 sec)
Heartbeat CPU 0 instructions: 149500764 cycles: 188346503 heartbeat IPC: 0.7627 cumulative IPC: 0.571 (Simulation time: 00 hr 25 min 25 sec)
Heartbeat CPU 0 instructions: 150000770 cycles: 189556233 heartbeat IPC: 0.4133 cumulative IPC: 0.5699 (Simulation time: 00 hr 25 min 35 sec)
Heartbeat CPU 0 instructions: 150500777 cycles: 191034712 heartbeat IPC: 0.3382 cumulative IPC: 0.568 (Simulation time: 00 hr 25 min 44 sec)
Heartbeat CPU 0 instructions: 151000777 cycles: 192309230 heartbeat IPC: 0.3923 cumulative IPC: 0.5667 (Simulation time: 00 hr 25 min 54 sec)
Heartbeat CPU 0 instructions: 151500782 cycles: 192947937 heartbeat IPC: 0.7828 cumulative IPC: 0.5675 (Simulation time: 00 hr 26 min 00 sec)
Heartbeat CPU 0 instructions: 152000783 cycles: 194019824 heartbeat IPC: 0.4665 cumulative IPC: 0.5669 (Simulation time: 00 hr 26 min 08 sec)
Heartbeat CPU 0 instructions: 152500783 cycles: 194877690 heartbeat IPC: 0.5828 cumulative IPC: 0.567 (Simulation time: 00 hr 26 min 16 sec)
Heartbeat CPU 0 instructions: 153000783 cycles: 196389978 heartbeat IPC: 0.3306 cumulative IPC: 0.565 (Simulation time: 00 hr 26 min 25 sec)
Heartbeat CPU 0 instructions: 153500784 cycles: 198249097 heartbeat IPC: 0.2689 cumulative IPC: 0.562 (Simulation time: 00 hr 26 min 38 sec)
Heartbeat CPU 0 instructions: 154000784 cycles: 200349684 heartbeat IPC: 0.238 cumulative IPC: 0.5584 (Simulation time: 00 hr 26 min 50 sec)
Heartbeat CPU 0 instructions: 154500785 cycles: 201008164 heartbeat IPC: 0.7593 cumulative IPC: 0.5591 (Simulation time: 00 hr 26 min 54 sec)
Heartbeat CPU 0 instructions: 155000787 cycles: 202355822 heartbeat IPC: 0.371 cumulative IPC: 0.5577 (Simulation time: 00 hr 27 min 02 sec)
Heartbeat CPU 0 instructions: 155500787 cycles: 203416028 heartbeat IPC: 0.4716 cumulative IPC: 0.5572 (Simulation time: 00 hr 27 min 09 sec)
Heartbeat CPU 0 instructions: 156000794 cycles: 204712680 heartbeat IPC: 0.3856 cumulative IPC: 0.5561 (Simulation time: 00 hr 27 min 17 sec)
Heartbeat CPU 0 instructions: 156500801 cycles: 205756130 heartbeat IPC: 0.4792 cumulative IPC: 0.5557 (Simulation time: 00 hr 27 min 25 sec)
Heartbeat CPU 0 instructions: 157000805 cycles: 206674128 heartbeat IPC: 0.5447 cumulative IPC: 0.5556 (Simulation time: 00 hr 27 min 33 sec)
Heartbeat CPU 0 instructions: 157500805 cycles: 207439044 heartbeat IPC: 0.6537 cumulative IPC: 0.556 (Simulation time: 00 hr 27 min 39 sec)
Heartbeat CPU 0 instructions: 158000807 cycles: 208090306 heartbeat IPC: 0.7677 cumulative IPC: 0.5567 (Simulation time: 00 hr 27 min 44 sec)
Heartbeat CPU 0 instructions: 158500807 cycles: 208616936 heartbeat IPC: 0.9494 cumulative IPC: 0.5578 (Simulation time: 00 hr 27 min 49 sec)
Heartbeat CPU 0 instructions: 159000807 cycles: 209552309 heartbeat IPC: 0.5345 cumulative IPC: 0.5577 (Simulation time: 00 hr 27 min 56 sec)
Heartbeat CPU 0 instructions: 159500808 cycles: 210526610 heartbeat IPC: 0.5132 cumulative IPC: 0.5574 (Simulation time: 00 hr 28 min 03 sec)
Heartbeat CPU 0 instructions: 160000808 cycles: 212836075 heartbeat IPC: 0.2165 cumulative IPC: 0.5535 (Simulation time: 00 hr 28 min 16 sec)
Heartbeat CPU 0 instructions: 160500808 cycles: 214172204 heartbeat IPC: 0.3742 cumulative IPC: 0.5523 (Simulation time: 00 hr 28 min 24 sec)
Heartbeat CPU 0 instructions: 161000808 cycles: 215749421 heartbeat IPC: 0.317 cumulative IPC: 0.5504 (Simulation time: 00 hr 28 min 33 sec)
Heartbeat CPU 0 instructions: 161500811 cycles: 216937397 heartbeat IPC: 0.4209 cumulative IPC: 0.5497 (Simulation time: 00 hr 28 min 40 sec)
Heartbeat CPU 0 instructions: 162000812 cycles: 217862637 heartbeat IPC: 0.5404 cumulative IPC: 0.5496 (Simulation time: 00 hr 28 min 45 sec)
Heartbeat CPU 0 instructions: 162500812 cycles: 218652025 heartbeat IPC: 0.6334 cumulative IPC: 0.55 (Simulation time: 00 hr 28 min 50 sec)
Heartbeat CPU 0 instructions: 163000818 cycles: 219897779 heartbeat IPC: 0.4014 cumulative IPC: 0.5491 (Simulation time: 00 hr 28 min 58 sec)
Heartbeat CPU 0 instructions: 163500818 cycles: 220713858 heartbeat IPC: 0.6127 cumulative IPC: 0.5493 (Simulation time: 00 hr 29 min 03 sec)
Heartbeat CPU 0 instructions: 164000822 cycles: 221421825 heartbeat IPC: 0.7063 cumulative IPC: 0.5498 (Simulation time: 00 hr 29 min 08 sec)
Heartbeat CPU 0 instructions: 164500824 cycles: 222541894 heartbeat IPC: 0.4464 cumulative IPC: 0.5493 (Simulation time: 00 hr 29 min 15 sec)
Heartbeat CPU 0 instructions: 165000826 cycles: 222806478 heartbeat IPC: 1.89 cumulative IPC: 0.551 (Simulation time: 00 hr 29 min 17 sec)
Heartbeat CPU 0 instructions: 165500828 cycles: 222957231 heartbeat IPC: 3.317 cumulative IPC: 0.553 (Simulation time: 00 hr 29 min 18 sec)
Heartbeat CPU 0 instructions: 166000829 cycles: 223280885 heartbeat IPC: 1.545 cumulative IPC: 0.5545 (Simulation time: 00 hr 29 min 20 sec)
Heartbeat CPU 0 instructions: 166500829 cycles: 223474950 heartbeat IPC: 2.576 cumulative IPC: 0.5564 (Simulation time: 00 hr 29 min 22 sec)
Heartbeat CPU 0 instructions: 167000829 cycles: 223687712 heartbeat IPC: 2.35 cumulative IPC: 0.5582 (Simulation time: 00 hr 29 min 24 sec)
Heartbeat CPU 0 instructions: 167500836 cycles: 224519252 heartbeat IPC: 0.6013 cumulative IPC: 0.5584 (Simulation time: 00 hr 29 min 29 sec)
Heartbeat CPU 0 instructions: 168000839 cycles: 225791909 heartbeat IPC: 0.3929 cumulative IPC: 0.5574 (Simulation time: 00 hr 29 min 36 sec)
Heartbeat CPU 0 instructions: 168500843 cycles: 227154295 heartbeat IPC: 0.367 cumulative IPC: 0.5562 (Simulation time: 00 hr 29 min 46 sec)
Heartbeat CPU 0 instructions: 169000847 cycles: 228506026 heartbeat IPC: 0.3699 cumulative IPC: 0.555 (Simulation time: 00 hr 29 min 54 sec)
Heartbeat CPU 0 instructions: 169500854 cycles: 229676518 heartbeat IPC: 0.4272 cumulative IPC: 0.5543 (Simulation time: 00 hr 30 min 01 sec)
Heartbeat CPU 0 instructions: 170000854 cycles: 230635182 heartbeat IPC: 0.5216 cumulative IPC: 0.5542 (Simulation time: 00 hr 30 min 07 sec)
Heartbeat CPU 0 instructions: 170500860 cycles: 232066416 heartbeat IPC: 0.3494 cumulative IPC: 0.5528 (Simulation time: 00 hr 30 min 15 sec)
Heartbeat CPU 0 instructions: 171000860 cycles: 233415046 heartbeat IPC: 0.3707 cumulative IPC: 0.5517 (Simulation time: 00 hr 30 min 23 sec)
Heartbeat CPU 0 instructions: 171500866 cycles: 234943708 heartbeat IPC: 0.3271 cumulative IPC: 0.5501 (Simulation time: 00 hr 30 min 32 sec)
Heartbeat CPU 0 instructions: 172000870 cycles: 236208839 heartbeat IPC: 0.3952 cumulative IPC: 0.5493 (Simulation time: 00 hr 30 min 39 sec)
Heartbeat CPU 0 instructions: 172500870 cycles: 237480686 heartbeat IPC: 0.3931 cumulative IPC: 0.5484 (Simulation time: 00 hr 30 min 46 sec)
Heartbeat CPU 0 instructions: 173000875 cycles: 238819988 heartbeat IPC: 0.3733 cumulative IPC: 0.5473 (Simulation time: 00 hr 30 min 54 sec)
Heartbeat CPU 0 instructions: 173500875 cycles: 240160724 heartbeat IPC: 0.3729 cumulative IPC: 0.5463 (Simulation time: 00 hr 31 min 02 sec)
Heartbeat CPU 0 instructions: 174000875 cycles: 241199014 heartbeat IPC: 0.4816 cumulative IPC: 0.546 (Simulation time: 00 hr 31 min 08 sec)
Heartbeat CPU 0 instructions: 174500875 cycles: 241830383 heartbeat IPC: 0.7919 cumulative IPC: 0.5467 (Simulation time: 00 hr 31 min 12 sec)
Heartbeat CPU 0 instructions: 175000875 cycles: 242038560 heartbeat IPC: 2.402 cumulative IPC: 0.5484 (Simulation time: 00 hr 31 min 15 sec)
Heartbeat CPU 0 instructions: 175500875 cycles: 243583611 heartbeat IPC: 0.3236 cumulative IPC: 0.5469 (Simulation time: 00 hr 31 min 23 sec)
Heartbeat CPU 0 instructions: 176000875 cycles: 244802008 heartbeat IPC: 0.4104 cumulative IPC: 0.5461 (Simulation time: 00 hr 31 min 30 sec)
Heartbeat CPU 0 instructions: 176500875 cycles: 245637380 heartbeat IPC: 0.5985 cumulative IPC: 0.5463 (Simulation time: 00 hr 31 min 36 sec)
Heartbeat CPU 0 instructions: 177000881 cycles: 247233833 heartbeat IPC: 0.3132 cumulative IPC: 0.5447 (Simulation time: 00 hr 31 min 45 sec)
Heartbeat CPU 0 instructions: 177500883 cycles: 249006620 heartbeat IPC: 0.282 cumulative IPC: 0.5428 (Simulation time: 00 hr 31 min 54 sec)
Heartbeat CPU 0 instructions: 178000884 cycles: 250235419 heartbeat IPC: 0.4069 cumulative IPC: 0.542 (Simulation time: 00 hr 32 min 01 sec)
Heartbeat CPU 0 instructions: 178500885 cycles: 251158939 heartbeat IPC: 0.5414 cumulative IPC: 0.542 (Simulation time: 00 hr 32 min 07 sec)
Heartbeat CPU 0 instructions: 179000885 cycles: 252730876 heartbeat IPC: 0.3181 cumulative IPC: 0.5406 (Simulation time: 00 hr 32 min 16 sec)
Heartbeat CPU 0 instructions: 179500885 cycles: 254161538 heartbeat IPC: 0.3495 cumulative IPC: 0.5394 (Simulation time: 00 hr 32 min 25 sec)
Heartbeat CPU 0 instructions: 180000885 cycles: 254892478 heartbeat IPC: 0.6841 cumulative IPC: 0.5399 (Simulation time: 00 hr 32 min 30 sec)
Heartbeat CPU 0 instructions: 180500892 cycles: 255435233 heartbeat IPC: 0.9212 cumulative IPC: 0.5407 (Simulation time: 00 hr 32 min 33 sec)
Heartbeat CPU 0 instructions: 181000898 cycles: 256434753 heartbeat IPC: 0.5002 cumulative IPC: 0.5406 (Simulation time: 00 hr 32 min 39 sec)
Heartbeat CPU 0 instructions: 181500899 cycles: 257422958 heartbeat IPC: 0.506 cumulative IPC: 0.5404 (Simulation time: 00 hr 32 min 45 sec)
Heartbeat CPU 0 instructions: 182000901 cycles: 258652845 heartbeat IPC: 0.4065 cumulative IPC: 0.5397 (Simulation time: 00 hr 32 min 53 sec)
Heartbeat CPU 0 instructions: 182500908 cycles: 259136306 heartbeat IPC: 1.034 cumulative IPC: 0.5407 (Simulation time: 00 hr 32 min 57 sec)
Heartbeat CPU 0 instructions: 183000910 cycles: 260403289 heartbeat IPC: 0.3946 cumulative IPC: 0.54 (Simulation time: 00 hr 33 min 05 sec)
Heartbeat CPU 0 instructions: 183500915 cycles: 261309721 heartbeat IPC: 0.5516 cumulative IPC: 0.54 (Simulation time: 00 hr 33 min 11 sec)
Heartbeat CPU 0 instructions: 184000921 cycles: 262212587 heartbeat IPC: 0.5538 cumulative IPC: 0.5401 (Simulation time: 00 hr 33 min 17 sec)
Heartbeat CPU 0 instructions: 184500921 cycles: 264679915 heartbeat IPC: 0.2026 cumulative IPC: 0.5367 (Simulation time: 00 hr 33 min 31 sec)
Heartbeat CPU 0 instructions: 185000925 cycles: 266168973 heartbeat IPC: 0.3358 cumulative IPC: 0.5356 (Simulation time: 00 hr 33 min 39 sec)
Heartbeat CPU 0 instructions: 185500925 cycles: 267562738 heartbeat IPC: 0.3587 cumulative IPC: 0.5346 (Simulation time: 00 hr 33 min 48 sec)
Heartbeat CPU 0 instructions: 186000926 cycles: 268492784 heartbeat IPC: 0.5376 cumulative IPC: 0.5346 (Simulation time: 00 hr 33 min 53 sec)
Heartbeat CPU 0 instructions: 186500930 cycles: 270123438 heartbeat IPC: 0.3066 cumulative IPC: 0.5331 (Simulation time: 00 hr 34 min 02 sec)
Heartbeat CPU 0 instructions: 187000937 cycles: 270829645 heartbeat IPC: 0.708 cumulative IPC: 0.5336 (Simulation time: 00 hr 34 min 07 sec)
Heartbeat CPU 0 instructions: 187500939 cycles: 272229871 heartbeat IPC: 0.3571 cumulative IPC: 0.5327 (Simulation time: 00 hr 34 min 14 sec)
Heartbeat CPU 0 instructions: 188000945 cycles: 273613782 heartbeat IPC: 0.3613 cumulative IPC: 0.5317 (Simulation time: 00 hr 34 min 22 sec)
Heartbeat CPU 0 instructions: 188500947 cycles: 275198025 heartbeat IPC: 0.3156 cumulative IPC: 0.5304 (Simulation time: 00 hr 34 min 31 sec)
Heartbeat CPU 0 instructions: 189000949 cycles: 276719835 heartbeat IPC: 0.3286 cumulative IPC: 0.5293 (Simulation time: 00 hr 34 min 41 sec)
Heartbeat CPU 0 instructions: 189500955 cycles: 277881956 heartbeat IPC: 0.4303 cumulative IPC: 0.5288 (Simulation time: 00 hr 34 min 48 sec)
Heartbeat CPU 0 instructions: 190000958 cycles: 279086739 heartbeat IPC: 0.415 cumulative IPC: 0.5283 (Simulation time: 00 hr 34 min 55 sec)
Heartbeat CPU 0 instructions: 190500958 cycles: 280178189 heartbeat IPC: 0.4581 cumulative IPC: 0.528 (Simulation time: 00 hr 35 min 02 sec)
Heartbeat CPU 0 instructions: 191000958 cycles: 281456660 heartbeat IPC: 0.3911 cumulative IPC: 0.5274 (Simulation time: 00 hr 35 min 09 sec)
Heartbeat CPU 0 instructions: 191500958 cycles: 282734145 heartbeat IPC: 0.3914 cumulative IPC: 0.5267 (Simulation time: 00 hr 35 min 16 sec)
Heartbeat CPU 0 instructions: 192000959 cycles: 283967410 heartbeat IPC: 0.4054 cumulative IPC: 0.5262 (Simulation time: 00 hr 35 min 24 sec)
Heartbeat CPU 0 instructions: 192500960 cycles: 284888606 heartbeat IPC: 0.5428 cumulative IPC: 0.5262 (Simulation time: 00 hr 35 min 30 sec)
Heartbeat CPU 0 instructions: 193000960 cycles: 286242761 heartbeat IPC: 0.3692 cumulative IPC: 0.5254 (Simulation time: 00 hr 35 min 37 sec)
Heartbeat CPU 0 instructions: 193500966 cycles: 287819458 heartbeat IPC: 0.3171 cumulative IPC: 0.5242 (Simulation time: 00 hr 35 min 48 sec)
Heartbeat CPU 0 instructions: 194000967 cycles: 289360343 heartbeat IPC: 0.3245 cumulative IPC: 0.5231 (Simulation time: 00 hr 35 min 57 sec)
Heartbeat CPU 0 instructions: 194500974 cycles: 290777226 heartbeat IPC: 0.3529 cumulative IPC: 0.5223 (Simulation time: 00 hr 36 min 05 sec)
Heartbeat CPU 0 instructions: 195000975 cycles: 291924323 heartbeat IPC: 0.4359 cumulative IPC: 0.5219 (Simulation time: 00 hr 36 min 12 sec)
Heartbeat CPU 0 instructions: 195500976 cycles: 292958924 heartbeat IPC: 0.4833 cumulative IPC: 0.5218 (Simulation time: 00 hr 36 min 18 sec)
Heartbeat CPU 0 instructions: 196000976 cycles: 293764916 heartbeat IPC: 0.6204 cumulative IPC: 0.522 (Simulation time: 00 hr 36 min 24 sec)
Heartbeat CPU 0 instructions: 196500983 cycles: 294848406 heartbeat IPC: 0.4615 cumulative IPC: 0.5218 (Simulation time: 00 hr 36 min 30 sec)
Heartbeat CPU 0 instructions: 197000987 cycles: 296591477 heartbeat IPC: 0.2869 cumulative IPC: 0.5204 (Simulation time: 00 hr 36 min 40 sec)
Heartbeat CPU 0 instructions: 197500990 cycles: 297474501 heartbeat IPC: 0.5662 cumulative IPC: 0.5205 (Simulation time: 00 hr 36 min 45 sec)
Heartbeat CPU 0 instructions: 198000992 cycles: 298228101 heartbeat IPC: 0.6635 cumulative IPC: 0.5209 (Simulation time: 00 hr 36 min 51 sec)
Heartbeat CPU 0 instructions: 198500994 cycles: 298558792 heartbeat IPC: 1.512 cumulative IPC: 0.522 (Simulation time: 00 hr 36 min 54 sec)
Heartbeat CPU 0 instructions: 199000998 cycles: 299286088 heartbeat IPC: 0.6875 cumulative IPC: 0.5225 (Simulation time: 00 hr 36 min 59 sec)
Heartbeat CPU 0 instructions: 199501002 cycles: 300714392 heartbeat IPC: 0.3501 cumulative IPC: 0.5216 (Simulation time: 00 hr 37 min 07 sec)
Heartbeat CPU 0 instructions: 200001002 cycles: 302087503 heartbeat IPC: 0.3641 cumulative IPC: 0.5208 (Simulation time: 00 hr 37 min 16 sec)
Heartbeat CPU 0 instructions: 200501003 cycles: 303429864 heartbeat IPC: 0.3725 cumulative IPC: 0.5202 (Simulation time: 00 hr 37 min 24 sec)
Heartbeat CPU 0 instructions: 201001003 cycles: 304275757 heartbeat IPC: 0.5911 cumulative IPC: 0.5204 (Simulation time: 00 hr 37 min 29 sec)
Heartbeat CPU 0 instructions: 201501003 cycles: 305513633 heartbeat IPC: 0.4039 cumulative IPC: 0.5199 (Simulation time: 00 hr 37 min 37 sec)
Heartbeat CPU 0 instructions: 202001003 cycles: 306447205 heartbeat IPC: 0.5356 cumulative IPC: 0.5199 (Simulation time: 00 hr 37 min 42 sec)
Heartbeat CPU 0 instructions: 202501006 cycles: 307506801 heartbeat IPC: 0.4719 cumulative IPC: 0.5197 (Simulation time: 00 hr 37 min 49 sec)
Heartbeat CPU 0 instructions: 203001009 cycles: 308778440 heartbeat IPC: 0.3932 cumulative IPC: 0.5192 (Simulation time: 00 hr 37 min 56 sec)
Heartbeat CPU 0 instructions: 203501014 cycles: 309645335 heartbeat IPC: 0.5768 cumulative IPC: 0.5194 (Simulation time: 00 hr 38 min 02 sec)
Heartbeat CPU 0 instructions: 204001014 cycles: 310735738 heartbeat IPC: 0.4585 cumulative IPC: 0.5191 (Simulation time: 00 hr 38 min 08 sec)
Heartbeat CPU 0 instructions: 204501014 cycles: 311130953 heartbeat IPC: 1.265 cumulative IPC: 0.5201 (Simulation time: 00 hr 38 min 11 sec)
Heartbeat CPU 0 instructions: 205001014 cycles: 311645767 heartbeat IPC: 0.9712 cumulative IPC: 0.5209 (Simulation time: 00 hr 38 min 14 sec)
Heartbeat CPU 0 instructions: 205501019 cycles: 312413397 heartbeat IPC: 0.6514 cumulative IPC: 0.5213 (Simulation time: 00 hr 38 min 19 sec)
Heartbeat CPU 0 instructions: 206001019 cycles: 313775563 heartbeat IPC: 0.3671 cumulative IPC: 0.5205 (Simulation time: 00 hr 38 min 27 sec)
Heartbeat CPU 0 instructions: 206501022 cycles: 315141581 heartbeat IPC: 0.366 cumulative IPC: 0.5198 (Simulation time: 00 hr 38 min 35 sec)
Heartbeat CPU 0 instructions: 207001027 cycles: 316555554 heartbeat IPC: 0.3536 cumulative IPC: 0.5191 (Simulation time: 00 hr 38 min 43 sec)
Heartbeat CPU 0 instructions: 207501033 cycles: 317936768 heartbeat IPC: 0.362 cumulative IPC: 0.5184 (Simulation time: 00 hr 38 min 52 sec)
Heartbeat CPU 0 instructions: 208001033 cycles: 319075187 heartbeat IPC: 0.4392 cumulative IPC: 0.5181 (Simulation time: 00 hr 38 min 58 sec)
Heartbeat CPU 0 instructions: 208501033 cycles: 320419389 heartbeat IPC: 0.372 cumulative IPC: 0.5174 (Simulation time: 00 hr 39 min 06 sec)
Heartbeat CPU 0 instructions: 209001036 cycles: 321550972 heartbeat IPC: 0.4419 cumulative IPC: 0.5171 (Simulation time: 00 hr 39 min 13 sec)
Heartbeat CPU 0 instructions: 209501036 cycles: 323226250 heartbeat IPC: 0.2985 cumulative IPC: 0.516 (Simulation time: 00 hr 39 min 23 sec)
Heartbeat CPU 0 instructions: 210001040 cycles: 324277452 heartbeat IPC: 0.4756 cumulative IPC: 0.5158 (Simulation time: 00 hr 39 min 29 sec)
Heartbeat CPU 0 instructions: 210501044 cycles: 325299856 heartbeat IPC: 0.489 cumulative IPC: 0.5157 (Simulation time: 00 hr 39 min 35 sec)
Heartbeat CPU 0 instructions: 211001048 cycles: 325910726 heartbeat IPC: 0.8185 cumulative IPC: 0.5163 (Simulation time: 00 hr 39 min 39 sec)
Heartbeat CPU 0 instructions: 211501048 cycles: 327065216 heartbeat IPC: 0.4331 cumulative IPC: 0.516 (Simulation time: 00 hr 39 min 46 sec)
Heartbeat CPU 0 instructions: 212001048 cycles: 328214536 heartbeat IPC: 0.435 cumulative IPC: 0.5157 (Simulation time: 00 hr 39 min 53 sec)
Heartbeat CPU 0 instructions: 212501055 cycles: 329096931 heartbeat IPC: 0.5666 cumulative IPC: 0.5159 (Simulation time: 00 hr 39 min 59 sec)
Heartbeat CPU 0 instructions: 213001058 cycles: 329653922 heartbeat IPC: 0.8977 cumulative IPC: 0.5165 (Simulation time: 00 hr 40 min 02 sec)
Heartbeat CPU 0 instructions: 213501058 cycles: 330843876 heartbeat IPC: 0.4202 cumulative IPC: 0.5162 (Simulation time: 00 hr 40 min 09 sec)
Heartbeat CPU 0 instructions: 214001059 cycles: 331374729 heartbeat IPC: 0.9419 cumulative IPC: 0.5169 (Simulation time: 00 hr 40 min 13 sec)
Heartbeat CPU 0 instructions: 214501064 cycles: 331891739 heartbeat IPC: 0.9671 cumulative IPC: 0.5176 (Simulation time: 00 hr 40 min 17 sec)
Heartbeat CPU 0 instructions: 215001068 cycles: 332210890 heartbeat IPC: 1.567 cumulative IPC: 0.5187 (Simulation time: 00 hr 40 min 19 sec)
Heartbeat CPU 0 instructions: 215501069 cycles: 333302238 heartbeat IPC: 0.4581 cumulative IPC: 0.5185 (Simulation time: 00 hr 40 min 26 sec)
Heartbeat CPU 0 instructions: 216001069 cycles: 334110076 heartbeat IPC: 0.6189 cumulative IPC: 0.5187 (Simulation time: 00 hr 40 min 31 sec)
Heartbeat CPU 0 instructions: 216501069 cycles: 335016575 heartbeat IPC: 0.5516 cumulative IPC: 0.5188 (Simulation time: 00 hr 40 min 37 sec)
Heartbeat CPU 0 instructions: 217001075 cycles: 336797487 heartbeat IPC: 0.2808 cumulative IPC: 0.5175 (Simulation time: 00 hr 40 min 46 sec)
Heartbeat CPU 0 instructions: 217501081 cycles: 338071956 heartbeat IPC: 0.3923 cumulative IPC: 0.517 (Simulation time: 00 hr 40 min 54 sec)
Heartbeat CPU 0 instructions: 218001083 cycles: 338804745 heartbeat IPC: 0.6823 cumulative IPC: 0.5174 (Simulation time: 00 hr 40 min 59 sec)
Heartbeat CPU 0 instructions: 218501083 cycles: 339027853 heartbeat IPC: 2.241 cumulative IPC: 0.5186 (Simulation time: 00 hr 41 min 01 sec)
Heartbeat CPU 0 instructions: 219001084 cycles: 339871254 heartbeat IPC: 0.5928 cumulative IPC: 0.5188 (Simulation time: 00 hr 41 min 06 sec)
Heartbeat CPU 0 instructions: 219501084 cycles: 341762839 heartbeat IPC: 0.2643 cumulative IPC: 0.5173 (Simulation time: 00 hr 41 min 19 sec)
Heartbeat CPU 0 instructions: 220001084 cycles: 343192363 heartbeat IPC: 0.3498 cumulative IPC: 0.5166 (Simulation time: 00 hr 41 min 27 sec)
Heartbeat CPU 0 instructions: 220501084 cycles: 344282668 heartbeat IPC: 0.4586 cumulative IPC: 0.5164 (Simulation time: 00 hr 41 min 33 sec)
Heartbeat CPU 0 instructions: 221001086 cycles: 345356872 heartbeat IPC: 0.4655 cumulative IPC: 0.5162 (Simulation time: 00 hr 41 min 40 sec)
Heartbeat CPU 0 instructions: 221501088 cycles: 346241409 heartbeat IPC: 0.5653 cumulative IPC: 0.5163 (Simulation time: 00 hr 41 min 45 sec)
Heartbeat CPU 0 instructions: 222001089 cycles: 347332405 heartbeat IPC: 0.4583 cumulative IPC: 0.5161 (Simulation time: 00 hr 41 min 52 sec)
Heartbeat CPU 0 instructions: 222501094 cycles: 347955512 heartbeat IPC: 0.8024 cumulative IPC: 0.5167 (Simulation time: 00 hr 41 min 57 sec)
Heartbeat CPU 0 instructions: 223001095 cycles: 349556966 heartbeat IPC: 0.3122 cumulative IPC: 0.5157 (Simulation time: 00 hr 42 min 05 sec)
Heartbeat CPU 0 instructions: 223501100 cycles: 350859235 heartbeat IPC: 0.3839 cumulative IPC: 0.5152 (Simulation time: 00 hr 42 min 13 sec)
Heartbeat CPU 0 instructions: 224001100 cycles: 352400218 heartbeat IPC: 0.3245 cumulative IPC: 0.5143 (Simulation time: 00 hr 42 min 22 sec)
Heartbeat CPU 0 instructions: 224501105 cycles: 353408222 heartbeat IPC: 0.496 cumulative IPC: 0.5143 (Simulation time: 00 hr 42 min 29 sec)
Heartbeat CPU 0 instructions: 225001105 cycles: 354299871 heartbeat IPC: 0.5608 cumulative IPC: 0.5144 (Simulation time: 00 hr 42 min 35 sec)
Heartbeat CPU 0 instructions: 225501105 cycles: 355287069 heartbeat IPC: 0.5065 cumulative IPC: 0.5144 (Simulation time: 00 hr 42 min 41 sec)
Heartbeat CPU 0 instructions: 226001106 cycles: 356181234 heartbeat IPC: 0.5592 cumulative IPC: 0.5145 (Simulation time: 00 hr 42 min 46 sec)
Heartbeat CPU 0 instructions: 226501107 cycles: 357319559 heartbeat IPC: 0.4392 cumulative IPC: 0.5142 (Simulation time: 00 hr 42 min 53 sec)
Heartbeat CPU 0 instructions: 227001111 cycles: 358351159 heartbeat IPC: 0.4847 cumulative IPC: 0.5141 (Simulation time: 00 hr 43 min 00 sec)
Heartbeat CPU 0 instructions: 227501111 cycles: 358707455 heartbeat IPC: 1.403 cumulative IPC: 0.5151 (Simulation time: 00 hr 43 min 04 sec)
Heartbeat CPU 0 instructions: 228001111 cycles: 359355703 heartbeat IPC: 0.7713 cumulative IPC: 0.5155 (Simulation time: 00 hr 43 min 08 sec)
Heartbeat CPU 0 instructions: 228501112 cycles: 361149887 heartbeat IPC: 0.2787 cumulative IPC: 0.5143 (Simulation time: 00 hr 43 min 18 sec)
Heartbeat CPU 0 instructions: 229001114 cycles: 362164800 heartbeat IPC: 0.4927 cumulative IPC: 0.5143 (Simulation time: 00 hr 43 min 24 sec)
Heartbeat CPU 0 instructions: 229501114 cycles: 363421051 heartbeat IPC: 0.398 cumulative IPC: 0.5138 (Simulation time: 00 hr 43 min 32 sec)
Heartbeat CPU 0 instructions: 230001114 cycles: 364270770 heartbeat IPC: 0.5884 cumulative IPC: 0.514 (Simulation time: 00 hr 43 min 37 sec)
Heartbeat CPU 0 instructions: 230501116 cycles: 365374859 heartbeat IPC: 0.4529 cumulative IPC: 0.5138 (Simulation time: 00 hr 43 min 44 sec)
Heartbeat CPU 0 instructions: 231001117 cycles: 366550842 heartbeat IPC: 0.4252 cumulative IPC: 0.5135 (Simulation time: 00 hr 43 min 51 sec)
Heartbeat CPU 0 instructions: 231501117 cycles: 368203482 heartbeat IPC: 0.3025 cumulative IPC: 0.5126 (Simulation time: 00 hr 44 min 00 sec)
Heartbeat CPU 0 instructions: 232001117 cycles: 369219540 heartbeat IPC: 0.4921 cumulative IPC: 0.5125 (Simulation time: 00 hr 44 min 06 sec)
Heartbeat CPU 0 instructions: 232501118 cycles: 370119117 heartbeat IPC: 0.5558 cumulative IPC: 0.5126 (Simulation time: 00 hr 44 min 12 sec)
Heartbeat CPU 0 instructions: 233001121 cycles: 371233321 heartbeat IPC: 0.4488 cumulative IPC: 0.5124 (Simulation time: 00 hr 44 min 19 sec)
Heartbeat CPU 0 instructions: 233501123 cycles: 372291590 heartbeat IPC: 0.4725 cumulative IPC: 0.5123 (Simulation time: 00 hr 44 min 25 sec)
Heartbeat CPU 0 instructions: 234001123 cycles: 373077486 heartbeat IPC: 0.6362 cumulative IPC: 0.5126 (Simulation time: 00 hr 44 min 30 sec)
Heartbeat CPU 0 instructions: 234501126 cycles: 374452496 heartbeat IPC: 0.3636 cumulative IPC: 0.512 (Simulation time: 00 hr 44 min 40 sec)
Heartbeat CPU 0 instructions: 235001126 cycles: 375761666 heartbeat IPC: 0.3819 cumulative IPC: 0.5115 (Simulation time: 00 hr 44 min 47 sec)
Heartbeat CPU 0 instructions: 235501129 cycles: 377024183 heartbeat IPC: 0.396 cumulative IPC: 0.5111 (Simulation time: 00 hr 44 min 54 sec)
Heartbeat CPU 0 instructions: 236001129 cycles: 378306338 heartbeat IPC: 0.39 cumulative IPC: 0.5107 (Simulation time: 00 hr 45 min 02 sec)
Heartbeat CPU 0 instructions: 236501131 cycles: 378976999 heartbeat IPC: 0.7455 cumulative IPC: 0.5111 (Simulation time: 00 hr 45 min 06 sec)
Heartbeat CPU 0 instructions: 237001137 cycles: 379751772 heartbeat IPC: 0.6454 cumulative IPC: 0.5114 (Simulation time: 00 hr 45 min 11 sec)
Heartbeat CPU 0 instructions: 237501137 cycles: 380463806 heartbeat IPC: 0.7022 cumulative IPC: 0.5118 (Simulation time: 00 hr 45 min 16 sec)
Heartbeat CPU 0 instructions: 238001137 cycles: 381630505 heartbeat IPC: 0.4286 cumulative IPC: 0.5115 (Simulation time: 00 hr 45 min 23 sec)
Heartbeat CPU 0 instructions: 238501141 cycles: 382683421 heartbeat IPC: 0.4749 cumulative IPC: 0.5114 (Simulation time: 00 hr 45 min 29 sec)
Heartbeat CPU 0 instructions: 239001144 cycles: 384078797 heartbeat IPC: 0.3583 cumulative IPC: 0.5108 (Simulation time: 00 hr 45 min 37 sec)
Heartbeat CPU 0 instructions: 239501144 cycles: 385404868 heartbeat IPC: 0.3771 cumulative IPC: 0.5104 (Simulation time: 00 hr 45 min 45 sec)
Heartbeat CPU 0 instructions: 240001149 cycles: 386636052 heartbeat IPC: 0.4061 cumulative IPC: 0.51 (Simulation time: 00 hr 45 min 53 sec)
Heartbeat CPU 0 instructions: 240501150 cycles: 387607206 heartbeat IPC: 0.5149 cumulative IPC: 0.51 (Simulation time: 00 hr 45 min 59 sec)
Heartbeat CPU 0 instructions: 241001154 cycles: 388619517 heartbeat IPC: 0.4939 cumulative IPC: 0.51 (Simulation time: 00 hr 46 min 05 sec)
Heartbeat CPU 0 instructions: 241501155 cycles: 390016470 heartbeat IPC: 0.3579 cumulative IPC: 0.5094 (Simulation time: 00 hr 46 min 16 sec)
Heartbeat CPU 0 instructions: 242001155 cycles: 391505278 heartbeat IPC: 0.3358 cumulative IPC: 0.5087 (Simulation time: 00 hr 46 min 24 sec)
Heartbeat CPU 0 instructions: 242501156 cycles: 392585586 heartbeat IPC: 0.4628 cumulative IPC: 0.5086 (Simulation time: 00 hr 46 min 32 sec)
Heartbeat CPU 0 instructions: 243001156 cycles: 393692096 heartbeat IPC: 0.4519 cumulative IPC: 0.5084 (Simulation time: 00 hr 46 min 39 sec)
Heartbeat CPU 0 instructions: 243501163 cycles: 395177763 heartbeat IPC: 0.3366 cumulative IPC: 0.5078 (Simulation time: 00 hr 46 min 48 sec)
Heartbeat CPU 0 instructions: 244001164 cycles: 396724057 heartbeat IPC: 0.3234 cumulative IPC: 0.507 (Simulation time: 00 hr 46 min 56 sec)
Heartbeat CPU 0 instructions: 244501167 cycles: 397871147 heartbeat IPC: 0.4359 cumulative IPC: 0.5068 (Simulation time: 00 hr 47 min 03 sec)
Heartbeat CPU 0 instructions: 245001167 cycles: 398934042 heartbeat IPC: 0.4704 cumulative IPC: 0.5067 (Simulation time: 00 hr 47 min 09 sec)
Heartbeat CPU 0 instructions: 245501170 cycles: 399571691 heartbeat IPC: 0.7841 cumulative IPC: 0.5072 (Simulation time: 00 hr 47 min 13 sec)
Heartbeat CPU 0 instructions: 246001174 cycles: 400692978 heartbeat IPC: 0.4459 cumulative IPC: 0.507 (Simulation time: 00 hr 47 min 20 sec)
Heartbeat CPU 0 instructions: 246501174 cycles: 402094741 heartbeat IPC: 0.3567 cumulative IPC: 0.5064 (Simulation time: 00 hr 47 min 28 sec)
Heartbeat CPU 0 instructions: 247001181 cycles: 403134217 heartbeat IPC: 0.481 cumulative IPC: 0.5064 (Simulation time: 00 hr 47 min 34 sec)
Heartbeat CPU 0 instructions: 247501181 cycles: 404095814 heartbeat IPC: 0.52 cumulative IPC: 0.5064 (Simulation time: 00 hr 47 min 40 sec)
Heartbeat CPU 0 instructions: 248001181 cycles: 405101649 heartbeat IPC: 0.4971 cumulative IPC: 0.5064 (Simulation time: 00 hr 47 min 46 sec)
Heartbeat CPU 0 instructions: 248501188 cycles: 406439146 heartbeat IPC: 0.3738 cumulative IPC: 0.5059 (Simulation time: 00 hr 47 min 54 sec)
Heartbeat CPU 0 instructions: 249001194 cycles: 407668330 heartbeat IPC: 0.4068 cumulative IPC: 0.5056 (Simulation time: 00 hr 48 min 01 sec)
Heartbeat CPU 0 instructions: 249501194 cycles: 408016422 heartbeat IPC: 1.436 cumulative IPC: 0.5064 (Simulation time: 00 hr 48 min 04 sec)
Simulation finished CPU 0 instructions: 200000000 cycles: 395312074 cumulative IPC: 0.5059 (Simulation time: 00 hr 48 min 12 sec)
Simulation complete CPU 0 instructions: 200000000 cycles: 395312074 cumulative IPC: 0.5059 (Simulation time: 00 hr 48 min 12 sec)

ChampSim completed all CPUs

=== Simulation ===
CPU 0 runs /local-ssd/ben/dpc4-traces/gtraces_v2/tango_0003.champsim.gz

Region of Interest Statistics

CPU 0 cumulative IPC: 0.5059 instructions: 200000000 cycles: 395312074
CPU 0 Branch Prediction Accuracy: 89.8% MPKI: 18.96 Average ROB Occupancy at Mispredict: 22.68
Branch type MPKI
BRANCH_DIRECT_JUMP: 0.6011
BRANCH_INDIRECT: 0.3249
BRANCH_CONDITIONAL: 16.04
BRANCH_DIRECT_CALL: 0.9215
BRANCH_INDIRECT_CALL: 0.3141
BRANCH_RETURN: 0.7629

cpu0->cpu0_STLB TOTAL        ACCESS:    2412817 HIT:    1685087 MISS:     727730 MSHR_MERGE:          0
cpu0->cpu0_STLB LOAD         ACCESS:    2412817 HIT:    1685087 MISS:     727730 MSHR_MERGE:          0
cpu0->cpu0_STLB RFO          ACCESS:          0 HIT:          0 MISS:          0 MSHR_MERGE:          0
cpu0->cpu0_STLB PREFETCH     ACCESS:          0 HIT:          0 MISS:          0 MSHR_MERGE:          0
cpu0->cpu0_STLB WRITE        ACCESS:          0 HIT:          0 MISS:          0 MSHR_MERGE:          0
cpu0->cpu0_STLB TRANSLATION  ACCESS:          0 HIT:          0 MISS:          0 MSHR_MERGE:          0
cpu0->cpu0_STLB PREFETCH REQUESTED:          0 ISSUED:          0 USEFUL:          0 USELESS:          0
cpu0->cpu0_STLB AVERAGE MISS LATENCY: 133 cycles
cpu0->cpu0_L2C TOTAL        ACCESS:   12183135 HIT:    8192108 MISS:    3991027 MSHR_MERGE:     418862
cpu0->cpu0_L2C LOAD         ACCESS:    4426349 HIT:    3137233 MISS:    1289116 MSHR_MERGE:      20984
cpu0->cpu0_L2C RFO          ACCESS:     696252 HIT:     217226 MISS:     479026 MSHR_MERGE:       4105
cpu0->cpu0_L2C PREFETCH     ACCESS:    5102467 HIT:    3162933 MISS:    1939534 MSHR_MERGE:     393773
cpu0->cpu0_L2C WRITE        ACCESS:    1181526 HIT:    1181500 MISS:         26 MSHR_MERGE:          0
cpu0->cpu0_L2C TRANSLATION  ACCESS:     776541 HIT:     493216 MISS:     283325 MSHR_MERGE:          0
cpu0->cpu0_L2C PREFETCH REQUESTED:    4281405 ISSUED:    4209869 USEFUL:     355809 USELESS:     845150
cpu0->cpu0_L2C AVERAGE MISS LATENCY: 212.6 cycles
cpu0->cpu0_L1I TOTAL        ACCESS:   17514539 HIT:   14018830 MISS:    3495709 MSHR_MERGE:     765372
cpu0->cpu0_L1I LOAD         ACCESS:   17514539 HIT:   14018830 MISS:    3495709 MSHR_MERGE:     765372
cpu0->cpu0_L1I RFO          ACCESS:          0 HIT:          0 MISS:          0 MSHR_MERGE:          0
cpu0->cpu0_L1I PREFETCH     ACCESS:          0 HIT:          0 MISS:          0 MSHR_MERGE:          0
cpu0->cpu0_L1I WRITE        ACCESS:          0 HIT:          0 MISS:          0 MSHR_MERGE:          0
cpu0->cpu0_L1I TRANSLATION  ACCESS:          0 HIT:          0 MISS:          0 MSHR_MERGE:          0
cpu0->cpu0_L1I PREFETCH REQUESTED:          0 ISSUED:          0 USEFUL:          0 USELESS:          0
cpu0->cpu0_L1I AVERAGE MISS LATENCY: 56.98 cycles
cpu0->cpu0_L1D TOTAL        ACCESS:   62101524 HIT:   55301820 MISS:    6799704 MSHR_MERGE:    2738255
cpu0->cpu0_L1D LOAD         ACCESS:   32011971 HIT:   29678172 MISS:    2333799 MSHR_MERGE:     637769
cpu0->cpu0_L1D RFO          ACCESS:          0 HIT:          0 MISS:          0 MSHR_MERGE:          0
cpu0->cpu0_L1D PREFETCH     ACCESS:    1910429 HIT:     975728 MISS:     934701 MSHR_MERGE:      42098
cpu0->cpu0_L1D WRITE        ACCESS:   26318579 HIT:   23569666 MISS:    2748913 MSHR_MERGE:    2052638
cpu0->cpu0_L1D TRANSLATION  ACCESS:    1860545 HIT:    1078254 MISS:     782291 MSHR_MERGE:       5750
cpu0->cpu0_L1D PREFETCH REQUESTED:    1934100 ISSUED:    1910429 USEFUL:     344820 USELESS:     547779
cpu0->cpu0_L1D AVERAGE MISS LATENCY: 103.3 cycles
cpu0->cpu0_ITLB TOTAL        ACCESS:   14741805 HIT:   14289854 MISS:     451951 MSHR_MERGE:     211281
cpu0->cpu0_ITLB LOAD         ACCESS:   14741805 HIT:   14289854 MISS:     451951 MSHR_MERGE:     211281
cpu0->cpu0_ITLB RFO          ACCESS:          0 HIT:          0 MISS:          0 MSHR_MERGE:          0
cpu0->cpu0_ITLB PREFETCH     ACCESS:          0 HIT:          0 MISS:          0 MSHR_MERGE:          0
cpu0->cpu0_ITLB WRITE        ACCESS:          0 HIT:          0 MISS:          0 MSHR_MERGE:          0
cpu0->cpu0_ITLB TRANSLATION  ACCESS:          0 HIT:          0 MISS:          0 MSHR_MERGE:          0
cpu0->cpu0_ITLB PREFETCH REQUESTED:          0 ISSUED:          0 USEFUL:          0 USELESS:          0
cpu0->cpu0_ITLB AVERAGE MISS LATENCY: 25.01 cycles
cpu0->cpu0_DTLB TOTAL        ACCESS:   57180798 HIT:   53208565 MISS:    3972233 MSHR_MERGE:    1800086
cpu0->cpu0_DTLB LOAD         ACCESS:   57180798 HIT:   53208565 MISS:    3972233 MSHR_MERGE:    1800086
cpu0->cpu0_DTLB RFO          ACCESS:          0 HIT:          0 MISS:          0 MSHR_MERGE:          0
cpu0->cpu0_DTLB PREFETCH     ACCESS:          0 HIT:          0 MISS:          0 MSHR_MERGE:          0
cpu0->cpu0_DTLB WRITE        ACCESS:          0 HIT:          0 MISS:          0 MSHR_MERGE:          0
cpu0->cpu0_DTLB TRANSLATION  ACCESS:          0 HIT:          0 MISS:          0 MSHR_MERGE:          0
cpu0->cpu0_DTLB PREFETCH REQUESTED:          0 ISSUED:          0 USEFUL:          0 USELESS:          0
cpu0->cpu0_DTLB AVERAGE MISS LATENCY: 47.68 cycles
cpu0->LLC TOTAL        ACCESS:    5467950 HIT:     939592 MISS:    4528358 MSHR_MERGE:     248096
cpu0->LLC LOAD         ACCESS:    1268132 HIT:     239362 MISS:    1028770 MSHR_MERGE:       2142
cpu0->LLC RFO          ACCESS:     474921 HIT:      22078 MISS:     452843 MSHR_MERGE:        234
cpu0->LLC PREFETCH     ACCESS:    2636090 HIT:     461096 MISS:    2174994 MSHR_MERGE:     245720
cpu0->LLC WRITE        ACCESS:     805482 HIT:     183053 MISS:     622429 MSHR_MERGE:          0
cpu0->LLC TRANSLATION  ACCESS:     283325 HIT:      34003 MISS:     249322 MSHR_MERGE:          0
cpu0->LLC PREFETCH REQUESTED:    1114251 ISSUED:    1090329 USEFUL:      85814 USELESS:     587534
cpu0->LLC AVERAGE MISS LATENCY: 168.5 cycles

DRAM Statistics

Channel 0 RQ ROW_BUFFER_HIT:      47137
  ROW_BUFFER_MISS:    3610647
  AVG DBUS CONGESTED CYCLE: 23.36
Channel 0 WQ ROW_BUFFER_HIT:     199758
  ROW_BUFFER_MISS:     542369
  FULL:          0
Channel 0 REFRESHES ISSUED:      32940
