[VMEM] WARNING: physical memory size is smaller than virtual memory size.

*** ChampSim Multicore Out-of-Order Simulator ***
Warmup Instructions: 50000000
Simulation Instructions: 200000000
Number of CPUs: 1
Page size: 4096
Core 0: /local-ssd/ben/dpc4-traces/gtraces_v2/sierra.a.3_0001.champsim.gz
 L1D Berti prefetcher
Off-chip DRAM Size: 64 GiB Channels: 1 Width: 64-bit Data Rate: 4807 MT/s
[BTB] WARNING: target of return is a lower address than the corresponding call. This is usually a problem with your trace.
[BTB] WARNING: target of return is a lower address than the corresponding call. This is usually a problem with your trace.
[BTB] WARNING: target of return is a lower address than the corresponding call. This is usually a problem with your trace.
[BTB] WARNING: target of return is a lower address than the corresponding call. This is usually a problem with your trace.
[BTB] WARNING: target of return is a lower address than the corresponding call. This is usually a problem with your trace.
[BTB] WARNING: target of return is a lower address than the corresponding call. This is usually a problem with your trace.
[BTB] WARNING: target of return is a lower address than the corresponding call. This is usually a problem with your trace.
[BTB] WARNING: target of return is a lower address than the corresponding call. This is usually a problem with your trace.
[BTB] WARNING: target of return is a lower address than the corresponding call. This is usually a problem with your trace.
[BTB] WARNING: target of return is a lower address than the corresponding call. This is usually a problem with your trace.
Heartbeat CPU 0 instructions: 500006 cycles: 298414 heartbeat IPC: 1.676 cumulative IPC: 1.676 (Simulation time: 00 hr 00 min 04 sec)
Heartbeat CPU 0 instructions: 1000011 cycles: 478013 heartbeat IPC: 2.784 cumulative IPC: 2.092 (Simulation time: 00 hr 00 min 07 sec)
Heartbeat CPU 0 instructions: 1500012 cycles: 611614 heartbeat IPC: 3.742 cumulative IPC: 2.453 (Simulation time: 00 hr 00 min 09 sec)
Heartbeat CPU 0 instructions: 2000017 cycles: 744812 heartbeat IPC: 3.754 cumulative IPC: 2.685 (Simulation time: 00 hr 00 min 12 sec)
Heartbeat CPU 0 instructions: 2500021 cycles: 862404 heartbeat IPC: 4.252 cumulative IPC: 2.899 (Simulation time: 00 hr 00 min 14 sec)
Heartbeat CPU 0 instructions: 3000022 cycles: 981488 heartbeat IPC: 4.199 cumulative IPC: 3.057 (Simulation time: 00 hr 00 min 16 sec)
Heartbeat CPU 0 instructions: 3500029 cycles: 1098063 heartbeat IPC: 4.289 cumulative IPC: 3.187 (Simulation time: 00 hr 00 min 18 sec)
Heartbeat CPU 0 instructions: 4000033 cycles: 1215099 heartbeat IPC: 4.272 cumulative IPC: 3.292 (Simulation time: 00 hr 00 min 20 sec)
Heartbeat CPU 0 instructions: 4500033 cycles: 1342496 heartbeat IPC: 3.925 cumulative IPC: 3.352 (Simulation time: 00 hr 00 min 22 sec)
Heartbeat CPU 0 instructions: 5000039 cycles: 1461316 heartbeat IPC: 4.208 cumulative IPC: 3.422 (Simulation time: 00 hr 00 min 24 sec)
Heartbeat CPU 0 instructions: 5500044 cycles: 1575598 heartbeat IPC: 4.375 cumulative IPC: 3.491 (Simulation time: 00 hr 00 min 26 sec)
Heartbeat CPU 0 instructions: 6000045 cycles: 1691780 heartbeat IPC: 4.304 cumulative IPC: 3.547 (Simulation time: 00 hr 00 min 28 sec)
Heartbeat CPU 0 instructions: 6500045 cycles: 1808687 heartbeat IPC: 4.277 cumulative IPC: 3.594 (Simulation time: 00 hr 00 min 30 sec)
Heartbeat CPU 0 instructions: 7000045 cycles: 1928923 heartbeat IPC: 4.158 cumulative IPC: 3.629 (Simulation time: 00 hr 00 min 32 sec)
Heartbeat CPU 0 instructions: 7500051 cycles: 2038854 heartbeat IPC: 4.548 cumulative IPC: 3.679 (Simulation time: 00 hr 00 min 34 sec)
Heartbeat CPU 0 instructions: 8000057 cycles: 2155698 heartbeat IPC: 4.279 cumulative IPC: 3.711 (Simulation time: 00 hr 00 min 36 sec)
Heartbeat CPU 0 instructions: 8500059 cycles: 2270120 heartbeat IPC: 4.37 cumulative IPC: 3.744 (Simulation time: 00 hr 00 min 38 sec)
Heartbeat CPU 0 instructions: 9000063 cycles: 2379537 heartbeat IPC: 4.57 cumulative IPC: 3.782 (Simulation time: 00 hr 00 min 40 sec)
Heartbeat CPU 0 instructions: 9500069 cycles: 2496606 heartbeat IPC: 4.271 cumulative IPC: 3.805 (Simulation time: 00 hr 00 min 42 sec)
Heartbeat CPU 0 instructions: 10000071 cycles: 2610926 heartbeat IPC: 4.374 cumulative IPC: 3.83 (Simulation time: 00 hr 00 min 44 sec)
Heartbeat CPU 0 instructions: 10500078 cycles: 2726120 heartbeat IPC: 4.341 cumulative IPC: 3.852 (Simulation time: 00 hr 00 min 46 sec)
Heartbeat CPU 0 instructions: 11000079 cycles: 2923539 heartbeat IPC: 2.533 cumulative IPC: 3.763 (Simulation time: 00 hr 00 min 49 sec)
Heartbeat CPU 0 instructions: 11500082 cycles: 3107205 heartbeat IPC: 2.722 cumulative IPC: 3.701 (Simulation time: 00 hr 00 min 52 sec)
Heartbeat CPU 0 instructions: 12000087 cycles: 3264805 heartbeat IPC: 3.173 cumulative IPC: 3.676 (Simulation time: 00 hr 00 min 55 sec)
Heartbeat CPU 0 instructions: 12500094 cycles: 3443222 heartbeat IPC: 2.802 cumulative IPC: 3.63 (Simulation time: 00 hr 00 min 58 sec)
Heartbeat CPU 0 instructions: 13000098 cycles: 3603249 heartbeat IPC: 3.124 cumulative IPC: 3.608 (Simulation time: 00 hr 01 min 01 sec)
Heartbeat CPU 0 instructions: 13500104 cycles: 3747645 heartbeat IPC: 3.463 cumulative IPC: 3.602 (Simulation time: 00 hr 01 min 03 sec)
Heartbeat CPU 0 instructions: 14000109 cycles: 3895748 heartbeat IPC: 3.376 cumulative IPC: 3.594 (Simulation time: 00 hr 01 min 06 sec)
Heartbeat CPU 0 instructions: 14500114 cycles: 4031711 heartbeat IPC: 3.678 cumulative IPC: 3.597 (Simulation time: 00 hr 01 min 09 sec)
Heartbeat CPU 0 instructions: 15000119 cycles: 4228798 heartbeat IPC: 2.537 cumulative IPC: 3.547 (Simulation time: 00 hr 01 min 11 sec)
Heartbeat CPU 0 instructions: 15500123 cycles: 4374357 heartbeat IPC: 3.435 cumulative IPC: 3.543 (Simulation time: 00 hr 01 min 14 sec)
Heartbeat CPU 0 instructions: 16000128 cycles: 4508685 heartbeat IPC: 3.722 cumulative IPC: 3.549 (Simulation time: 00 hr 01 min 17 sec)
Heartbeat CPU 0 instructions: 16500134 cycles: 4657462 heartbeat IPC: 3.361 cumulative IPC: 3.543 (Simulation time: 00 hr 01 min 19 sec)
Heartbeat CPU 0 instructions: 17000139 cycles: 4823417 heartbeat IPC: 3.013 cumulative IPC: 3.525 (Simulation time: 00 hr 01 min 22 sec)
Heartbeat CPU 0 instructions: 17500144 cycles: 4973931 heartbeat IPC: 3.322 cumulative IPC: 3.518 (Simulation time: 00 hr 01 min 24 sec)
Heartbeat CPU 0 instructions: 18000149 cycles: 5119036 heartbeat IPC: 3.446 cumulative IPC: 3.516 (Simulation time: 00 hr 01 min 27 sec)
Heartbeat CPU 0 instructions: 18500156 cycles: 5252536 heartbeat IPC: 3.745 cumulative IPC: 3.522 (Simulation time: 00 hr 01 min 30 sec)
Heartbeat CPU 0 instructions: 19000163 cycles: 5382832 heartbeat IPC: 3.837 cumulative IPC: 3.53 (Simulation time: 00 hr 01 min 32 sec)
Heartbeat CPU 0 instructions: 19500163 cycles: 5514792 heartbeat IPC: 3.789 cumulative IPC: 3.536 (Simulation time: 00 hr 01 min 35 sec)
Heartbeat CPU 0 instructions: 20000164 cycles: 5671009 heartbeat IPC: 3.201 cumulative IPC: 3.527 (Simulation time: 00 hr 01 min 37 sec)
Heartbeat CPU 0 instructions: 20500170 cycles: 5815113 heartbeat IPC: 3.47 cumulative IPC: 3.525 (Simulation time: 00 hr 01 min 39 sec)
Heartbeat CPU 0 instructions: 21000171 cycles: 5952312 heartbeat IPC: 3.644 cumulative IPC: 3.528 (Simulation time: 00 hr 01 min 42 sec)
Heartbeat CPU 0 instructions: 21500171 cycles: 6080605 heartbeat IPC: 3.897 cumulative IPC: 3.536 (Simulation time: 00 hr 01 min 44 sec)
Heartbeat CPU 0 instructions: 22000171 cycles: 6206543 heartbeat IPC: 3.97 cumulative IPC: 3.545 (Simulation time: 00 hr 01 min 47 sec)
Heartbeat CPU 0 instructions: 22500171 cycles: 6333590 heartbeat IPC: 3.936 cumulative IPC: 3.553 (Simulation time: 00 hr 01 min 49 sec)
Heartbeat CPU 0 instructions: 23000175 cycles: 6458575 heartbeat IPC: 4.001 cumulative IPC: 3.561 (Simulation time: 00 hr 01 min 52 sec)
Heartbeat CPU 0 instructions: 23500175 cycles: 6579737 heartbeat IPC: 4.127 cumulative IPC: 3.572 (Simulation time: 00 hr 01 min 54 sec)
Heartbeat CPU 0 instructions: 24000181 cycles: 6711364 heartbeat IPC: 3.799 cumulative IPC: 3.576 (Simulation time: 00 hr 01 min 56 sec)
Heartbeat CPU 0 instructions: 24500188 cycles: 6844373 heartbeat IPC: 3.759 cumulative IPC: 3.58 (Simulation time: 00 hr 01 min 59 sec)
Heartbeat CPU 0 instructions: 25000188 cycles: 6985003 heartbeat IPC: 3.555 cumulative IPC: 3.579 (Simulation time: 00 hr 02 min 01 sec)
Heartbeat CPU 0 instructions: 25500195 cycles: 7143101 heartbeat IPC: 3.163 cumulative IPC: 3.57 (Simulation time: 00 hr 02 min 04 sec)
Heartbeat CPU 0 instructions: 26000195 cycles: 7293716 heartbeat IPC: 3.32 cumulative IPC: 3.565 (Simulation time: 00 hr 02 min 06 sec)
Heartbeat CPU 0 instructions: 26500200 cycles: 7438835 heartbeat IPC: 3.445 cumulative IPC: 3.562 (Simulation time: 00 hr 02 min 09 sec)
Heartbeat CPU 0 instructions: 27000203 cycles: 7566466 heartbeat IPC: 3.918 cumulative IPC: 3.568 (Simulation time: 00 hr 02 min 11 sec)
Heartbeat CPU 0 instructions: 27500203 cycles: 7680801 heartbeat IPC: 4.373 cumulative IPC: 3.58 (Simulation time: 00 hr 02 min 13 sec)
Heartbeat CPU 0 instructions: 28000207 cycles: 7795513 heartbeat IPC: 4.359 cumulative IPC: 3.592 (Simulation time: 00 hr 02 min 15 sec)
Heartbeat CPU 0 instructions: 28500208 cycles: 7909511 heartbeat IPC: 4.386 cumulative IPC: 3.603 (Simulation time: 00 hr 02 min 17 sec)
Heartbeat CPU 0 instructions: 29000208 cycles: 8022515 heartbeat IPC: 4.425 cumulative IPC: 3.615 (Simulation time: 00 hr 02 min 19 sec)
Heartbeat CPU 0 instructions: 29500212 cycles: 8138338 heartbeat IPC: 4.317 cumulative IPC: 3.625 (Simulation time: 00 hr 02 min 21 sec)
Heartbeat CPU 0 instructions: 30000218 cycles: 8251069 heartbeat IPC: 4.435 cumulative IPC: 3.636 (Simulation time: 00 hr 02 min 23 sec)
Heartbeat CPU 0 instructions: 30500225 cycles: 8367291 heartbeat IPC: 4.302 cumulative IPC: 3.645 (Simulation time: 00 hr 02 min 25 sec)
Heartbeat CPU 0 instructions: 31000229 cycles: 8480229 heartbeat IPC: 4.427 cumulative IPC: 3.656 (Simulation time: 00 hr 02 min 27 sec)
Heartbeat CPU 0 instructions: 31500231 cycles: 8594029 heartbeat IPC: 4.394 cumulative IPC: 3.665 (Simulation time: 00 hr 02 min 29 sec)
Heartbeat CPU 0 instructions: 32000233 cycles: 8706024 heartbeat IPC: 4.465 cumulative IPC: 3.676 (Simulation time: 00 hr 02 min 31 sec)
Heartbeat CPU 0 instructions: 32500237 cycles: 8819617 heartbeat IPC: 4.402 cumulative IPC: 3.685 (Simulation time: 00 hr 02 min 33 sec)
Heartbeat CPU 0 instructions: 33000237 cycles: 8933169 heartbeat IPC: 4.403 cumulative IPC: 3.694 (Simulation time: 00 hr 02 min 35 sec)
Heartbeat CPU 0 instructions: 33500241 cycles: 9049100 heartbeat IPC: 4.313 cumulative IPC: 3.702 (Simulation time: 00 hr 02 min 37 sec)
Heartbeat CPU 0 instructions: 34000248 cycles: 9169680 heartbeat IPC: 4.147 cumulative IPC: 3.708 (Simulation time: 00 hr 02 min 39 sec)
Heartbeat CPU 0 instructions: 34500250 cycles: 9287554 heartbeat IPC: 4.242 cumulative IPC: 3.715 (Simulation time: 00 hr 02 min 42 sec)
Heartbeat CPU 0 instructions: 35000254 cycles: 9402090 heartbeat IPC: 4.365 cumulative IPC: 3.723 (Simulation time: 00 hr 02 min 44 sec)
Heartbeat CPU 0 instructions: 35500259 cycles: 9519537 heartbeat IPC: 4.257 cumulative IPC: 3.729 (Simulation time: 00 hr 02 min 46 sec)
Heartbeat CPU 0 instructions: 36000265 cycles: 9637498 heartbeat IPC: 4.239 cumulative IPC: 3.735 (Simulation time: 00 hr 02 min 48 sec)
Heartbeat CPU 0 instructions: 36500271 cycles: 9751039 heartbeat IPC: 4.404 cumulative IPC: 3.743 (Simulation time: 00 hr 02 min 50 sec)
Heartbeat CPU 0 instructions: 37000276 cycles: 9877947 heartbeat IPC: 3.94 cumulative IPC: 3.746 (Simulation time: 00 hr 02 min 52 sec)
Heartbeat CPU 0 instructions: 37500276 cycles: 9992246 heartbeat IPC: 4.374 cumulative IPC: 3.753 (Simulation time: 00 hr 02 min 54 sec)
Heartbeat CPU 0 instructions: 38000282 cycles: 10106683 heartbeat IPC: 4.369 cumulative IPC: 3.76 (Simulation time: 00 hr 02 min 56 sec)
Heartbeat CPU 0 instructions: 38500289 cycles: 10218695 heartbeat IPC: 4.464 cumulative IPC: 3.768 (Simulation time: 00 hr 02 min 58 sec)
Heartbeat CPU 0 instructions: 39000290 cycles: 10333039 heartbeat IPC: 4.373 cumulative IPC: 3.774 (Simulation time: 00 hr 03 min 00 sec)
Heartbeat CPU 0 instructions: 39500295 cycles: 10450364 heartbeat IPC: 4.262 cumulative IPC: 3.78 (Simulation time: 00 hr 03 min 02 sec)
Heartbeat CPU 0 instructions: 40000297 cycles: 10561880 heartbeat IPC: 4.484 cumulative IPC: 3.787 (Simulation time: 00 hr 03 min 04 sec)
Heartbeat CPU 0 instructions: 40500299 cycles: 10675538 heartbeat IPC: 4.399 cumulative IPC: 3.794 (Simulation time: 00 hr 03 min 06 sec)
Heartbeat CPU 0 instructions: 41000305 cycles: 10788054 heartbeat IPC: 4.444 cumulative IPC: 3.801 (Simulation time: 00 hr 03 min 08 sec)
Heartbeat CPU 0 instructions: 41500312 cycles: 10901219 heartbeat IPC: 4.418 cumulative IPC: 3.807 (Simulation time: 00 hr 03 min 10 sec)
Heartbeat CPU 0 instructions: 42000318 cycles: 11012718 heartbeat IPC: 4.484 cumulative IPC: 3.814 (Simulation time: 00 hr 03 min 12 sec)
Heartbeat CPU 0 instructions: 42500324 cycles: 11128003 heartbeat IPC: 4.337 cumulative IPC: 3.819 (Simulation time: 00 hr 03 min 14 sec)
Heartbeat CPU 0 instructions: 43000329 cycles: 11243884 heartbeat IPC: 4.315 cumulative IPC: 3.824 (Simulation time: 00 hr 03 min 16 sec)
Heartbeat CPU 0 instructions: 43500331 cycles: 11360306 heartbeat IPC: 4.295 cumulative IPC: 3.829 (Simulation time: 00 hr 03 min 18 sec)
Heartbeat CPU 0 instructions: 44000336 cycles: 11470631 heartbeat IPC: 4.532 cumulative IPC: 3.836 (Simulation time: 00 hr 03 min 20 sec)
Heartbeat CPU 0 instructions: 44500341 cycles: 11640359 heartbeat IPC: 2.946 cumulative IPC: 3.823 (Simulation time: 00 hr 03 min 23 sec)
Heartbeat CPU 0 instructions: 45000345 cycles: 11816765 heartbeat IPC: 2.834 cumulative IPC: 3.808 (Simulation time: 00 hr 03 min 26 sec)
Heartbeat CPU 0 instructions: 45500349 cycles: 11970303 heartbeat IPC: 3.257 cumulative IPC: 3.801 (Simulation time: 00 hr 03 min 28 sec)
Heartbeat CPU 0 instructions: 46000352 cycles: 12118278 heartbeat IPC: 3.379 cumulative IPC: 3.796 (Simulation time: 00 hr 03 min 31 sec)
Heartbeat CPU 0 instructions: 46500355 cycles: 12269786 heartbeat IPC: 3.3 cumulative IPC: 3.79 (Simulation time: 00 hr 03 min 34 sec)
Heartbeat CPU 0 instructions: 47000362 cycles: 12428306 heartbeat IPC: 3.154 cumulative IPC: 3.782 (Simulation time: 00 hr 03 min 37 sec)
Heartbeat CPU 0 instructions: 47500365 cycles: 12588312 heartbeat IPC: 3.125 cumulative IPC: 3.773 (Simulation time: 00 hr 03 min 40 sec)
Heartbeat CPU 0 instructions: 48000365 cycles: 12745991 heartbeat IPC: 3.171 cumulative IPC: 3.766 (Simulation time: 00 hr 03 min 42 sec)
Heartbeat CPU 0 instructions: 48500372 cycles: 12892278 heartbeat IPC: 3.418 cumulative IPC: 3.762 (Simulation time: 00 hr 03 min 45 sec)
Heartbeat CPU 0 instructions: 49000377 cycles: 13056033 heartbeat IPC: 3.053 cumulative IPC: 3.753 (Simulation time: 00 hr 03 min 48 sec)
Heartbeat CPU 0 instructions: 49500378 cycles: 13200956 heartbeat IPC: 3.45 cumulative IPC: 3.75 (Simulation time: 00 hr 03 min 51 sec)
Warmup halting CPU 0 at instruction 50000000 cycle 13332205 for remainder of phase
Warmup finished CPU 0 instructions: 50000000 cycles: 13332205 cumulative IPC: 3.75 (Simulation time: 00 hr 03 min 53 sec)
Warmup complete CPU 0 instructions: 50000000 cycles: 13332205 cumulative IPC: 3.75 (Simulation time: 00 hr 03 min 53 sec)
Heartbeat CPU 0 instructions: 50000385 cycles: 13332634 heartbeat IPC: 3.797 cumulative IPC: 0.8974 (Simulation time: 00 hr 03 min 53 sec)
Heartbeat CPU 0 instructions: 50500386 cycles: 14628225 heartbeat IPC: 0.3859 cumulative IPC: 0.3861 (Simulation time: 00 hr 04 min 02 sec)
Heartbeat CPU 0 instructions: 51000392 cycles: 15614472 heartbeat IPC: 0.507 cumulative IPC: 0.4383 (Simulation time: 00 hr 04 min 09 sec)
Heartbeat CPU 0 instructions: 51500392 cycles: 16053722 heartbeat IPC: 1.138 cumulative IPC: 0.5513 (Simulation time: 00 hr 04 min 12 sec)
Heartbeat CPU 0 instructions: 52000392 cycles: 16569311 heartbeat IPC: 0.9698 cumulative IPC: 0.618 (Simulation time: 00 hr 04 min 16 sec)
Heartbeat CPU 0 instructions: 52500392 cycles: 18027901 heartbeat IPC: 0.3428 cumulative IPC: 0.5325 (Simulation time: 00 hr 04 min 26 sec)
Heartbeat CPU 0 instructions: 53000392 cycles: 20229602 heartbeat IPC: 0.2271 cumulative IPC: 0.435 (Simulation time: 00 hr 04 min 40 sec)
Heartbeat CPU 0 instructions: 53500397 cycles: 21440625 heartbeat IPC: 0.4129 cumulative IPC: 0.4317 (Simulation time: 00 hr 04 min 48 sec)
Heartbeat CPU 0 instructions: 54000401 cycles: 22348241 heartbeat IPC: 0.5509 cumulative IPC: 0.4437 (Simulation time: 00 hr 04 min 55 sec)
Heartbeat CPU 0 instructions: 54500403 cycles: 24025293 heartbeat IPC: 0.2981 cumulative IPC: 0.4209 (Simulation time: 00 hr 05 min 05 sec)
Heartbeat CPU 0 instructions: 55000407 cycles: 25282633 heartbeat IPC: 0.3977 cumulative IPC: 0.4184 (Simulation time: 00 hr 05 min 14 sec)
Heartbeat CPU 0 instructions: 55500413 cycles: 25986532 heartbeat IPC: 0.7103 cumulative IPC: 0.4347 (Simulation time: 00 hr 05 min 19 sec)
Heartbeat CPU 0 instructions: 56000415 cycles: 28582891 heartbeat IPC: 0.1926 cumulative IPC: 0.3935 (Simulation time: 00 hr 05 min 34 sec)
Heartbeat CPU 0 instructions: 56500416 cycles: 30729387 heartbeat IPC: 0.2329 cumulative IPC: 0.3736 (Simulation time: 00 hr 05 min 47 sec)
Heartbeat CPU 0 instructions: 57000420 cycles: 32755575 heartbeat IPC: 0.2468 cumulative IPC: 0.3604 (Simulation time: 00 hr 06 min 00 sec)
Heartbeat CPU 0 instructions: 57500424 cycles: 34499186 heartbeat IPC: 0.2868 cumulative IPC: 0.3543 (Simulation time: 00 hr 06 min 11 sec)
Heartbeat CPU 0 instructions: 58000424 cycles: 35087231 heartbeat IPC: 0.8503 cumulative IPC: 0.3678 (Simulation time: 00 hr 06 min 16 sec)
Heartbeat CPU 0 instructions: 58500424 cycles: 35746626 heartbeat IPC: 0.7583 cumulative IPC: 0.3792 (Simulation time: 00 hr 06 min 20 sec)
Heartbeat CPU 0 instructions: 59000425 cycles: 36070727 heartbeat IPC: 1.543 cumulative IPC: 0.3958 (Simulation time: 00 hr 06 min 23 sec)
Heartbeat CPU 0 instructions: 59500426 cycles: 36338882 heartbeat IPC: 1.865 cumulative IPC: 0.4129 (Simulation time: 00 hr 06 min 26 sec)
Heartbeat CPU 0 instructions: 60000427 cycles: 36601831 heartbeat IPC: 1.902 cumulative IPC: 0.4298 (Simulation time: 00 hr 06 min 29 sec)
Heartbeat CPU 0 instructions: 60500427 cycles: 39044096 heartbeat IPC: 0.2047 cumulative IPC: 0.4084 (Simulation time: 00 hr 06 min 43 sec)
Heartbeat CPU 0 instructions: 61000427 cycles: 41058519 heartbeat IPC: 0.2482 cumulative IPC: 0.3968 (Simulation time: 00 hr 06 min 56 sec)
Heartbeat CPU 0 instructions: 61500427 cycles: 43957383 heartbeat IPC: 0.1725 cumulative IPC: 0.3755 (Simulation time: 00 hr 07 min 13 sec)
Heartbeat CPU 0 instructions: 62000434 cycles: 45799120 heartbeat IPC: 0.2715 cumulative IPC: 0.3696 (Simulation time: 00 hr 07 min 25 sec)
Heartbeat CPU 0 instructions: 62500437 cycles: 47227607 heartbeat IPC: 0.35 cumulative IPC: 0.3688 (Simulation time: 00 hr 07 min 34 sec)
Heartbeat CPU 0 instructions: 63000439 cycles: 48391317 heartbeat IPC: 0.4297 cumulative IPC: 0.3708 (Simulation time: 00 hr 07 min 42 sec)
Heartbeat CPU 0 instructions: 63500440 cycles: 50068704 heartbeat IPC: 0.2981 cumulative IPC: 0.3675 (Simulation time: 00 hr 07 min 53 sec)
Heartbeat CPU 0 instructions: 64000441 cycles: 52510112 heartbeat IPC: 0.2048 cumulative IPC: 0.3574 (Simulation time: 00 hr 08 min 08 sec)
Heartbeat CPU 0 instructions: 64500441 cycles: 54572843 heartbeat IPC: 0.2424 cumulative IPC: 0.3516 (Simulation time: 00 hr 08 min 21 sec)
Heartbeat CPU 0 instructions: 65000447 cycles: 55800814 heartbeat IPC: 0.4072 cumulative IPC: 0.3532 (Simulation time: 00 hr 08 min 29 sec)
Heartbeat CPU 0 instructions: 65500449 cycles: 57223435 heartbeat IPC: 0.3515 cumulative IPC: 0.3532 (Simulation time: 00 hr 08 min 39 sec)
Heartbeat CPU 0 instructions: 66000453 cycles: 58541729 heartbeat IPC: 0.3793 cumulative IPC: 0.3539 (Simulation time: 00 hr 08 min 48 sec)
Heartbeat CPU 0 instructions: 66500453 cycles: 59690988 heartbeat IPC: 0.4351 cumulative IPC: 0.3559 (Simulation time: 00 hr 08 min 56 sec)
Heartbeat CPU 0 instructions: 67000453 cycles: 61507304 heartbeat IPC: 0.2753 cumulative IPC: 0.3529 (Simulation time: 00 hr 09 min 07 sec)
Heartbeat CPU 0 instructions: 67500453 cycles: 63086788 heartbeat IPC: 0.3166 cumulative IPC: 0.3517 (Simulation time: 00 hr 09 min 17 sec)
Heartbeat CPU 0 instructions: 68000455 cycles: 63850243 heartbeat IPC: 0.6549 cumulative IPC: 0.3563 (Simulation time: 00 hr 09 min 23 sec)
Heartbeat CPU 0 instructions: 68500455 cycles: 64913953 heartbeat IPC: 0.4701 cumulative IPC: 0.3587 (Simulation time: 00 hr 09 min 30 sec)
Heartbeat CPU 0 instructions: 69000455 cycles: 66366774 heartbeat IPC: 0.3442 cumulative IPC: 0.3583 (Simulation time: 00 hr 09 min 40 sec)
Heartbeat CPU 0 instructions: 69500457 cycles: 68461518 heartbeat IPC: 0.2387 cumulative IPC: 0.3537 (Simulation time: 00 hr 09 min 53 sec)
Heartbeat CPU 0 instructions: 70000464 cycles: 69943129 heartbeat IPC: 0.3375 cumulative IPC: 0.3533 (Simulation time: 00 hr 10 min 03 sec)
Heartbeat CPU 0 instructions: 70500467 cycles: 70896251 heartbeat IPC: 0.5246 cumulative IPC: 0.3561 (Simulation time: 00 hr 10 min 09 sec)
Heartbeat CPU 0 instructions: 71000467 cycles: 73051906 heartbeat IPC: 0.2319 cumulative IPC: 0.3517 (Simulation time: 00 hr 10 min 23 sec)
Heartbeat CPU 0 instructions: 71500469 cycles: 74658173 heartbeat IPC: 0.3113 cumulative IPC: 0.3506 (Simulation time: 00 hr 10 min 33 sec)
Heartbeat CPU 0 instructions: 72000470 cycles: 75853136 heartbeat IPC: 0.4184 cumulative IPC: 0.3519 (Simulation time: 00 hr 10 min 41 sec)
Heartbeat CPU 0 instructions: 72500470 cycles: 76199160 heartbeat IPC: 1.445 cumulative IPC: 0.3579 (Simulation time: 00 hr 10 min 44 sec)
Heartbeat CPU 0 instructions: 73000476 cycles: 76459467 heartbeat IPC: 1.921 cumulative IPC: 0.3644 (Simulation time: 00 hr 10 min 47 sec)
Heartbeat CPU 0 instructions: 73500476 cycles: 76718044 heartbeat IPC: 1.934 cumulative IPC: 0.3708 (Simulation time: 00 hr 10 min 50 sec)
Heartbeat CPU 0 instructions: 74000482 cycles: 76989825 heartbeat IPC: 1.84 cumulative IPC: 0.377 (Simulation time: 00 hr 10 min 53 sec)
Heartbeat CPU 0 instructions: 74500484 cycles: 77310822 heartbeat IPC: 1.558 cumulative IPC: 0.3829 (Simulation time: 00 hr 10 min 55 sec)
Heartbeat CPU 0 instructions: 75000485 cycles: 77487274 heartbeat IPC: 2.834 cumulative IPC: 0.3897 (Simulation time: 00 hr 10 min 58 sec)
Heartbeat CPU 0 instructions: 75500486 cycles: 78827005 heartbeat IPC: 0.3732 cumulative IPC: 0.3894 (Simulation time: 00 hr 11 min 06 sec)
Heartbeat CPU 0 instructions: 76000493 cycles: 80450322 heartbeat IPC: 0.308 cumulative IPC: 0.3874 (Simulation time: 00 hr 11 min 17 sec)
Heartbeat CPU 0 instructions: 76500499 cycles: 82116783 heartbeat IPC: 0.3 cumulative IPC: 0.3853 (Simulation time: 00 hr 11 min 27 sec)
Heartbeat CPU 0 instructions: 77000502 cycles: 83481167 heartbeat IPC: 0.3665 cumulative IPC: 0.3849 (Simulation time: 00 hr 11 min 36 sec)
Heartbeat CPU 0 instructions: 77500503 cycles: 84790182 heartbeat IPC: 0.382 cumulative IPC: 0.3848 (Simulation time: 00 hr 11 min 45 sec)
Heartbeat CPU 0 instructions: 78000503 cycles: 85489427 heartbeat IPC: 0.7151 cumulative IPC: 0.388 (Simulation time: 00 hr 11 min 51 sec)
Heartbeat CPU 0 instructions: 78500503 cycles: 87357623 heartbeat IPC: 0.2676 cumulative IPC: 0.385 (Simulation time: 00 hr 12 min 03 sec)
Heartbeat CPU 0 instructions: 79000509 cycles: 89109222 heartbeat IPC: 0.2855 cumulative IPC: 0.3827 (Simulation time: 00 hr 12 min 13 sec)
Heartbeat CPU 0 instructions: 79500514 cycles: 91177711 heartbeat IPC: 0.2417 cumulative IPC: 0.379 (Simulation time: 00 hr 12 min 27 sec)
Heartbeat CPU 0 instructions: 80000514 cycles: 93243886 heartbeat IPC: 0.242 cumulative IPC: 0.3754 (Simulation time: 00 hr 12 min 39 sec)
Heartbeat CPU 0 instructions: 80500514 cycles: 95087413 heartbeat IPC: 0.2712 cumulative IPC: 0.3731 (Simulation time: 00 hr 12 min 51 sec)
Heartbeat CPU 0 instructions: 81000515 cycles: 96655395 heartbeat IPC: 0.3189 cumulative IPC: 0.3721 (Simulation time: 00 hr 13 min 02 sec)
Heartbeat CPU 0 instructions: 81500515 cycles: 99212206 heartbeat IPC: 0.1956 cumulative IPC: 0.3668 (Simulation time: 00 hr 13 min 17 sec)
Heartbeat CPU 0 instructions: 82000517 cycles: 100723950 heartbeat IPC: 0.3307 cumulative IPC: 0.3662 (Simulation time: 00 hr 13 min 27 sec)
Heartbeat CPU 0 instructions: 82500518 cycles: 101410682 heartbeat IPC: 0.7281 cumulative IPC: 0.369 (Simulation time: 00 hr 13 min 32 sec)
Heartbeat CPU 0 instructions: 83000523 cycles: 101811013 heartbeat IPC: 1.249 cumulative IPC: 0.373 (Simulation time: 00 hr 13 min 35 sec)
Heartbeat CPU 0 instructions: 83500524 cycles: 102088671 heartbeat IPC: 1.801 cumulative IPC: 0.3774 (Simulation time: 00 hr 13 min 38 sec)
Heartbeat CPU 0 instructions: 84000524 cycles: 102373998 heartbeat IPC: 1.752 cumulative IPC: 0.3818 (Simulation time: 00 hr 13 min 40 sec)
Heartbeat CPU 0 instructions: 84500525 cycles: 103816618 heartbeat IPC: 0.3466 cumulative IPC: 0.3813 (Simulation time: 00 hr 13 min 49 sec)
Heartbeat CPU 0 instructions: 85000531 cycles: 105179839 heartbeat IPC: 0.3668 cumulative IPC: 0.3811 (Simulation time: 00 hr 13 min 58 sec)
Heartbeat CPU 0 instructions: 85500531 cycles: 107187969 heartbeat IPC: 0.249 cumulative IPC: 0.3782 (Simulation time: 00 hr 14 min 11 sec)
Heartbeat CPU 0 instructions: 86000535 cycles: 108774562 heartbeat IPC: 0.3151 cumulative IPC: 0.3772 (Simulation time: 00 hr 14 min 21 sec)
Heartbeat CPU 0 instructions: 86500542 cycles: 110478454 heartbeat IPC: 0.2934 cumulative IPC: 0.3757 (Simulation time: 00 hr 14 min 32 sec)
Heartbeat CPU 0 instructions: 87000544 cycles: 112539577 heartbeat IPC: 0.2426 cumulative IPC: 0.373 (Simulation time: 00 hr 14 min 45 sec)
Heartbeat CPU 0 instructions: 87500545 cycles: 114284543 heartbeat IPC: 0.2865 cumulative IPC: 0.3715 (Simulation time: 00 hr 14 min 56 sec)
Heartbeat CPU 0 instructions: 88000546 cycles: 114624328 heartbeat IPC: 1.472 cumulative IPC: 0.3752 (Simulation time: 00 hr 14 min 59 sec)
Heartbeat CPU 0 instructions: 88500546 cycles: 115011121 heartbeat IPC: 1.293 cumulative IPC: 0.3786 (Simulation time: 00 hr 15 min 02 sec)
Heartbeat CPU 0 instructions: 89000546 cycles: 115279368 heartbeat IPC: 1.864 cumulative IPC: 0.3826 (Simulation time: 00 hr 15 min 05 sec)
Heartbeat CPU 0 instructions: 89500547 cycles: 116229309 heartbeat IPC: 0.5263 cumulative IPC: 0.3839 (Simulation time: 00 hr 15 min 11 sec)
Heartbeat CPU 0 instructions: 90000547 cycles: 117456156 heartbeat IPC: 0.4075 cumulative IPC: 0.3842 (Simulation time: 00 hr 15 min 19 sec)
Heartbeat CPU 0 instructions: 90500547 cycles: 117716613 heartbeat IPC: 1.92 cumulative IPC: 0.388 (Simulation time: 00 hr 15 min 21 sec)
Heartbeat CPU 0 instructions: 91000548 cycles: 118040895 heartbeat IPC: 1.542 cumulative IPC: 0.3916 (Simulation time: 00 hr 15 min 24 sec)
Heartbeat CPU 0 instructions: 91500548 cycles: 118303872 heartbeat IPC: 1.901 cumulative IPC: 0.3953 (Simulation time: 00 hr 15 min 27 sec)
Heartbeat CPU 0 instructions: 92000551 cycles: 118549753 heartbeat IPC: 2.034 cumulative IPC: 0.3992 (Simulation time: 00 hr 15 min 29 sec)
Heartbeat CPU 0 instructions: 92500551 cycles: 120171080 heartbeat IPC: 0.3084 cumulative IPC: 0.3978 (Simulation time: 00 hr 15 min 39 sec)
Heartbeat CPU 0 instructions: 93000552 cycles: 121530326 heartbeat IPC: 0.3679 cumulative IPC: 0.3974 (Simulation time: 00 hr 15 min 48 sec)
Heartbeat CPU 0 instructions: 93500559 cycles: 122778397 heartbeat IPC: 0.4006 cumulative IPC: 0.3975 (Simulation time: 00 hr 15 min 56 sec)
Heartbeat CPU 0 instructions: 94000559 cycles: 124551009 heartbeat IPC: 0.2821 cumulative IPC: 0.3956 (Simulation time: 00 hr 16 min 08 sec)
Heartbeat CPU 0 instructions: 94500560 cycles: 127220349 heartbeat IPC: 0.1873 cumulative IPC: 0.3907 (Simulation time: 00 hr 16 min 24 sec)
Heartbeat CPU 0 instructions: 95000560 cycles: 128875728 heartbeat IPC: 0.302 cumulative IPC: 0.3895 (Simulation time: 00 hr 16 min 35 sec)
Heartbeat CPU 0 instructions: 95500562 cycles: 130430481 heartbeat IPC: 0.3216 cumulative IPC: 0.3886 (Simulation time: 00 hr 16 min 45 sec)
Heartbeat CPU 0 instructions: 96000563 cycles: 132490495 heartbeat IPC: 0.2427 cumulative IPC: 0.386 (Simulation time: 00 hr 16 min 58 sec)
Heartbeat CPU 0 instructions: 96500564 cycles: 135619923 heartbeat IPC: 0.1598 cumulative IPC: 0.3803 (Simulation time: 00 hr 17 min 16 sec)
Heartbeat CPU 0 instructions: 97000570 cycles: 137368817 heartbeat IPC: 0.2859 cumulative IPC: 0.3789 (Simulation time: 00 hr 17 min 27 sec)
Heartbeat CPU 0 instructions: 97500574 cycles: 138468254 heartbeat IPC: 0.4548 cumulative IPC: 0.3796 (Simulation time: 00 hr 17 min 35 sec)
Heartbeat CPU 0 instructions: 98000575 cycles: 140002193 heartbeat IPC: 0.326 cumulative IPC: 0.3789 (Simulation time: 00 hr 17 min 45 sec)
Heartbeat CPU 0 instructions: 98500577 cycles: 142720164 heartbeat IPC: 0.184 cumulative IPC: 0.3748 (Simulation time: 00 hr 18 min 02 sec)
Heartbeat CPU 0 instructions: 99000577 cycles: 144638610 heartbeat IPC: 0.2606 cumulative IPC: 0.3732 (Simulation time: 00 hr 18 min 14 sec)
Heartbeat CPU 0 instructions: 99500577 cycles: 146276727 heartbeat IPC: 0.3052 cumulative IPC: 0.3723 (Simulation time: 00 hr 18 min 24 sec)
Heartbeat CPU 0 instructions: 100000579 cycles: 147549032 heartbeat IPC: 0.393 cumulative IPC: 0.3725 (Simulation time: 00 hr 18 min 33 sec)
Heartbeat CPU 0 instructions: 100500580 cycles: 148917043 heartbeat IPC: 0.3655 cumulative IPC: 0.3725 (Simulation time: 00 hr 18 min 42 sec)
Heartbeat CPU 0 instructions: 101000581 cycles: 150834631 heartbeat IPC: 0.2607 cumulative IPC: 0.3709 (Simulation time: 00 hr 18 min 54 sec)
Heartbeat CPU 0 instructions: 101500588 cycles: 152203201 heartbeat IPC: 0.3653 cumulative IPC: 0.3709 (Simulation time: 00 hr 19 min 03 sec)
Heartbeat CPU 0 instructions: 102000594 cycles: 154023914 heartbeat IPC: 0.2746 cumulative IPC: 0.3696 (Simulation time: 00 hr 19 min 14 sec)
Heartbeat CPU 0 instructions: 102500598 cycles: 156246721 heartbeat IPC: 0.2249 cumulative IPC: 0.3674 (Simulation time: 00 hr 19 min 28 sec)
Heartbeat CPU 0 instructions: 103000598 cycles: 158166964 heartbeat IPC: 0.2604 cumulative IPC: 0.3659 (Simulation time: 00 hr 19 min 40 sec)
Heartbeat CPU 0 instructions: 103500598 cycles: 160548965 heartbeat IPC: 0.2099 cumulative IPC: 0.3634 (Simulation time: 00 hr 19 min 54 sec)
Heartbeat CPU 0 instructions: 104000604 cycles: 162223076 heartbeat IPC: 0.2987 cumulative IPC: 0.3627 (Simulation time: 00 hr 20 min 04 sec)
Heartbeat CPU 0 instructions: 104500609 cycles: 163489246 heartbeat IPC: 0.3949 cumulative IPC: 0.363 (Simulation time: 00 hr 20 min 12 sec)
Heartbeat CPU 0 instructions: 105000613 cycles: 165158268 heartbeat IPC: 0.2996 cumulative IPC: 0.3623 (Simulation time: 00 hr 20 min 23 sec)
Heartbeat CPU 0 instructions: 105500613 cycles: 166196543 heartbeat IPC: 0.4816 cumulative IPC: 0.3631 (Simulation time: 00 hr 20 min 30 sec)
Heartbeat CPU 0 instructions: 106000619 cycles: 167502496 heartbeat IPC: 0.3829 cumulative IPC: 0.3632 (Simulation time: 00 hr 20 min 38 sec)
Heartbeat CPU 0 instructions: 106500623 cycles: 169141690 heartbeat IPC: 0.305 cumulative IPC: 0.3626 (Simulation time: 00 hr 20 min 49 sec)
Heartbeat CPU 0 instructions: 107000627 cycles: 170257499 heartbeat IPC: 0.4481 cumulative IPC: 0.3632 (Simulation time: 00 hr 20 min 56 sec)
Heartbeat CPU 0 instructions: 107500629 cycles: 171248588 heartbeat IPC: 0.5045 cumulative IPC: 0.3641 (Simulation time: 00 hr 21 min 03 sec)
Heartbeat CPU 0 instructions: 108000629 cycles: 171565393 heartbeat IPC: 1.578 cumulative IPC: 0.3666 (Simulation time: 00 hr 21 min 06 sec)
Heartbeat CPU 0 instructions: 108500629 cycles: 171904683 heartbeat IPC: 1.474 cumulative IPC: 0.3689 (Simulation time: 00 hr 21 min 09 sec)
Heartbeat CPU 0 instructions: 109000629 cycles: 172188914 heartbeat IPC: 1.759 cumulative IPC: 0.3714 (Simulation time: 00 hr 21 min 12 sec)
Heartbeat CPU 0 instructions: 109500632 cycles: 172533539 heartbeat IPC: 1.451 cumulative IPC: 0.3737 (Simulation time: 00 hr 21 min 15 sec)
Heartbeat CPU 0 instructions: 110000637 cycles: 172717606 heartbeat IPC: 2.716 cumulative IPC: 0.3765 (Simulation time: 00 hr 21 min 17 sec)
Heartbeat CPU 0 instructions: 110500644 cycles: 173628110 heartbeat IPC: 0.5492 cumulative IPC: 0.3774 (Simulation time: 00 hr 21 min 23 sec)
Heartbeat CPU 0 instructions: 111000644 cycles: 175451639 heartbeat IPC: 0.2742 cumulative IPC: 0.3763 (Simulation time: 00 hr 21 min 34 sec)
Heartbeat CPU 0 instructions: 111500644 cycles: 176862825 heartbeat IPC: 0.3543 cumulative IPC: 0.3761 (Simulation time: 00 hr 21 min 43 sec)
Heartbeat CPU 0 instructions: 112000645 cycles: 177861586 heartbeat IPC: 0.5006 cumulative IPC: 0.3768 (Simulation time: 00 hr 21 min 50 sec)
Heartbeat CPU 0 instructions: 112500648 cycles: 178420336 heartbeat IPC: 0.8949 cumulative IPC: 0.3786 (Simulation time: 00 hr 21 min 54 sec)
Heartbeat CPU 0 instructions: 113000649 cycles: 179842829 heartbeat IPC: 0.3515 cumulative IPC: 0.3784 (Simulation time: 00 hr 22 min 03 sec)
Heartbeat CPU 0 instructions: 113500652 cycles: 181543318 heartbeat IPC: 0.294 cumulative IPC: 0.3775 (Simulation time: 00 hr 22 min 14 sec)
Heartbeat CPU 0 instructions: 114000653 cycles: 183057120 heartbeat IPC: 0.3303 cumulative IPC: 0.3771 (Simulation time: 00 hr 22 min 23 sec)
Heartbeat CPU 0 instructions: 114500653 cycles: 184065640 heartbeat IPC: 0.4958 cumulative IPC: 0.3778 (Simulation time: 00 hr 22 min 30 sec)
Heartbeat CPU 0 instructions: 115000653 cycles: 185981934 heartbeat IPC: 0.2609 cumulative IPC: 0.3765 (Simulation time: 00 hr 22 min 42 sec)
Heartbeat CPU 0 instructions: 115500654 cycles: 187897564 heartbeat IPC: 0.261 cumulative IPC: 0.3752 (Simulation time: 00 hr 22 min 54 sec)
Heartbeat CPU 0 instructions: 116000654 cycles: 188946959 heartbeat IPC: 0.4765 cumulative IPC: 0.3758 (Simulation time: 00 hr 23 min 01 sec)
Heartbeat CPU 0 instructions: 116500654 cycles: 190713646 heartbeat IPC: 0.283 cumulative IPC: 0.3749 (Simulation time: 00 hr 23 min 12 sec)
Heartbeat CPU 0 instructions: 117000661 cycles: 191552702 heartbeat IPC: 0.5959 cumulative IPC: 0.3759 (Simulation time: 00 hr 23 min 17 sec)
Heartbeat CPU 0 instructions: 117500664 cycles: 191924556 heartbeat IPC: 1.345 cumulative IPC: 0.378 (Simulation time: 00 hr 23 min 21 sec)
Heartbeat CPU 0 instructions: 118000667 cycles: 192174694 heartbeat IPC: 1.999 cumulative IPC: 0.3802 (Simulation time: 00 hr 23 min 23 sec)
Heartbeat CPU 0 instructions: 118500670 cycles: 192495692 heartbeat IPC: 1.558 cumulative IPC: 0.3823 (Simulation time: 00 hr 23 min 26 sec)
Heartbeat CPU 0 instructions: 119000670 cycles: 192785946 heartbeat IPC: 1.723 cumulative IPC: 0.3845 (Simulation time: 00 hr 23 min 29 sec)
Heartbeat CPU 0 instructions: 119500673 cycles: 193112754 heartbeat IPC: 1.53 cumulative IPC: 0.3866 (Simulation time: 00 hr 23 min 32 sec)
Heartbeat CPU 0 instructions: 120000675 cycles: 193314282 heartbeat IPC: 2.481 cumulative IPC: 0.3889 (Simulation time: 00 hr 23 min 34 sec)
Heartbeat CPU 0 instructions: 120500675 cycles: 194410949 heartbeat IPC: 0.4559 cumulative IPC: 0.3893 (Simulation time: 00 hr 23 min 41 sec)
Heartbeat CPU 0 instructions: 121000682 cycles: 195204436 heartbeat IPC: 0.6301 cumulative IPC: 0.3904 (Simulation time: 00 hr 23 min 46 sec)
Heartbeat CPU 0 instructions: 121500682 cycles: 195529461 heartbeat IPC: 1.538 cumulative IPC: 0.3924 (Simulation time: 00 hr 23 min 49 sec)
Heartbeat CPU 0 instructions: 122000687 cycles: 195854280 heartbeat IPC: 1.539 cumulative IPC: 0.3945 (Simulation time: 00 hr 23 min 52 sec)
Heartbeat CPU 0 instructions: 122500687 cycles: 196153074 heartbeat IPC: 1.673 cumulative IPC: 0.3966 (Simulation time: 00 hr 23 min 54 sec)
Heartbeat CPU 0 instructions: 123000687 cycles: 198273192 heartbeat IPC: 0.2358 cumulative IPC: 0.3947 (Simulation time: 00 hr 24 min 07 sec)
Heartbeat CPU 0 instructions: 123500687 cycles: 199295637 heartbeat IPC: 0.489 cumulative IPC: 0.3952 (Simulation time: 00 hr 24 min 13 sec)
Heartbeat CPU 0 instructions: 124000689 cycles: 201978795 heartbeat IPC: 0.1863 cumulative IPC: 0.3923 (Simulation time: 00 hr 24 min 28 sec)
Heartbeat CPU 0 instructions: 124500690 cycles: 203308506 heartbeat IPC: 0.376 cumulative IPC: 0.3922 (Simulation time: 00 hr 24 min 37 sec)
Heartbeat CPU 0 instructions: 125000695 cycles: 204948636 heartbeat IPC: 0.3049 cumulative IPC: 0.3914 (Simulation time: 00 hr 24 min 47 sec)
Heartbeat CPU 0 instructions: 125500697 cycles: 205300844 heartbeat IPC: 1.42 cumulative IPC: 0.3933 (Simulation time: 00 hr 24 min 50 sec)
Heartbeat CPU 0 instructions: 126000701 cycles: 205593859 heartbeat IPC: 1.706 cumulative IPC: 0.3953 (Simulation time: 00 hr 24 min 52 sec)
Heartbeat CPU 0 instructions: 126500702 cycles: 205894046 heartbeat IPC: 1.666 cumulative IPC: 0.3973 (Simulation time: 00 hr 24 min 55 sec)
Heartbeat CPU 0 instructions: 127000702 cycles: 206164922 heartbeat IPC: 1.846 cumulative IPC: 0.3993 (Simulation time: 00 hr 24 min 58 sec)
Heartbeat CPU 0 instructions: 127500708 cycles: 206423191 heartbeat IPC: 1.936 cumulative IPC: 0.4014 (Simulation time: 00 hr 25 min 00 sec)
Heartbeat CPU 0 instructions: 128000708 cycles: 206666399 heartbeat IPC: 2.056 cumulative IPC: 0.4035 (Simulation time: 00 hr 25 min 03 sec)
Heartbeat CPU 0 instructions: 128500710 cycles: 206886193 heartbeat IPC: 2.275 cumulative IPC: 0.4056 (Simulation time: 00 hr 25 min 05 sec)
Heartbeat CPU 0 instructions: 129000711 cycles: 207158446 heartbeat IPC: 1.837 cumulative IPC: 0.4076 (Simulation time: 00 hr 25 min 08 sec)
Heartbeat CPU 0 instructions: 129500717 cycles: 207416590 heartbeat IPC: 1.937 cumulative IPC: 0.4096 (Simulation time: 00 hr 25 min 10 sec)
Heartbeat CPU 0 instructions: 130000717 cycles: 207663286 heartbeat IPC: 2.027 cumulative IPC: 0.4117 (Simulation time: 00 hr 25 min 13 sec)
Heartbeat CPU 0 instructions: 130500717 cycles: 207902597 heartbeat IPC: 2.089 cumulative IPC: 0.4137 (Simulation time: 00 hr 25 min 15 sec)
Heartbeat CPU 0 instructions: 131000718 cycles: 208183630 heartbeat IPC: 1.779 cumulative IPC: 0.4157 (Simulation time: 00 hr 25 min 18 sec)
Heartbeat CPU 0 instructions: 131500719 cycles: 208367998 heartbeat IPC: 2.712 cumulative IPC: 0.4179 (Simulation time: 00 hr 25 min 20 sec)
Heartbeat CPU 0 instructions: 132000720 cycles: 208542840 heartbeat IPC: 2.86 cumulative IPC: 0.4201 (Simulation time: 00 hr 25 min 22 sec)
Heartbeat CPU 0 instructions: 132500722 cycles: 208710629 heartbeat IPC: 2.98 cumulative IPC: 0.4223 (Simulation time: 00 hr 25 min 24 sec)
Heartbeat CPU 0 instructions: 133000722 cycles: 208877080 heartbeat IPC: 3.004 cumulative IPC: 0.4245 (Simulation time: 00 hr 25 min 26 sec)
Heartbeat CPU 0 instructions: 133500728 cycles: 209751008 heartbeat IPC: 0.5721 cumulative IPC: 0.4251 (Simulation time: 00 hr 25 min 31 sec)
Heartbeat CPU 0 instructions: 134000731 cycles: 212266922 heartbeat IPC: 0.1987 cumulative IPC: 0.4223 (Simulation time: 00 hr 25 min 46 sec)
Heartbeat CPU 0 instructions: 134500737 cycles: 214066581 heartbeat IPC: 0.2778 cumulative IPC: 0.421 (Simulation time: 00 hr 25 min 57 sec)
Heartbeat CPU 0 instructions: 135000737 cycles: 216161622 heartbeat IPC: 0.2387 cumulative IPC: 0.4191 (Simulation time: 00 hr 26 min 09 sec)
Heartbeat CPU 0 instructions: 135500737 cycles: 217229122 heartbeat IPC: 0.4684 cumulative IPC: 0.4193 (Simulation time: 00 hr 26 min 15 sec)
Heartbeat CPU 0 instructions: 136000739 cycles: 218824348 heartbeat IPC: 0.3134 cumulative IPC: 0.4185 (Simulation time: 00 hr 26 min 25 sec)
Heartbeat CPU 0 instructions: 136500746 cycles: 220560733 heartbeat IPC: 0.288 cumulative IPC: 0.4174 (Simulation time: 00 hr 26 min 35 sec)
Heartbeat CPU 0 instructions: 137000746 cycles: 221721049 heartbeat IPC: 0.4309 cumulative IPC: 0.4175 (Simulation time: 00 hr 26 min 42 sec)
Heartbeat CPU 0 instructions: 137500753 cycles: 222482030 heartbeat IPC: 0.6571 cumulative IPC: 0.4184 (Simulation time: 00 hr 26 min 47 sec)
Heartbeat CPU 0 instructions: 138000753 cycles: 222813396 heartbeat IPC: 1.509 cumulative IPC: 0.4201 (Simulation time: 00 hr 26 min 50 sec)
Heartbeat CPU 0 instructions: 138500753 cycles: 223140982 heartbeat IPC: 1.526 cumulative IPC: 0.4218 (Simulation time: 00 hr 26 min 52 sec)
Heartbeat CPU 0 instructions: 139000757 cycles: 223501182 heartbeat IPC: 1.388 cumulative IPC: 0.4235 (Simulation time: 00 hr 26 min 55 sec)
Heartbeat CPU 0 instructions: 139500762 cycles: 224085021 heartbeat IPC: 0.8564 cumulative IPC: 0.4247 (Simulation time: 00 hr 26 min 59 sec)
Heartbeat CPU 0 instructions: 140000762 cycles: 224456736 heartbeat IPC: 1.345 cumulative IPC: 0.4263 (Simulation time: 00 hr 27 min 02 sec)
Heartbeat CPU 0 instructions: 140500769 cycles: 224658983 heartbeat IPC: 2.472 cumulative IPC: 0.4283 (Simulation time: 00 hr 27 min 05 sec)
Heartbeat CPU 0 instructions: 141000769 cycles: 224773369 heartbeat IPC: 4.371 cumulative IPC: 0.4304 (Simulation time: 00 hr 27 min 06 sec)
Heartbeat CPU 0 instructions: 141500769 cycles: 224939167 heartbeat IPC: 3.016 cumulative IPC: 0.4324 (Simulation time: 00 hr 27 min 08 sec)
Heartbeat CPU 0 instructions: 142000775 cycles: 225064368 heartbeat IPC: 3.994 cumulative IPC: 0.4345 (Simulation time: 00 hr 27 min 10 sec)
Heartbeat CPU 0 instructions: 142500777 cycles: 225191735 heartbeat IPC: 3.926 cumulative IPC: 0.4366 (Simulation time: 00 hr 27 min 12 sec)
Heartbeat CPU 0 instructions: 143000780 cycles: 225562110 heartbeat IPC: 1.35 cumulative IPC: 0.4382 (Simulation time: 00 hr 27 min 15 sec)
Heartbeat CPU 0 instructions: 143500786 cycles: 227576637 heartbeat IPC: 0.2482 cumulative IPC: 0.4364 (Simulation time: 00 hr 27 min 26 sec)
Heartbeat CPU 0 instructions: 144000786 cycles: 228604703 heartbeat IPC: 0.4864 cumulative IPC: 0.4367 (Simulation time: 00 hr 27 min 32 sec)
Heartbeat CPU 0 instructions: 144500786 cycles: 229784498 heartbeat IPC: 0.4238 cumulative IPC: 0.4366 (Simulation time: 00 hr 27 min 39 sec)
Heartbeat CPU 0 instructions: 145000789 cycles: 230727133 heartbeat IPC: 0.5304 cumulative IPC: 0.437 (Simulation time: 00 hr 27 min 45 sec)
Heartbeat CPU 0 instructions: 145500791 cycles: 232223163 heartbeat IPC: 0.3342 cumulative IPC: 0.4363 (Simulation time: 00 hr 27 min 54 sec)
Heartbeat CPU 0 instructions: 146000792 cycles: 232593749 heartbeat IPC: 1.349 cumulative IPC: 0.4378 (Simulation time: 00 hr 27 min 57 sec)
Heartbeat CPU 0 instructions: 146500796 cycles: 232922640 heartbeat IPC: 1.52 cumulative IPC: 0.4395 (Simulation time: 00 hr 28 min 00 sec)
Heartbeat CPU 0 instructions: 147000798 cycles: 233201639 heartbeat IPC: 1.792 cumulative IPC: 0.4412 (Simulation time: 00 hr 28 min 02 sec)
Heartbeat CPU 0 instructions: 147500798 cycles: 234196727 heartbeat IPC: 0.5025 cumulative IPC: 0.4415 (Simulation time: 00 hr 28 min 08 sec)
Heartbeat CPU 0 instructions: 148000799 cycles: 235431818 heartbeat IPC: 0.4048 cumulative IPC: 0.4412 (Simulation time: 00 hr 28 min 16 sec)
Heartbeat CPU 0 instructions: 148500801 cycles: 237237732 heartbeat IPC: 0.2769 cumulative IPC: 0.4399 (Simulation time: 00 hr 28 min 25 sec)
Heartbeat CPU 0 instructions: 149000801 cycles: 239018552 heartbeat IPC: 0.2808 cumulative IPC: 0.4387 (Simulation time: 00 hr 28 min 36 sec)
Heartbeat CPU 0 instructions: 149500801 cycles: 240241059 heartbeat IPC: 0.409 cumulative IPC: 0.4385 (Simulation time: 00 hr 28 min 43 sec)
Heartbeat CPU 0 instructions: 150000807 cycles: 241498936 heartbeat IPC: 0.3975 cumulative IPC: 0.4383 (Simulation time: 00 hr 28 min 50 sec)
Heartbeat CPU 0 instructions: 150500807 cycles: 241887519 heartbeat IPC: 1.287 cumulative IPC: 0.4397 (Simulation time: 00 hr 28 min 53 sec)
Heartbeat CPU 0 instructions: 151000808 cycles: 242186771 heartbeat IPC: 1.671 cumulative IPC: 0.4413 (Simulation time: 00 hr 28 min 56 sec)
Heartbeat CPU 0 instructions: 151500812 cycles: 242479084 heartbeat IPC: 1.711 cumulative IPC: 0.443 (Simulation time: 00 hr 28 min 58 sec)
Heartbeat CPU 0 instructions: 152000812 cycles: 244060968 heartbeat IPC: 0.3161 cumulative IPC: 0.4421 (Simulation time: 00 hr 29 min 07 sec)
Heartbeat CPU 0 instructions: 152500812 cycles: 245639104 heartbeat IPC: 0.3168 cumulative IPC: 0.4412 (Simulation time: 00 hr 29 min 16 sec)
Heartbeat CPU 0 instructions: 153000816 cycles: 247397389 heartbeat IPC: 0.2844 cumulative IPC: 0.4401 (Simulation time: 00 hr 29 min 26 sec)
Heartbeat CPU 0 instructions: 153500817 cycles: 248305995 heartbeat IPC: 0.5503 cumulative IPC: 0.4405 (Simulation time: 00 hr 29 min 32 sec)
Heartbeat CPU 0 instructions: 154000820 cycles: 249588442 heartbeat IPC: 0.3899 cumulative IPC: 0.4402 (Simulation time: 00 hr 29 min 39 sec)
Heartbeat CPU 0 instructions: 154500821 cycles: 250096295 heartbeat IPC: 0.9845 cumulative IPC: 0.4414 (Simulation time: 00 hr 29 min 43 sec)
Heartbeat CPU 0 instructions: 155000822 cycles: 251953531 heartbeat IPC: 0.2692 cumulative IPC: 0.44 (Simulation time: 00 hr 29 min 53 sec)
Heartbeat CPU 0 instructions: 155500823 cycles: 253368808 heartbeat IPC: 0.3533 cumulative IPC: 0.4395 (Simulation time: 00 hr 30 min 01 sec)
Heartbeat CPU 0 instructions: 156000823 cycles: 254054835 heartbeat IPC: 0.7288 cumulative IPC: 0.4403 (Simulation time: 00 hr 30 min 06 sec)
Heartbeat CPU 0 instructions: 156500825 cycles: 254414309 heartbeat IPC: 1.391 cumulative IPC: 0.4418 (Simulation time: 00 hr 30 min 09 sec)
Heartbeat CPU 0 instructions: 157000825 cycles: 254708332 heartbeat IPC: 1.701 cumulative IPC: 0.4433 (Simulation time: 00 hr 30 min 11 sec)
Heartbeat CPU 0 instructions: 157500825 cycles: 255931217 heartbeat IPC: 0.4089 cumulative IPC: 0.4431 (Simulation time: 00 hr 30 min 18 sec)
Heartbeat CPU 0 instructions: 158000831 cycles: 256591203 heartbeat IPC: 0.7576 cumulative IPC: 0.444 (Simulation time: 00 hr 30 min 23 sec)
Heartbeat CPU 0 instructions: 158500833 cycles: 257780199 heartbeat IPC: 0.4205 cumulative IPC: 0.4439 (Simulation time: 00 hr 30 min 30 sec)
Heartbeat CPU 0 instructions: 159000840 cycles: 258109999 heartbeat IPC: 1.516 cumulative IPC: 0.4453 (Simulation time: 00 hr 30 min 33 sec)
Heartbeat CPU 0 instructions: 159500841 cycles: 258429916 heartbeat IPC: 1.563 cumulative IPC: 0.4468 (Simulation time: 00 hr 30 min 35 sec)
Heartbeat CPU 0 instructions: 160000841 cycles: 258719367 heartbeat IPC: 1.727 cumulative IPC: 0.4483 (Simulation time: 00 hr 30 min 38 sec)
Heartbeat CPU 0 instructions: 160500844 cycles: 260459226 heartbeat IPC: 0.2874 cumulative IPC: 0.4471 (Simulation time: 00 hr 30 min 47 sec)
Heartbeat CPU 0 instructions: 161000845 cycles: 262495862 heartbeat IPC: 0.2455 cumulative IPC: 0.4455 (Simulation time: 00 hr 30 min 58 sec)
Heartbeat CPU 0 instructions: 161500851 cycles: 264367529 heartbeat IPC: 0.2671 cumulative IPC: 0.4442 (Simulation time: 00 hr 31 min 09 sec)
Heartbeat CPU 0 instructions: 162000852 cycles: 265403305 heartbeat IPC: 0.4827 cumulative IPC: 0.4443 (Simulation time: 00 hr 31 min 15 sec)
Heartbeat CPU 0 instructions: 162500852 cycles: 266375049 heartbeat IPC: 0.5145 cumulative IPC: 0.4446 (Simulation time: 00 hr 31 min 21 sec)
Heartbeat CPU 0 instructions: 163000854 cycles: 267698272 heartbeat IPC: 0.3779 cumulative IPC: 0.4442 (Simulation time: 00 hr 31 min 29 sec)
Heartbeat CPU 0 instructions: 163500854 cycles: 268342469 heartbeat IPC: 0.7762 cumulative IPC: 0.4451 (Simulation time: 00 hr 31 min 33 sec)
Heartbeat CPU 0 instructions: 164000854 cycles: 268653678 heartbeat IPC: 1.607 cumulative IPC: 0.4465 (Simulation time: 00 hr 31 min 36 sec)
Heartbeat CPU 0 instructions: 164500857 cycles: 268981789 heartbeat IPC: 1.524 cumulative IPC: 0.4479 (Simulation time: 00 hr 31 min 38 sec)
Heartbeat CPU 0 instructions: 165000864 cycles: 269266975 heartbeat IPC: 1.753 cumulative IPC: 0.4493 (Simulation time: 00 hr 31 min 41 sec)
Heartbeat CPU 0 instructions: 165500865 cycles: 269595902 heartbeat IPC: 1.52 cumulative IPC: 0.4507 (Simulation time: 00 hr 31 min 44 sec)
Heartbeat CPU 0 instructions: 166000867 cycles: 269801600 heartbeat IPC: 2.431 cumulative IPC: 0.4523 (Simulation time: 00 hr 31 min 46 sec)
Heartbeat CPU 0 instructions: 166500872 cycles: 270968369 heartbeat IPC: 0.4285 cumulative IPC: 0.4522 (Simulation time: 00 hr 31 min 53 sec)
Heartbeat CPU 0 instructions: 167000876 cycles: 272123118 heartbeat IPC: 0.433 cumulative IPC: 0.4521 (Simulation time: 00 hr 32 min 00 sec)
Heartbeat CPU 0 instructions: 167500876 cycles: 272570235 heartbeat IPC: 1.118 cumulative IPC: 0.4533 (Simulation time: 00 hr 32 min 03 sec)
Heartbeat CPU 0 instructions: 168000877 cycles: 272862869 heartbeat IPC: 1.709 cumulative IPC: 0.4547 (Simulation time: 00 hr 32 min 05 sec)
Heartbeat CPU 0 instructions: 168500877 cycles: 273597394 heartbeat IPC: 0.6807 cumulative IPC: 0.4553 (Simulation time: 00 hr 32 min 10 sec)
Heartbeat CPU 0 instructions: 169000877 cycles: 275592112 heartbeat IPC: 0.2507 cumulative IPC: 0.4538 (Simulation time: 00 hr 32 min 21 sec)
Heartbeat CPU 0 instructions: 169500879 cycles: 277043845 heartbeat IPC: 0.3444 cumulative IPC: 0.4531 (Simulation time: 00 hr 32 min 29 sec)
Heartbeat CPU 0 instructions: 170000882 cycles: 278075942 heartbeat IPC: 0.4845 cumulative IPC: 0.4533 (Simulation time: 00 hr 32 min 35 sec)
Heartbeat CPU 0 instructions: 170500883 cycles: 279250790 heartbeat IPC: 0.4256 cumulative IPC: 0.4531 (Simulation time: 00 hr 32 min 42 sec)
Heartbeat CPU 0 instructions: 171000885 cycles: 279455125 heartbeat IPC: 2.447 cumulative IPC: 0.4547 (Simulation time: 00 hr 32 min 44 sec)
Heartbeat CPU 0 instructions: 171500886 cycles: 279634487 heartbeat IPC: 2.788 cumulative IPC: 0.4563 (Simulation time: 00 hr 32 min 46 sec)
Heartbeat CPU 0 instructions: 172000888 cycles: 280140774 heartbeat IPC: 0.9876 cumulative IPC: 0.4573 (Simulation time: 00 hr 32 min 50 sec)
Heartbeat CPU 0 instructions: 172500893 cycles: 280587347 heartbeat IPC: 1.12 cumulative IPC: 0.4584 (Simulation time: 00 hr 32 min 53 sec)
Heartbeat CPU 0 instructions: 173000894 cycles: 281849451 heartbeat IPC: 0.3962 cumulative IPC: 0.4581 (Simulation time: 00 hr 33 min 01 sec)
Heartbeat CPU 0 instructions: 173500896 cycles: 283335023 heartbeat IPC: 0.3366 cumulative IPC: 0.4574 (Simulation time: 00 hr 33 min 09 sec)
Heartbeat CPU 0 instructions: 174000898 cycles: 284347507 heartbeat IPC: 0.4938 cumulative IPC: 0.4575 (Simulation time: 00 hr 33 min 15 sec)
Heartbeat CPU 0 instructions: 174500898 cycles: 286224603 heartbeat IPC: 0.2664 cumulative IPC: 0.4562 (Simulation time: 00 hr 33 min 26 sec)
Heartbeat CPU 0 instructions: 175000902 cycles: 288329505 heartbeat IPC: 0.2375 cumulative IPC: 0.4546 (Simulation time: 00 hr 33 min 37 sec)
Heartbeat CPU 0 instructions: 175500904 cycles: 289459931 heartbeat IPC: 0.4423 cumulative IPC: 0.4545 (Simulation time: 00 hr 33 min 43 sec)
Heartbeat CPU 0 instructions: 176000904 cycles: 290903158 heartbeat IPC: 0.3464 cumulative IPC: 0.4539 (Simulation time: 00 hr 33 min 52 sec)
Heartbeat CPU 0 instructions: 176500904 cycles: 292407515 heartbeat IPC: 0.3324 cumulative IPC: 0.4533 (Simulation time: 00 hr 34 min 01 sec)
Heartbeat CPU 0 instructions: 177000904 cycles: 293586473 heartbeat IPC: 0.4241 cumulative IPC: 0.4532 (Simulation time: 00 hr 34 min 08 sec)
Heartbeat CPU 0 instructions: 177500904 cycles: 295240613 heartbeat IPC: 0.3023 cumulative IPC: 0.4523 (Simulation time: 00 hr 34 min 17 sec)
Heartbeat CPU 0 instructions: 178000904 cycles: 298041393 heartbeat IPC: 0.1785 cumulative IPC: 0.4496 (Simulation time: 00 hr 34 min 31 sec)
Heartbeat CPU 0 instructions: 178500904 cycles: 300161686 heartbeat IPC: 0.2358 cumulative IPC: 0.448 (Simulation time: 00 hr 34 min 43 sec)
Heartbeat CPU 0 instructions: 179000906 cycles: 301105077 heartbeat IPC: 0.53 cumulative IPC: 0.4483 (Simulation time: 00 hr 34 min 49 sec)
Heartbeat CPU 0 instructions: 179500909 cycles: 301885133 heartbeat IPC: 0.641 cumulative IPC: 0.4488 (Simulation time: 00 hr 34 min 54 sec)
Heartbeat CPU 0 instructions: 180000912 cycles: 302865317 heartbeat IPC: 0.5101 cumulative IPC: 0.449 (Simulation time: 00 hr 35 min 00 sec)
Heartbeat CPU 0 instructions: 180500918 cycles: 304054143 heartbeat IPC: 0.4206 cumulative IPC: 0.4489 (Simulation time: 00 hr 35 min 08 sec)
Heartbeat CPU 0 instructions: 181000922 cycles: 305942080 heartbeat IPC: 0.2648 cumulative IPC: 0.4477 (Simulation time: 00 hr 35 min 18 sec)
Heartbeat CPU 0 instructions: 181500923 cycles: 306882930 heartbeat IPC: 0.5314 cumulative IPC: 0.448 (Simulation time: 00 hr 35 min 24 sec)
Heartbeat CPU 0 instructions: 182000926 cycles: 308332972 heartbeat IPC: 0.3448 cumulative IPC: 0.4475 (Simulation time: 00 hr 35 min 32 sec)
Heartbeat CPU 0 instructions: 182500926 cycles: 309441084 heartbeat IPC: 0.4512 cumulative IPC: 0.4475 (Simulation time: 00 hr 35 min 39 sec)
Heartbeat CPU 0 instructions: 183000926 cycles: 310691167 heartbeat IPC: 0.4 cumulative IPC: 0.4473 (Simulation time: 00 hr 35 min 46 sec)
Heartbeat CPU 0 instructions: 183500926 cycles: 311746608 heartbeat IPC: 0.4737 cumulative IPC: 0.4474 (Simulation time: 00 hr 35 min 53 sec)
Heartbeat CPU 0 instructions: 184000929 cycles: 312987345 heartbeat IPC: 0.403 cumulative IPC: 0.4472 (Simulation time: 00 hr 36 min 00 sec)
Heartbeat CPU 0 instructions: 184500930 cycles: 315687261 heartbeat IPC: 0.1852 cumulative IPC: 0.4448 (Simulation time: 00 hr 36 min 14 sec)
Heartbeat CPU 0 instructions: 185000930 cycles: 317218009 heartbeat IPC: 0.3266 cumulative IPC: 0.4442 (Simulation time: 00 hr 36 min 23 sec)
Heartbeat CPU 0 instructions: 185500932 cycles: 318455948 heartbeat IPC: 0.4039 cumulative IPC: 0.4441 (Simulation time: 00 hr 36 min 30 sec)
Heartbeat CPU 0 instructions: 186000932 cycles: 319777231 heartbeat IPC: 0.3784 cumulative IPC: 0.4438 (Simulation time: 00 hr 36 min 38 sec)
Heartbeat CPU 0 instructions: 186500937 cycles: 320869155 heartbeat IPC: 0.4579 cumulative IPC: 0.4439 (Simulation time: 00 hr 36 min 45 sec)
Heartbeat CPU 0 instructions: 187000940 cycles: 321769650 heartbeat IPC: 0.5553 cumulative IPC: 0.4442 (Simulation time: 00 hr 36 min 50 sec)
Heartbeat CPU 0 instructions: 187500945 cycles: 322170009 heartbeat IPC: 1.249 cumulative IPC: 0.4452 (Simulation time: 00 hr 36 min 53 sec)
Heartbeat CPU 0 instructions: 188000945 cycles: 322479229 heartbeat IPC: 1.617 cumulative IPC: 0.4464 (Simulation time: 00 hr 36 min 56 sec)
Heartbeat CPU 0 instructions: 188500948 cycles: 322767016 heartbeat IPC: 1.737 cumulative IPC: 0.4476 (Simulation time: 00 hr 36 min 58 sec)
Heartbeat CPU 0 instructions: 189000951 cycles: 324276218 heartbeat IPC: 0.3313 cumulative IPC: 0.447 (Simulation time: 00 hr 37 min 06 sec)
Heartbeat CPU 0 instructions: 189500954 cycles: 324594468 heartbeat IPC: 1.571 cumulative IPC: 0.4482 (Simulation time: 00 hr 37 min 09 sec)
Heartbeat CPU 0 instructions: 190000956 cycles: 325695044 heartbeat IPC: 0.4543 cumulative IPC: 0.4482 (Simulation time: 00 hr 37 min 15 sec)
Heartbeat CPU 0 instructions: 190500957 cycles: 326923074 heartbeat IPC: 0.4072 cumulative IPC: 0.448 (Simulation time: 00 hr 37 min 23 sec)
Heartbeat CPU 0 instructions: 191000957 cycles: 327911557 heartbeat IPC: 0.5058 cumulative IPC: 0.4482 (Simulation time: 00 hr 37 min 28 sec)
Heartbeat CPU 0 instructions: 191500957 cycles: 328954433 heartbeat IPC: 0.4794 cumulative IPC: 0.4483 (Simulation time: 00 hr 37 min 35 sec)
Heartbeat CPU 0 instructions: 192000958 cycles: 330204837 heartbeat IPC: 0.3999 cumulative IPC: 0.4481 (Simulation time: 00 hr 37 min 42 sec)
Heartbeat CPU 0 instructions: 192500959 cycles: 330817858 heartbeat IPC: 0.8156 cumulative IPC: 0.4488 (Simulation time: 00 hr 37 min 46 sec)
Heartbeat CPU 0 instructions: 193000962 cycles: 331174594 heartbeat IPC: 1.402 cumulative IPC: 0.4499 (Simulation time: 00 hr 37 min 49 sec)
Heartbeat CPU 0 instructions: 193500967 cycles: 331491144 heartbeat IPC: 1.58 cumulative IPC: 0.451 (Simulation time: 00 hr 37 min 52 sec)
Heartbeat CPU 0 instructions: 194000973 cycles: 331804650 heartbeat IPC: 1.595 cumulative IPC: 0.4522 (Simulation time: 00 hr 37 min 55 sec)
Heartbeat CPU 0 instructions: 194500980 cycles: 332883955 heartbeat IPC: 0.4633 cumulative IPC: 0.4522 (Simulation time: 00 hr 38 min 01 sec)
Heartbeat CPU 0 instructions: 195000981 cycles: 334484790 heartbeat IPC: 0.3123 cumulative IPC: 0.4515 (Simulation time: 00 hr 38 min 11 sec)
Heartbeat CPU 0 instructions: 195500981 cycles: 334776326 heartbeat IPC: 1.715 cumulative IPC: 0.4526 (Simulation time: 00 hr 38 min 14 sec)
Heartbeat CPU 0 instructions: 196000981 cycles: 335106413 heartbeat IPC: 1.515 cumulative IPC: 0.4537 (Simulation time: 00 hr 38 min 17 sec)
Heartbeat CPU 0 instructions: 196500982 cycles: 335410593 heartbeat IPC: 1.644 cumulative IPC: 0.4549 (Simulation time: 00 hr 38 min 20 sec)
Heartbeat CPU 0 instructions: 197000982 cycles: 336882022 heartbeat IPC: 0.3398 cumulative IPC: 0.4543 (Simulation time: 00 hr 38 min 31 sec)
Heartbeat CPU 0 instructions: 197500988 cycles: 338443681 heartbeat IPC: 0.3202 cumulative IPC: 0.4537 (Simulation time: 00 hr 38 min 43 sec)
Heartbeat CPU 0 instructions: 198000994 cycles: 339777654 heartbeat IPC: 0.3748 cumulative IPC: 0.4534 (Simulation time: 00 hr 38 min 51 sec)
Heartbeat CPU 0 instructions: 198500994 cycles: 342317452 heartbeat IPC: 0.1969 cumulative IPC: 0.4514 (Simulation time: 00 hr 39 min 04 sec)
Heartbeat CPU 0 instructions: 199000994 cycles: 344029313 heartbeat IPC: 0.2921 cumulative IPC: 0.4506 (Simulation time: 00 hr 39 min 13 sec)
Heartbeat CPU 0 instructions: 199500994 cycles: 344841944 heartbeat IPC: 0.6153 cumulative IPC: 0.451 (Simulation time: 00 hr 39 min 19 sec)
Heartbeat CPU 0 instructions: 200000995 cycles: 346589935 heartbeat IPC: 0.286 cumulative IPC: 0.4501 (Simulation time: 00 hr 39 min 29 sec)
Heartbeat CPU 0 instructions: 200501001 cycles: 347446420 heartbeat IPC: 0.5838 cumulative IPC: 0.4504 (Simulation time: 00 hr 39 min 34 sec)
Heartbeat CPU 0 instructions: 201001004 cycles: 347850087 heartbeat IPC: 1.239 cumulative IPC: 0.4514 (Simulation time: 00 hr 39 min 38 sec)
Heartbeat CPU 0 instructions: 201501008 cycles: 348195708 heartbeat IPC: 1.447 cumulative IPC: 0.4524 (Simulation time: 00 hr 39 min 41 sec)
Heartbeat CPU 0 instructions: 202001008 cycles: 348496854 heartbeat IPC: 1.66 cumulative IPC: 0.4535 (Simulation time: 00 hr 39 min 44 sec)
Heartbeat CPU 0 instructions: 202501011 cycles: 348872172 heartbeat IPC: 1.332 cumulative IPC: 0.4545 (Simulation time: 00 hr 39 min 47 sec)
Heartbeat CPU 0 instructions: 203001011 cycles: 351241356 heartbeat IPC: 0.211 cumulative IPC: 0.4528 (Simulation time: 00 hr 40 min 00 sec)
Heartbeat CPU 0 instructions: 203501011 cycles: 352744465 heartbeat IPC: 0.3326 cumulative IPC: 0.4523 (Simulation time: 00 hr 40 min 09 sec)
Heartbeat CPU 0 instructions: 204001014 cycles: 353056826 heartbeat IPC: 1.601 cumulative IPC: 0.4533 (Simulation time: 00 hr 40 min 12 sec)
Heartbeat CPU 0 instructions: 204501015 cycles: 353353636 heartbeat IPC: 1.685 cumulative IPC: 0.4544 (Simulation time: 00 hr 40 min 14 sec)
Heartbeat CPU 0 instructions: 205001020 cycles: 353671662 heartbeat IPC: 1.572 cumulative IPC: 0.4554 (Simulation time: 00 hr 40 min 17 sec)
Heartbeat CPU 0 instructions: 205501021 cycles: 354054798 heartbeat IPC: 1.305 cumulative IPC: 0.4564 (Simulation time: 00 hr 40 min 20 sec)
Heartbeat CPU 0 instructions: 206001024 cycles: 354298082 heartbeat IPC: 2.055 cumulative IPC: 0.4575 (Simulation time: 00 hr 40 min 22 sec)
Heartbeat CPU 0 instructions: 206501027 cycles: 355701142 heartbeat IPC: 0.3564 cumulative IPC: 0.4571 (Simulation time: 00 hr 40 min 30 sec)
Heartbeat CPU 0 instructions: 207001027 cycles: 357574475 heartbeat IPC: 0.2669 cumulative IPC: 0.4561 (Simulation time: 00 hr 40 min 40 sec)
Heartbeat CPU 0 instructions: 207501032 cycles: 359583616 heartbeat IPC: 0.2489 cumulative IPC: 0.4549 (Simulation time: 00 hr 40 min 52 sec)
Heartbeat CPU 0 instructions: 208001033 cycles: 362069350 heartbeat IPC: 0.2011 cumulative IPC: 0.4531 (Simulation time: 00 hr 41 min 07 sec)
Heartbeat CPU 0 instructions: 208501037 cycles: 363095410 heartbeat IPC: 0.4873 cumulative IPC: 0.4532 (Simulation time: 00 hr 41 min 13 sec)
Heartbeat CPU 0 instructions: 209001037 cycles: 364476329 heartbeat IPC: 0.3621 cumulative IPC: 0.4528 (Simulation time: 00 hr 41 min 21 sec)
Heartbeat CPU 0 instructions: 209501037 cycles: 365681465 heartbeat IPC: 0.4149 cumulative IPC: 0.4527 (Simulation time: 00 hr 41 min 29 sec)
Heartbeat CPU 0 instructions: 210001037 cycles: 366907073 heartbeat IPC: 0.408 cumulative IPC: 0.4525 (Simulation time: 00 hr 41 min 36 sec)
Heartbeat CPU 0 instructions: 210501037 cycles: 368441126 heartbeat IPC: 0.3259 cumulative IPC: 0.452 (Simulation time: 00 hr 41 min 45 sec)
Heartbeat CPU 0 instructions: 211001044 cycles: 370658677 heartbeat IPC: 0.2255 cumulative IPC: 0.4506 (Simulation time: 00 hr 41 min 58 sec)
Heartbeat CPU 0 instructions: 211501046 cycles: 373328273 heartbeat IPC: 0.1873 cumulative IPC: 0.4486 (Simulation time: 00 hr 42 min 11 sec)
Heartbeat CPU 0 instructions: 212001050 cycles: 374263114 heartbeat IPC: 0.5349 cumulative IPC: 0.4488 (Simulation time: 00 hr 42 min 17 sec)
Heartbeat CPU 0 instructions: 212501056 cycles: 375371481 heartbeat IPC: 0.4511 cumulative IPC: 0.4488 (Simulation time: 00 hr 42 min 24 sec)
Heartbeat CPU 0 instructions: 213001056 cycles: 377135250 heartbeat IPC: 0.2835 cumulative IPC: 0.448 (Simulation time: 00 hr 42 min 34 sec)
Heartbeat CPU 0 instructions: 213501056 cycles: 378959252 heartbeat IPC: 0.2741 cumulative IPC: 0.4472 (Simulation time: 00 hr 42 min 44 sec)
Heartbeat CPU 0 instructions: 214001057 cycles: 380803372 heartbeat IPC: 0.2711 cumulative IPC: 0.4463 (Simulation time: 00 hr 42 min 54 sec)
Heartbeat CPU 0 instructions: 214501061 cycles: 382291868 heartbeat IPC: 0.3359 cumulative IPC: 0.4459 (Simulation time: 00 hr 43 min 02 sec)
Heartbeat CPU 0 instructions: 215001061 cycles: 383134423 heartbeat IPC: 0.5934 cumulative IPC: 0.4462 (Simulation time: 00 hr 43 min 07 sec)
Heartbeat CPU 0 instructions: 215501068 cycles: 384604253 heartbeat IPC: 0.3402 cumulative IPC: 0.4458 (Simulation time: 00 hr 43 min 15 sec)
Heartbeat CPU 0 instructions: 216001068 cycles: 386168956 heartbeat IPC: 0.3195 cumulative IPC: 0.4452 (Simulation time: 00 hr 43 min 24 sec)
Heartbeat CPU 0 instructions: 216501074 cycles: 387922102 heartbeat IPC: 0.2852 cumulative IPC: 0.4445 (Simulation time: 00 hr 43 min 34 sec)
Heartbeat CPU 0 instructions: 217001075 cycles: 389692911 heartbeat IPC: 0.2824 cumulative IPC: 0.4437 (Simulation time: 00 hr 43 min 43 sec)
Heartbeat CPU 0 instructions: 217501076 cycles: 390058872 heartbeat IPC: 1.366 cumulative IPC: 0.4446 (Simulation time: 00 hr 43 min 46 sec)
Heartbeat CPU 0 instructions: 218001076 cycles: 390532075 heartbeat IPC: 1.057 cumulative IPC: 0.4454 (Simulation time: 00 hr 43 min 50 sec)
Heartbeat CPU 0 instructions: 218501076 cycles: 390818238 heartbeat IPC: 1.747 cumulative IPC: 0.4464 (Simulation time: 00 hr 43 min 52 sec)
Heartbeat CPU 0 instructions: 219001076 cycles: 391474834 heartbeat IPC: 0.7615 cumulative IPC: 0.4469 (Simulation time: 00 hr 43 min 57 sec)
Heartbeat CPU 0 instructions: 219501081 cycles: 393827920 heartbeat IPC: 0.2125 cumulative IPC: 0.4455 (Simulation time: 00 hr 44 min 09 sec)
Heartbeat CPU 0 instructions: 220001083 cycles: 395288020 heartbeat IPC: 0.3424 cumulative IPC: 0.4451 (Simulation time: 00 hr 44 min 17 sec)
Heartbeat CPU 0 instructions: 220501083 cycles: 396068612 heartbeat IPC: 0.6405 cumulative IPC: 0.4455 (Simulation time: 00 hr 44 min 22 sec)
Heartbeat CPU 0 instructions: 221001086 cycles: 396374595 heartbeat IPC: 1.634 cumulative IPC: 0.4464 (Simulation time: 00 hr 44 min 24 sec)
Heartbeat CPU 0 instructions: 221501090 cycles: 396668215 heartbeat IPC: 1.703 cumulative IPC: 0.4474 (Simulation time: 00 hr 44 min 27 sec)
Heartbeat CPU 0 instructions: 222001092 cycles: 397433145 heartbeat IPC: 0.6537 cumulative IPC: 0.4478 (Simulation time: 00 hr 44 min 32 sec)
Heartbeat CPU 0 instructions: 222501096 cycles: 399484365 heartbeat IPC: 0.2438 cumulative IPC: 0.4467 (Simulation time: 00 hr 44 min 43 sec)
Heartbeat CPU 0 instructions: 223001096 cycles: 400961389 heartbeat IPC: 0.3385 cumulative IPC: 0.4463 (Simulation time: 00 hr 44 min 51 sec)
Heartbeat CPU 0 instructions: 223501098 cycles: 402200446 heartbeat IPC: 0.4035 cumulative IPC: 0.4462 (Simulation time: 00 hr 44 min 59 sec)
Heartbeat CPU 0 instructions: 224001098 cycles: 403333710 heartbeat IPC: 0.4412 cumulative IPC: 0.4462 (Simulation time: 00 hr 45 min 05 sec)
Heartbeat CPU 0 instructions: 224501104 cycles: 405084542 heartbeat IPC: 0.2856 cumulative IPC: 0.4454 (Simulation time: 00 hr 45 min 15 sec)
Heartbeat CPU 0 instructions: 225001104 cycles: 406011339 heartbeat IPC: 0.5395 cumulative IPC: 0.4457 (Simulation time: 00 hr 45 min 21 sec)
Heartbeat CPU 0 instructions: 225501105 cycles: 407551785 heartbeat IPC: 0.3246 cumulative IPC: 0.4452 (Simulation time: 00 hr 45 min 30 sec)
Heartbeat CPU 0 instructions: 226001105 cycles: 409058140 heartbeat IPC: 0.3319 cumulative IPC: 0.4448 (Simulation time: 00 hr 45 min 39 sec)
Heartbeat CPU 0 instructions: 226501105 cycles: 410335878 heartbeat IPC: 0.3913 cumulative IPC: 0.4446 (Simulation time: 00 hr 45 min 47 sec)
Heartbeat CPU 0 instructions: 227001107 cycles: 412172792 heartbeat IPC: 0.2722 cumulative IPC: 0.4438 (Simulation time: 00 hr 45 min 57 sec)
Heartbeat CPU 0 instructions: 227501114 cycles: 413673843 heartbeat IPC: 0.3331 cumulative IPC: 0.4434 (Simulation time: 00 hr 46 min 06 sec)
Heartbeat CPU 0 instructions: 228001118 cycles: 415219154 heartbeat IPC: 0.3236 cumulative IPC: 0.4429 (Simulation time: 00 hr 46 min 15 sec)
Heartbeat CPU 0 instructions: 228501120 cycles: 416400334 heartbeat IPC: 0.4233 cumulative IPC: 0.4429 (Simulation time: 00 hr 46 min 22 sec)
Heartbeat CPU 0 instructions: 229001121 cycles: 417694389 heartbeat IPC: 0.3864 cumulative IPC: 0.4427 (Simulation time: 00 hr 46 min 29 sec)
Heartbeat CPU 0 instructions: 229501121 cycles: 418751918 heartbeat IPC: 0.4728 cumulative IPC: 0.4428 (Simulation time: 00 hr 46 min 36 sec)
Heartbeat CPU 0 instructions: 230001121 cycles: 419802661 heartbeat IPC: 0.4759 cumulative IPC: 0.4428 (Simulation time: 00 hr 46 min 42 sec)
Heartbeat CPU 0 instructions: 230501121 cycles: 421626566 heartbeat IPC: 0.2741 cumulative IPC: 0.4421 (Simulation time: 00 hr 46 min 52 sec)
Heartbeat CPU 0 instructions: 231001122 cycles: 422488989 heartbeat IPC: 0.5798 cumulative IPC: 0.4424 (Simulation time: 00 hr 46 min 57 sec)
Heartbeat CPU 0 instructions: 231501122 cycles: 423127820 heartbeat IPC: 0.7827 cumulative IPC: 0.4429 (Simulation time: 00 hr 47 min 01 sec)
Heartbeat CPU 0 instructions: 232001123 cycles: 425001180 heartbeat IPC: 0.2669 cumulative IPC: 0.4421 (Simulation time: 00 hr 47 min 11 sec)
Heartbeat CPU 0 instructions: 232501127 cycles: 427175396 heartbeat IPC: 0.23 cumulative IPC: 0.441 (Simulation time: 00 hr 47 min 22 sec)
Heartbeat CPU 0 instructions: 233001133 cycles: 428546826 heartbeat IPC: 0.3646 cumulative IPC: 0.4407 (Simulation time: 00 hr 47 min 30 sec)
Heartbeat CPU 0 instructions: 233501134 cycles: 429878101 heartbeat IPC: 0.3756 cumulative IPC: 0.4405 (Simulation time: 00 hr 47 min 38 sec)
Heartbeat CPU 0 instructions: 234001141 cycles: 430361466 heartbeat IPC: 1.034 cumulative IPC: 0.4412 (Simulation time: 00 hr 47 min 42 sec)
Heartbeat CPU 0 instructions: 234501148 cycles: 430650517 heartbeat IPC: 1.73 cumulative IPC: 0.4421 (Simulation time: 00 hr 47 min 44 sec)
Heartbeat CPU 0 instructions: 235001151 cycles: 430920015 heartbeat IPC: 1.855 cumulative IPC: 0.443 (Simulation time: 00 hr 47 min 47 sec)
Heartbeat CPU 0 instructions: 235501151 cycles: 432354996 heartbeat IPC: 0.3484 cumulative IPC: 0.4427 (Simulation time: 00 hr 47 min 55 sec)
Heartbeat CPU 0 instructions: 236001153 cycles: 434020691 heartbeat IPC: 0.3002 cumulative IPC: 0.4421 (Simulation time: 00 hr 48 min 04 sec)
Heartbeat CPU 0 instructions: 236501160 cycles: 434419511 heartbeat IPC: 1.254 cumulative IPC: 0.4429 (Simulation time: 00 hr 48 min 07 sec)
Heartbeat CPU 0 instructions: 237001160 cycles: 434678374 heartbeat IPC: 1.932 cumulative IPC: 0.4438 (Simulation time: 00 hr 48 min 09 sec)
Heartbeat CPU 0 instructions: 237501161 cycles: 434993273 heartbeat IPC: 1.588 cumulative IPC: 0.4447 (Simulation time: 00 hr 48 min 12 sec)
Heartbeat CPU 0 instructions: 238001163 cycles: 435270927 heartbeat IPC: 1.801 cumulative IPC: 0.4456 (Simulation time: 00 hr 48 min 14 sec)
Heartbeat CPU 0 instructions: 238501165 cycles: 435585889 heartbeat IPC: 1.587 cumulative IPC: 0.4464 (Simulation time: 00 hr 48 min 17 sec)
Heartbeat CPU 0 instructions: 239001165 cycles: 435767714 heartbeat IPC: 2.75 cumulative IPC: 0.4474 (Simulation time: 00 hr 48 min 19 sec)
Heartbeat CPU 0 instructions: 239501170 cycles: 436634349 heartbeat IPC: 0.5769 cumulative IPC: 0.4477 (Simulation time: 00 hr 48 min 24 sec)
Heartbeat CPU 0 instructions: 240001176 cycles: 437134275 heartbeat IPC: 1 cumulative IPC: 0.4483 (Simulation time: 00 hr 48 min 28 sec)
Heartbeat CPU 0 instructions: 240501179 cycles: 437316373 heartbeat IPC: 2.746 cumulative IPC: 0.4493 (Simulation time: 00 hr 48 min 30 sec)
Heartbeat CPU 0 instructions: 241001183 cycles: 437493054 heartbeat IPC: 2.83 cumulative IPC: 0.4503 (Simulation time: 00 hr 48 min 32 sec)
Heartbeat CPU 0 instructions: 241501186 cycles: 437677649 heartbeat IPC: 2.709 cumulative IPC: 0.4513 (Simulation time: 00 hr 48 min 33 sec)
Heartbeat CPU 0 instructions: 242001186 cycles: 438025159 heartbeat IPC: 1.439 cumulative IPC: 0.4521 (Simulation time: 00 hr 48 min 36 sec)
Heartbeat CPU 0 instructions: 242501188 cycles: 440615066 heartbeat IPC: 0.1931 cumulative IPC: 0.4505 (Simulation time: 00 hr 48 min 51 sec)
Heartbeat CPU 0 instructions: 243001189 cycles: 443073919 heartbeat IPC: 0.2033 cumulative IPC: 0.4491 (Simulation time: 00 hr 49 min 04 sec)
Heartbeat CPU 0 instructions: 243501195 cycles: 445267067 heartbeat IPC: 0.228 cumulative IPC: 0.448 (Simulation time: 00 hr 49 min 16 sec)
Heartbeat CPU 0 instructions: 244001195 cycles: 447553446 heartbeat IPC: 0.2187 cumulative IPC: 0.4468 (Simulation time: 00 hr 49 min 29 sec)
Heartbeat CPU 0 instructions: 244501196 cycles: 448640266 heartbeat IPC: 0.4601 cumulative IPC: 0.4468 (Simulation time: 00 hr 49 min 35 sec)
Heartbeat CPU 0 instructions: 245001201 cycles: 450633875 heartbeat IPC: 0.2508 cumulative IPC: 0.4459 (Simulation time: 00 hr 49 min 46 sec)
Heartbeat CPU 0 instructions: 245501202 cycles: 452260327 heartbeat IPC: 0.3074 cumulative IPC: 0.4454 (Simulation time: 00 hr 49 min 56 sec)
Heartbeat CPU 0 instructions: 246001202 cycles: 453015335 heartbeat IPC: 0.6622 cumulative IPC: 0.4458 (Simulation time: 00 hr 50 min 01 sec)
Heartbeat CPU 0 instructions: 246501203 cycles: 453315480 heartbeat IPC: 1.666 cumulative IPC: 0.4466 (Simulation time: 00 hr 50 min 04 sec)
Heartbeat CPU 0 instructions: 247001204 cycles: 453612038 heartbeat IPC: 1.686 cumulative IPC: 0.4474 (Simulation time: 00 hr 50 min 07 sec)
Heartbeat CPU 0 instructions: 247501207 cycles: 453900743 heartbeat IPC: 1.732 cumulative IPC: 0.4483 (Simulation time: 00 hr 50 min 10 sec)
Heartbeat CPU 0 instructions: 248001207 cycles: 455371544 heartbeat IPC: 0.34 cumulative IPC: 0.4479 (Simulation time: 00 hr 50 min 21 sec)
Heartbeat CPU 0 instructions: 248501210 cycles: 456884042 heartbeat IPC: 0.3306 cumulative IPC: 0.4475 (Simulation time: 00 hr 50 min 32 sec)
Heartbeat CPU 0 instructions: 249001210 cycles: 458958912 heartbeat IPC: 0.241 cumulative IPC: 0.4466 (Simulation time: 00 hr 50 min 44 sec)
Heartbeat CPU 0 instructions: 249501214 cycles: 459629244 heartbeat IPC: 0.7459 cumulative IPC: 0.447 (Simulation time: 00 hr 50 min 48 sec)
Simulation finished CPU 0 instructions: 200000002 cycles: 446702654 cumulative IPC: 0.4477 (Simulation time: 00 hr 50 min 52 sec)
Simulation complete CPU 0 instructions: 200000002 cycles: 446702654 cumulative IPC: 0.4477 (Simulation time: 00 hr 50 min 52 sec)

ChampSim completed all CPUs

=== Simulation ===
CPU 0 runs /local-ssd/ben/dpc4-traces/gtraces_v2/sierra.a.3_0001.champsim.gz

Region of Interest Statistics

CPU 0 cumulative IPC: 0.4477 instructions: 200000002 cycles: 446702654
CPU 0 Branch Prediction Accuracy: 86.47% MPKI: 22.58 Average ROB Occupancy at Mispredict: 19.98
Branch type MPKI
BRANCH_DIRECT_JUMP: 1.988
BRANCH_INDIRECT: 0.226
BRANCH_CONDITIONAL: 17.42
BRANCH_DIRECT_CALL: 1.537
BRANCH_INDIRECT_CALL: 0.364
BRANCH_RETURN: 1.052

cpu0->cpu0_STLB TOTAL        ACCESS:    2997258 HIT:    2364024 MISS:     633234 MSHR_MERGE:          0
cpu0->cpu0_STLB LOAD         ACCESS:    2997258 HIT:    2364024 MISS:     633234 MSHR_MERGE:          0
cpu0->cpu0_STLB RFO          ACCESS:          0 HIT:          0 MISS:          0 MSHR_MERGE:          0
cpu0->cpu0_STLB PREFETCH     ACCESS:          0 HIT:          0 MISS:          0 MSHR_MERGE:          0
cpu0->cpu0_STLB WRITE        ACCESS:          0 HIT:          0 MISS:          0 MSHR_MERGE:          0
cpu0->cpu0_STLB TRANSLATION  ACCESS:          0 HIT:          0 MISS:          0 MSHR_MERGE:          0
cpu0->cpu0_STLB PREFETCH REQUESTED:          0 ISSUED:          0 USEFUL:          0 USELESS:          0
cpu0->cpu0_STLB AVERAGE MISS LATENCY: 148 cycles
cpu0->cpu0_L2C TOTAL        ACCESS:   17267646 HIT:   12413032 MISS:    4854614 MSHR_MERGE:     622074
cpu0->cpu0_L2C LOAD         ACCESS:    7018027 HIT:    5043721 MISS:    1974306 MSHR_MERGE:      25976
cpu0->cpu0_L2C RFO          ACCESS:     953662 HIT:     529777 MISS:     423885 MSHR_MERGE:       2814
cpu0->cpu0_L2C PREFETCH     ACCESS:    6935640 HIT:    4781131 MISS:    2154509 MSHR_MERGE:     593284
cpu0->cpu0_L2C WRITE        ACCESS:    1666740 HIT:    1666674 MISS:         66 MSHR_MERGE:          0
cpu0->cpu0_L2C TRANSLATION  ACCESS:     693577 HIT:     391729 MISS:     301848 MSHR_MERGE:          0
cpu0->cpu0_L2C PREFETCH REQUESTED:    6461286 ISSUED:    5846610 USEFUL:     420451 USELESS:     784689
cpu0->cpu0_L2C AVERAGE MISS LATENCY: 194.4 cycles
cpu0->cpu0_L1I TOTAL        ACCESS:   20923373 HIT:   14346578 MISS:    6576795 MSHR_MERGE:    1546648
cpu0->cpu0_L1I LOAD         ACCESS:   20923373 HIT:   14346578 MISS:    6576795 MSHR_MERGE:    1546648
cpu0->cpu0_L1I RFO          ACCESS:          0 HIT:          0 MISS:          0 MSHR_MERGE:          0
cpu0->cpu0_L1I PREFETCH     ACCESS:          0 HIT:          0 MISS:          0 MSHR_MERGE:          0
cpu0->cpu0_L1I WRITE        ACCESS:          0 HIT:          0 MISS:          0 MSHR_MERGE:          0
cpu0->cpu0_L1I TRANSLATION  ACCESS:          0 HIT:          0 MISS:          0 MSHR_MERGE:          0
cpu0->cpu0_L1I PREFETCH REQUESTED:          0 ISSUED:          0 USEFUL:          0 USELESS:          0
cpu0->cpu0_L1I AVERAGE MISS LATENCY: 56.57 cycles
cpu0->cpu0_L1D TOTAL        ACCESS:   62064573 HIT:   54907115 MISS:    7157458 MSHR_MERGE:    2433252
cpu0->cpu0_L1D LOAD         ACCESS:   34024377 HIT:   31478151 MISS:    2546226 MSHR_MERGE:     558319
cpu0->cpu0_L1D RFO          ACCESS:          0 HIT:          0 MISS:          0 MSHR_MERGE:          0
cpu0->cpu0_L1D PREFETCH     ACCESS:    2732932 HIT:    1596943 MISS:    1135989 MSHR_MERGE:      46948
cpu0->cpu0_L1D WRITE        ACCESS:   23662376 HIT:   20885953 MISS:    2776423 MSHR_MERGE:    1822741
cpu0->cpu0_L1D TRANSLATION  ACCESS:    1644888 HIT:     946068 MISS:     698820 MSHR_MERGE:       5244
cpu0->cpu0_L1D PREFETCH REQUESTED:    2902704 ISSUED:    2732924 USEFUL:     461466 USELESS:     627568
cpu0->cpu0_L1D AVERAGE MISS LATENCY: 85.44 cycles
cpu0->cpu0_ITLB TOTAL        ACCESS:   17037816 HIT:   16285403 MISS:     752413 MSHR_MERGE:     348146
cpu0->cpu0_ITLB LOAD         ACCESS:   17037816 HIT:   16285403 MISS:     752413 MSHR_MERGE:     348146
cpu0->cpu0_ITLB RFO          ACCESS:          0 HIT:          0 MISS:          0 MSHR_MERGE:          0
cpu0->cpu0_ITLB PREFETCH     ACCESS:          0 HIT:          0 MISS:          0 MSHR_MERGE:          0
cpu0->cpu0_ITLB WRITE        ACCESS:          0 HIT:          0 MISS:          0 MSHR_MERGE:          0
cpu0->cpu0_ITLB TRANSLATION  ACCESS:          0 HIT:          0 MISS:          0 MSHR_MERGE:          0
cpu0->cpu0_ITLB PREFETCH REQUESTED:          0 ISSUED:          0 USEFUL:          0 USELESS:          0
cpu0->cpu0_ITLB AVERAGE MISS LATENCY: 25.62 cycles
cpu0->cpu0_DTLB TOTAL        ACCESS:   57256067 HIT:   53163221 MISS:    4092846 MSHR_MERGE:    1499855
cpu0->cpu0_DTLB LOAD         ACCESS:   57256067 HIT:   53163221 MISS:    4092846 MSHR_MERGE:    1499855
cpu0->cpu0_DTLB RFO          ACCESS:          0 HIT:          0 MISS:          0 MSHR_MERGE:          0
cpu0->cpu0_DTLB PREFETCH     ACCESS:          0 HIT:          0 MISS:          0 MSHR_MERGE:          0
cpu0->cpu0_DTLB WRITE        ACCESS:          0 HIT:          0 MISS:          0 MSHR_MERGE:          0
cpu0->cpu0_DTLB TRANSLATION  ACCESS:          0 HIT:          0 MISS:          0 MSHR_MERGE:          0
cpu0->cpu0_DTLB PREFETCH REQUESTED:          0 ISSUED:          0 USEFUL:          0 USELESS:          0
cpu0->cpu0_DTLB AVERAGE MISS LATENCY: 38.17 cycles
cpu0->LLC TOTAL        ACCESS:    5880755 HIT:    1505125 MISS:    4375630 MSHR_MERGE:     232265
cpu0->LLC LOAD         ACCESS:    1948330 HIT:     491011 MISS:    1457319 MSHR_MERGE:       1744
cpu0->LLC RFO          ACCESS:     421071 HIT:      26025 MISS:     395046 MSHR_MERGE:        209
cpu0->LLC PREFETCH     ACCESS:    2438365 HIT:     445027 MISS:    1993338 MSHR_MERGE:     230312
cpu0->LLC WRITE        ACCESS:     771141 HIT:     493334 MISS:     277807 MSHR_MERGE:          0
cpu0->LLC TRANSLATION  ACCESS:     301848 HIT:      49728 MISS:     252120 MSHR_MERGE:          0
cpu0->LLC PREFETCH REQUESTED:     910317 ISSUED:     877140 USEFUL:     119075 USELESS:     403419
cpu0->LLC AVERAGE MISS LATENCY: 195 cycles

DRAM Statistics

Channel 0 RQ ROW_BUFFER_HIT:     138369
  ROW_BUFFER_MISS:    3727087
  AVG DBUS CONGESTED CYCLE: 23.55
Channel 0 WQ ROW_BUFFER_HIT:     195497
  ROW_BUFFER_MISS:     523549
  FULL:          0
Channel 0 REFRESHES ISSUED:      37223
