[VMEM] WARNING: physical memory size is smaller than virtual memory size.

*** ChampSim Multicore Out-of-Order Simulator ***
Warmup Instructions: 50000000
Simulation Instructions: 200000000
Number of CPUs: 1
Page size: 4096
Core 0: /local-ssd/ben/dpc4-traces/SPEC17/654.roms_s-293B.champsimtrace.xz
 L1D Berti prefetcher
Off-chip DRAM Size: 64 GiB Channels: 1 Width: 64-bit Data Rate: 4807 MT/s
Heartbeat CPU 0 instructions: 500002 cycles: 104491 heartbeat IPC: 4.785 cumulative IPC: 4.785 (Simulation time: 00 hr 00 min 02 sec)
Heartbeat CPU 0 instructions: 1000003 cycles: 206869 heartbeat IPC: 4.884 cumulative IPC: 4.834 (Simulation time: 00 hr 00 min 03 sec)
Heartbeat CPU 0 instructions: 1500008 cycles: 309277 heartbeat IPC: 4.882 cumulative IPC: 4.85 (Simulation time: 00 hr 00 min 05 sec)
Heartbeat CPU 0 instructions: 2000013 cycles: 412023 heartbeat IPC: 4.866 cumulative IPC: 4.854 (Simulation time: 00 hr 00 min 06 sec)
Heartbeat CPU 0 instructions: 2500016 cycles: 514662 heartbeat IPC: 4.871 cumulative IPC: 4.858 (Simulation time: 00 hr 00 min 08 sec)
Heartbeat CPU 0 instructions: 3000023 cycles: 616436 heartbeat IPC: 4.913 cumulative IPC: 4.867 (Simulation time: 00 hr 00 min 09 sec)
Heartbeat CPU 0 instructions: 3500023 cycles: 723371 heartbeat IPC: 4.676 cumulative IPC: 4.838 (Simulation time: 00 hr 00 min 11 sec)
Heartbeat CPU 0 instructions: 4000023 cycles: 854587 heartbeat IPC: 3.811 cumulative IPC: 4.681 (Simulation time: 00 hr 00 min 13 sec)
Heartbeat CPU 0 instructions: 4500029 cycles: 981028 heartbeat IPC: 3.954 cumulative IPC: 4.587 (Simulation time: 00 hr 00 min 15 sec)
Heartbeat CPU 0 instructions: 5000036 cycles: 1158996 heartbeat IPC: 2.81 cumulative IPC: 4.314 (Simulation time: 00 hr 00 min 18 sec)
Heartbeat CPU 0 instructions: 5500036 cycles: 1261528 heartbeat IPC: 4.877 cumulative IPC: 4.36 (Simulation time: 00 hr 00 min 19 sec)
Heartbeat CPU 0 instructions: 6000039 cycles: 1363246 heartbeat IPC: 4.916 cumulative IPC: 4.401 (Simulation time: 00 hr 00 min 21 sec)
Heartbeat CPU 0 instructions: 6500043 cycles: 1465188 heartbeat IPC: 4.905 cumulative IPC: 4.436 (Simulation time: 00 hr 00 min 22 sec)
Heartbeat CPU 0 instructions: 7000050 cycles: 1566921 heartbeat IPC: 4.915 cumulative IPC: 4.467 (Simulation time: 00 hr 00 min 24 sec)
Heartbeat CPU 0 instructions: 7500052 cycles: 1667747 heartbeat IPC: 4.959 cumulative IPC: 4.497 (Simulation time: 00 hr 00 min 25 sec)
Heartbeat CPU 0 instructions: 8000056 cycles: 1768825 heartbeat IPC: 4.947 cumulative IPC: 4.523 (Simulation time: 00 hr 00 min 26 sec)
Heartbeat CPU 0 instructions: 8500056 cycles: 1869923 heartbeat IPC: 4.946 cumulative IPC: 4.546 (Simulation time: 00 hr 00 min 28 sec)
Heartbeat CPU 0 instructions: 9000062 cycles: 1971002 heartbeat IPC: 4.947 cumulative IPC: 4.566 (Simulation time: 00 hr 00 min 29 sec)
Heartbeat CPU 0 instructions: 9500063 cycles: 2072045 heartbeat IPC: 4.948 cumulative IPC: 4.585 (Simulation time: 00 hr 00 min 31 sec)
Heartbeat CPU 0 instructions: 10000066 cycles: 2172866 heartbeat IPC: 4.959 cumulative IPC: 4.602 (Simulation time: 00 hr 00 min 32 sec)
Heartbeat CPU 0 instructions: 10500068 cycles: 2279994 heartbeat IPC: 4.667 cumulative IPC: 4.605 (Simulation time: 00 hr 00 min 34 sec)
Heartbeat CPU 0 instructions: 11000068 cycles: 2396779 heartbeat IPC: 4.281 cumulative IPC: 4.59 (Simulation time: 00 hr 00 min 36 sec)
Heartbeat CPU 0 instructions: 11500075 cycles: 2513686 heartbeat IPC: 4.277 cumulative IPC: 4.575 (Simulation time: 00 hr 00 min 38 sec)
Heartbeat CPU 0 instructions: 12000078 cycles: 2670521 heartbeat IPC: 3.188 cumulative IPC: 4.494 (Simulation time: 00 hr 00 min 40 sec)
Heartbeat CPU 0 instructions: 12500085 cycles: 2771040 heartbeat IPC: 4.974 cumulative IPC: 4.511 (Simulation time: 00 hr 00 min 42 sec)
Heartbeat CPU 0 instructions: 13000088 cycles: 2871916 heartbeat IPC: 4.957 cumulative IPC: 4.527 (Simulation time: 00 hr 00 min 43 sec)
Heartbeat CPU 0 instructions: 13500095 cycles: 2973084 heartbeat IPC: 4.942 cumulative IPC: 4.541 (Simulation time: 00 hr 00 min 45 sec)
Heartbeat CPU 0 instructions: 14000096 cycles: 3074289 heartbeat IPC: 4.94 cumulative IPC: 4.554 (Simulation time: 00 hr 00 min 46 sec)
Heartbeat CPU 0 instructions: 14500099 cycles: 3175030 heartbeat IPC: 4.963 cumulative IPC: 4.567 (Simulation time: 00 hr 00 min 48 sec)
Heartbeat CPU 0 instructions: 15000102 cycles: 3275540 heartbeat IPC: 4.975 cumulative IPC: 4.579 (Simulation time: 00 hr 00 min 49 sec)
Heartbeat CPU 0 instructions: 15500103 cycles: 3376557 heartbeat IPC: 4.95 cumulative IPC: 4.591 (Simulation time: 00 hr 00 min 50 sec)
Heartbeat CPU 0 instructions: 16000104 cycles: 3477284 heartbeat IPC: 4.964 cumulative IPC: 4.601 (Simulation time: 00 hr 00 min 52 sec)
Heartbeat CPU 0 instructions: 16500111 cycles: 3578220 heartbeat IPC: 4.954 cumulative IPC: 4.611 (Simulation time: 00 hr 00 min 53 sec)
Heartbeat CPU 0 instructions: 17000114 cycles: 3679163 heartbeat IPC: 4.953 cumulative IPC: 4.621 (Simulation time: 00 hr 00 min 55 sec)
Heartbeat CPU 0 instructions: 17500115 cycles: 3791186 heartbeat IPC: 4.463 cumulative IPC: 4.616 (Simulation time: 00 hr 00 min 57 sec)
Heartbeat CPU 0 instructions: 18000117 cycles: 3908349 heartbeat IPC: 4.268 cumulative IPC: 4.606 (Simulation time: 00 hr 00 min 59 sec)
Heartbeat CPU 0 instructions: 18500124 cycles: 4032214 heartbeat IPC: 4.037 cumulative IPC: 4.588 (Simulation time: 00 hr 01 min 01 sec)
Heartbeat CPU 0 instructions: 19000125 cycles: 4178220 heartbeat IPC: 3.425 cumulative IPC: 4.547 (Simulation time: 00 hr 01 min 03 sec)
Heartbeat CPU 0 instructions: 19500126 cycles: 4278866 heartbeat IPC: 4.968 cumulative IPC: 4.557 (Simulation time: 00 hr 01 min 04 sec)
Heartbeat CPU 0 instructions: 20000129 cycles: 4379989 heartbeat IPC: 4.945 cumulative IPC: 4.566 (Simulation time: 00 hr 01 min 06 sec)
Heartbeat CPU 0 instructions: 20500130 cycles: 4481130 heartbeat IPC: 4.944 cumulative IPC: 4.575 (Simulation time: 00 hr 01 min 07 sec)
Heartbeat CPU 0 instructions: 21000131 cycles: 4582290 heartbeat IPC: 4.943 cumulative IPC: 4.583 (Simulation time: 00 hr 01 min 09 sec)
Heartbeat CPU 0 instructions: 21500131 cycles: 4683168 heartbeat IPC: 4.956 cumulative IPC: 4.591 (Simulation time: 00 hr 01 min 10 sec)
Heartbeat CPU 0 instructions: 22000133 cycles: 4784217 heartbeat IPC: 4.948 cumulative IPC: 4.598 (Simulation time: 00 hr 01 min 12 sec)
Heartbeat CPU 0 instructions: 22500136 cycles: 4885139 heartbeat IPC: 4.954 cumulative IPC: 4.606 (Simulation time: 00 hr 01 min 13 sec)
Heartbeat CPU 0 instructions: 23000141 cycles: 4985903 heartbeat IPC: 4.962 cumulative IPC: 4.613 (Simulation time: 00 hr 01 min 15 sec)
Heartbeat CPU 0 instructions: 23500144 cycles: 5087073 heartbeat IPC: 4.942 cumulative IPC: 4.62 (Simulation time: 00 hr 01 min 16 sec)
Heartbeat CPU 0 instructions: 24000148 cycles: 5189914 heartbeat IPC: 4.862 cumulative IPC: 4.624 (Simulation time: 00 hr 01 min 18 sec)
Heartbeat CPU 0 instructions: 24500154 cycles: 5304990 heartbeat IPC: 4.345 cumulative IPC: 4.618 (Simulation time: 00 hr 01 min 20 sec)
Heartbeat CPU 0 instructions: 25000154 cycles: 5422233 heartbeat IPC: 4.265 cumulative IPC: 4.611 (Simulation time: 00 hr 01 min 22 sec)
Heartbeat CPU 0 instructions: 25500161 cycles: 5574876 heartbeat IPC: 3.276 cumulative IPC: 4.574 (Simulation time: 00 hr 01 min 24 sec)
Heartbeat CPU 0 instructions: 26000165 cycles: 5687041 heartbeat IPC: 4.458 cumulative IPC: 4.572 (Simulation time: 00 hr 01 min 26 sec)
Heartbeat CPU 0 instructions: 26500165 cycles: 5788204 heartbeat IPC: 4.943 cumulative IPC: 4.578 (Simulation time: 00 hr 01 min 27 sec)
Heartbeat CPU 0 instructions: 27000171 cycles: 5889239 heartbeat IPC: 4.949 cumulative IPC: 4.585 (Simulation time: 00 hr 01 min 29 sec)
Heartbeat CPU 0 instructions: 27500172 cycles: 5990259 heartbeat IPC: 4.95 cumulative IPC: 4.591 (Simulation time: 00 hr 01 min 30 sec)
Heartbeat CPU 0 instructions: 28000176 cycles: 6091389 heartbeat IPC: 4.944 cumulative IPC: 4.597 (Simulation time: 00 hr 01 min 32 sec)
Heartbeat CPU 0 instructions: 28500176 cycles: 6191970 heartbeat IPC: 4.971 cumulative IPC: 4.603 (Simulation time: 00 hr 01 min 33 sec)
Heartbeat CPU 0 instructions: 29000182 cycles: 6292910 heartbeat IPC: 4.953 cumulative IPC: 4.608 (Simulation time: 00 hr 01 min 34 sec)
Heartbeat CPU 0 instructions: 29500188 cycles: 6393895 heartbeat IPC: 4.951 cumulative IPC: 4.614 (Simulation time: 00 hr 01 min 36 sec)
Heartbeat CPU 0 instructions: 30000188 cycles: 6494458 heartbeat IPC: 4.972 cumulative IPC: 4.619 (Simulation time: 00 hr 01 min 37 sec)
Heartbeat CPU 0 instructions: 30500195 cycles: 6595598 heartbeat IPC: 4.944 cumulative IPC: 4.624 (Simulation time: 00 hr 01 min 39 sec)
Heartbeat CPU 0 instructions: 31000198 cycles: 6702276 heartbeat IPC: 4.687 cumulative IPC: 4.625 (Simulation time: 00 hr 01 min 40 sec)
Heartbeat CPU 0 instructions: 31500205 cycles: 6818438 heartbeat IPC: 4.304 cumulative IPC: 4.62 (Simulation time: 00 hr 01 min 43 sec)
Heartbeat CPU 0 instructions: 32000212 cycles: 6935795 heartbeat IPC: 4.261 cumulative IPC: 4.614 (Simulation time: 00 hr 01 min 45 sec)
Heartbeat CPU 0 instructions: 32500213 cycles: 7093548 heartbeat IPC: 3.17 cumulative IPC: 4.582 (Simulation time: 00 hr 01 min 47 sec)
Heartbeat CPU 0 instructions: 33000216 cycles: 7194224 heartbeat IPC: 4.966 cumulative IPC: 4.587 (Simulation time: 00 hr 01 min 49 sec)
Heartbeat CPU 0 instructions: 33500217 cycles: 7295242 heartbeat IPC: 4.95 cumulative IPC: 4.592 (Simulation time: 00 hr 01 min 50 sec)
Heartbeat CPU 0 instructions: 34000224 cycles: 7396650 heartbeat IPC: 4.931 cumulative IPC: 4.597 (Simulation time: 00 hr 01 min 51 sec)
Heartbeat CPU 0 instructions: 34500229 cycles: 7497732 heartbeat IPC: 4.947 cumulative IPC: 4.601 (Simulation time: 00 hr 01 min 53 sec)
Heartbeat CPU 0 instructions: 35000236 cycles: 7598368 heartbeat IPC: 4.968 cumulative IPC: 4.606 (Simulation time: 00 hr 01 min 54 sec)
Heartbeat CPU 0 instructions: 35500237 cycles: 7699406 heartbeat IPC: 4.949 cumulative IPC: 4.611 (Simulation time: 00 hr 01 min 56 sec)
Heartbeat CPU 0 instructions: 36000240 cycles: 7800573 heartbeat IPC: 4.942 cumulative IPC: 4.615 (Simulation time: 00 hr 01 min 57 sec)
Heartbeat CPU 0 instructions: 36500247 cycles: 7901526 heartbeat IPC: 4.953 cumulative IPC: 4.619 (Simulation time: 00 hr 01 min 59 sec)
Heartbeat CPU 0 instructions: 37000252 cycles: 8002294 heartbeat IPC: 4.962 cumulative IPC: 4.624 (Simulation time: 00 hr 02 min 00 sec)
Heartbeat CPU 0 instructions: 37500253 cycles: 8103685 heartbeat IPC: 4.931 cumulative IPC: 4.628 (Simulation time: 00 hr 02 min 02 sec)
Heartbeat CPU 0 instructions: 38000253 cycles: 8213449 heartbeat IPC: 4.555 cumulative IPC: 4.627 (Simulation time: 00 hr 02 min 03 sec)
Heartbeat CPU 0 instructions: 38500257 cycles: 8331091 heartbeat IPC: 4.25 cumulative IPC: 4.621 (Simulation time: 00 hr 02 min 06 sec)
Heartbeat CPU 0 instructions: 39000263 cycles: 8448288 heartbeat IPC: 4.266 cumulative IPC: 4.616 (Simulation time: 00 hr 02 min 08 sec)
Heartbeat CPU 0 instructions: 39500264 cycles: 8602228 heartbeat IPC: 3.248 cumulative IPC: 4.592 (Simulation time: 00 hr 02 min 10 sec)
Heartbeat CPU 0 instructions: 40000265 cycles: 8703161 heartbeat IPC: 4.954 cumulative IPC: 4.596 (Simulation time: 00 hr 02 min 11 sec)
Heartbeat CPU 0 instructions: 40500266 cycles: 8804153 heartbeat IPC: 4.951 cumulative IPC: 4.6 (Simulation time: 00 hr 02 min 13 sec)
Heartbeat CPU 0 instructions: 41000267 cycles: 8905310 heartbeat IPC: 4.943 cumulative IPC: 4.604 (Simulation time: 00 hr 02 min 14 sec)
Heartbeat CPU 0 instructions: 41500268 cycles: 9006102 heartbeat IPC: 4.961 cumulative IPC: 4.608 (Simulation time: 00 hr 02 min 16 sec)
Heartbeat CPU 0 instructions: 42000271 cycles: 9107103 heartbeat IPC: 4.95 cumulative IPC: 4.612 (Simulation time: 00 hr 02 min 17 sec)
Heartbeat CPU 0 instructions: 42500272 cycles: 9208146 heartbeat IPC: 4.948 cumulative IPC: 4.616 (Simulation time: 00 hr 02 min 19 sec)
Heartbeat CPU 0 instructions: 43000273 cycles: 9309201 heartbeat IPC: 4.948 cumulative IPC: 4.619 (Simulation time: 00 hr 02 min 20 sec)
Heartbeat CPU 0 instructions: 43500274 cycles: 9410155 heartbeat IPC: 4.953 cumulative IPC: 4.623 (Simulation time: 00 hr 02 min 21 sec)
Heartbeat CPU 0 instructions: 44000281 cycles: 9510999 heartbeat IPC: 4.958 cumulative IPC: 4.626 (Simulation time: 00 hr 02 min 23 sec)
Heartbeat CPU 0 instructions: 44500286 cycles: 9611715 heartbeat IPC: 4.965 cumulative IPC: 4.63 (Simulation time: 00 hr 02 min 24 sec)
Heartbeat CPU 0 instructions: 45000289 cycles: 9726891 heartbeat IPC: 4.341 cumulative IPC: 4.626 (Simulation time: 00 hr 02 min 26 sec)
Heartbeat CPU 0 instructions: 45500290 cycles: 9844358 heartbeat IPC: 4.257 cumulative IPC: 4.622 (Simulation time: 00 hr 02 min 29 sec)
Heartbeat CPU 0 instructions: 46000291 cycles: 9987497 heartbeat IPC: 3.493 cumulative IPC: 4.606 (Simulation time: 00 hr 02 min 31 sec)
Heartbeat CPU 0 instructions: 46500296 cycles: 10110714 heartbeat IPC: 4.058 cumulative IPC: 4.599 (Simulation time: 00 hr 02 min 33 sec)
Heartbeat CPU 0 instructions: 47000297 cycles: 10211540 heartbeat IPC: 4.959 cumulative IPC: 4.603 (Simulation time: 00 hr 02 min 34 sec)
Heartbeat CPU 0 instructions: 47500300 cycles: 10312683 heartbeat IPC: 4.944 cumulative IPC: 4.606 (Simulation time: 00 hr 02 min 36 sec)
Heartbeat CPU 0 instructions: 48000301 cycles: 10413831 heartbeat IPC: 4.943 cumulative IPC: 4.609 (Simulation time: 00 hr 02 min 37 sec)
Heartbeat CPU 0 instructions: 48500303 cycles: 10515080 heartbeat IPC: 4.938 cumulative IPC: 4.612 (Simulation time: 00 hr 02 min 38 sec)
Heartbeat CPU 0 instructions: 49000309 cycles: 10616027 heartbeat IPC: 4.953 cumulative IPC: 4.616 (Simulation time: 00 hr 02 min 40 sec)
Heartbeat CPU 0 instructions: 49500309 cycles: 10716852 heartbeat IPC: 4.959 cumulative IPC: 4.619 (Simulation time: 00 hr 02 min 41 sec)
Warmup halting CPU 0 at instruction 50000001 cycle 10817825 for remainder of phase
Warmup finished CPU 0 instructions: 50000001 cycles: 10817825 cumulative IPC: 4.622 (Simulation time: 00 hr 02 min 43 sec)
Warmup complete CPU 0 instructions: 50000001 cycles: 10817825 cumulative IPC: 4.622 (Simulation time: 00 hr 02 min 43 sec)
Heartbeat CPU 0 instructions: 50000310 cycles: 10817913 heartbeat IPC: 4.948 cumulative IPC: 3.511 (Simulation time: 00 hr 02 min 43 sec)
Heartbeat CPU 0 instructions: 50500313 cycles: 10950896 heartbeat IPC: 3.76 cumulative IPC: 3.76 (Simulation time: 00 hr 02 min 45 sec)
Heartbeat CPU 0 instructions: 51000314 cycles: 11087160 heartbeat IPC: 3.669 cumulative IPC: 3.714 (Simulation time: 00 hr 02 min 48 sec)
Heartbeat CPU 0 instructions: 51500314 cycles: 11241060 heartbeat IPC: 3.249 cumulative IPC: 3.545 (Simulation time: 00 hr 02 min 50 sec)
Heartbeat CPU 0 instructions: 52000321 cycles: 11452281 heartbeat IPC: 2.367 cumulative IPC: 3.153 (Simulation time: 00 hr 02 min 54 sec)
Heartbeat CPU 0 instructions: 52500321 cycles: 11653034 heartbeat IPC: 2.491 cumulative IPC: 2.994 (Simulation time: 00 hr 02 min 57 sec)
Heartbeat CPU 0 instructions: 53000325 cycles: 11908929 heartbeat IPC: 1.954 cumulative IPC: 2.75 (Simulation time: 00 hr 03 min 01 sec)
Heartbeat CPU 0 instructions: 53500330 cycles: 12040918 heartbeat IPC: 3.788 cumulative IPC: 2.862 (Simulation time: 00 hr 03 min 03 sec)
Heartbeat CPU 0 instructions: 54000337 cycles: 12170669 heartbeat IPC: 3.854 cumulative IPC: 2.957 (Simulation time: 00 hr 03 min 06 sec)
Heartbeat CPU 0 instructions: 54500342 cycles: 12302372 heartbeat IPC: 3.796 cumulative IPC: 3.031 (Simulation time: 00 hr 03 min 08 sec)
Heartbeat CPU 0 instructions: 55000344 cycles: 12433744 heartbeat IPC: 3.806 cumulative IPC: 3.094 (Simulation time: 00 hr 03 min 11 sec)
Heartbeat CPU 0 instructions: 55500344 cycles: 12567155 heartbeat IPC: 3.748 cumulative IPC: 3.144 (Simulation time: 00 hr 03 min 13 sec)
Heartbeat CPU 0 instructions: 56000345 cycles: 12699079 heartbeat IPC: 3.79 cumulative IPC: 3.19 (Simulation time: 00 hr 03 min 15 sec)
Heartbeat CPU 0 instructions: 56500352 cycles: 12829624 heartbeat IPC: 3.83 cumulative IPC: 3.231 (Simulation time: 00 hr 03 min 18 sec)
Heartbeat CPU 0 instructions: 57000353 cycles: 12962918 heartbeat IPC: 3.751 cumulative IPC: 3.263 (Simulation time: 00 hr 03 min 20 sec)
Heartbeat CPU 0 instructions: 57500354 cycles: 13094782 heartbeat IPC: 3.792 cumulative IPC: 3.294 (Simulation time: 00 hr 03 min 23 sec)
Heartbeat CPU 0 instructions: 58000355 cycles: 13227623 heartbeat IPC: 3.764 cumulative IPC: 3.32 (Simulation time: 00 hr 03 min 25 sec)
Heartbeat CPU 0 instructions: 58500361 cycles: 13403366 heartbeat IPC: 2.845 cumulative IPC: 3.288 (Simulation time: 00 hr 03 min 28 sec)
Heartbeat CPU 0 instructions: 59000363 cycles: 13612256 heartbeat IPC: 2.394 cumulative IPC: 3.221 (Simulation time: 00 hr 03 min 31 sec)
Heartbeat CPU 0 instructions: 59500363 cycles: 13820082 heartbeat IPC: 2.406 cumulative IPC: 3.164 (Simulation time: 00 hr 03 min 35 sec)
Heartbeat CPU 0 instructions: 60000366 cycles: 14060971 heartbeat IPC: 2.076 cumulative IPC: 3.084 (Simulation time: 00 hr 03 min 38 sec)
Heartbeat CPU 0 instructions: 60500368 cycles: 14193021 heartbeat IPC: 3.786 cumulative IPC: 3.111 (Simulation time: 00 hr 03 min 41 sec)
Heartbeat CPU 0 instructions: 61000369 cycles: 14325513 heartbeat IPC: 3.774 cumulative IPC: 3.136 (Simulation time: 00 hr 03 min 43 sec)
Heartbeat CPU 0 instructions: 61500376 cycles: 14457491 heartbeat IPC: 3.789 cumulative IPC: 3.16 (Simulation time: 00 hr 03 min 46 sec)
Heartbeat CPU 0 instructions: 62000381 cycles: 14587963 heartbeat IPC: 3.832 cumulative IPC: 3.183 (Simulation time: 00 hr 03 min 48 sec)
Heartbeat CPU 0 instructions: 62500382 cycles: 14721005 heartbeat IPC: 3.758 cumulative IPC: 3.203 (Simulation time: 00 hr 03 min 50 sec)
Heartbeat CPU 0 instructions: 63000382 cycles: 14856207 heartbeat IPC: 3.698 cumulative IPC: 3.219 (Simulation time: 00 hr 03 min 53 sec)
Heartbeat CPU 0 instructions: 63500388 cycles: 14988218 heartbeat IPC: 3.788 cumulative IPC: 3.237 (Simulation time: 00 hr 03 min 55 sec)
Heartbeat CPU 0 instructions: 64000395 cycles: 15119143 heartbeat IPC: 3.819 cumulative IPC: 3.255 (Simulation time: 00 hr 03 min 58 sec)
Heartbeat CPU 0 instructions: 64500395 cycles: 15254697 heartbeat IPC: 3.689 cumulative IPC: 3.268 (Simulation time: 00 hr 04 min 00 sec)
Heartbeat CPU 0 instructions: 65000396 cycles: 15389367 heartbeat IPC: 3.713 cumulative IPC: 3.281 (Simulation time: 00 hr 04 min 03 sec)
Heartbeat CPU 0 instructions: 65500396 cycles: 15594383 heartbeat IPC: 2.439 cumulative IPC: 3.245 (Simulation time: 00 hr 04 min 06 sec)
Heartbeat CPU 0 instructions: 66000402 cycles: 15802888 heartbeat IPC: 2.398 cumulative IPC: 3.21 (Simulation time: 00 hr 04 min 09 sec)
Heartbeat CPU 0 instructions: 66500402 cycles: 16027007 heartbeat IPC: 2.231 cumulative IPC: 3.168 (Simulation time: 00 hr 04 min 13 sec)
Heartbeat CPU 0 instructions: 67000408 cycles: 16219663 heartbeat IPC: 2.595 cumulative IPC: 3.147 (Simulation time: 00 hr 04 min 16 sec)
Heartbeat CPU 0 instructions: 67500409 cycles: 16352348 heartbeat IPC: 3.768 cumulative IPC: 3.162 (Simulation time: 00 hr 04 min 18 sec)
Heartbeat CPU 0 instructions: 68000416 cycles: 16486273 heartbeat IPC: 3.733 cumulative IPC: 3.176 (Simulation time: 00 hr 04 min 21 sec)
Heartbeat CPU 0 instructions: 68500419 cycles: 16617247 heartbeat IPC: 3.818 cumulative IPC: 3.19 (Simulation time: 00 hr 04 min 23 sec)
Heartbeat CPU 0 instructions: 69000422 cycles: 16747995 heartbeat IPC: 3.824 cumulative IPC: 3.204 (Simulation time: 00 hr 04 min 25 sec)
Heartbeat CPU 0 instructions: 69500423 cycles: 16880473 heartbeat IPC: 3.774 cumulative IPC: 3.216 (Simulation time: 00 hr 04 min 28 sec)
Heartbeat CPU 0 instructions: 70000424 cycles: 17012121 heartbeat IPC: 3.798 cumulative IPC: 3.229 (Simulation time: 00 hr 04 min 30 sec)
Heartbeat CPU 0 instructions: 70500429 cycles: 17142818 heartbeat IPC: 3.826 cumulative IPC: 3.241 (Simulation time: 00 hr 04 min 32 sec)
Heartbeat CPU 0 instructions: 71000430 cycles: 17276051 heartbeat IPC: 3.753 cumulative IPC: 3.252 (Simulation time: 00 hr 04 min 35 sec)
Heartbeat CPU 0 instructions: 71500437 cycles: 17408367 heartbeat IPC: 3.779 cumulative IPC: 3.262 (Simulation time: 00 hr 04 min 37 sec)
Heartbeat CPU 0 instructions: 72000443 cycles: 17556960 heartbeat IPC: 3.365 cumulative IPC: 3.265 (Simulation time: 00 hr 04 min 40 sec)
Heartbeat CPU 0 instructions: 72500445 cycles: 17768393 heartbeat IPC: 2.365 cumulative IPC: 3.237 (Simulation time: 00 hr 04 min 43 sec)
Heartbeat CPU 0 instructions: 73000445 cycles: 17975078 heartbeat IPC: 2.419 cumulative IPC: 3.214 (Simulation time: 00 hr 04 min 47 sec)
Heartbeat CPU 0 instructions: 73500446 cycles: 18237639 heartbeat IPC: 1.904 cumulative IPC: 3.167 (Simulation time: 00 hr 04 min 51 sec)
Heartbeat CPU 0 instructions: 74000446 cycles: 18367898 heartbeat IPC: 3.839 cumulative IPC: 3.179 (Simulation time: 00 hr 04 min 53 sec)
Heartbeat CPU 0 instructions: 74500447 cycles: 18501555 heartbeat IPC: 3.741 cumulative IPC: 3.189 (Simulation time: 00 hr 04 min 55 sec)
Heartbeat CPU 0 instructions: 75000451 cycles: 18631841 heartbeat IPC: 3.838 cumulative IPC: 3.199 (Simulation time: 00 hr 04 min 58 sec)
Heartbeat CPU 0 instructions: 75500456 cycles: 18764029 heartbeat IPC: 3.783 cumulative IPC: 3.209 (Simulation time: 00 hr 05 min 00 sec)
Heartbeat CPU 0 instructions: 76000457 cycles: 18895812 heartbeat IPC: 3.794 cumulative IPC: 3.219 (Simulation time: 00 hr 05 min 03 sec)
Heartbeat CPU 0 instructions: 76500460 cycles: 19028207 heartbeat IPC: 3.777 cumulative IPC: 3.228 (Simulation time: 00 hr 05 min 05 sec)
Heartbeat CPU 0 instructions: 77000465 cycles: 19159832 heartbeat IPC: 3.799 cumulative IPC: 3.237 (Simulation time: 00 hr 05 min 07 sec)
Heartbeat CPU 0 instructions: 77500466 cycles: 19291287 heartbeat IPC: 3.804 cumulative IPC: 3.245 (Simulation time: 00 hr 05 min 10 sec)
Heartbeat CPU 0 instructions: 78000467 cycles: 19426716 heartbeat IPC: 3.692 cumulative IPC: 3.253 (Simulation time: 00 hr 05 min 12 sec)
Heartbeat CPU 0 instructions: 78500467 cycles: 19560582 heartbeat IPC: 3.735 cumulative IPC: 3.26 (Simulation time: 00 hr 05 min 15 sec)
Heartbeat CPU 0 instructions: 79000472 cycles: 19730071 heartbeat IPC: 2.95 cumulative IPC: 3.254 (Simulation time: 00 hr 05 min 18 sec)
Heartbeat CPU 0 instructions: 79500476 cycles: 19938403 heartbeat IPC: 2.4 cumulative IPC: 3.234 (Simulation time: 00 hr 05 min 21 sec)
Heartbeat CPU 0 instructions: 80000478 cycles: 20142275 heartbeat IPC: 2.453 cumulative IPC: 3.217 (Simulation time: 00 hr 05 min 25 sec)
Heartbeat CPU 0 instructions: 80500480 cycles: 20384751 heartbeat IPC: 2.062 cumulative IPC: 3.188 (Simulation time: 00 hr 05 min 28 sec)
Heartbeat CPU 0 instructions: 81000483 cycles: 20516419 heartbeat IPC: 3.797 cumulative IPC: 3.196 (Simulation time: 00 hr 05 min 30 sec)
Heartbeat CPU 0 instructions: 81500484 cycles: 20649362 heartbeat IPC: 3.761 cumulative IPC: 3.204 (Simulation time: 00 hr 05 min 33 sec)
Heartbeat CPU 0 instructions: 82000485 cycles: 20780348 heartbeat IPC: 3.817 cumulative IPC: 3.212 (Simulation time: 00 hr 05 min 35 sec)
Heartbeat CPU 0 instructions: 82500485 cycles: 20912252 heartbeat IPC: 3.791 cumulative IPC: 3.22 (Simulation time: 00 hr 05 min 38 sec)
Heartbeat CPU 0 instructions: 83000486 cycles: 21044769 heartbeat IPC: 3.773 cumulative IPC: 3.227 (Simulation time: 00 hr 05 min 40 sec)
Heartbeat CPU 0 instructions: 83500488 cycles: 21177575 heartbeat IPC: 3.765 cumulative IPC: 3.234 (Simulation time: 00 hr 05 min 42 sec)
Heartbeat CPU 0 instructions: 84000490 cycles: 21308740 heartbeat IPC: 3.812 cumulative IPC: 3.241 (Simulation time: 00 hr 05 min 45 sec)
Heartbeat CPU 0 instructions: 84500491 cycles: 21442462 heartbeat IPC: 3.739 cumulative IPC: 3.247 (Simulation time: 00 hr 05 min 47 sec)
Heartbeat CPU 0 instructions: 85000492 cycles: 21578731 heartbeat IPC: 3.669 cumulative IPC: 3.253 (Simulation time: 00 hr 05 min 50 sec)
Heartbeat CPU 0 instructions: 85500497 cycles: 21711932 heartbeat IPC: 3.754 cumulative IPC: 3.259 (Simulation time: 00 hr 05 min 52 sec)
Heartbeat CPU 0 instructions: 86000502 cycles: 21906116 heartbeat IPC: 2.575 cumulative IPC: 3.247 (Simulation time: 00 hr 05 min 55 sec)
Heartbeat CPU 0 instructions: 86500503 cycles: 22109980 heartbeat IPC: 2.453 cumulative IPC: 3.232 (Simulation time: 00 hr 05 min 59 sec)
Heartbeat CPU 0 instructions: 87000508 cycles: 22323995 heartbeat IPC: 2.336 cumulative IPC: 3.216 (Simulation time: 00 hr 06 min 02 sec)
Heartbeat CPU 0 instructions: 87500513 cycles: 22537986 heartbeat IPC: 2.337 cumulative IPC: 3.2 (Simulation time: 00 hr 06 min 06 sec)
Heartbeat CPU 0 instructions: 88000514 cycles: 22673256 heartbeat IPC: 3.696 cumulative IPC: 3.205 (Simulation time: 00 hr 06 min 08 sec)
Heartbeat CPU 0 instructions: 88500517 cycles: 22803302 heartbeat IPC: 3.845 cumulative IPC: 3.212 (Simulation time: 00 hr 06 min 10 sec)
Heartbeat CPU 0 instructions: 89000518 cycles: 22933741 heartbeat IPC: 3.833 cumulative IPC: 3.219 (Simulation time: 00 hr 06 min 13 sec)
Heartbeat CPU 0 instructions: 89500519 cycles: 23066544 heartbeat IPC: 3.765 cumulative IPC: 3.225 (Simulation time: 00 hr 06 min 15 sec)
Heartbeat CPU 0 instructions: 90000520 cycles: 23199070 heartbeat IPC: 3.773 cumulative IPC: 3.231 (Simulation time: 00 hr 06 min 18 sec)
Heartbeat CPU 0 instructions: 90500521 cycles: 23331674 heartbeat IPC: 3.771 cumulative IPC: 3.236 (Simulation time: 00 hr 06 min 20 sec)
Heartbeat CPU 0 instructions: 91000527 cycles: 23461935 heartbeat IPC: 3.838 cumulative IPC: 3.243 (Simulation time: 00 hr 06 min 23 sec)
Heartbeat CPU 0 instructions: 91500533 cycles: 23595463 heartbeat IPC: 3.745 cumulative IPC: 3.248 (Simulation time: 00 hr 06 min 25 sec)
Heartbeat CPU 0 instructions: 92000534 cycles: 23730249 heartbeat IPC: 3.71 cumulative IPC: 3.253 (Simulation time: 00 hr 06 min 27 sec)
Heartbeat CPU 0 instructions: 92500539 cycles: 23872743 heartbeat IPC: 3.509 cumulative IPC: 3.256 (Simulation time: 00 hr 06 min 30 sec)
Heartbeat CPU 0 instructions: 93000545 cycles: 24085075 heartbeat IPC: 2.355 cumulative IPC: 3.241 (Simulation time: 00 hr 06 min 33 sec)
Heartbeat CPU 0 instructions: 93500545 cycles: 24289176 heartbeat IPC: 2.45 cumulative IPC: 3.229 (Simulation time: 00 hr 06 min 37 sec)
Heartbeat CPU 0 instructions: 94000550 cycles: 24543399 heartbeat IPC: 1.967 cumulative IPC: 3.206 (Simulation time: 00 hr 06 min 41 sec)
Heartbeat CPU 0 instructions: 94500554 cycles: 24692616 heartbeat IPC: 3.351 cumulative IPC: 3.207 (Simulation time: 00 hr 06 min 43 sec)
Heartbeat CPU 0 instructions: 95000555 cycles: 24826147 heartbeat IPC: 3.744 cumulative IPC: 3.212 (Simulation time: 00 hr 06 min 45 sec)
Heartbeat CPU 0 instructions: 95500556 cycles: 24957368 heartbeat IPC: 3.81 cumulative IPC: 3.218 (Simulation time: 00 hr 06 min 48 sec)
Heartbeat CPU 0 instructions: 96000563 cycles: 25088464 heartbeat IPC: 3.814 cumulative IPC: 3.223 (Simulation time: 00 hr 06 min 50 sec)
Heartbeat CPU 0 instructions: 96500568 cycles: 25221137 heartbeat IPC: 3.769 cumulative IPC: 3.228 (Simulation time: 00 hr 06 min 53 sec)
Heartbeat CPU 0 instructions: 97000569 cycles: 25353737 heartbeat IPC: 3.771 cumulative IPC: 3.233 (Simulation time: 00 hr 06 min 55 sec)
Heartbeat CPU 0 instructions: 97500570 cycles: 25486491 heartbeat IPC: 3.766 cumulative IPC: 3.238 (Simulation time: 00 hr 06 min 58 sec)
Heartbeat CPU 0 instructions: 98000570 cycles: 25617871 heartbeat IPC: 3.806 cumulative IPC: 3.243 (Simulation time: 00 hr 07 min 00 sec)
Heartbeat CPU 0 instructions: 98500574 cycles: 25749806 heartbeat IPC: 3.79 cumulative IPC: 3.248 (Simulation time: 00 hr 07 min 02 sec)
Heartbeat CPU 0 instructions: 99000575 cycles: 25883348 heartbeat IPC: 3.744 cumulative IPC: 3.252 (Simulation time: 00 hr 07 min 05 sec)
Heartbeat CPU 0 instructions: 99500577 cycles: 26047033 heartbeat IPC: 3.055 cumulative IPC: 3.25 (Simulation time: 00 hr 07 min 08 sec)
Heartbeat CPU 0 instructions: 100000584 cycles: 26257451 heartbeat IPC: 2.376 cumulative IPC: 3.238 (Simulation time: 00 hr 07 min 11 sec)
Heartbeat CPU 0 instructions: 100500585 cycles: 26459281 heartbeat IPC: 2.477 cumulative IPC: 3.229 (Simulation time: 00 hr 07 min 14 sec)
Heartbeat CPU 0 instructions: 101000587 cycles: 26705145 heartbeat IPC: 2.034 cumulative IPC: 3.21 (Simulation time: 00 hr 07 min 18 sec)
Heartbeat CPU 0 instructions: 101500592 cycles: 26836848 heartbeat IPC: 3.796 cumulative IPC: 3.215 (Simulation time: 00 hr 07 min 20 sec)
Heartbeat CPU 0 instructions: 102000592 cycles: 26969796 heartbeat IPC: 3.761 cumulative IPC: 3.219 (Simulation time: 00 hr 07 min 23 sec)
Heartbeat CPU 0 instructions: 102500597 cycles: 27102467 heartbeat IPC: 3.769 cumulative IPC: 3.224 (Simulation time: 00 hr 07 min 25 sec)
Heartbeat CPU 0 instructions: 103000601 cycles: 27232533 heartbeat IPC: 3.844 cumulative IPC: 3.229 (Simulation time: 00 hr 07 min 28 sec)
Heartbeat CPU 0 instructions: 103500601 cycles: 27366091 heartbeat IPC: 3.744 cumulative IPC: 3.233 (Simulation time: 00 hr 07 min 30 sec)
Heartbeat CPU 0 instructions: 104000607 cycles: 27497913 heartbeat IPC: 3.793 cumulative IPC: 3.237 (Simulation time: 00 hr 07 min 32 sec)
Heartbeat CPU 0 instructions: 104500611 cycles: 27629641 heartbeat IPC: 3.796 cumulative IPC: 3.242 (Simulation time: 00 hr 07 min 35 sec)
Heartbeat CPU 0 instructions: 105000612 cycles: 27762681 heartbeat IPC: 3.758 cumulative IPC: 3.246 (Simulation time: 00 hr 07 min 37 sec)
Heartbeat CPU 0 instructions: 105500615 cycles: 27894408 heartbeat IPC: 3.796 cumulative IPC: 3.25 (Simulation time: 00 hr 07 min 40 sec)
Heartbeat CPU 0 instructions: 106000616 cycles: 28027807 heartbeat IPC: 3.748 cumulative IPC: 3.254 (Simulation time: 00 hr 07 min 42 sec)
Heartbeat CPU 0 instructions: 106500616 cycles: 28211538 heartbeat IPC: 2.721 cumulative IPC: 3.248 (Simulation time: 00 hr 07 min 45 sec)
Heartbeat CPU 0 instructions: 107000619 cycles: 28420021 heartbeat IPC: 2.398 cumulative IPC: 3.238 (Simulation time: 00 hr 07 min 49 sec)
Heartbeat CPU 0 instructions: 107500626 cycles: 28625263 heartbeat IPC: 2.436 cumulative IPC: 3.229 (Simulation time: 00 hr 07 min 52 sec)
Heartbeat CPU 0 instructions: 108000628 cycles: 28849368 heartbeat IPC: 2.231 cumulative IPC: 3.217 (Simulation time: 00 hr 07 min 55 sec)
Heartbeat CPU 0 instructions: 108500629 cycles: 28982399 heartbeat IPC: 3.759 cumulative IPC: 3.221 (Simulation time: 00 hr 07 min 58 sec)
Heartbeat CPU 0 instructions: 109000630 cycles: 29113626 heartbeat IPC: 3.81 cumulative IPC: 3.225 (Simulation time: 00 hr 08 min 00 sec)
Heartbeat CPU 0 instructions: 109500631 cycles: 29246959 heartbeat IPC: 3.75 cumulative IPC: 3.229 (Simulation time: 00 hr 08 min 02 sec)
Heartbeat CPU 0 instructions: 110000632 cycles: 29379668 heartbeat IPC: 3.768 cumulative IPC: 3.232 (Simulation time: 00 hr 08 min 05 sec)
Heartbeat CPU 0 instructions: 110500635 cycles: 29510330 heartbeat IPC: 3.827 cumulative IPC: 3.237 (Simulation time: 00 hr 08 min 07 sec)
Heartbeat CPU 0 instructions: 111000635 cycles: 29642513 heartbeat IPC: 3.783 cumulative IPC: 3.24 (Simulation time: 00 hr 08 min 10 sec)
Heartbeat CPU 0 instructions: 111500637 cycles: 29773634 heartbeat IPC: 3.813 cumulative IPC: 3.244 (Simulation time: 00 hr 08 min 12 sec)
Heartbeat CPU 0 instructions: 112000642 cycles: 29906768 heartbeat IPC: 3.756 cumulative IPC: 3.248 (Simulation time: 00 hr 08 min 14 sec)
Heartbeat CPU 0 instructions: 112500647 cycles: 30040240 heartbeat IPC: 3.746 cumulative IPC: 3.251 (Simulation time: 00 hr 08 min 17 sec)
Heartbeat CPU 0 instructions: 113000649 cycles: 30171218 heartbeat IPC: 3.817 cumulative IPC: 3.255 (Simulation time: 00 hr 08 min 19 sec)
Heartbeat CPU 0 instructions: 113500651 cycles: 30379076 heartbeat IPC: 2.405 cumulative IPC: 3.246 (Simulation time: 00 hr 08 min 23 sec)
Heartbeat CPU 0 instructions: 114000651 cycles: 30586042 heartbeat IPC: 2.416 cumulative IPC: 3.238 (Simulation time: 00 hr 08 min 26 sec)
Heartbeat CPU 0 instructions: 114500655 cycles: 30827422 heartbeat IPC: 2.071 cumulative IPC: 3.223 (Simulation time: 00 hr 08 min 30 sec)
Heartbeat CPU 0 instructions: 115000659 cycles: 30998520 heartbeat IPC: 2.922 cumulative IPC: 3.221 (Simulation time: 00 hr 08 min 32 sec)
Heartbeat CPU 0 instructions: 115500662 cycles: 31129692 heartbeat IPC: 3.812 cumulative IPC: 3.225 (Simulation time: 00 hr 08 min 35 sec)
Heartbeat CPU 0 instructions: 116000663 cycles: 31262616 heartbeat IPC: 3.762 cumulative IPC: 3.228 (Simulation time: 00 hr 08 min 37 sec)
Heartbeat CPU 0 instructions: 116500664 cycles: 31395254 heartbeat IPC: 3.77 cumulative IPC: 3.232 (Simulation time: 00 hr 08 min 40 sec)
Heartbeat CPU 0 instructions: 117000665 cycles: 31526935 heartbeat IPC: 3.797 cumulative IPC: 3.235 (Simulation time: 00 hr 08 min 42 sec)
Heartbeat CPU 0 instructions: 117500666 cycles: 31660584 heartbeat IPC: 3.741 cumulative IPC: 3.239 (Simulation time: 00 hr 08 min 44 sec)
Heartbeat CPU 0 instructions: 118000669 cycles: 31791578 heartbeat IPC: 3.817 cumulative IPC: 3.242 (Simulation time: 00 hr 08 min 47 sec)
Heartbeat CPU 0 instructions: 118500670 cycles: 31922889 heartbeat IPC: 3.808 cumulative IPC: 3.246 (Simulation time: 00 hr 08 min 49 sec)
Heartbeat CPU 0 instructions: 119000677 cycles: 32060123 heartbeat IPC: 3.643 cumulative IPC: 3.248 (Simulation time: 00 hr 08 min 52 sec)
Heartbeat CPU 0 instructions: 119500680 cycles: 32194767 heartbeat IPC: 3.714 cumulative IPC: 3.251 (Simulation time: 00 hr 08 min 54 sec)
Heartbeat CPU 0 instructions: 120000683 cycles: 32349859 heartbeat IPC: 3.224 cumulative IPC: 3.251 (Simulation time: 00 hr 08 min 57 sec)
Heartbeat CPU 0 instructions: 120500685 cycles: 32562729 heartbeat IPC: 2.349 cumulative IPC: 3.242 (Simulation time: 00 hr 09 min 00 sec)
Heartbeat CPU 0 instructions: 121000685 cycles: 32766319 heartbeat IPC: 2.456 cumulative IPC: 3.235 (Simulation time: 00 hr 09 min 04 sec)
Heartbeat CPU 0 instructions: 121500691 cycles: 33026046 heartbeat IPC: 1.925 cumulative IPC: 3.22 (Simulation time: 00 hr 09 min 08 sec)
Heartbeat CPU 0 instructions: 122000697 cycles: 33158353 heartbeat IPC: 3.779 cumulative IPC: 3.223 (Simulation time: 00 hr 09 min 10 sec)
Heartbeat CPU 0 instructions: 122500701 cycles: 33290468 heartbeat IPC: 3.785 cumulative IPC: 3.226 (Simulation time: 00 hr 09 min 12 sec)
Heartbeat CPU 0 instructions: 123000701 cycles: 33420712 heartbeat IPC: 3.839 cumulative IPC: 3.23 (Simulation time: 00 hr 09 min 15 sec)
Heartbeat CPU 0 instructions: 123500705 cycles: 33553146 heartbeat IPC: 3.775 cumulative IPC: 3.233 (Simulation time: 00 hr 09 min 17 sec)
Heartbeat CPU 0 instructions: 124000706 cycles: 33686000 heartbeat IPC: 3.764 cumulative IPC: 3.236 (Simulation time: 00 hr 09 min 20 sec)
Heartbeat CPU 0 instructions: 124500707 cycles: 33816702 heartbeat IPC: 3.826 cumulative IPC: 3.239 (Simulation time: 00 hr 09 min 22 sec)
Heartbeat CPU 0 instructions: 125000708 cycles: 33950585 heartbeat IPC: 3.735 cumulative IPC: 3.242 (Simulation time: 00 hr 09 min 24 sec)
Heartbeat CPU 0 instructions: 125500711 cycles: 34081818 heartbeat IPC: 3.81 cumulative IPC: 3.245 (Simulation time: 00 hr 09 min 27 sec)
Heartbeat CPU 0 instructions: 126000712 cycles: 34214989 heartbeat IPC: 3.755 cumulative IPC: 3.248 (Simulation time: 00 hr 09 min 29 sec)
Heartbeat CPU 0 instructions: 126500713 cycles: 34350431 heartbeat IPC: 3.692 cumulative IPC: 3.251 (Simulation time: 00 hr 09 min 32 sec)
Heartbeat CPU 0 instructions: 127000719 cycles: 34528259 heartbeat IPC: 2.812 cumulative IPC: 3.248 (Simulation time: 00 hr 09 min 35 sec)
Heartbeat CPU 0 instructions: 127500725 cycles: 34739049 heartbeat IPC: 2.372 cumulative IPC: 3.24 (Simulation time: 00 hr 09 min 38 sec)
Heartbeat CPU 0 instructions: 128000726 cycles: 34941363 heartbeat IPC: 2.471 cumulative IPC: 3.233 (Simulation time: 00 hr 09 min 42 sec)
Heartbeat CPU 0 instructions: 128500728 cycles: 35258637 heartbeat IPC: 1.576 cumulative IPC: 3.212 (Simulation time: 00 hr 09 min 46 sec)
Heartbeat CPU 0 instructions: 129000735 cycles: 35483485 heartbeat IPC: 2.224 cumulative IPC: 3.203 (Simulation time: 00 hr 09 min 49 sec)
Heartbeat CPU 0 instructions: 129500737 cycles: 35732693 heartbeat IPC: 2.006 cumulative IPC: 3.191 (Simulation time: 00 hr 09 min 53 sec)
Heartbeat CPU 0 instructions: 130000740 cycles: 35961850 heartbeat IPC: 2.182 cumulative IPC: 3.182 (Simulation time: 00 hr 09 min 57 sec)
Heartbeat CPU 0 instructions: 130500744 cycles: 36193270 heartbeat IPC: 2.161 cumulative IPC: 3.172 (Simulation time: 00 hr 10 min 01 sec)
Heartbeat CPU 0 instructions: 131000745 cycles: 36416903 heartbeat IPC: 2.236 cumulative IPC: 3.164 (Simulation time: 00 hr 10 min 04 sec)
Heartbeat CPU 0 instructions: 131500745 cycles: 36627372 heartbeat IPC: 2.376 cumulative IPC: 3.158 (Simulation time: 00 hr 10 min 08 sec)
Heartbeat CPU 0 instructions: 132000748 cycles: 36837347 heartbeat IPC: 2.381 cumulative IPC: 3.152 (Simulation time: 00 hr 10 min 11 sec)
Heartbeat CPU 0 instructions: 132500750 cycles: 37053559 heartbeat IPC: 2.313 cumulative IPC: 3.145 (Simulation time: 00 hr 10 min 15 sec)
Heartbeat CPU 0 instructions: 133000750 cycles: 37248368 heartbeat IPC: 2.567 cumulative IPC: 3.14 (Simulation time: 00 hr 10 min 18 sec)
Heartbeat CPU 0 instructions: 133500752 cycles: 37450223 heartbeat IPC: 2.477 cumulative IPC: 3.135 (Simulation time: 00 hr 10 min 21 sec)
Heartbeat CPU 0 instructions: 134000756 cycles: 37642085 heartbeat IPC: 2.606 cumulative IPC: 3.132 (Simulation time: 00 hr 10 min 24 sec)
Heartbeat CPU 0 instructions: 134500760 cycles: 37838803 heartbeat IPC: 2.542 cumulative IPC: 3.127 (Simulation time: 00 hr 10 min 27 sec)
Heartbeat CPU 0 instructions: 135000764 cycles: 38035314 heartbeat IPC: 2.544 cumulative IPC: 3.123 (Simulation time: 00 hr 10 min 31 sec)
Heartbeat CPU 0 instructions: 135500765 cycles: 38229072 heartbeat IPC: 2.581 cumulative IPC: 3.119 (Simulation time: 00 hr 10 min 34 sec)
Heartbeat CPU 0 instructions: 136000766 cycles: 38426173 heartbeat IPC: 2.537 cumulative IPC: 3.115 (Simulation time: 00 hr 10 min 37 sec)
Heartbeat CPU 0 instructions: 136500770 cycles: 38616846 heartbeat IPC: 2.622 cumulative IPC: 3.112 (Simulation time: 00 hr 10 min 40 sec)
Heartbeat CPU 0 instructions: 137000771 cycles: 38809629 heartbeat IPC: 2.594 cumulative IPC: 3.108 (Simulation time: 00 hr 10 min 43 sec)
Heartbeat CPU 0 instructions: 137500771 cycles: 39003367 heartbeat IPC: 2.581 cumulative IPC: 3.104 (Simulation time: 00 hr 10 min 46 sec)
Heartbeat CPU 0 instructions: 138000776 cycles: 39196978 heartbeat IPC: 2.583 cumulative IPC: 3.101 (Simulation time: 00 hr 10 min 49 sec)
Heartbeat CPU 0 instructions: 138500777 cycles: 39394501 heartbeat IPC: 2.531 cumulative IPC: 3.097 (Simulation time: 00 hr 10 min 52 sec)
Heartbeat CPU 0 instructions: 139000778 cycles: 39585274 heartbeat IPC: 2.621 cumulative IPC: 3.094 (Simulation time: 00 hr 10 min 55 sec)
Heartbeat CPU 0 instructions: 139500779 cycles: 39780739 heartbeat IPC: 2.558 cumulative IPC: 3.09 (Simulation time: 00 hr 10 min 58 sec)
Heartbeat CPU 0 instructions: 140000783 cycles: 39976459 heartbeat IPC: 2.555 cumulative IPC: 3.087 (Simulation time: 00 hr 11 min 02 sec)
Heartbeat CPU 0 instructions: 140500783 cycles: 40166836 heartbeat IPC: 2.626 cumulative IPC: 3.084 (Simulation time: 00 hr 11 min 05 sec)
Heartbeat CPU 0 instructions: 141000785 cycles: 40365408 heartbeat IPC: 2.518 cumulative IPC: 3.08 (Simulation time: 00 hr 11 min 08 sec)
Heartbeat CPU 0 instructions: 141500788 cycles: 40557181 heartbeat IPC: 2.607 cumulative IPC: 3.077 (Simulation time: 00 hr 11 min 11 sec)
Heartbeat CPU 0 instructions: 142000793 cycles: 40752166 heartbeat IPC: 2.564 cumulative IPC: 3.073 (Simulation time: 00 hr 11 min 14 sec)
Heartbeat CPU 0 instructions: 142500797 cycles: 40944505 heartbeat IPC: 2.6 cumulative IPC: 3.07 (Simulation time: 00 hr 11 min 17 sec)
Heartbeat CPU 0 instructions: 143000802 cycles: 41138843 heartbeat IPC: 2.573 cumulative IPC: 3.067 (Simulation time: 00 hr 11 min 20 sec)
Heartbeat CPU 0 instructions: 143500807 cycles: 41336388 heartbeat IPC: 2.531 cumulative IPC: 3.064 (Simulation time: 00 hr 11 min 23 sec)
Heartbeat CPU 0 instructions: 144000812 cycles: 41529831 heartbeat IPC: 2.585 cumulative IPC: 3.061 (Simulation time: 00 hr 11 min 26 sec)
Heartbeat CPU 0 instructions: 144500813 cycles: 41722995 heartbeat IPC: 2.588 cumulative IPC: 3.058 (Simulation time: 00 hr 11 min 29 sec)
Heartbeat CPU 0 instructions: 145000820 cycles: 41918487 heartbeat IPC: 2.558 cumulative IPC: 3.055 (Simulation time: 00 hr 11 min 33 sec)
Heartbeat CPU 0 instructions: 145500824 cycles: 42109875 heartbeat IPC: 2.613 cumulative IPC: 3.052 (Simulation time: 00 hr 11 min 36 sec)
Heartbeat CPU 0 instructions: 146000826 cycles: 42306982 heartbeat IPC: 2.537 cumulative IPC: 3.049 (Simulation time: 00 hr 11 min 39 sec)
Heartbeat CPU 0 instructions: 146500826 cycles: 42498618 heartbeat IPC: 2.609 cumulative IPC: 3.046 (Simulation time: 00 hr 11 min 42 sec)
Heartbeat CPU 0 instructions: 147000828 cycles: 42695069 heartbeat IPC: 2.545 cumulative IPC: 3.043 (Simulation time: 00 hr 11 min 45 sec)
Heartbeat CPU 0 instructions: 147500835 cycles: 42889550 heartbeat IPC: 2.571 cumulative IPC: 3.04 (Simulation time: 00 hr 11 min 48 sec)
Heartbeat CPU 0 instructions: 148000840 cycles: 43081187 heartbeat IPC: 2.609 cumulative IPC: 3.038 (Simulation time: 00 hr 11 min 51 sec)
Heartbeat CPU 0 instructions: 148500841 cycles: 43278078 heartbeat IPC: 2.539 cumulative IPC: 3.035 (Simulation time: 00 hr 11 min 54 sec)
Heartbeat CPU 0 instructions: 149000841 cycles: 43471700 heartbeat IPC: 2.582 cumulative IPC: 3.032 (Simulation time: 00 hr 11 min 57 sec)
Heartbeat CPU 0 instructions: 149500842 cycles: 43663713 heartbeat IPC: 2.604 cumulative IPC: 3.029 (Simulation time: 00 hr 12 min 00 sec)
Heartbeat CPU 0 instructions: 150000847 cycles: 43857474 heartbeat IPC: 2.581 cumulative IPC: 3.027 (Simulation time: 00 hr 12 min 04 sec)
Heartbeat CPU 0 instructions: 150500847 cycles: 44052435 heartbeat IPC: 2.565 cumulative IPC: 3.024 (Simulation time: 00 hr 12 min 07 sec)
Heartbeat CPU 0 instructions: 151000848 cycles: 44247829 heartbeat IPC: 2.559 cumulative IPC: 3.021 (Simulation time: 00 hr 12 min 10 sec)
Heartbeat CPU 0 instructions: 151500852 cycles: 44441106 heartbeat IPC: 2.587 cumulative IPC: 3.019 (Simulation time: 00 hr 12 min 13 sec)
Heartbeat CPU 0 instructions: 152000857 cycles: 44635532 heartbeat IPC: 2.572 cumulative IPC: 3.016 (Simulation time: 00 hr 12 min 16 sec)
Heartbeat CPU 0 instructions: 152500862 cycles: 44828950 heartbeat IPC: 2.585 cumulative IPC: 3.014 (Simulation time: 00 hr 12 min 19 sec)
Heartbeat CPU 0 instructions: 153000866 cycles: 45023399 heartbeat IPC: 2.571 cumulative IPC: 3.011 (Simulation time: 00 hr 12 min 22 sec)
Heartbeat CPU 0 instructions: 153500870 cycles: 45220105 heartbeat IPC: 2.542 cumulative IPC: 3.009 (Simulation time: 00 hr 12 min 25 sec)
Heartbeat CPU 0 instructions: 154000875 cycles: 45410665 heartbeat IPC: 2.624 cumulative IPC: 3.006 (Simulation time: 00 hr 12 min 28 sec)
Heartbeat CPU 0 instructions: 154500877 cycles: 45608084 heartbeat IPC: 2.533 cumulative IPC: 3.004 (Simulation time: 00 hr 12 min 31 sec)
Heartbeat CPU 0 instructions: 155000884 cycles: 45803296 heartbeat IPC: 2.561 cumulative IPC: 3.001 (Simulation time: 00 hr 12 min 34 sec)
Heartbeat CPU 0 instructions: 155500886 cycles: 45996753 heartbeat IPC: 2.585 cumulative IPC: 2.999 (Simulation time: 00 hr 12 min 38 sec)
Heartbeat CPU 0 instructions: 156000890 cycles: 46193575 heartbeat IPC: 2.54 cumulative IPC: 2.996 (Simulation time: 00 hr 12 min 41 sec)
Heartbeat CPU 0 instructions: 156500890 cycles: 46385313 heartbeat IPC: 2.608 cumulative IPC: 2.994 (Simulation time: 00 hr 12 min 44 sec)
Heartbeat CPU 0 instructions: 157000891 cycles: 46578419 heartbeat IPC: 2.589 cumulative IPC: 2.992 (Simulation time: 00 hr 12 min 47 sec)
Heartbeat CPU 0 instructions: 157500892 cycles: 46775808 heartbeat IPC: 2.533 cumulative IPC: 2.99 (Simulation time: 00 hr 12 min 50 sec)
Heartbeat CPU 0 instructions: 158000892 cycles: 46968138 heartbeat IPC: 2.6 cumulative IPC: 2.988 (Simulation time: 00 hr 12 min 53 sec)
Heartbeat CPU 0 instructions: 158500897 cycles: 47163450 heartbeat IPC: 2.56 cumulative IPC: 2.985 (Simulation time: 00 hr 12 min 56 sec)
Heartbeat CPU 0 instructions: 159000901 cycles: 47355532 heartbeat IPC: 2.603 cumulative IPC: 2.983 (Simulation time: 00 hr 12 min 59 sec)
Heartbeat CPU 0 instructions: 159500905 cycles: 47551196 heartbeat IPC: 2.555 cumulative IPC: 2.981 (Simulation time: 00 hr 13 min 02 sec)
Heartbeat CPU 0 instructions: 160000910 cycles: 47747809 heartbeat IPC: 2.543 cumulative IPC: 2.979 (Simulation time: 00 hr 13 min 05 sec)
Heartbeat CPU 0 instructions: 160500911 cycles: 47939550 heartbeat IPC: 2.608 cumulative IPC: 2.977 (Simulation time: 00 hr 13 min 09 sec)
Heartbeat CPU 0 instructions: 161000912 cycles: 48134046 heartbeat IPC: 2.571 cumulative IPC: 2.975 (Simulation time: 00 hr 13 min 12 sec)
Heartbeat CPU 0 instructions: 161500915 cycles: 48326269 heartbeat IPC: 2.601 cumulative IPC: 2.973 (Simulation time: 00 hr 13 min 15 sec)
Heartbeat CPU 0 instructions: 162000917 cycles: 48522719 heartbeat IPC: 2.545 cumulative IPC: 2.97 (Simulation time: 00 hr 13 min 18 sec)
Heartbeat CPU 0 instructions: 162500918 cycles: 48716733 heartbeat IPC: 2.577 cumulative IPC: 2.968 (Simulation time: 00 hr 13 min 21 sec)
Heartbeat CPU 0 instructions: 163000919 cycles: 48910763 heartbeat IPC: 2.577 cumulative IPC: 2.966 (Simulation time: 00 hr 13 min 24 sec)
Heartbeat CPU 0 instructions: 163500923 cycles: 49104959 heartbeat IPC: 2.575 cumulative IPC: 2.964 (Simulation time: 00 hr 13 min 27 sec)
Heartbeat CPU 0 instructions: 164000923 cycles: 49298418 heartbeat IPC: 2.585 cumulative IPC: 2.963 (Simulation time: 00 hr 13 min 30 sec)
Heartbeat CPU 0 instructions: 164500924 cycles: 49492621 heartbeat IPC: 2.575 cumulative IPC: 2.961 (Simulation time: 00 hr 13 min 33 sec)
Heartbeat CPU 0 instructions: 165000927 cycles: 49688121 heartbeat IPC: 2.558 cumulative IPC: 2.959 (Simulation time: 00 hr 13 min 36 sec)
Heartbeat CPU 0 instructions: 165500933 cycles: 49881068 heartbeat IPC: 2.591 cumulative IPC: 2.957 (Simulation time: 00 hr 13 min 40 sec)
Heartbeat CPU 0 instructions: 166000938 cycles: 50076498 heartbeat IPC: 2.558 cumulative IPC: 2.955 (Simulation time: 00 hr 13 min 43 sec)
Heartbeat CPU 0 instructions: 166500945 cycles: 50267673 heartbeat IPC: 2.615 cumulative IPC: 2.953 (Simulation time: 00 hr 13 min 46 sec)
Heartbeat CPU 0 instructions: 167000947 cycles: 50462870 heartbeat IPC: 2.562 cumulative IPC: 2.951 (Simulation time: 00 hr 13 min 49 sec)
Heartbeat CPU 0 instructions: 167500951 cycles: 50657561 heartbeat IPC: 2.568 cumulative IPC: 2.949 (Simulation time: 00 hr 13 min 52 sec)
Heartbeat CPU 0 instructions: 168000957 cycles: 50853459 heartbeat IPC: 2.552 cumulative IPC: 2.947 (Simulation time: 00 hr 13 min 55 sec)
Heartbeat CPU 0 instructions: 168500961 cycles: 51048208 heartbeat IPC: 2.567 cumulative IPC: 2.946 (Simulation time: 00 hr 13 min 58 sec)
Heartbeat CPU 0 instructions: 169000964 cycles: 51239628 heartbeat IPC: 2.612 cumulative IPC: 2.944 (Simulation time: 00 hr 14 min 01 sec)
Heartbeat CPU 0 instructions: 169500969 cycles: 51434973 heartbeat IPC: 2.56 cumulative IPC: 2.942 (Simulation time: 00 hr 14 min 04 sec)
Heartbeat CPU 0 instructions: 170000974 cycles: 51630164 heartbeat IPC: 2.562 cumulative IPC: 2.94 (Simulation time: 00 hr 14 min 07 sec)
Heartbeat CPU 0 instructions: 170500974 cycles: 51823055 heartbeat IPC: 2.592 cumulative IPC: 2.939 (Simulation time: 00 hr 14 min 11 sec)
Heartbeat CPU 0 instructions: 171000976 cycles: 52019489 heartbeat IPC: 2.545 cumulative IPC: 2.937 (Simulation time: 00 hr 14 min 14 sec)
Heartbeat CPU 0 instructions: 171500979 cycles: 52210954 heartbeat IPC: 2.611 cumulative IPC: 2.935 (Simulation time: 00 hr 14 min 17 sec)
Heartbeat CPU 0 instructions: 172000981 cycles: 52406547 heartbeat IPC: 2.556 cumulative IPC: 2.934 (Simulation time: 00 hr 14 min 20 sec)
Heartbeat CPU 0 instructions: 172500981 cycles: 52597150 heartbeat IPC: 2.623 cumulative IPC: 2.932 (Simulation time: 00 hr 14 min 23 sec)
Heartbeat CPU 0 instructions: 173000988 cycles: 52793845 heartbeat IPC: 2.542 cumulative IPC: 2.93 (Simulation time: 00 hr 14 min 26 sec)
Heartbeat CPU 0 instructions: 173500994 cycles: 52990590 heartbeat IPC: 2.541 cumulative IPC: 2.928 (Simulation time: 00 hr 14 min 29 sec)
Heartbeat CPU 0 instructions: 174001000 cycles: 53181939 heartbeat IPC: 2.613 cumulative IPC: 2.927 (Simulation time: 00 hr 14 min 32 sec)
Heartbeat CPU 0 instructions: 174501002 cycles: 53378115 heartbeat IPC: 2.549 cumulative IPC: 2.925 (Simulation time: 00 hr 14 min 35 sec)
Heartbeat CPU 0 instructions: 175001009 cycles: 53572904 heartbeat IPC: 2.567 cumulative IPC: 2.924 (Simulation time: 00 hr 14 min 39 sec)
Heartbeat CPU 0 instructions: 175501010 cycles: 53764115 heartbeat IPC: 2.615 cumulative IPC: 2.922 (Simulation time: 00 hr 14 min 42 sec)
Heartbeat CPU 0 instructions: 176001014 cycles: 53958991 heartbeat IPC: 2.566 cumulative IPC: 2.921 (Simulation time: 00 hr 14 min 45 sec)
Heartbeat CPU 0 instructions: 176501018 cycles: 54152998 heartbeat IPC: 2.577 cumulative IPC: 2.919 (Simulation time: 00 hr 14 min 48 sec)
Heartbeat CPU 0 instructions: 177001023 cycles: 54349999 heartbeat IPC: 2.538 cumulative IPC: 2.917 (Simulation time: 00 hr 14 min 51 sec)
Heartbeat CPU 0 instructions: 177501027 cycles: 54542997 heartbeat IPC: 2.591 cumulative IPC: 2.916 (Simulation time: 00 hr 14 min 54 sec)
Heartbeat CPU 0 instructions: 178001030 cycles: 54735869 heartbeat IPC: 2.592 cumulative IPC: 2.915 (Simulation time: 00 hr 14 min 57 sec)
Heartbeat CPU 0 instructions: 178501035 cycles: 54930824 heartbeat IPC: 2.565 cumulative IPC: 2.913 (Simulation time: 00 hr 15 min 00 sec)
Heartbeat CPU 0 instructions: 179001035 cycles: 55125459 heartbeat IPC: 2.569 cumulative IPC: 2.911 (Simulation time: 00 hr 15 min 03 sec)
Heartbeat CPU 0 instructions: 179501036 cycles: 55320361 heartbeat IPC: 2.565 cumulative IPC: 2.91 (Simulation time: 00 hr 15 min 06 sec)
Heartbeat CPU 0 instructions: 180001040 cycles: 55513326 heartbeat IPC: 2.591 cumulative IPC: 2.909 (Simulation time: 00 hr 15 min 10 sec)
Heartbeat CPU 0 instructions: 180501047 cycles: 55707977 heartbeat IPC: 2.569 cumulative IPC: 2.907 (Simulation time: 00 hr 15 min 13 sec)
Heartbeat CPU 0 instructions: 181001048 cycles: 55900819 heartbeat IPC: 2.593 cumulative IPC: 2.906 (Simulation time: 00 hr 15 min 16 sec)
Heartbeat CPU 0 instructions: 181501055 cycles: 56095553 heartbeat IPC: 2.568 cumulative IPC: 2.904 (Simulation time: 00 hr 15 min 19 sec)
Heartbeat CPU 0 instructions: 182001056 cycles: 56287847 heartbeat IPC: 2.6 cumulative IPC: 2.903 (Simulation time: 00 hr 15 min 22 sec)
Heartbeat CPU 0 instructions: 182501061 cycles: 56482541 heartbeat IPC: 2.568 cumulative IPC: 2.902 (Simulation time: 00 hr 15 min 25 sec)
Heartbeat CPU 0 instructions: 183001068 cycles: 56679671 heartbeat IPC: 2.536 cumulative IPC: 2.9 (Simulation time: 00 hr 15 min 28 sec)
Heartbeat CPU 0 instructions: 183501068 cycles: 56874074 heartbeat IPC: 2.572 cumulative IPC: 2.899 (Simulation time: 00 hr 15 min 31 sec)
Heartbeat CPU 0 instructions: 184001069 cycles: 57067334 heartbeat IPC: 2.587 cumulative IPC: 2.897 (Simulation time: 00 hr 15 min 34 sec)
Heartbeat CPU 0 instructions: 184501074 cycles: 57264218 heartbeat IPC: 2.54 cumulative IPC: 2.896 (Simulation time: 00 hr 15 min 38 sec)
Heartbeat CPU 0 instructions: 185001081 cycles: 57457999 heartbeat IPC: 2.58 cumulative IPC: 2.895 (Simulation time: 00 hr 15 min 41 sec)
Heartbeat CPU 0 instructions: 185501082 cycles: 57650741 heartbeat IPC: 2.594 cumulative IPC: 2.893 (Simulation time: 00 hr 15 min 44 sec)
Heartbeat CPU 0 instructions: 186001085 cycles: 57845077 heartbeat IPC: 2.573 cumulative IPC: 2.892 (Simulation time: 00 hr 15 min 47 sec)
Heartbeat CPU 0 instructions: 186501089 cycles: 58037969 heartbeat IPC: 2.592 cumulative IPC: 2.891 (Simulation time: 00 hr 15 min 50 sec)
Heartbeat CPU 0 instructions: 187001095 cycles: 58230389 heartbeat IPC: 2.599 cumulative IPC: 2.89 (Simulation time: 00 hr 15 min 53 sec)
Heartbeat CPU 0 instructions: 187501095 cycles: 58425041 heartbeat IPC: 2.569 cumulative IPC: 2.888 (Simulation time: 00 hr 15 min 56 sec)
Heartbeat CPU 0 instructions: 188001095 cycles: 58621156 heartbeat IPC: 2.55 cumulative IPC: 2.887 (Simulation time: 00 hr 15 min 59 sec)
Heartbeat CPU 0 instructions: 188501099 cycles: 58818192 heartbeat IPC: 2.538 cumulative IPC: 2.885 (Simulation time: 00 hr 16 min 02 sec)
Heartbeat CPU 0 instructions: 189001106 cycles: 59011026 heartbeat IPC: 2.593 cumulative IPC: 2.884 (Simulation time: 00 hr 16 min 06 sec)
Heartbeat CPU 0 instructions: 189501113 cycles: 59204585 heartbeat IPC: 2.583 cumulative IPC: 2.883 (Simulation time: 00 hr 16 min 09 sec)
Heartbeat CPU 0 instructions: 190001113 cycles: 59397843 heartbeat IPC: 2.587 cumulative IPC: 2.882 (Simulation time: 00 hr 16 min 12 sec)
Heartbeat CPU 0 instructions: 190501118 cycles: 59591325 heartbeat IPC: 2.584 cumulative IPC: 2.881 (Simulation time: 00 hr 16 min 15 sec)
Heartbeat CPU 0 instructions: 191001122 cycles: 59783680 heartbeat IPC: 2.599 cumulative IPC: 2.88 (Simulation time: 00 hr 16 min 18 sec)
Heartbeat CPU 0 instructions: 191501128 cycles: 59979865 heartbeat IPC: 2.549 cumulative IPC: 2.878 (Simulation time: 00 hr 16 min 21 sec)
Heartbeat CPU 0 instructions: 192001132 cycles: 60176284 heartbeat IPC: 2.546 cumulative IPC: 2.877 (Simulation time: 00 hr 16 min 24 sec)
Heartbeat CPU 0 instructions: 192501135 cycles: 60370721 heartbeat IPC: 2.572 cumulative IPC: 2.876 (Simulation time: 00 hr 16 min 27 sec)
Heartbeat CPU 0 instructions: 193001136 cycles: 60562749 heartbeat IPC: 2.604 cumulative IPC: 2.875 (Simulation time: 00 hr 16 min 30 sec)
Heartbeat CPU 0 instructions: 193501140 cycles: 60755030 heartbeat IPC: 2.6 cumulative IPC: 2.874 (Simulation time: 00 hr 16 min 33 sec)
Heartbeat CPU 0 instructions: 194001141 cycles: 60951448 heartbeat IPC: 2.546 cumulative IPC: 2.872 (Simulation time: 00 hr 16 min 36 sec)
Heartbeat CPU 0 instructions: 194501144 cycles: 61147664 heartbeat IPC: 2.548 cumulative IPC: 2.871 (Simulation time: 00 hr 16 min 40 sec)
Heartbeat CPU 0 instructions: 195001145 cycles: 61338741 heartbeat IPC: 2.617 cumulative IPC: 2.87 (Simulation time: 00 hr 16 min 43 sec)
Heartbeat CPU 0 instructions: 195501147 cycles: 61534906 heartbeat IPC: 2.549 cumulative IPC: 2.869 (Simulation time: 00 hr 16 min 46 sec)
Heartbeat CPU 0 instructions: 196001151 cycles: 61730708 heartbeat IPC: 2.554 cumulative IPC: 2.868 (Simulation time: 00 hr 16 min 49 sec)
Heartbeat CPU 0 instructions: 196501152 cycles: 61924487 heartbeat IPC: 2.58 cumulative IPC: 2.867 (Simulation time: 00 hr 16 min 52 sec)
Heartbeat CPU 0 instructions: 197001155 cycles: 62115039 heartbeat IPC: 2.624 cumulative IPC: 2.866 (Simulation time: 00 hr 16 min 55 sec)
Heartbeat CPU 0 instructions: 197501156 cycles: 62310139 heartbeat IPC: 2.563 cumulative IPC: 2.865 (Simulation time: 00 hr 16 min 58 sec)
Heartbeat CPU 0 instructions: 198001161 cycles: 62505321 heartbeat IPC: 2.562 cumulative IPC: 2.863 (Simulation time: 00 hr 17 min 01 sec)
Heartbeat CPU 0 instructions: 198501166 cycles: 62697444 heartbeat IPC: 2.603 cumulative IPC: 2.862 (Simulation time: 00 hr 17 min 04 sec)
Heartbeat CPU 0 instructions: 199001166 cycles: 62894101 heartbeat IPC: 2.542 cumulative IPC: 2.861 (Simulation time: 00 hr 17 min 07 sec)
Heartbeat CPU 0 instructions: 199501166 cycles: 63089825 heartbeat IPC: 2.555 cumulative IPC: 2.86 (Simulation time: 00 hr 17 min 11 sec)
Heartbeat CPU 0 instructions: 200001167 cycles: 63285918 heartbeat IPC: 2.55 cumulative IPC: 2.859 (Simulation time: 00 hr 17 min 14 sec)
Heartbeat CPU 0 instructions: 200501173 cycles: 63476477 heartbeat IPC: 2.624 cumulative IPC: 2.858 (Simulation time: 00 hr 17 min 17 sec)
Heartbeat CPU 0 instructions: 201001173 cycles: 63672075 heartbeat IPC: 2.556 cumulative IPC: 2.857 (Simulation time: 00 hr 17 min 20 sec)
Heartbeat CPU 0 instructions: 201501173 cycles: 63866884 heartbeat IPC: 2.567 cumulative IPC: 2.856 (Simulation time: 00 hr 17 min 23 sec)
Heartbeat CPU 0 instructions: 202001178 cycles: 64060285 heartbeat IPC: 2.585 cumulative IPC: 2.855 (Simulation time: 00 hr 17 min 26 sec)
Heartbeat CPU 0 instructions: 202501179 cycles: 64252755 heartbeat IPC: 2.598 cumulative IPC: 2.854 (Simulation time: 00 hr 17 min 29 sec)
Heartbeat CPU 0 instructions: 203001179 cycles: 64444537 heartbeat IPC: 2.607 cumulative IPC: 2.853 (Simulation time: 00 hr 17 min 32 sec)
Heartbeat CPU 0 instructions: 203501183 cycles: 64640504 heartbeat IPC: 2.551 cumulative IPC: 2.852 (Simulation time: 00 hr 17 min 35 sec)
Heartbeat CPU 0 instructions: 204001185 cycles: 64834153 heartbeat IPC: 2.582 cumulative IPC: 2.851 (Simulation time: 00 hr 17 min 39 sec)
Heartbeat CPU 0 instructions: 204501192 cycles: 65028162 heartbeat IPC: 2.577 cumulative IPC: 2.85 (Simulation time: 00 hr 17 min 42 sec)
Heartbeat CPU 0 instructions: 205001193 cycles: 65223498 heartbeat IPC: 2.56 cumulative IPC: 2.849 (Simulation time: 00 hr 17 min 45 sec)
Heartbeat CPU 0 instructions: 205501198 cycles: 65416931 heartbeat IPC: 2.585 cumulative IPC: 2.848 (Simulation time: 00 hr 17 min 48 sec)
Heartbeat CPU 0 instructions: 206001203 cycles: 65611752 heartbeat IPC: 2.566 cumulative IPC: 2.847 (Simulation time: 00 hr 17 min 51 sec)
Heartbeat CPU 0 instructions: 206501208 cycles: 65804287 heartbeat IPC: 2.597 cumulative IPC: 2.846 (Simulation time: 00 hr 17 min 54 sec)
Heartbeat CPU 0 instructions: 207001208 cycles: 66002909 heartbeat IPC: 2.517 cumulative IPC: 2.845 (Simulation time: 00 hr 17 min 57 sec)
Heartbeat CPU 0 instructions: 207501209 cycles: 66199005 heartbeat IPC: 2.55 cumulative IPC: 2.844 (Simulation time: 00 hr 18 min 00 sec)
Heartbeat CPU 0 instructions: 208001213 cycles: 66388698 heartbeat IPC: 2.636 cumulative IPC: 2.843 (Simulation time: 00 hr 18 min 03 sec)
Heartbeat CPU 0 instructions: 208501213 cycles: 66582665 heartbeat IPC: 2.578 cumulative IPC: 2.842 (Simulation time: 00 hr 18 min 07 sec)
Heartbeat CPU 0 instructions: 209001214 cycles: 66775180 heartbeat IPC: 2.597 cumulative IPC: 2.841 (Simulation time: 00 hr 18 min 10 sec)
Heartbeat CPU 0 instructions: 209501218 cycles: 66970024 heartbeat IPC: 2.566 cumulative IPC: 2.841 (Simulation time: 00 hr 18 min 13 sec)
Heartbeat CPU 0 instructions: 210001220 cycles: 67165483 heartbeat IPC: 2.558 cumulative IPC: 2.84 (Simulation time: 00 hr 18 min 16 sec)
Heartbeat CPU 0 instructions: 210501227 cycles: 67359988 heartbeat IPC: 2.571 cumulative IPC: 2.839 (Simulation time: 00 hr 18 min 19 sec)
Heartbeat CPU 0 instructions: 211001232 cycles: 67552991 heartbeat IPC: 2.591 cumulative IPC: 2.838 (Simulation time: 00 hr 18 min 22 sec)
Heartbeat CPU 0 instructions: 211501238 cycles: 67746863 heartbeat IPC: 2.579 cumulative IPC: 2.837 (Simulation time: 00 hr 18 min 25 sec)
Heartbeat CPU 0 instructions: 212001241 cycles: 67941540 heartbeat IPC: 2.568 cumulative IPC: 2.836 (Simulation time: 00 hr 18 min 28 sec)
Heartbeat CPU 0 instructions: 212501243 cycles: 68135847 heartbeat IPC: 2.573 cumulative IPC: 2.835 (Simulation time: 00 hr 18 min 31 sec)
Heartbeat CPU 0 instructions: 213001243 cycles: 68330881 heartbeat IPC: 2.564 cumulative IPC: 2.834 (Simulation time: 00 hr 18 min 35 sec)
Heartbeat CPU 0 instructions: 213501247 cycles: 68523920 heartbeat IPC: 2.59 cumulative IPC: 2.833 (Simulation time: 00 hr 18 min 38 sec)
Heartbeat CPU 0 instructions: 214001250 cycles: 68718247 heartbeat IPC: 2.573 cumulative IPC: 2.832 (Simulation time: 00 hr 18 min 41 sec)
Heartbeat CPU 0 instructions: 214501257 cycles: 68912906 heartbeat IPC: 2.569 cumulative IPC: 2.832 (Simulation time: 00 hr 18 min 44 sec)
Heartbeat CPU 0 instructions: 215001260 cycles: 69106795 heartbeat IPC: 2.579 cumulative IPC: 2.831 (Simulation time: 00 hr 18 min 47 sec)
Heartbeat CPU 0 instructions: 215501263 cycles: 69301438 heartbeat IPC: 2.569 cumulative IPC: 2.83 (Simulation time: 00 hr 18 min 50 sec)
Heartbeat CPU 0 instructions: 216001263 cycles: 69495224 heartbeat IPC: 2.58 cumulative IPC: 2.829 (Simulation time: 00 hr 18 min 53 sec)
Heartbeat CPU 0 instructions: 216501266 cycles: 69688369 heartbeat IPC: 2.589 cumulative IPC: 2.828 (Simulation time: 00 hr 18 min 56 sec)
Heartbeat CPU 0 instructions: 217001266 cycles: 69884544 heartbeat IPC: 2.549 cumulative IPC: 2.827 (Simulation time: 00 hr 18 min 59 sec)
Heartbeat CPU 0 instructions: 217501268 cycles: 70078070 heartbeat IPC: 2.584 cumulative IPC: 2.827 (Simulation time: 00 hr 19 min 02 sec)
Heartbeat CPU 0 instructions: 218001272 cycles: 70273759 heartbeat IPC: 2.555 cumulative IPC: 2.826 (Simulation time: 00 hr 19 min 05 sec)
Heartbeat CPU 0 instructions: 218501277 cycles: 70468973 heartbeat IPC: 2.561 cumulative IPC: 2.825 (Simulation time: 00 hr 19 min 08 sec)
Heartbeat CPU 0 instructions: 219001282 cycles: 70663050 heartbeat IPC: 2.576 cumulative IPC: 2.824 (Simulation time: 00 hr 19 min 12 sec)
Heartbeat CPU 0 instructions: 219501288 cycles: 70855886 heartbeat IPC: 2.593 cumulative IPC: 2.823 (Simulation time: 00 hr 19 min 15 sec)
Heartbeat CPU 0 instructions: 220001289 cycles: 71049408 heartbeat IPC: 2.584 cumulative IPC: 2.822 (Simulation time: 00 hr 19 min 18 sec)
Heartbeat CPU 0 instructions: 220501290 cycles: 71243572 heartbeat IPC: 2.575 cumulative IPC: 2.822 (Simulation time: 00 hr 19 min 21 sec)
Heartbeat CPU 0 instructions: 221001292 cycles: 71439726 heartbeat IPC: 2.549 cumulative IPC: 2.821 (Simulation time: 00 hr 19 min 24 sec)
Heartbeat CPU 0 instructions: 221501295 cycles: 71630417 heartbeat IPC: 2.622 cumulative IPC: 2.82 (Simulation time: 00 hr 19 min 27 sec)
Heartbeat CPU 0 instructions: 222001297 cycles: 71827131 heartbeat IPC: 2.542 cumulative IPC: 2.819 (Simulation time: 00 hr 19 min 30 sec)
Heartbeat CPU 0 instructions: 222501299 cycles: 72021713 heartbeat IPC: 2.57 cumulative IPC: 2.818 (Simulation time: 00 hr 19 min 33 sec)
Heartbeat CPU 0 instructions: 223001302 cycles: 72214676 heartbeat IPC: 2.591 cumulative IPC: 2.818 (Simulation time: 00 hr 19 min 36 sec)
Heartbeat CPU 0 instructions: 223501305 cycles: 72410852 heartbeat IPC: 2.549 cumulative IPC: 2.817 (Simulation time: 00 hr 19 min 39 sec)
Heartbeat CPU 0 instructions: 224001312 cycles: 72601819 heartbeat IPC: 2.618 cumulative IPC: 2.816 (Simulation time: 00 hr 19 min 42 sec)
Heartbeat CPU 0 instructions: 224501317 cycles: 72796874 heartbeat IPC: 2.563 cumulative IPC: 2.815 (Simulation time: 00 hr 19 min 45 sec)
Heartbeat CPU 0 instructions: 225001323 cycles: 72990542 heartbeat IPC: 2.582 cumulative IPC: 2.815 (Simulation time: 00 hr 19 min 48 sec)
Heartbeat CPU 0 instructions: 225501328 cycles: 73186560 heartbeat IPC: 2.551 cumulative IPC: 2.814 (Simulation time: 00 hr 19 min 51 sec)
Heartbeat CPU 0 instructions: 226001329 cycles: 73382674 heartbeat IPC: 2.55 cumulative IPC: 2.813 (Simulation time: 00 hr 19 min 54 sec)
Heartbeat CPU 0 instructions: 226501334 cycles: 73573451 heartbeat IPC: 2.621 cumulative IPC: 2.813 (Simulation time: 00 hr 19 min 57 sec)
Heartbeat CPU 0 instructions: 227001334 cycles: 73768531 heartbeat IPC: 2.563 cumulative IPC: 2.812 (Simulation time: 00 hr 20 min 00 sec)
Heartbeat CPU 0 instructions: 227501336 cycles: 73962479 heartbeat IPC: 2.578 cumulative IPC: 2.811 (Simulation time: 00 hr 20 min 04 sec)
Heartbeat CPU 0 instructions: 228001336 cycles: 74157780 heartbeat IPC: 2.56 cumulative IPC: 2.81 (Simulation time: 00 hr 20 min 07 sec)
Heartbeat CPU 0 instructions: 228501338 cycles: 74353121 heartbeat IPC: 2.56 cumulative IPC: 2.809 (Simulation time: 00 hr 20 min 10 sec)
Heartbeat CPU 0 instructions: 229001342 cycles: 74544787 heartbeat IPC: 2.609 cumulative IPC: 2.809 (Simulation time: 00 hr 20 min 13 sec)
Heartbeat CPU 0 instructions: 229501343 cycles: 74739429 heartbeat IPC: 2.569 cumulative IPC: 2.808 (Simulation time: 00 hr 20 min 16 sec)
Heartbeat CPU 0 instructions: 230001349 cycles: 74934551 heartbeat IPC: 2.563 cumulative IPC: 2.807 (Simulation time: 00 hr 20 min 19 sec)
Heartbeat CPU 0 instructions: 230501353 cycles: 75128955 heartbeat IPC: 2.572 cumulative IPC: 2.807 (Simulation time: 00 hr 20 min 22 sec)
Heartbeat CPU 0 instructions: 231001356 cycles: 75324505 heartbeat IPC: 2.557 cumulative IPC: 2.806 (Simulation time: 00 hr 20 min 25 sec)
Heartbeat CPU 0 instructions: 231501360 cycles: 75515707 heartbeat IPC: 2.615 cumulative IPC: 2.805 (Simulation time: 00 hr 20 min 28 sec)
Heartbeat CPU 0 instructions: 232001367 cycles: 75710533 heartbeat IPC: 2.566 cumulative IPC: 2.805 (Simulation time: 00 hr 20 min 31 sec)
Heartbeat CPU 0 instructions: 232501370 cycles: 75904106 heartbeat IPC: 2.583 cumulative IPC: 2.804 (Simulation time: 00 hr 20 min 34 sec)
Heartbeat CPU 0 instructions: 233001375 cycles: 76101604 heartbeat IPC: 2.532 cumulative IPC: 2.803 (Simulation time: 00 hr 20 min 37 sec)
Heartbeat CPU 0 instructions: 233501380 cycles: 76299864 heartbeat IPC: 2.522 cumulative IPC: 2.802 (Simulation time: 00 hr 20 min 40 sec)
Heartbeat CPU 0 instructions: 234001385 cycles: 76490837 heartbeat IPC: 2.618 cumulative IPC: 2.802 (Simulation time: 00 hr 20 min 43 sec)
Heartbeat CPU 0 instructions: 234501388 cycles: 76686030 heartbeat IPC: 2.562 cumulative IPC: 2.801 (Simulation time: 00 hr 20 min 47 sec)
Heartbeat CPU 0 instructions: 235001394 cycles: 76880046 heartbeat IPC: 2.577 cumulative IPC: 2.8 (Simulation time: 00 hr 20 min 50 sec)
Heartbeat CPU 0 instructions: 235501398 cycles: 77071221 heartbeat IPC: 2.615 cumulative IPC: 2.8 (Simulation time: 00 hr 20 min 53 sec)
Heartbeat CPU 0 instructions: 236001402 cycles: 77270975 heartbeat IPC: 2.503 cumulative IPC: 2.799 (Simulation time: 00 hr 20 min 56 sec)
Heartbeat CPU 0 instructions: 236501402 cycles: 77461627 heartbeat IPC: 2.623 cumulative IPC: 2.798 (Simulation time: 00 hr 20 min 59 sec)
Heartbeat CPU 0 instructions: 237001406 cycles: 77657424 heartbeat IPC: 2.554 cumulative IPC: 2.798 (Simulation time: 00 hr 21 min 02 sec)
Heartbeat CPU 0 instructions: 237501407 cycles: 77852031 heartbeat IPC: 2.569 cumulative IPC: 2.797 (Simulation time: 00 hr 21 min 05 sec)
Heartbeat CPU 0 instructions: 238001407 cycles: 78043010 heartbeat IPC: 2.618 cumulative IPC: 2.797 (Simulation time: 00 hr 21 min 08 sec)
Heartbeat CPU 0 instructions: 238501407 cycles: 78238709 heartbeat IPC: 2.555 cumulative IPC: 2.796 (Simulation time: 00 hr 21 min 11 sec)
Heartbeat CPU 0 instructions: 239001414 cycles: 78432214 heartbeat IPC: 2.584 cumulative IPC: 2.795 (Simulation time: 00 hr 21 min 14 sec)
Heartbeat CPU 0 instructions: 239501414 cycles: 78628603 heartbeat IPC: 2.546 cumulative IPC: 2.795 (Simulation time: 00 hr 21 min 17 sec)
Heartbeat CPU 0 instructions: 240001421 cycles: 78822607 heartbeat IPC: 2.577 cumulative IPC: 2.794 (Simulation time: 00 hr 21 min 20 sec)
Heartbeat CPU 0 instructions: 240501428 cycles: 79015281 heartbeat IPC: 2.595 cumulative IPC: 2.793 (Simulation time: 00 hr 21 min 23 sec)
Heartbeat CPU 0 instructions: 241001434 cycles: 79214217 heartbeat IPC: 2.513 cumulative IPC: 2.793 (Simulation time: 00 hr 21 min 26 sec)
Heartbeat CPU 0 instructions: 241501440 cycles: 79404813 heartbeat IPC: 2.623 cumulative IPC: 2.792 (Simulation time: 00 hr 21 min 29 sec)
Heartbeat CPU 0 instructions: 242001441 cycles: 79604082 heartbeat IPC: 2.509 cumulative IPC: 2.791 (Simulation time: 00 hr 21 min 32 sec)
Heartbeat CPU 0 instructions: 242501442 cycles: 79794088 heartbeat IPC: 2.632 cumulative IPC: 2.791 (Simulation time: 00 hr 21 min 35 sec)
Heartbeat CPU 0 instructions: 243001446 cycles: 79988291 heartbeat IPC: 2.575 cumulative IPC: 2.79 (Simulation time: 00 hr 21 min 38 sec)
Heartbeat CPU 0 instructions: 243501448 cycles: 80179782 heartbeat IPC: 2.611 cumulative IPC: 2.79 (Simulation time: 00 hr 21 min 41 sec)
Heartbeat CPU 0 instructions: 244001449 cycles: 80372000 heartbeat IPC: 2.601 cumulative IPC: 2.789 (Simulation time: 00 hr 21 min 44 sec)
Heartbeat CPU 0 instructions: 244501450 cycles: 80568939 heartbeat IPC: 2.539 cumulative IPC: 2.789 (Simulation time: 00 hr 21 min 47 sec)
Heartbeat CPU 0 instructions: 245001455 cycles: 80761381 heartbeat IPC: 2.598 cumulative IPC: 2.788 (Simulation time: 00 hr 21 min 50 sec)
Heartbeat CPU 0 instructions: 245501455 cycles: 80955289 heartbeat IPC: 2.579 cumulative IPC: 2.787 (Simulation time: 00 hr 21 min 53 sec)
Heartbeat CPU 0 instructions: 246001456 cycles: 81150181 heartbeat IPC: 2.566 cumulative IPC: 2.787 (Simulation time: 00 hr 21 min 56 sec)
Heartbeat CPU 0 instructions: 246501456 cycles: 81343370 heartbeat IPC: 2.588 cumulative IPC: 2.786 (Simulation time: 00 hr 21 min 59 sec)
Heartbeat CPU 0 instructions: 247001459 cycles: 81538793 heartbeat IPC: 2.559 cumulative IPC: 2.786 (Simulation time: 00 hr 22 min 02 sec)
Heartbeat CPU 0 instructions: 247501463 cycles: 81731536 heartbeat IPC: 2.594 cumulative IPC: 2.785 (Simulation time: 00 hr 22 min 05 sec)
Heartbeat CPU 0 instructions: 248001467 cycles: 81926246 heartbeat IPC: 2.568 cumulative IPC: 2.785 (Simulation time: 00 hr 22 min 08 sec)
Heartbeat CPU 0 instructions: 248501473 cycles: 82121983 heartbeat IPC: 2.554 cumulative IPC: 2.784 (Simulation time: 00 hr 22 min 11 sec)
Heartbeat CPU 0 instructions: 249001478 cycles: 82315977 heartbeat IPC: 2.577 cumulative IPC: 2.783 (Simulation time: 00 hr 22 min 15 sec)
Heartbeat CPU 0 instructions: 249501481 cycles: 82509651 heartbeat IPC: 2.582 cumulative IPC: 2.783 (Simulation time: 00 hr 22 min 18 sec)
Simulation finished CPU 0 instructions: 200000004 cycles: 71884408 cumulative IPC: 2.782 (Simulation time: 00 hr 22 min 21 sec)
Simulation complete CPU 0 instructions: 200000004 cycles: 71884408 cumulative IPC: 2.782 (Simulation time: 00 hr 22 min 21 sec)

ChampSim completed all CPUs

=== Simulation ===
CPU 0 runs /local-ssd/ben/dpc4-traces/SPEC17/654.roms_s-293B.champsimtrace.xz

Region of Interest Statistics

CPU 0 cumulative IPC: 2.782 instructions: 200000004 cycles: 71884408
CPU 0 Branch Prediction Accuracy: 99.91% MPKI: 0.03265 Average ROB Occupancy at Mispredict: 499.3
Branch type MPKI
BRANCH_DIRECT_JUMP: 6e-05
BRANCH_INDIRECT: 0
BRANCH_CONDITIONAL: 0.03229
BRANCH_DIRECT_CALL: 0.00015
BRANCH_INDIRECT_CALL: 0
BRANCH_RETURN: 0.00015

cpu0->cpu0_STLB TOTAL        ACCESS:      73634 HIT:      25763 MISS:      47871 MSHR_MERGE:          0
cpu0->cpu0_STLB LOAD         ACCESS:      73634 HIT:      25763 MISS:      47871 MSHR_MERGE:          0
cpu0->cpu0_STLB RFO          ACCESS:          0 HIT:          0 MISS:          0 MSHR_MERGE:          0
cpu0->cpu0_STLB PREFETCH     ACCESS:          0 HIT:          0 MISS:          0 MSHR_MERGE:          0
cpu0->cpu0_STLB WRITE        ACCESS:          0 HIT:          0 MISS:          0 MSHR_MERGE:          0
cpu0->cpu0_STLB TRANSLATION  ACCESS:          0 HIT:          0 MISS:          0 MSHR_MERGE:          0
cpu0->cpu0_STLB PREFETCH REQUESTED:          0 ISSUED:          0 USEFUL:          0 USELESS:          0
cpu0->cpu0_STLB AVERAGE MISS LATENCY: 336.1 cycles
cpu0->cpu0_L2C TOTAL        ACCESS:   13419094 HIT:   10870876 MISS:    2548218 MSHR_MERGE:     532032
cpu0->cpu0_L2C LOAD         ACCESS:     206180 HIT:     169249 MISS:      36931 MSHR_MERGE:       1478
cpu0->cpu0_L2C RFO          ACCESS:     405165 HIT:      90935 MISS:     314230 MSHR_MERGE:          3
cpu0->cpu0_L2C PREFETCH     ACCESS:   12342184 HIT:   10161911 MISS:    2180273 MSHR_MERGE:     530551
cpu0->cpu0_L2C WRITE        ACCESS:     423850 HIT:     423840 MISS:         10 MSHR_MERGE:          0
cpu0->cpu0_L2C TRANSLATION  ACCESS:      41715 HIT:      24941 MISS:      16774 MSHR_MERGE:          0
cpu0->cpu0_L2C PREFETCH REQUESTED:   10446524 ISSUED:   10387477 USEFUL:    1442651 USELESS:     140801
cpu0->cpu0_L2C AVERAGE MISS LATENCY: 185 cycles
cpu0->cpu0_L1I TOTAL        ACCESS:   36299161 HIT:   36298958 MISS:        203 MSHR_MERGE:         30
cpu0->cpu0_L1I LOAD         ACCESS:   36299161 HIT:   36298958 MISS:        203 MSHR_MERGE:         30
cpu0->cpu0_L1I RFO          ACCESS:          0 HIT:          0 MISS:          0 MSHR_MERGE:          0
cpu0->cpu0_L1I PREFETCH     ACCESS:          0 HIT:          0 MISS:          0 MSHR_MERGE:          0
cpu0->cpu0_L1I WRITE        ACCESS:          0 HIT:          0 MISS:          0 MSHR_MERGE:          0
cpu0->cpu0_L1I TRANSLATION  ACCESS:          0 HIT:          0 MISS:          0 MSHR_MERGE:          0
cpu0->cpu0_L1I PREFETCH REQUESTED:          0 ISSUED:          0 USEFUL:          0 USELESS:          0
cpu0->cpu0_L1I AVERAGE MISS LATENCY: 273.1 cycles
cpu0->cpu0_L1D TOTAL        ACCESS:   55367090 HIT:   51659820 MISS:    3707270 MSHR_MERGE:    1099530
cpu0->cpu0_L1D LOAD         ACCESS:   41352520 HIT:   40945202 MISS:     407318 MSHR_MERGE:     201310
cpu0->cpu0_L1D RFO          ACCESS:          0 HIT:          0 MISS:          0 MSHR_MERGE:          0
cpu0->cpu0_L1D PREFETCH     ACCESS:    2498194 HIT:     529166 MISS:    1969028 MSHR_MERGE:      14309
cpu0->cpu0_L1D WRITE        ACCESS:   11396637 HIT:   10107626 MISS:    1289011 MSHR_MERGE:     883713
cpu0->cpu0_L1D TRANSLATION  ACCESS:     119739 HIT:      77826 MISS:      41913 MSHR_MERGE:        198
cpu0->cpu0_L1D PREFETCH REQUESTED:    2548943 ISSUED:    2498187 USEFUL:    1920752 USELESS:      33961
cpu0->cpu0_L1D AVERAGE MISS LATENCY: 120.4 cycles
cpu0->cpu0_ITLB TOTAL        ACCESS:   27565629 HIT:   27565583 MISS:         46 MSHR_MERGE:         30
cpu0->cpu0_ITLB LOAD         ACCESS:   27565629 HIT:   27565583 MISS:         46 MSHR_MERGE:         30
cpu0->cpu0_ITLB RFO          ACCESS:          0 HIT:          0 MISS:          0 MSHR_MERGE:          0
cpu0->cpu0_ITLB PREFETCH     ACCESS:          0 HIT:          0 MISS:          0 MSHR_MERGE:          0
cpu0->cpu0_ITLB WRITE        ACCESS:          0 HIT:          0 MISS:          0 MSHR_MERGE:          0
cpu0->cpu0_ITLB TRANSLATION  ACCESS:          0 HIT:          0 MISS:          0 MSHR_MERGE:          0
cpu0->cpu0_ITLB PREFETCH REQUESTED:          0 ISSUED:          0 USEFUL:          0 USELESS:          0
cpu0->cpu0_ITLB AVERAGE MISS LATENCY: 438.3 cycles
cpu0->cpu0_DTLB TOTAL        ACCESS:   53609324 HIT:   53373860 MISS:     235464 MSHR_MERGE:     161846
cpu0->cpu0_DTLB LOAD         ACCESS:   53609324 HIT:   53373860 MISS:     235464 MSHR_MERGE:     161846
cpu0->cpu0_DTLB RFO          ACCESS:          0 HIT:          0 MISS:          0 MSHR_MERGE:          0
cpu0->cpu0_DTLB PREFETCH     ACCESS:          0 HIT:          0 MISS:          0 MSHR_MERGE:          0
cpu0->cpu0_DTLB WRITE        ACCESS:          0 HIT:          0 MISS:          0 MSHR_MERGE:          0
cpu0->cpu0_DTLB TRANSLATION  ACCESS:          0 HIT:          0 MISS:          0 MSHR_MERGE:          0
cpu0->cpu0_DTLB PREFETCH REQUESTED:          0 ISSUED:          0 USEFUL:          0 USELESS:          0
cpu0->cpu0_DTLB AVERAGE MISS LATENCY: 224.1 cycles
cpu0->LLC TOTAL        ACCESS:    3945017 HIT:    1658859 MISS:    2286158 MSHR_MERGE:     156063
cpu0->LLC LOAD         ACCESS:      35453 HIT:        860 MISS:      34593 MSHR_MERGE:         29
cpu0->LLC RFO          ACCESS:     314227 HIT:     160373 MISS:     153854 MSHR_MERGE:         11
cpu0->LLC PREFETCH     ACCESS:    3200427 HIT:    1287241 MISS:    1913186 MSHR_MERGE:     156023
cpu0->LLC WRITE        ACCESS:     378136 HIT:     209736 MISS:     168400 MSHR_MERGE:          0
cpu0->LLC TRANSLATION  ACCESS:      16774 HIT:        649 MISS:      16125 MSHR_MERGE:          0
cpu0->LLC PREFETCH REQUESTED:    2019291 ISSUED:    1550705 USEFUL:    1119795 USELESS:     248920
cpu0->LLC AVERAGE MISS LATENCY: 166.9 cycles

DRAM Statistics

Channel 0 RQ ROW_BUFFER_HIT:      42504
  ROW_BUFFER_MISS:    1918921
  AVG DBUS CONGESTED CYCLE: 7.346
Channel 0 WQ ROW_BUFFER_HIT:      27591
  ROW_BUFFER_MISS:     178665
  FULL:        899
Channel 0 REFRESHES ISSUED:       5990
