[VMEM] WARNING: physical memory size is smaller than virtual memory size.

*** ChampSim Multicore Out-of-Order Simulator ***
Warmup Instructions: 50000000
Simulation Instructions: 200000000
Number of CPUs: 1
Page size: 4096
Core 0: /local-ssd/ben/dpc4-traces/ai-ml/vit.cpp-large-ggml-model-f16.gguf.armadillo.1.champsimtrace.gz
Off-chip DRAM Size: 64 GiB Channels: 1 Width: 64-bit Data Rate: 4807 MT/s
Heartbeat CPU 0 instructions: 500004 cycles: 166545 heartbeat IPC: 3.002 cumulative IPC: 3.002 (Simulation time: 00 hr 00 min 03 sec)
Heartbeat CPU 0 instructions: 1000011 cycles: 324504 heartbeat IPC: 3.165 cumulative IPC: 3.082 (Simulation time: 00 hr 00 min 06 sec)
Heartbeat CPU 0 instructions: 1500011 cycles: 481737 heartbeat IPC: 3.18 cumulative IPC: 3.114 (Simulation time: 00 hr 00 min 09 sec)
Heartbeat CPU 0 instructions: 2000014 cycles: 641032 heartbeat IPC: 3.139 cumulative IPC: 3.12 (Simulation time: 00 hr 00 min 12 sec)
Heartbeat CPU 0 instructions: 2500014 cycles: 802564 heartbeat IPC: 3.095 cumulative IPC: 3.115 (Simulation time: 00 hr 00 min 15 sec)
Heartbeat CPU 0 instructions: 3000014 cycles: 966570 heartbeat IPC: 3.049 cumulative IPC: 3.104 (Simulation time: 00 hr 00 min 18 sec)
Heartbeat CPU 0 instructions: 3500014 cycles: 1128326 heartbeat IPC: 3.091 cumulative IPC: 3.102 (Simulation time: 00 hr 00 min 21 sec)
Heartbeat CPU 0 instructions: 4000019 cycles: 1288683 heartbeat IPC: 3.118 cumulative IPC: 3.104 (Simulation time: 00 hr 00 min 24 sec)
Heartbeat CPU 0 instructions: 4500024 cycles: 1449039 heartbeat IPC: 3.118 cumulative IPC: 3.106 (Simulation time: 00 hr 00 min 27 sec)
Heartbeat CPU 0 instructions: 5000026 cycles: 1609444 heartbeat IPC: 3.117 cumulative IPC: 3.107 (Simulation time: 00 hr 00 min 30 sec)
Heartbeat CPU 0 instructions: 5500027 cycles: 1770026 heartbeat IPC: 3.114 cumulative IPC: 3.107 (Simulation time: 00 hr 00 min 34 sec)
Heartbeat CPU 0 instructions: 6000032 cycles: 1930853 heartbeat IPC: 3.109 cumulative IPC: 3.107 (Simulation time: 00 hr 00 min 37 sec)
Heartbeat CPU 0 instructions: 6500037 cycles: 2091721 heartbeat IPC: 3.108 cumulative IPC: 3.108 (Simulation time: 00 hr 00 min 40 sec)
Heartbeat CPU 0 instructions: 7000038 cycles: 2252132 heartbeat IPC: 3.117 cumulative IPC: 3.108 (Simulation time: 00 hr 00 min 43 sec)
Heartbeat CPU 0 instructions: 7500043 cycles: 2412974 heartbeat IPC: 3.109 cumulative IPC: 3.108 (Simulation time: 00 hr 00 min 46 sec)
Heartbeat CPU 0 instructions: 8000045 cycles: 2573551 heartbeat IPC: 3.114 cumulative IPC: 3.109 (Simulation time: 00 hr 00 min 49 sec)
Heartbeat CPU 0 instructions: 8500046 cycles: 2734303 heartbeat IPC: 3.11 cumulative IPC: 3.109 (Simulation time: 00 hr 00 min 52 sec)
Heartbeat CPU 0 instructions: 9000048 cycles: 2891629 heartbeat IPC: 3.178 cumulative IPC: 3.112 (Simulation time: 00 hr 00 min 55 sec)
Heartbeat CPU 0 instructions: 9500050 cycles: 3053050 heartbeat IPC: 3.098 cumulative IPC: 3.112 (Simulation time: 00 hr 00 min 58 sec)
Heartbeat CPU 0 instructions: 10000052 cycles: 3188006 heartbeat IPC: 3.705 cumulative IPC: 3.137 (Simulation time: 00 hr 01 min 01 sec)
Heartbeat CPU 0 instructions: 10500057 cycles: 3343785 heartbeat IPC: 3.21 cumulative IPC: 3.14 (Simulation time: 00 hr 01 min 04 sec)
Heartbeat CPU 0 instructions: 11000058 cycles: 3504339 heartbeat IPC: 3.114 cumulative IPC: 3.139 (Simulation time: 00 hr 01 min 07 sec)
Heartbeat CPU 0 instructions: 11500064 cycles: 3664743 heartbeat IPC: 3.117 cumulative IPC: 3.138 (Simulation time: 00 hr 01 min 10 sec)
Heartbeat CPU 0 instructions: 12000064 cycles: 3825566 heartbeat IPC: 3.109 cumulative IPC: 3.137 (Simulation time: 00 hr 01 min 13 sec)
Heartbeat CPU 0 instructions: 12500070 cycles: 3973997 heartbeat IPC: 3.369 cumulative IPC: 3.145 (Simulation time: 00 hr 01 min 16 sec)
Heartbeat CPU 0 instructions: 13000073 cycles: 4118553 heartbeat IPC: 3.459 cumulative IPC: 3.156 (Simulation time: 00 hr 01 min 19 sec)
Heartbeat CPU 0 instructions: 13500075 cycles: 4269752 heartbeat IPC: 3.307 cumulative IPC: 3.162 (Simulation time: 00 hr 01 min 22 sec)
Heartbeat CPU 0 instructions: 14000079 cycles: 4401091 heartbeat IPC: 3.807 cumulative IPC: 3.181 (Simulation time: 00 hr 01 min 24 sec)
Heartbeat CPU 0 instructions: 14500080 cycles: 4538633 heartbeat IPC: 3.635 cumulative IPC: 3.195 (Simulation time: 00 hr 01 min 27 sec)
Heartbeat CPU 0 instructions: 15000081 cycles: 4699097 heartbeat IPC: 3.116 cumulative IPC: 3.192 (Simulation time: 00 hr 01 min 30 sec)
Heartbeat CPU 0 instructions: 15500087 cycles: 4859521 heartbeat IPC: 3.117 cumulative IPC: 3.19 (Simulation time: 00 hr 01 min 33 sec)
Heartbeat CPU 0 instructions: 16000087 cycles: 5019145 heartbeat IPC: 3.132 cumulative IPC: 3.188 (Simulation time: 00 hr 01 min 36 sec)
Heartbeat CPU 0 instructions: 16500089 cycles: 5177174 heartbeat IPC: 3.164 cumulative IPC: 3.187 (Simulation time: 00 hr 01 min 39 sec)
Heartbeat CPU 0 instructions: 17000091 cycles: 5337479 heartbeat IPC: 3.119 cumulative IPC: 3.185 (Simulation time: 00 hr 01 min 42 sec)
Heartbeat CPU 0 instructions: 17500096 cycles: 5477486 heartbeat IPC: 3.571 cumulative IPC: 3.195 (Simulation time: 00 hr 01 min 45 sec)
Heartbeat CPU 0 instructions: 18000099 cycles: 5631895 heartbeat IPC: 3.238 cumulative IPC: 3.196 (Simulation time: 00 hr 01 min 48 sec)
Heartbeat CPU 0 instructions: 18500101 cycles: 5792974 heartbeat IPC: 3.104 cumulative IPC: 3.194 (Simulation time: 00 hr 01 min 51 sec)
Heartbeat CPU 0 instructions: 19000101 cycles: 5937031 heartbeat IPC: 3.471 cumulative IPC: 3.2 (Simulation time: 00 hr 01 min 54 sec)
Heartbeat CPU 0 instructions: 19500102 cycles: 6084827 heartbeat IPC: 3.383 cumulative IPC: 3.205 (Simulation time: 00 hr 01 min 57 sec)
Heartbeat CPU 0 instructions: 20000103 cycles: 6245736 heartbeat IPC: 3.107 cumulative IPC: 3.202 (Simulation time: 00 hr 02 min 00 sec)
Heartbeat CPU 0 instructions: 20500109 cycles: 6406656 heartbeat IPC: 3.107 cumulative IPC: 3.2 (Simulation time: 00 hr 02 min 03 sec)
Heartbeat CPU 0 instructions: 21000110 cycles: 6567054 heartbeat IPC: 3.117 cumulative IPC: 3.198 (Simulation time: 00 hr 02 min 06 sec)
Heartbeat CPU 0 instructions: 21500112 cycles: 6727151 heartbeat IPC: 3.123 cumulative IPC: 3.196 (Simulation time: 00 hr 02 min 09 sec)
Heartbeat CPU 0 instructions: 22000113 cycles: 6887851 heartbeat IPC: 3.111 cumulative IPC: 3.194 (Simulation time: 00 hr 02 min 12 sec)
Heartbeat CPU 0 instructions: 22500114 cycles: 7048558 heartbeat IPC: 3.111 cumulative IPC: 3.192 (Simulation time: 00 hr 02 min 15 sec)
Heartbeat CPU 0 instructions: 23000121 cycles: 7209315 heartbeat IPC: 3.11 cumulative IPC: 3.19 (Simulation time: 00 hr 02 min 18 sec)
Heartbeat CPU 0 instructions: 23500125 cycles: 7367433 heartbeat IPC: 3.162 cumulative IPC: 3.19 (Simulation time: 00 hr 02 min 21 sec)
Heartbeat CPU 0 instructions: 24000127 cycles: 7496967 heartbeat IPC: 3.86 cumulative IPC: 3.201 (Simulation time: 00 hr 02 min 24 sec)
Heartbeat CPU 0 instructions: 24500134 cycles: 7635238 heartbeat IPC: 3.616 cumulative IPC: 3.209 (Simulation time: 00 hr 02 min 27 sec)
Heartbeat CPU 0 instructions: 25000134 cycles: 7791833 heartbeat IPC: 3.193 cumulative IPC: 3.209 (Simulation time: 00 hr 02 min 30 sec)
Heartbeat CPU 0 instructions: 25500135 cycles: 7952073 heartbeat IPC: 3.12 cumulative IPC: 3.207 (Simulation time: 00 hr 02 min 33 sec)
Heartbeat CPU 0 instructions: 26000137 cycles: 8112572 heartbeat IPC: 3.115 cumulative IPC: 3.205 (Simulation time: 00 hr 02 min 36 sec)
Heartbeat CPU 0 instructions: 26500139 cycles: 8272237 heartbeat IPC: 3.132 cumulative IPC: 3.204 (Simulation time: 00 hr 02 min 39 sec)
Heartbeat CPU 0 instructions: 27000144 cycles: 8432933 heartbeat IPC: 3.111 cumulative IPC: 3.202 (Simulation time: 00 hr 02 min 42 sec)
Heartbeat CPU 0 instructions: 27500144 cycles: 8593862 heartbeat IPC: 3.107 cumulative IPC: 3.2 (Simulation time: 00 hr 02 min 45 sec)
Heartbeat CPU 0 instructions: 28000146 cycles: 8755087 heartbeat IPC: 3.101 cumulative IPC: 3.198 (Simulation time: 00 hr 02 min 48 sec)
Heartbeat CPU 0 instructions: 28500148 cycles: 8915093 heartbeat IPC: 3.125 cumulative IPC: 3.197 (Simulation time: 00 hr 02 min 51 sec)
Heartbeat CPU 0 instructions: 29000149 cycles: 9076270 heartbeat IPC: 3.102 cumulative IPC: 3.195 (Simulation time: 00 hr 02 min 54 sec)
Heartbeat CPU 0 instructions: 29500155 cycles: 9236667 heartbeat IPC: 3.117 cumulative IPC: 3.194 (Simulation time: 00 hr 02 min 57 sec)
Heartbeat CPU 0 instructions: 30000158 cycles: 9397321 heartbeat IPC: 3.112 cumulative IPC: 3.192 (Simulation time: 00 hr 03 min 00 sec)
Heartbeat CPU 0 instructions: 30500158 cycles: 9558352 heartbeat IPC: 3.105 cumulative IPC: 3.191 (Simulation time: 00 hr 03 min 03 sec)
Heartbeat CPU 0 instructions: 31000159 cycles: 9714854 heartbeat IPC: 3.195 cumulative IPC: 3.191 (Simulation time: 00 hr 03 min 06 sec)
Heartbeat CPU 0 instructions: 31500164 cycles: 9876056 heartbeat IPC: 3.102 cumulative IPC: 3.19 (Simulation time: 00 hr 03 min 10 sec)
Heartbeat CPU 0 instructions: 32000171 cycles: 10036944 heartbeat IPC: 3.108 cumulative IPC: 3.188 (Simulation time: 00 hr 03 min 13 sec)
Heartbeat CPU 0 instructions: 32500172 cycles: 10197812 heartbeat IPC: 3.108 cumulative IPC: 3.187 (Simulation time: 00 hr 03 min 16 sec)
Heartbeat CPU 0 instructions: 33000178 cycles: 10358270 heartbeat IPC: 3.116 cumulative IPC: 3.186 (Simulation time: 00 hr 03 min 19 sec)
Heartbeat CPU 0 instructions: 33500179 cycles: 10519051 heartbeat IPC: 3.11 cumulative IPC: 3.185 (Simulation time: 00 hr 03 min 22 sec)
Heartbeat CPU 0 instructions: 34000180 cycles: 10678997 heartbeat IPC: 3.126 cumulative IPC: 3.184 (Simulation time: 00 hr 03 min 25 sec)
Heartbeat CPU 0 instructions: 34500182 cycles: 10826423 heartbeat IPC: 3.392 cumulative IPC: 3.187 (Simulation time: 00 hr 03 min 28 sec)
Heartbeat CPU 0 instructions: 35000183 cycles: 10951694 heartbeat IPC: 3.991 cumulative IPC: 3.196 (Simulation time: 00 hr 03 min 30 sec)
Heartbeat CPU 0 instructions: 35500188 cycles: 11077107 heartbeat IPC: 3.987 cumulative IPC: 3.205 (Simulation time: 00 hr 03 min 33 sec)
Heartbeat CPU 0 instructions: 36000193 cycles: 11202650 heartbeat IPC: 3.983 cumulative IPC: 3.214 (Simulation time: 00 hr 03 min 35 sec)
Heartbeat CPU 0 instructions: 36500196 cycles: 11327936 heartbeat IPC: 3.991 cumulative IPC: 3.222 (Simulation time: 00 hr 03 min 38 sec)
Heartbeat CPU 0 instructions: 37000199 cycles: 11460151 heartbeat IPC: 3.782 cumulative IPC: 3.229 (Simulation time: 00 hr 03 min 41 sec)
Heartbeat CPU 0 instructions: 37500204 cycles: 11619501 heartbeat IPC: 3.138 cumulative IPC: 3.227 (Simulation time: 00 hr 03 min 44 sec)
Heartbeat CPU 0 instructions: 38000206 cycles: 11744700 heartbeat IPC: 3.994 cumulative IPC: 3.236 (Simulation time: 00 hr 03 min 46 sec)
Heartbeat CPU 0 instructions: 38500211 cycles: 11870313 heartbeat IPC: 3.981 cumulative IPC: 3.243 (Simulation time: 00 hr 03 min 49 sec)
Heartbeat CPU 0 instructions: 39000217 cycles: 11995676 heartbeat IPC: 3.988 cumulative IPC: 3.251 (Simulation time: 00 hr 03 min 51 sec)
Heartbeat CPU 0 instructions: 39500219 cycles: 12121154 heartbeat IPC: 3.985 cumulative IPC: 3.259 (Simulation time: 00 hr 03 min 54 sec)
Heartbeat CPU 0 instructions: 40000219 cycles: 12246714 heartbeat IPC: 3.982 cumulative IPC: 3.266 (Simulation time: 00 hr 03 min 56 sec)
Heartbeat CPU 0 instructions: 40500221 cycles: 12371988 heartbeat IPC: 3.991 cumulative IPC: 3.274 (Simulation time: 00 hr 03 min 59 sec)
Heartbeat CPU 0 instructions: 41000224 cycles: 12497603 heartbeat IPC: 3.98 cumulative IPC: 3.281 (Simulation time: 00 hr 04 min 02 sec)
Heartbeat CPU 0 instructions: 41500228 cycles: 12622891 heartbeat IPC: 3.991 cumulative IPC: 3.288 (Simulation time: 00 hr 04 min 04 sec)
Heartbeat CPU 0 instructions: 42000233 cycles: 12748318 heartbeat IPC: 3.986 cumulative IPC: 3.295 (Simulation time: 00 hr 04 min 07 sec)
Heartbeat CPU 0 instructions: 42500238 cycles: 12873732 heartbeat IPC: 3.987 cumulative IPC: 3.301 (Simulation time: 00 hr 04 min 09 sec)
Heartbeat CPU 0 instructions: 43000241 cycles: 12999018 heartbeat IPC: 3.991 cumulative IPC: 3.308 (Simulation time: 00 hr 04 min 12 sec)
Heartbeat CPU 0 instructions: 43500246 cycles: 13124466 heartbeat IPC: 3.986 cumulative IPC: 3.314 (Simulation time: 00 hr 04 min 14 sec)
Heartbeat CPU 0 instructions: 44000252 cycles: 13249989 heartbeat IPC: 3.983 cumulative IPC: 3.321 (Simulation time: 00 hr 04 min 17 sec)
Heartbeat CPU 0 instructions: 44500256 cycles: 13375250 heartbeat IPC: 3.992 cumulative IPC: 3.327 (Simulation time: 00 hr 04 min 19 sec)
Heartbeat CPU 0 instructions: 45000257 cycles: 13500712 heartbeat IPC: 3.985 cumulative IPC: 3.333 (Simulation time: 00 hr 04 min 22 sec)
Heartbeat CPU 0 instructions: 45500259 cycles: 13626108 heartbeat IPC: 3.987 cumulative IPC: 3.339 (Simulation time: 00 hr 04 min 24 sec)
Heartbeat CPU 0 instructions: 46000264 cycles: 13751548 heartbeat IPC: 3.986 cumulative IPC: 3.345 (Simulation time: 00 hr 04 min 27 sec)
Heartbeat CPU 0 instructions: 46500270 cycles: 13876950 heartbeat IPC: 3.987 cumulative IPC: 3.351 (Simulation time: 00 hr 04 min 29 sec)
Heartbeat CPU 0 instructions: 47000276 cycles: 14002270 heartbeat IPC: 3.99 cumulative IPC: 3.357 (Simulation time: 00 hr 04 min 32 sec)
Heartbeat CPU 0 instructions: 47500278 cycles: 14127683 heartbeat IPC: 3.987 cumulative IPC: 3.362 (Simulation time: 00 hr 04 min 35 sec)
Heartbeat CPU 0 instructions: 48000283 cycles: 14253092 heartbeat IPC: 3.987 cumulative IPC: 3.368 (Simulation time: 00 hr 04 min 37 sec)
Heartbeat CPU 0 instructions: 48500288 cycles: 14378440 heartbeat IPC: 3.989 cumulative IPC: 3.373 (Simulation time: 00 hr 04 min 40 sec)
Heartbeat CPU 0 instructions: 49000291 cycles: 14503752 heartbeat IPC: 3.99 cumulative IPC: 3.378 (Simulation time: 00 hr 04 min 42 sec)
Heartbeat CPU 0 instructions: 49500291 cycles: 14629126 heartbeat IPC: 3.988 cumulative IPC: 3.384 (Simulation time: 00 hr 04 min 45 sec)
Warmup finished CPU 0 instructions: 50000005 cycles: 14754384 cumulative IPC: 3.389 (Simulation time: 00 hr 04 min 47 sec)
Warmup complete CPU 0 instructions: 50000005 cycles: 14754384 cumulative IPC: 3.389 (Simulation time: 00 hr 04 min 47 sec)
Heartbeat CPU 0 instructions: 50000297 cycles: 14754476 heartbeat IPC: 3.989 cumulative IPC: 3.174 (Simulation time: 00 hr 04 min 47 sec)
Heartbeat CPU 0 instructions: 50500303 cycles: 14899676 heartbeat IPC: 3.444 cumulative IPC: 3.443 (Simulation time: 00 hr 04 min 50 sec)
Heartbeat CPU 0 instructions: 51000305 cycles: 15045388 heartbeat IPC: 3.431 cumulative IPC: 3.437 (Simulation time: 00 hr 04 min 52 sec)
Heartbeat CPU 0 instructions: 51500306 cycles: 15188322 heartbeat IPC: 3.498 cumulative IPC: 3.457 (Simulation time: 00 hr 04 min 55 sec)
Heartbeat CPU 0 instructions: 52000311 cycles: 15332807 heartbeat IPC: 3.461 cumulative IPC: 3.458 (Simulation time: 00 hr 04 min 57 sec)
Heartbeat CPU 0 instructions: 52500314 cycles: 15476323 heartbeat IPC: 3.484 cumulative IPC: 3.463 (Simulation time: 00 hr 05 min 00 sec)
Heartbeat CPU 0 instructions: 53000318 cycles: 15607765 heartbeat IPC: 3.804 cumulative IPC: 3.516 (Simulation time: 00 hr 05 min 02 sec)
Heartbeat CPU 0 instructions: 53500320 cycles: 15751248 heartbeat IPC: 3.485 cumulative IPC: 3.511 (Simulation time: 00 hr 05 min 05 sec)
Heartbeat CPU 0 instructions: 54000325 cycles: 15895807 heartbeat IPC: 3.459 cumulative IPC: 3.505 (Simulation time: 00 hr 05 min 08 sec)
Heartbeat CPU 0 instructions: 54500331 cycles: 16038546 heartbeat IPC: 3.503 cumulative IPC: 3.504 (Simulation time: 00 hr 05 min 10 sec)
Heartbeat CPU 0 instructions: 55000332 cycles: 16182454 heartbeat IPC: 3.474 cumulative IPC: 3.501 (Simulation time: 00 hr 05 min 13 sec)
Heartbeat CPU 0 instructions: 55500337 cycles: 16326684 heartbeat IPC: 3.467 cumulative IPC: 3.498 (Simulation time: 00 hr 05 min 15 sec)
Heartbeat CPU 0 instructions: 56000343 cycles: 16470498 heartbeat IPC: 3.477 cumulative IPC: 3.496 (Simulation time: 00 hr 05 min 18 sec)
Heartbeat CPU 0 instructions: 56500348 cycles: 16613127 heartbeat IPC: 3.506 cumulative IPC: 3.497 (Simulation time: 00 hr 05 min 20 sec)
Heartbeat CPU 0 instructions: 57000352 cycles: 16757752 heartbeat IPC: 3.457 cumulative IPC: 3.494 (Simulation time: 00 hr 05 min 23 sec)
Heartbeat CPU 0 instructions: 57500359 cycles: 16901091 heartbeat IPC: 3.488 cumulative IPC: 3.494 (Simulation time: 00 hr 05 min 26 sec)
Heartbeat CPU 0 instructions: 58000361 cycles: 17044811 heartbeat IPC: 3.479 cumulative IPC: 3.493 (Simulation time: 00 hr 05 min 28 sec)
Heartbeat CPU 0 instructions: 58500362 cycles: 17187773 heartbeat IPC: 3.497 cumulative IPC: 3.493 (Simulation time: 00 hr 05 min 31 sec)
Heartbeat CPU 0 instructions: 59000363 cycles: 17332307 heartbeat IPC: 3.459 cumulative IPC: 3.491 (Simulation time: 00 hr 05 min 33 sec)
Heartbeat CPU 0 instructions: 59500365 cycles: 17475331 heartbeat IPC: 3.496 cumulative IPC: 3.492 (Simulation time: 00 hr 05 min 36 sec)
Heartbeat CPU 0 instructions: 60000366 cycles: 17615745 heartbeat IPC: 3.561 cumulative IPC: 3.495 (Simulation time: 00 hr 05 min 38 sec)
Heartbeat CPU 0 instructions: 60500372 cycles: 17749714 heartbeat IPC: 3.732 cumulative IPC: 3.506 (Simulation time: 00 hr 05 min 41 sec)
Heartbeat CPU 0 instructions: 61000376 cycles: 17892197 heartbeat IPC: 3.509 cumulative IPC: 3.506 (Simulation time: 00 hr 05 min 43 sec)
Heartbeat CPU 0 instructions: 61500379 cycles: 18035590 heartbeat IPC: 3.487 cumulative IPC: 3.505 (Simulation time: 00 hr 05 min 46 sec)
Heartbeat CPU 0 instructions: 62000384 cycles: 18179478 heartbeat IPC: 3.475 cumulative IPC: 3.504 (Simulation time: 00 hr 05 min 48 sec)
Heartbeat CPU 0 instructions: 62500385 cycles: 18323132 heartbeat IPC: 3.481 cumulative IPC: 3.503 (Simulation time: 00 hr 05 min 51 sec)
Heartbeat CPU 0 instructions: 63000392 cycles: 18468244 heartbeat IPC: 3.446 cumulative IPC: 3.501 (Simulation time: 00 hr 05 min 54 sec)
Heartbeat CPU 0 instructions: 63500392 cycles: 18611286 heartbeat IPC: 3.495 cumulative IPC: 3.5 (Simulation time: 00 hr 05 min 56 sec)
Heartbeat CPU 0 instructions: 64000398 cycles: 18755803 heartbeat IPC: 3.46 cumulative IPC: 3.499 (Simulation time: 00 hr 05 min 59 sec)
Heartbeat CPU 0 instructions: 64500403 cycles: 18899547 heartbeat IPC: 3.478 cumulative IPC: 3.498 (Simulation time: 00 hr 06 min 01 sec)
Heartbeat CPU 0 instructions: 65000404 cycles: 19043219 heartbeat IPC: 3.48 cumulative IPC: 3.498 (Simulation time: 00 hr 06 min 04 sec)
Heartbeat CPU 0 instructions: 65500410 cycles: 19186718 heartbeat IPC: 3.484 cumulative IPC: 3.497 (Simulation time: 00 hr 06 min 07 sec)
Heartbeat CPU 0 instructions: 66000411 cycles: 19331220 heartbeat IPC: 3.46 cumulative IPC: 3.496 (Simulation time: 00 hr 06 min 09 sec)
Heartbeat CPU 0 instructions: 66500411 cycles: 19475542 heartbeat IPC: 3.464 cumulative IPC: 3.495 (Simulation time: 00 hr 06 min 12 sec)
Heartbeat CPU 0 instructions: 67000414 cycles: 19620475 heartbeat IPC: 3.45 cumulative IPC: 3.494 (Simulation time: 00 hr 06 min 14 sec)
Heartbeat CPU 0 instructions: 67500420 cycles: 19757245 heartbeat IPC: 3.656 cumulative IPC: 3.498 (Simulation time: 00 hr 06 min 17 sec)
Heartbeat CPU 0 instructions: 68000427 cycles: 19894793 heartbeat IPC: 3.635 cumulative IPC: 3.502 (Simulation time: 00 hr 06 min 19 sec)
Heartbeat CPU 0 instructions: 68500431 cycles: 20039277 heartbeat IPC: 3.461 cumulative IPC: 3.501 (Simulation time: 00 hr 06 min 22 sec)
Heartbeat CPU 0 instructions: 69000436 cycles: 20181862 heartbeat IPC: 3.507 cumulative IPC: 3.501 (Simulation time: 00 hr 06 min 24 sec)
Heartbeat CPU 0 instructions: 69500441 cycles: 20325976 heartbeat IPC: 3.47 cumulative IPC: 3.5 (Simulation time: 00 hr 06 min 27 sec)
Heartbeat CPU 0 instructions: 70000443 cycles: 20470472 heartbeat IPC: 3.46 cumulative IPC: 3.499 (Simulation time: 00 hr 06 min 30 sec)
Heartbeat CPU 0 instructions: 70500444 cycles: 20614386 heartbeat IPC: 3.474 cumulative IPC: 3.498 (Simulation time: 00 hr 06 min 32 sec)
Heartbeat CPU 0 instructions: 71000450 cycles: 20758656 heartbeat IPC: 3.466 cumulative IPC: 3.498 (Simulation time: 00 hr 06 min 35 sec)
Heartbeat CPU 0 instructions: 71500450 cycles: 20913865 heartbeat IPC: 3.221 cumulative IPC: 3.491 (Simulation time: 00 hr 06 min 37 sec)
Heartbeat CPU 0 instructions: 72000452 cycles: 21068928 heartbeat IPC: 3.225 cumulative IPC: 3.484 (Simulation time: 00 hr 06 min 40 sec)
Heartbeat CPU 0 instructions: 72500457 cycles: 21213410 heartbeat IPC: 3.461 cumulative IPC: 3.484 (Simulation time: 00 hr 06 min 43 sec)
Heartbeat CPU 0 instructions: 73000458 cycles: 21357840 heartbeat IPC: 3.462 cumulative IPC: 3.483 (Simulation time: 00 hr 06 min 45 sec)
Heartbeat CPU 0 instructions: 73500464 cycles: 21501515 heartbeat IPC: 3.48 cumulative IPC: 3.483 (Simulation time: 00 hr 06 min 48 sec)
Heartbeat CPU 0 instructions: 74000467 cycles: 21644483 heartbeat IPC: 3.497 cumulative IPC: 3.483 (Simulation time: 00 hr 06 min 50 sec)
Heartbeat CPU 0 instructions: 74500471 cycles: 21788600 heartbeat IPC: 3.469 cumulative IPC: 3.483 (Simulation time: 00 hr 06 min 53 sec)
Heartbeat CPU 0 instructions: 75000476 cycles: 21920788 heartbeat IPC: 3.783 cumulative IPC: 3.489 (Simulation time: 00 hr 06 min 55 sec)
Heartbeat CPU 0 instructions: 75500482 cycles: 22060372 heartbeat IPC: 3.582 cumulative IPC: 3.49 (Simulation time: 00 hr 06 min 58 sec)
Heartbeat CPU 0 instructions: 76000487 cycles: 22203045 heartbeat IPC: 3.505 cumulative IPC: 3.491 (Simulation time: 00 hr 07 min 00 sec)
Heartbeat CPU 0 instructions: 76500488 cycles: 22344791 heartbeat IPC: 3.527 cumulative IPC: 3.491 (Simulation time: 00 hr 07 min 03 sec)
Heartbeat CPU 0 instructions: 77000494 cycles: 22485295 heartbeat IPC: 3.559 cumulative IPC: 3.493 (Simulation time: 00 hr 07 min 05 sec)
Heartbeat CPU 0 instructions: 77500501 cycles: 22626674 heartbeat IPC: 3.537 cumulative IPC: 3.493 (Simulation time: 00 hr 07 min 08 sec)
Heartbeat CPU 0 instructions: 78000506 cycles: 22767991 heartbeat IPC: 3.538 cumulative IPC: 3.494 (Simulation time: 00 hr 07 min 11 sec)
Heartbeat CPU 0 instructions: 78500511 cycles: 22908908 heartbeat IPC: 3.548 cumulative IPC: 3.495 (Simulation time: 00 hr 07 min 13 sec)
Heartbeat CPU 0 instructions: 79000513 cycles: 23049581 heartbeat IPC: 3.554 cumulative IPC: 3.496 (Simulation time: 00 hr 07 min 16 sec)
Heartbeat CPU 0 instructions: 79500517 cycles: 23190176 heartbeat IPC: 3.556 cumulative IPC: 3.497 (Simulation time: 00 hr 07 min 18 sec)
Heartbeat CPU 0 instructions: 80000523 cycles: 23330887 heartbeat IPC: 3.553 cumulative IPC: 3.498 (Simulation time: 00 hr 07 min 21 sec)
Heartbeat CPU 0 instructions: 80500524 cycles: 23471569 heartbeat IPC: 3.554 cumulative IPC: 3.499 (Simulation time: 00 hr 07 min 23 sec)
Heartbeat CPU 0 instructions: 81000529 cycles: 23611378 heartbeat IPC: 3.576 cumulative IPC: 3.5 (Simulation time: 00 hr 07 min 26 sec)
Heartbeat CPU 0 instructions: 81500531 cycles: 23752097 heartbeat IPC: 3.553 cumulative IPC: 3.501 (Simulation time: 00 hr 07 min 28 sec)
Heartbeat CPU 0 instructions: 82000532 cycles: 23891572 heartbeat IPC: 3.585 cumulative IPC: 3.502 (Simulation time: 00 hr 07 min 31 sec)
Heartbeat CPU 0 instructions: 82500538 cycles: 24023047 heartbeat IPC: 3.803 cumulative IPC: 3.506 (Simulation time: 00 hr 07 min 33 sec)
Heartbeat CPU 0 instructions: 83000543 cycles: 24163704 heartbeat IPC: 3.555 cumulative IPC: 3.507 (Simulation time: 00 hr 07 min 36 sec)
Heartbeat CPU 0 instructions: 83500548 cycles: 24303072 heartbeat IPC: 3.588 cumulative IPC: 3.508 (Simulation time: 00 hr 07 min 38 sec)
Heartbeat CPU 0 instructions: 84000550 cycles: 24444328 heartbeat IPC: 3.54 cumulative IPC: 3.509 (Simulation time: 00 hr 07 min 41 sec)
Heartbeat CPU 0 instructions: 84500555 cycles: 24584194 heartbeat IPC: 3.575 cumulative IPC: 3.51 (Simulation time: 00 hr 07 min 43 sec)
Heartbeat CPU 0 instructions: 85000561 cycles: 24730349 heartbeat IPC: 3.421 cumulative IPC: 3.508 (Simulation time: 00 hr 07 min 46 sec)
Heartbeat CPU 0 instructions: 85500562 cycles: 24875507 heartbeat IPC: 3.445 cumulative IPC: 3.508 (Simulation time: 00 hr 07 min 48 sec)
Heartbeat CPU 0 instructions: 86000564 cycles: 25019815 heartbeat IPC: 3.465 cumulative IPC: 3.507 (Simulation time: 00 hr 07 min 51 sec)
Heartbeat CPU 0 instructions: 86500569 cycles: 25164138 heartbeat IPC: 3.464 cumulative IPC: 3.506 (Simulation time: 00 hr 07 min 54 sec)
Heartbeat CPU 0 instructions: 87000572 cycles: 25308866 heartbeat IPC: 3.455 cumulative IPC: 3.506 (Simulation time: 00 hr 07 min 56 sec)
Heartbeat CPU 0 instructions: 87500572 cycles: 25451476 heartbeat IPC: 3.506 cumulative IPC: 3.506 (Simulation time: 00 hr 07 min 59 sec)
Heartbeat CPU 0 instructions: 88000577 cycles: 25595401 heartbeat IPC: 3.474 cumulative IPC: 3.505 (Simulation time: 00 hr 08 min 01 sec)
Heartbeat CPU 0 instructions: 88500577 cycles: 25739340 heartbeat IPC: 3.474 cumulative IPC: 3.505 (Simulation time: 00 hr 08 min 04 sec)
Heartbeat CPU 0 instructions: 89000584 cycles: 25883367 heartbeat IPC: 3.472 cumulative IPC: 3.504 (Simulation time: 00 hr 08 min 07 sec)
Heartbeat CPU 0 instructions: 89500584 cycles: 26021838 heartbeat IPC: 3.611 cumulative IPC: 3.506 (Simulation time: 00 hr 08 min 09 sec)
Heartbeat CPU 0 instructions: 90000587 cycles: 26158550 heartbeat IPC: 3.657 cumulative IPC: 3.508 (Simulation time: 00 hr 08 min 12 sec)
Heartbeat CPU 0 instructions: 90500592 cycles: 26301455 heartbeat IPC: 3.499 cumulative IPC: 3.507 (Simulation time: 00 hr 08 min 14 sec)
Heartbeat CPU 0 instructions: 91000592 cycles: 26444944 heartbeat IPC: 3.485 cumulative IPC: 3.507 (Simulation time: 00 hr 08 min 17 sec)
Heartbeat CPU 0 instructions: 91500595 cycles: 26590043 heartbeat IPC: 3.446 cumulative IPC: 3.506 (Simulation time: 00 hr 08 min 19 sec)
Heartbeat CPU 0 instructions: 92000599 cycles: 26733242 heartbeat IPC: 3.492 cumulative IPC: 3.506 (Simulation time: 00 hr 08 min 22 sec)
Heartbeat CPU 0 instructions: 92500606 cycles: 26878197 heartbeat IPC: 3.449 cumulative IPC: 3.506 (Simulation time: 00 hr 08 min 25 sec)
Heartbeat CPU 0 instructions: 93000612 cycles: 27021482 heartbeat IPC: 3.49 cumulative IPC: 3.505 (Simulation time: 00 hr 08 min 27 sec)
Heartbeat CPU 0 instructions: 93500613 cycles: 27165202 heartbeat IPC: 3.479 cumulative IPC: 3.505 (Simulation time: 00 hr 08 min 30 sec)
Heartbeat CPU 0 instructions: 94000613 cycles: 27309029 heartbeat IPC: 3.476 cumulative IPC: 3.505 (Simulation time: 00 hr 08 min 32 sec)
Heartbeat CPU 0 instructions: 94500620 cycles: 27452441 heartbeat IPC: 3.487 cumulative IPC: 3.505 (Simulation time: 00 hr 08 min 35 sec)
Heartbeat CPU 0 instructions: 95000621 cycles: 27597249 heartbeat IPC: 3.453 cumulative IPC: 3.504 (Simulation time: 00 hr 08 min 37 sec)
Heartbeat CPU 0 instructions: 95500623 cycles: 27740982 heartbeat IPC: 3.479 cumulative IPC: 3.504 (Simulation time: 00 hr 08 min 40 sec)
Heartbeat CPU 0 instructions: 96000628 cycles: 27884756 heartbeat IPC: 3.478 cumulative IPC: 3.503 (Simulation time: 00 hr 08 min 43 sec)
Heartbeat CPU 0 instructions: 96500630 cycles: 28029530 heartbeat IPC: 3.454 cumulative IPC: 3.503 (Simulation time: 00 hr 08 min 45 sec)
Heartbeat CPU 0 instructions: 97000635 cycles: 28162157 heartbeat IPC: 3.77 cumulative IPC: 3.505 (Simulation time: 00 hr 08 min 48 sec)
Heartbeat CPU 0 instructions: 97500641 cycles: 28303867 heartbeat IPC: 3.528 cumulative IPC: 3.506 (Simulation time: 00 hr 08 min 50 sec)
Heartbeat CPU 0 instructions: 98000646 cycles: 28448333 heartbeat IPC: 3.461 cumulative IPC: 3.505 (Simulation time: 00 hr 08 min 53 sec)
Heartbeat CPU 0 instructions: 98500646 cycles: 28592450 heartbeat IPC: 3.469 cumulative IPC: 3.505 (Simulation time: 00 hr 08 min 56 sec)
Heartbeat CPU 0 instructions: 99000649 cycles: 28736578 heartbeat IPC: 3.469 cumulative IPC: 3.505 (Simulation time: 00 hr 08 min 58 sec)
Heartbeat CPU 0 instructions: 99500655 cycles: 28882342 heartbeat IPC: 3.43 cumulative IPC: 3.504 (Simulation time: 00 hr 09 min 01 sec)
Heartbeat CPU 0 instructions: 100000660 cycles: 29026478 heartbeat IPC: 3.469 cumulative IPC: 3.503 (Simulation time: 00 hr 09 min 03 sec)
Heartbeat CPU 0 instructions: 100500661 cycles: 29170591 heartbeat IPC: 3.47 cumulative IPC: 3.503 (Simulation time: 00 hr 09 min 06 sec)
Heartbeat CPU 0 instructions: 101000663 cycles: 29314154 heartbeat IPC: 3.483 cumulative IPC: 3.503 (Simulation time: 00 hr 09 min 09 sec)
Heartbeat CPU 0 instructions: 101500664 cycles: 29457975 heartbeat IPC: 3.477 cumulative IPC: 3.503 (Simulation time: 00 hr 09 min 11 sec)
Heartbeat CPU 0 instructions: 102000665 cycles: 29602631 heartbeat IPC: 3.456 cumulative IPC: 3.502 (Simulation time: 00 hr 09 min 14 sec)
Heartbeat CPU 0 instructions: 102500666 cycles: 29747755 heartbeat IPC: 3.445 cumulative IPC: 3.502 (Simulation time: 00 hr 09 min 16 sec)
Heartbeat CPU 0 instructions: 103000673 cycles: 29892215 heartbeat IPC: 3.461 cumulative IPC: 3.501 (Simulation time: 00 hr 09 min 19 sec)
Heartbeat CPU 0 instructions: 103500674 cycles: 30037486 heartbeat IPC: 3.442 cumulative IPC: 3.501 (Simulation time: 00 hr 09 min 21 sec)
Heartbeat CPU 0 instructions: 104000675 cycles: 30180230 heartbeat IPC: 3.503 cumulative IPC: 3.501 (Simulation time: 00 hr 09 min 24 sec)
Heartbeat CPU 0 instructions: 104500675 cycles: 30311862 heartbeat IPC: 3.798 cumulative IPC: 3.503 (Simulation time: 00 hr 09 min 26 sec)
Heartbeat CPU 0 instructions: 105000682 cycles: 30457107 heartbeat IPC: 3.443 cumulative IPC: 3.503 (Simulation time: 00 hr 09 min 29 sec)
Heartbeat CPU 0 instructions: 105500683 cycles: 30601596 heartbeat IPC: 3.46 cumulative IPC: 3.502 (Simulation time: 00 hr 09 min 32 sec)
Heartbeat CPU 0 instructions: 106000687 cycles: 30777843 heartbeat IPC: 2.837 cumulative IPC: 3.495 (Simulation time: 00 hr 09 min 35 sec)
Heartbeat CPU 0 instructions: 106500691 cycles: 30946602 heartbeat IPC: 2.963 cumulative IPC: 3.489 (Simulation time: 00 hr 09 min 37 sec)
Heartbeat CPU 0 instructions: 107000695 cycles: 31112075 heartbeat IPC: 3.022 cumulative IPC: 3.485 (Simulation time: 00 hr 09 min 40 sec)
Heartbeat CPU 0 instructions: 107500700 cycles: 31276186 heartbeat IPC: 3.047 cumulative IPC: 3.48 (Simulation time: 00 hr 09 min 43 sec)
Heartbeat CPU 0 instructions: 108000702 cycles: 31436758 heartbeat IPC: 3.114 cumulative IPC: 3.477 (Simulation time: 00 hr 09 min 46 sec)
Heartbeat CPU 0 instructions: 108500709 cycles: 31595711 heartbeat IPC: 3.146 cumulative IPC: 3.474 (Simulation time: 00 hr 09 min 48 sec)
Heartbeat CPU 0 instructions: 109000709 cycles: 31756242 heartbeat IPC: 3.115 cumulative IPC: 3.47 (Simulation time: 00 hr 09 min 51 sec)
Heartbeat CPU 0 instructions: 109500716 cycles: 31915742 heartbeat IPC: 3.135 cumulative IPC: 3.467 (Simulation time: 00 hr 09 min 54 sec)
Heartbeat CPU 0 instructions: 110000723 cycles: 32081711 heartbeat IPC: 3.013 cumulative IPC: 3.463 (Simulation time: 00 hr 09 min 57 sec)
Heartbeat CPU 0 instructions: 110500727 cycles: 32251297 heartbeat IPC: 2.948 cumulative IPC: 3.458 (Simulation time: 00 hr 10 min 00 sec)
Heartbeat CPU 0 instructions: 111000734 cycles: 32421751 heartbeat IPC: 2.933 cumulative IPC: 3.453 (Simulation time: 00 hr 10 min 03 sec)
Heartbeat CPU 0 instructions: 111500740 cycles: 32591832 heartbeat IPC: 2.94 cumulative IPC: 3.448 (Simulation time: 00 hr 10 min 05 sec)
Heartbeat CPU 0 instructions: 112000745 cycles: 32760144 heartbeat IPC: 2.971 cumulative IPC: 3.443 (Simulation time: 00 hr 10 min 08 sec)
Heartbeat CPU 0 instructions: 112500749 cycles: 32932062 heartbeat IPC: 2.908 cumulative IPC: 3.438 (Simulation time: 00 hr 10 min 11 sec)
Heartbeat CPU 0 instructions: 113000754 cycles: 33104538 heartbeat IPC: 2.899 cumulative IPC: 3.433 (Simulation time: 00 hr 10 min 14 sec)
Heartbeat CPU 0 instructions: 113500754 cycles: 33274883 heartbeat IPC: 2.935 cumulative IPC: 3.429 (Simulation time: 00 hr 10 min 17 sec)
Heartbeat CPU 0 instructions: 114000759 cycles: 33446128 heartbeat IPC: 2.92 cumulative IPC: 3.424 (Simulation time: 00 hr 10 min 20 sec)
Heartbeat CPU 0 instructions: 114500763 cycles: 33619666 heartbeat IPC: 2.881 cumulative IPC: 3.419 (Simulation time: 00 hr 10 min 23 sec)
Heartbeat CPU 0 instructions: 115000766 cycles: 33790864 heartbeat IPC: 2.921 cumulative IPC: 3.415 (Simulation time: 00 hr 10 min 26 sec)
Heartbeat CPU 0 instructions: 115500767 cycles: 33960169 heartbeat IPC: 2.953 cumulative IPC: 3.41 (Simulation time: 00 hr 10 min 29 sec)
Heartbeat CPU 0 instructions: 116000770 cycles: 34129959 heartbeat IPC: 2.945 cumulative IPC: 3.406 (Simulation time: 00 hr 10 min 32 sec)
Heartbeat CPU 0 instructions: 116500770 cycles: 34439022 heartbeat IPC: 1.618 cumulative IPC: 3.378 (Simulation time: 00 hr 10 min 36 sec)
Heartbeat CPU 0 instructions: 117000773 cycles: 34679857 heartbeat IPC: 2.076 cumulative IPC: 3.363 (Simulation time: 00 hr 10 min 39 sec)
Heartbeat CPU 0 instructions: 117500779 cycles: 34804642 heartbeat IPC: 4.007 cumulative IPC: 3.367 (Simulation time: 00 hr 10 min 41 sec)
Heartbeat CPU 0 instructions: 118000785 cycles: 34928667 heartbeat IPC: 4.031 cumulative IPC: 3.371 (Simulation time: 00 hr 10 min 43 sec)
Heartbeat CPU 0 instructions: 118500789 cycles: 35053596 heartbeat IPC: 4.002 cumulative IPC: 3.375 (Simulation time: 00 hr 10 min 45 sec)
Heartbeat CPU 0 instructions: 119000792 cycles: 35179170 heartbeat IPC: 3.982 cumulative IPC: 3.378 (Simulation time: 00 hr 10 min 46 sec)
Heartbeat CPU 0 instructions: 119500795 cycles: 35303786 heartbeat IPC: 4.012 cumulative IPC: 3.382 (Simulation time: 00 hr 10 min 48 sec)
Heartbeat CPU 0 instructions: 120000801 cycles: 35525591 heartbeat IPC: 2.254 cumulative IPC: 3.37 (Simulation time: 00 hr 10 min 51 sec)
Heartbeat CPU 0 instructions: 120500803 cycles: 35689553 heartbeat IPC: 3.049 cumulative IPC: 3.368 (Simulation time: 00 hr 10 min 54 sec)
Heartbeat CPU 0 instructions: 121000808 cycles: 35833279 heartbeat IPC: 3.479 cumulative IPC: 3.368 (Simulation time: 00 hr 10 min 56 sec)
Heartbeat CPU 0 instructions: 121500815 cycles: 35983956 heartbeat IPC: 3.318 cumulative IPC: 3.368 (Simulation time: 00 hr 10 min 58 sec)
Heartbeat CPU 0 instructions: 122000822 cycles: 36129540 heartbeat IPC: 3.434 cumulative IPC: 3.368 (Simulation time: 00 hr 11 min 00 sec)
Heartbeat CPU 0 instructions: 122500825 cycles: 36280605 heartbeat IPC: 3.31 cumulative IPC: 3.368 (Simulation time: 00 hr 11 min 03 sec)
Heartbeat CPU 0 instructions: 123000828 cycles: 36426107 heartbeat IPC: 3.436 cumulative IPC: 3.368 (Simulation time: 00 hr 11 min 05 sec)
Heartbeat CPU 0 instructions: 123500833 cycles: 36576324 heartbeat IPC: 3.329 cumulative IPC: 3.368 (Simulation time: 00 hr 11 min 07 sec)
Heartbeat CPU 0 instructions: 124000833 cycles: 36720782 heartbeat IPC: 3.461 cumulative IPC: 3.369 (Simulation time: 00 hr 11 min 09 sec)
Heartbeat CPU 0 instructions: 124500840 cycles: 36872988 heartbeat IPC: 3.285 cumulative IPC: 3.368 (Simulation time: 00 hr 11 min 12 sec)
Heartbeat CPU 0 instructions: 125000843 cycles: 37019067 heartbeat IPC: 3.423 cumulative IPC: 3.369 (Simulation time: 00 hr 11 min 14 sec)
Heartbeat CPU 0 instructions: 125500846 cycles: 37170636 heartbeat IPC: 3.299 cumulative IPC: 3.368 (Simulation time: 00 hr 11 min 16 sec)
Heartbeat CPU 0 instructions: 126000849 cycles: 37317420 heartbeat IPC: 3.406 cumulative IPC: 3.368 (Simulation time: 00 hr 11 min 18 sec)
Heartbeat CPU 0 instructions: 126500856 cycles: 37467919 heartbeat IPC: 3.322 cumulative IPC: 3.368 (Simulation time: 00 hr 11 min 20 sec)
Heartbeat CPU 0 instructions: 127000859 cycles: 37616839 heartbeat IPC: 3.358 cumulative IPC: 3.368 (Simulation time: 00 hr 11 min 23 sec)
Heartbeat CPU 0 instructions: 127500865 cycles: 37766137 heartbeat IPC: 3.349 cumulative IPC: 3.368 (Simulation time: 00 hr 11 min 25 sec)
Heartbeat CPU 0 instructions: 128000872 cycles: 37910667 heartbeat IPC: 3.46 cumulative IPC: 3.368 (Simulation time: 00 hr 11 min 27 sec)
Heartbeat CPU 0 instructions: 128500877 cycles: 38060805 heartbeat IPC: 3.33 cumulative IPC: 3.368 (Simulation time: 00 hr 11 min 29 sec)
Heartbeat CPU 0 instructions: 129000882 cycles: 38203866 heartbeat IPC: 3.495 cumulative IPC: 3.369 (Simulation time: 00 hr 11 min 31 sec)
Heartbeat CPU 0 instructions: 129500889 cycles: 38354470 heartbeat IPC: 3.32 cumulative IPC: 3.369 (Simulation time: 00 hr 11 min 34 sec)
Heartbeat CPU 0 instructions: 130000896 cycles: 38498850 heartbeat IPC: 3.463 cumulative IPC: 3.369 (Simulation time: 00 hr 11 min 36 sec)
Heartbeat CPU 0 instructions: 130500898 cycles: 38647405 heartbeat IPC: 3.366 cumulative IPC: 3.369 (Simulation time: 00 hr 11 min 38 sec)
Heartbeat CPU 0 instructions: 131000901 cycles: 38790889 heartbeat IPC: 3.485 cumulative IPC: 3.37 (Simulation time: 00 hr 11 min 40 sec)
Heartbeat CPU 0 instructions: 131500908 cycles: 38939223 heartbeat IPC: 3.371 cumulative IPC: 3.37 (Simulation time: 00 hr 11 min 42 sec)
Heartbeat CPU 0 instructions: 132000911 cycles: 39085311 heartbeat IPC: 3.423 cumulative IPC: 3.37 (Simulation time: 00 hr 11 min 44 sec)
Heartbeat CPU 0 instructions: 132500918 cycles: 39230089 heartbeat IPC: 3.454 cumulative IPC: 3.371 (Simulation time: 00 hr 11 min 47 sec)
Heartbeat CPU 0 instructions: 133000921 cycles: 39378386 heartbeat IPC: 3.372 cumulative IPC: 3.371 (Simulation time: 00 hr 11 min 49 sec)
Heartbeat CPU 0 instructions: 133500922 cycles: 39523427 heartbeat IPC: 3.447 cumulative IPC: 3.371 (Simulation time: 00 hr 11 min 51 sec)
Heartbeat CPU 0 instructions: 134000922 cycles: 39673530 heartbeat IPC: 3.331 cumulative IPC: 3.371 (Simulation time: 00 hr 11 min 53 sec)
Heartbeat CPU 0 instructions: 134500929 cycles: 39817512 heartbeat IPC: 3.473 cumulative IPC: 3.372 (Simulation time: 00 hr 11 min 55 sec)
Heartbeat CPU 0 instructions: 135000932 cycles: 39967330 heartbeat IPC: 3.337 cumulative IPC: 3.371 (Simulation time: 00 hr 11 min 58 sec)
Heartbeat CPU 0 instructions: 135500935 cycles: 40110883 heartbeat IPC: 3.483 cumulative IPC: 3.372 (Simulation time: 00 hr 12 min 00 sec)
Heartbeat CPU 0 instructions: 136000936 cycles: 40260095 heartbeat IPC: 3.351 cumulative IPC: 3.372 (Simulation time: 00 hr 12 min 02 sec)
Heartbeat CPU 0 instructions: 136500941 cycles: 40405393 heartbeat IPC: 3.441 cumulative IPC: 3.372 (Simulation time: 00 hr 12 min 04 sec)
Heartbeat CPU 0 instructions: 137000944 cycles: 40554039 heartbeat IPC: 3.364 cumulative IPC: 3.372 (Simulation time: 00 hr 12 min 06 sec)
Heartbeat CPU 0 instructions: 137500945 cycles: 40696837 heartbeat IPC: 3.501 cumulative IPC: 3.373 (Simulation time: 00 hr 12 min 09 sec)
Heartbeat CPU 0 instructions: 138000945 cycles: 40847117 heartbeat IPC: 3.327 cumulative IPC: 3.373 (Simulation time: 00 hr 12 min 11 sec)
Heartbeat CPU 0 instructions: 138500948 cycles: 40991288 heartbeat IPC: 3.468 cumulative IPC: 3.373 (Simulation time: 00 hr 12 min 13 sec)
Heartbeat CPU 0 instructions: 139000951 cycles: 41140299 heartbeat IPC: 3.355 cumulative IPC: 3.373 (Simulation time: 00 hr 12 min 15 sec)
Heartbeat CPU 0 instructions: 139500958 cycles: 41283683 heartbeat IPC: 3.487 cumulative IPC: 3.374 (Simulation time: 00 hr 12 min 17 sec)
Heartbeat CPU 0 instructions: 140000961 cycles: 41433115 heartbeat IPC: 3.346 cumulative IPC: 3.374 (Simulation time: 00 hr 12 min 19 sec)
Heartbeat CPU 0 instructions: 140500968 cycles: 41577217 heartbeat IPC: 3.47 cumulative IPC: 3.374 (Simulation time: 00 hr 12 min 22 sec)
Heartbeat CPU 0 instructions: 141000973 cycles: 41726079 heartbeat IPC: 3.359 cumulative IPC: 3.374 (Simulation time: 00 hr 12 min 24 sec)
Heartbeat CPU 0 instructions: 141500977 cycles: 41870179 heartbeat IPC: 3.47 cumulative IPC: 3.374 (Simulation time: 00 hr 12 min 26 sec)
Heartbeat CPU 0 instructions: 142000980 cycles: 42018734 heartbeat IPC: 3.366 cumulative IPC: 3.374 (Simulation time: 00 hr 12 min 28 sec)
Heartbeat CPU 0 instructions: 142500981 cycles: 42163583 heartbeat IPC: 3.452 cumulative IPC: 3.375 (Simulation time: 00 hr 12 min 30 sec)
Heartbeat CPU 0 instructions: 143000988 cycles: 42312749 heartbeat IPC: 3.352 cumulative IPC: 3.375 (Simulation time: 00 hr 12 min 33 sec)
Heartbeat CPU 0 instructions: 143500989 cycles: 42456234 heartbeat IPC: 3.485 cumulative IPC: 3.375 (Simulation time: 00 hr 12 min 35 sec)
Heartbeat CPU 0 instructions: 144000992 cycles: 42605624 heartbeat IPC: 3.347 cumulative IPC: 3.375 (Simulation time: 00 hr 12 min 37 sec)
Heartbeat CPU 0 instructions: 144500995 cycles: 42749864 heartbeat IPC: 3.466 cumulative IPC: 3.376 (Simulation time: 00 hr 12 min 39 sec)
Heartbeat CPU 0 instructions: 145000999 cycles: 42899378 heartbeat IPC: 3.344 cumulative IPC: 3.375 (Simulation time: 00 hr 12 min 41 sec)
Heartbeat CPU 0 instructions: 145501004 cycles: 43042483 heartbeat IPC: 3.494 cumulative IPC: 3.376 (Simulation time: 00 hr 12 min 43 sec)
Heartbeat CPU 0 instructions: 146001004 cycles: 43191998 heartbeat IPC: 3.344 cumulative IPC: 3.376 (Simulation time: 00 hr 12 min 46 sec)
Heartbeat CPU 0 instructions: 146501006 cycles: 43335940 heartbeat IPC: 3.474 cumulative IPC: 3.376 (Simulation time: 00 hr 12 min 48 sec)
Heartbeat CPU 0 instructions: 147001009 cycles: 43486977 heartbeat IPC: 3.31 cumulative IPC: 3.376 (Simulation time: 00 hr 12 min 50 sec)
Heartbeat CPU 0 instructions: 147501012 cycles: 43630449 heartbeat IPC: 3.485 cumulative IPC: 3.377 (Simulation time: 00 hr 12 min 52 sec)
Heartbeat CPU 0 instructions: 148001018 cycles: 43777740 heartbeat IPC: 3.395 cumulative IPC: 3.377 (Simulation time: 00 hr 12 min 54 sec)
Heartbeat CPU 0 instructions: 148501018 cycles: 43918021 heartbeat IPC: 3.564 cumulative IPC: 3.378 (Simulation time: 00 hr 12 min 57 sec)
Heartbeat CPU 0 instructions: 149001022 cycles: 44060963 heartbeat IPC: 3.498 cumulative IPC: 3.378 (Simulation time: 00 hr 12 min 59 sec)
Heartbeat CPU 0 instructions: 149501024 cycles: 44198987 heartbeat IPC: 3.623 cumulative IPC: 3.379 (Simulation time: 00 hr 13 min 01 sec)
Heartbeat CPU 0 instructions: 150001029 cycles: 44340491 heartbeat IPC: 3.534 cumulative IPC: 3.38 (Simulation time: 00 hr 13 min 03 sec)
Heartbeat CPU 0 instructions: 150501032 cycles: 44478733 heartbeat IPC: 3.617 cumulative IPC: 3.381 (Simulation time: 00 hr 13 min 05 sec)
Heartbeat CPU 0 instructions: 151001039 cycles: 44619590 heartbeat IPC: 3.55 cumulative IPC: 3.382 (Simulation time: 00 hr 13 min 07 sec)
Heartbeat CPU 0 instructions: 151501042 cycles: 44757305 heartbeat IPC: 3.631 cumulative IPC: 3.383 (Simulation time: 00 hr 13 min 09 sec)
Heartbeat CPU 0 instructions: 152001045 cycles: 44898226 heartbeat IPC: 3.548 cumulative IPC: 3.384 (Simulation time: 00 hr 13 min 11 sec)
Heartbeat CPU 0 instructions: 152501046 cycles: 45036819 heartbeat IPC: 3.608 cumulative IPC: 3.385 (Simulation time: 00 hr 13 min 14 sec)
Heartbeat CPU 0 instructions: 153001050 cycles: 45178905 heartbeat IPC: 3.519 cumulative IPC: 3.385 (Simulation time: 00 hr 13 min 16 sec)
Heartbeat CPU 0 instructions: 153501053 cycles: 45318922 heartbeat IPC: 3.571 cumulative IPC: 3.386 (Simulation time: 00 hr 13 min 18 sec)
Heartbeat CPU 0 instructions: 154001058 cycles: 45460892 heartbeat IPC: 3.522 cumulative IPC: 3.387 (Simulation time: 00 hr 13 min 20 sec)
Heartbeat CPU 0 instructions: 154501058 cycles: 45602148 heartbeat IPC: 3.54 cumulative IPC: 3.388 (Simulation time: 00 hr 13 min 22 sec)
Heartbeat CPU 0 instructions: 155001062 cycles: 45743566 heartbeat IPC: 3.536 cumulative IPC: 3.388 (Simulation time: 00 hr 13 min 24 sec)
Heartbeat CPU 0 instructions: 155501066 cycles: 45887006 heartbeat IPC: 3.486 cumulative IPC: 3.389 (Simulation time: 00 hr 13 min 26 sec)
Heartbeat CPU 0 instructions: 156001067 cycles: 46027024 heartbeat IPC: 3.571 cumulative IPC: 3.39 (Simulation time: 00 hr 13 min 29 sec)
Heartbeat CPU 0 instructions: 156501072 cycles: 46168499 heartbeat IPC: 3.534 cumulative IPC: 3.39 (Simulation time: 00 hr 13 min 31 sec)
Heartbeat CPU 0 instructions: 157001077 cycles: 46307569 heartbeat IPC: 3.595 cumulative IPC: 3.391 (Simulation time: 00 hr 13 min 33 sec)
Heartbeat CPU 0 instructions: 157501080 cycles: 46453193 heartbeat IPC: 3.434 cumulative IPC: 3.391 (Simulation time: 00 hr 13 min 35 sec)
Heartbeat CPU 0 instructions: 158001083 cycles: 46592196 heartbeat IPC: 3.597 cumulative IPC: 3.392 (Simulation time: 00 hr 13 min 37 sec)
Heartbeat CPU 0 instructions: 158501086 cycles: 46736788 heartbeat IPC: 3.458 cumulative IPC: 3.393 (Simulation time: 00 hr 13 min 39 sec)
Heartbeat CPU 0 instructions: 159001087 cycles: 46874893 heartbeat IPC: 3.62 cumulative IPC: 3.394 (Simulation time: 00 hr 13 min 41 sec)
Heartbeat CPU 0 instructions: 159501094 cycles: 47016138 heartbeat IPC: 3.54 cumulative IPC: 3.394 (Simulation time: 00 hr 13 min 44 sec)
Heartbeat CPU 0 instructions: 160001098 cycles: 47156958 heartbeat IPC: 3.551 cumulative IPC: 3.395 (Simulation time: 00 hr 13 min 46 sec)
Heartbeat CPU 0 instructions: 160501101 cycles: 47301890 heartbeat IPC: 3.45 cumulative IPC: 3.395 (Simulation time: 00 hr 13 min 48 sec)
Heartbeat CPU 0 instructions: 161001101 cycles: 47441015 heartbeat IPC: 3.594 cumulative IPC: 3.396 (Simulation time: 00 hr 13 min 50 sec)
Heartbeat CPU 0 instructions: 161501104 cycles: 47584632 heartbeat IPC: 3.482 cumulative IPC: 3.396 (Simulation time: 00 hr 13 min 52 sec)
Heartbeat CPU 0 instructions: 162001110 cycles: 47724349 heartbeat IPC: 3.579 cumulative IPC: 3.397 (Simulation time: 00 hr 13 min 54 sec)
Heartbeat CPU 0 instructions: 162501117 cycles: 47867407 heartbeat IPC: 3.495 cumulative IPC: 3.397 (Simulation time: 00 hr 13 min 56 sec)
Heartbeat CPU 0 instructions: 163001118 cycles: 48005930 heartbeat IPC: 3.61 cumulative IPC: 3.398 (Simulation time: 00 hr 13 min 59 sec)
Heartbeat CPU 0 instructions: 163501118 cycles: 48151436 heartbeat IPC: 3.436 cumulative IPC: 3.399 (Simulation time: 00 hr 14 min 01 sec)
Heartbeat CPU 0 instructions: 164001121 cycles: 48290413 heartbeat IPC: 3.598 cumulative IPC: 3.399 (Simulation time: 00 hr 14 min 03 sec)
Heartbeat CPU 0 instructions: 164501124 cycles: 48435027 heartbeat IPC: 3.458 cumulative IPC: 3.4 (Simulation time: 00 hr 14 min 05 sec)
Heartbeat CPU 0 instructions: 165001125 cycles: 48576752 heartbeat IPC: 3.528 cumulative IPC: 3.4 (Simulation time: 00 hr 14 min 07 sec)
Heartbeat CPU 0 instructions: 165501126 cycles: 48718844 heartbeat IPC: 3.519 cumulative IPC: 3.401 (Simulation time: 00 hr 14 min 09 sec)
Heartbeat CPU 0 instructions: 166001133 cycles: 48856382 heartbeat IPC: 3.635 cumulative IPC: 3.402 (Simulation time: 00 hr 14 min 11 sec)
Heartbeat CPU 0 instructions: 166501140 cycles: 48997782 heartbeat IPC: 3.536 cumulative IPC: 3.402 (Simulation time: 00 hr 14 min 14 sec)
Heartbeat CPU 0 instructions: 167001146 cycles: 49136469 heartbeat IPC: 3.605 cumulative IPC: 3.403 (Simulation time: 00 hr 14 min 16 sec)
Heartbeat CPU 0 instructions: 167501153 cycles: 49277343 heartbeat IPC: 3.549 cumulative IPC: 3.404 (Simulation time: 00 hr 14 min 18 sec)
Heartbeat CPU 0 instructions: 168001157 cycles: 49417697 heartbeat IPC: 3.562 cumulative IPC: 3.404 (Simulation time: 00 hr 14 min 20 sec)
Heartbeat CPU 0 instructions: 168501163 cycles: 49563210 heartbeat IPC: 3.436 cumulative IPC: 3.404 (Simulation time: 00 hr 14 min 22 sec)
Heartbeat CPU 0 instructions: 169001164 cycles: 49702130 heartbeat IPC: 3.599 cumulative IPC: 3.405 (Simulation time: 00 hr 14 min 24 sec)
Heartbeat CPU 0 instructions: 169501169 cycles: 49843664 heartbeat IPC: 3.533 cumulative IPC: 3.406 (Simulation time: 00 hr 14 min 26 sec)
Heartbeat CPU 0 instructions: 170001172 cycles: 49984845 heartbeat IPC: 3.542 cumulative IPC: 3.406 (Simulation time: 00 hr 14 min 29 sec)
Heartbeat CPU 0 instructions: 170501172 cycles: 50127873 heartbeat IPC: 3.496 cumulative IPC: 3.407 (Simulation time: 00 hr 14 min 31 sec)
Heartbeat CPU 0 instructions: 171001177 cycles: 50267502 heartbeat IPC: 3.581 cumulative IPC: 3.407 (Simulation time: 00 hr 14 min 33 sec)
Heartbeat CPU 0 instructions: 171501182 cycles: 50413007 heartbeat IPC: 3.436 cumulative IPC: 3.407 (Simulation time: 00 hr 14 min 35 sec)
Heartbeat CPU 0 instructions: 172001183 cycles: 50552651 heartbeat IPC: 3.581 cumulative IPC: 3.408 (Simulation time: 00 hr 14 min 37 sec)
Heartbeat CPU 0 instructions: 172501190 cycles: 50696737 heartbeat IPC: 3.47 cumulative IPC: 3.408 (Simulation time: 00 hr 14 min 39 sec)
Heartbeat CPU 0 instructions: 173001197 cycles: 50835449 heartbeat IPC: 3.605 cumulative IPC: 3.409 (Simulation time: 00 hr 14 min 41 sec)
Heartbeat CPU 0 instructions: 173501200 cycles: 50977536 heartbeat IPC: 3.519 cumulative IPC: 3.409 (Simulation time: 00 hr 14 min 44 sec)
Heartbeat CPU 0 instructions: 174001203 cycles: 51117715 heartbeat IPC: 3.567 cumulative IPC: 3.41 (Simulation time: 00 hr 14 min 46 sec)
Heartbeat CPU 0 instructions: 174501208 cycles: 51260467 heartbeat IPC: 3.503 cumulative IPC: 3.41 (Simulation time: 00 hr 14 min 48 sec)
Heartbeat CPU 0 instructions: 175001208 cycles: 51398668 heartbeat IPC: 3.618 cumulative IPC: 3.411 (Simulation time: 00 hr 14 min 50 sec)
Heartbeat CPU 0 instructions: 175501208 cycles: 51545962 heartbeat IPC: 3.395 cumulative IPC: 3.411 (Simulation time: 00 hr 14 min 52 sec)
Heartbeat CPU 0 instructions: 176001213 cycles: 51683888 heartbeat IPC: 3.625 cumulative IPC: 3.412 (Simulation time: 00 hr 14 min 54 sec)
Heartbeat CPU 0 instructions: 176501220 cycles: 51823976 heartbeat IPC: 3.569 cumulative IPC: 3.413 (Simulation time: 00 hr 14 min 56 sec)
Heartbeat CPU 0 instructions: 177001223 cycles: 51964241 heartbeat IPC: 3.565 cumulative IPC: 3.413 (Simulation time: 00 hr 14 min 58 sec)
Heartbeat CPU 0 instructions: 177501230 cycles: 52103103 heartbeat IPC: 3.601 cumulative IPC: 3.414 (Simulation time: 00 hr 15 min 01 sec)
Heartbeat CPU 0 instructions: 178001232 cycles: 52245592 heartbeat IPC: 3.509 cumulative IPC: 3.414 (Simulation time: 00 hr 15 min 03 sec)
Heartbeat CPU 0 instructions: 178501235 cycles: 52383474 heartbeat IPC: 3.626 cumulative IPC: 3.415 (Simulation time: 00 hr 15 min 05 sec)
Heartbeat CPU 0 instructions: 179001242 cycles: 52525722 heartbeat IPC: 3.515 cumulative IPC: 3.415 (Simulation time: 00 hr 15 min 07 sec)
Heartbeat CPU 0 instructions: 179501249 cycles: 52664166 heartbeat IPC: 3.612 cumulative IPC: 3.416 (Simulation time: 00 hr 15 min 09 sec)
Heartbeat CPU 0 instructions: 180001256 cycles: 52804328 heartbeat IPC: 3.567 cumulative IPC: 3.417 (Simulation time: 00 hr 15 min 11 sec)
Heartbeat CPU 0 instructions: 180501259 cycles: 52941074 heartbeat IPC: 3.656 cumulative IPC: 3.417 (Simulation time: 00 hr 15 min 13 sec)
Heartbeat CPU 0 instructions: 181001262 cycles: 53083800 heartbeat IPC: 3.503 cumulative IPC: 3.418 (Simulation time: 00 hr 15 min 16 sec)
Heartbeat CPU 0 instructions: 181501264 cycles: 53221745 heartbeat IPC: 3.625 cumulative IPC: 3.419 (Simulation time: 00 hr 15 min 18 sec)
Heartbeat CPU 0 instructions: 182001271 cycles: 53362956 heartbeat IPC: 3.541 cumulative IPC: 3.419 (Simulation time: 00 hr 15 min 20 sec)
Heartbeat CPU 0 instructions: 182501274 cycles: 53499772 heartbeat IPC: 3.655 cumulative IPC: 3.42 (Simulation time: 00 hr 15 min 22 sec)
Heartbeat CPU 0 instructions: 183001281 cycles: 53641065 heartbeat IPC: 3.539 cumulative IPC: 3.42 (Simulation time: 00 hr 15 min 24 sec)
Heartbeat CPU 0 instructions: 183501288 cycles: 53779685 heartbeat IPC: 3.607 cumulative IPC: 3.421 (Simulation time: 00 hr 15 min 26 sec)
Heartbeat CPU 0 instructions: 184001295 cycles: 53921605 heartbeat IPC: 3.523 cumulative IPC: 3.421 (Simulation time: 00 hr 15 min 28 sec)
Heartbeat CPU 0 instructions: 184501300 cycles: 54061390 heartbeat IPC: 3.577 cumulative IPC: 3.422 (Simulation time: 00 hr 15 min 30 sec)
Heartbeat CPU 0 instructions: 185001301 cycles: 54203458 heartbeat IPC: 3.519 cumulative IPC: 3.422 (Simulation time: 00 hr 15 min 32 sec)
Heartbeat CPU 0 instructions: 185501303 cycles: 54342412 heartbeat IPC: 3.598 cumulative IPC: 3.423 (Simulation time: 00 hr 15 min 35 sec)
Heartbeat CPU 0 instructions: 186001306 cycles: 54485189 heartbeat IPC: 3.502 cumulative IPC: 3.423 (Simulation time: 00 hr 15 min 37 sec)
Heartbeat CPU 0 instructions: 186501309 cycles: 54623989 heartbeat IPC: 3.602 cumulative IPC: 3.424 (Simulation time: 00 hr 15 min 39 sec)
Heartbeat CPU 0 instructions: 187001316 cycles: 54766439 heartbeat IPC: 3.51 cumulative IPC: 3.424 (Simulation time: 00 hr 15 min 41 sec)
Heartbeat CPU 0 instructions: 187501319 cycles: 54903496 heartbeat IPC: 3.648 cumulative IPC: 3.425 (Simulation time: 00 hr 15 min 43 sec)
Heartbeat CPU 0 instructions: 188001322 cycles: 55047692 heartbeat IPC: 3.468 cumulative IPC: 3.425 (Simulation time: 00 hr 15 min 45 sec)
Heartbeat CPU 0 instructions: 188501323 cycles: 55186176 heartbeat IPC: 3.611 cumulative IPC: 3.426 (Simulation time: 00 hr 15 min 47 sec)
Heartbeat CPU 0 instructions: 189001323 cycles: 55328425 heartbeat IPC: 3.515 cumulative IPC: 3.426 (Simulation time: 00 hr 15 min 50 sec)
Heartbeat CPU 0 instructions: 189501330 cycles: 55466834 heartbeat IPC: 3.613 cumulative IPC: 3.427 (Simulation time: 00 hr 15 min 52 sec)
Heartbeat CPU 0 instructions: 190001337 cycles: 55609496 heartbeat IPC: 3.505 cumulative IPC: 3.427 (Simulation time: 00 hr 15 min 54 sec)
Heartbeat CPU 0 instructions: 190501340 cycles: 55750273 heartbeat IPC: 3.552 cumulative IPC: 3.427 (Simulation time: 00 hr 15 min 56 sec)
Heartbeat CPU 0 instructions: 191001343 cycles: 55892601 heartbeat IPC: 3.513 cumulative IPC: 3.428 (Simulation time: 00 hr 15 min 58 sec)
Heartbeat CPU 0 instructions: 191501350 cycles: 56033048 heartbeat IPC: 3.56 cumulative IPC: 3.428 (Simulation time: 00 hr 16 min 00 sec)
Heartbeat CPU 0 instructions: 192001354 cycles: 56174440 heartbeat IPC: 3.536 cumulative IPC: 3.428 (Simulation time: 00 hr 16 min 02 sec)
Heartbeat CPU 0 instructions: 192501355 cycles: 56313680 heartbeat IPC: 3.591 cumulative IPC: 3.429 (Simulation time: 00 hr 16 min 04 sec)
Heartbeat CPU 0 instructions: 193001358 cycles: 56454624 heartbeat IPC: 3.548 cumulative IPC: 3.429 (Simulation time: 00 hr 16 min 07 sec)
Heartbeat CPU 0 instructions: 193501362 cycles: 56592514 heartbeat IPC: 3.626 cumulative IPC: 3.43 (Simulation time: 00 hr 16 min 09 sec)
Heartbeat CPU 0 instructions: 194001367 cycles: 56733788 heartbeat IPC: 3.539 cumulative IPC: 3.43 (Simulation time: 00 hr 16 min 11 sec)
Heartbeat CPU 0 instructions: 194501367 cycles: 56871569 heartbeat IPC: 3.629 cumulative IPC: 3.431 (Simulation time: 00 hr 16 min 13 sec)
Heartbeat CPU 0 instructions: 195001370 cycles: 57013276 heartbeat IPC: 3.528 cumulative IPC: 3.431 (Simulation time: 00 hr 16 min 15 sec)
Heartbeat CPU 0 instructions: 195501373 cycles: 57151584 heartbeat IPC: 3.615 cumulative IPC: 3.432 (Simulation time: 00 hr 16 min 17 sec)
Heartbeat CPU 0 instructions: 196001379 cycles: 57295222 heartbeat IPC: 3.481 cumulative IPC: 3.432 (Simulation time: 00 hr 16 min 19 sec)
Heartbeat CPU 0 instructions: 196501382 cycles: 57432722 heartbeat IPC: 3.636 cumulative IPC: 3.433 (Simulation time: 00 hr 16 min 21 sec)
Heartbeat CPU 0 instructions: 197001389 cycles: 57575634 heartbeat IPC: 3.499 cumulative IPC: 3.433 (Simulation time: 00 hr 16 min 24 sec)
Heartbeat CPU 0 instructions: 197501396 cycles: 57712760 heartbeat IPC: 3.646 cumulative IPC: 3.434 (Simulation time: 00 hr 16 min 26 sec)
Heartbeat CPU 0 instructions: 198001403 cycles: 57854353 heartbeat IPC: 3.531 cumulative IPC: 3.434 (Simulation time: 00 hr 16 min 28 sec)
Heartbeat CPU 0 instructions: 198501405 cycles: 57993028 heartbeat IPC: 3.606 cumulative IPC: 3.434 (Simulation time: 00 hr 16 min 30 sec)
Heartbeat CPU 0 instructions: 199001405 cycles: 58131740 heartbeat IPC: 3.605 cumulative IPC: 3.435 (Simulation time: 00 hr 16 min 32 sec)
Heartbeat CPU 0 instructions: 199501408 cycles: 58273084 heartbeat IPC: 3.537 cumulative IPC: 3.435 (Simulation time: 00 hr 16 min 34 sec)
Heartbeat CPU 0 instructions: 200001410 cycles: 58412687 heartbeat IPC: 3.582 cumulative IPC: 3.436 (Simulation time: 00 hr 16 min 36 sec)
Heartbeat CPU 0 instructions: 200501417 cycles: 58553707 heartbeat IPC: 3.546 cumulative IPC: 3.436 (Simulation time: 00 hr 16 min 38 sec)
Heartbeat CPU 0 instructions: 201001418 cycles: 58691388 heartbeat IPC: 3.632 cumulative IPC: 3.437 (Simulation time: 00 hr 16 min 41 sec)
Heartbeat CPU 0 instructions: 201501423 cycles: 58833929 heartbeat IPC: 3.508 cumulative IPC: 3.437 (Simulation time: 00 hr 16 min 43 sec)
Heartbeat CPU 0 instructions: 202001430 cycles: 58971332 heartbeat IPC: 3.639 cumulative IPC: 3.438 (Simulation time: 00 hr 16 min 45 sec)
Heartbeat CPU 0 instructions: 202501437 cycles: 59113077 heartbeat IPC: 3.528 cumulative IPC: 3.438 (Simulation time: 00 hr 16 min 47 sec)
Heartbeat CPU 0 instructions: 203001439 cycles: 59256047 heartbeat IPC: 3.497 cumulative IPC: 3.438 (Simulation time: 00 hr 16 min 49 sec)
Heartbeat CPU 0 instructions: 203501445 cycles: 59399365 heartbeat IPC: 3.489 cumulative IPC: 3.438 (Simulation time: 00 hr 16 min 51 sec)
Heartbeat CPU 0 instructions: 204001448 cycles: 59537732 heartbeat IPC: 3.614 cumulative IPC: 3.439 (Simulation time: 00 hr 16 min 53 sec)
Heartbeat CPU 0 instructions: 204501453 cycles: 59678091 heartbeat IPC: 3.562 cumulative IPC: 3.439 (Simulation time: 00 hr 16 min 55 sec)
Heartbeat CPU 0 instructions: 205001458 cycles: 59817444 heartbeat IPC: 3.588 cumulative IPC: 3.44 (Simulation time: 00 hr 16 min 58 sec)
Heartbeat CPU 0 instructions: 205501461 cycles: 59960010 heartbeat IPC: 3.507 cumulative IPC: 3.44 (Simulation time: 00 hr 17 min 00 sec)
Heartbeat CPU 0 instructions: 206001464 cycles: 60098485 heartbeat IPC: 3.611 cumulative IPC: 3.44 (Simulation time: 00 hr 17 min 02 sec)
Heartbeat CPU 0 instructions: 206501465 cycles: 60241242 heartbeat IPC: 3.502 cumulative IPC: 3.441 (Simulation time: 00 hr 17 min 04 sec)
Heartbeat CPU 0 instructions: 207001465 cycles: 60379947 heartbeat IPC: 3.605 cumulative IPC: 3.441 (Simulation time: 00 hr 17 min 06 sec)
Heartbeat CPU 0 instructions: 207501469 cycles: 60521607 heartbeat IPC: 3.53 cumulative IPC: 3.441 (Simulation time: 00 hr 17 min 08 sec)
Heartbeat CPU 0 instructions: 208001471 cycles: 60659390 heartbeat IPC: 3.629 cumulative IPC: 3.442 (Simulation time: 00 hr 17 min 10 sec)
Heartbeat CPU 0 instructions: 208501474 cycles: 60799008 heartbeat IPC: 3.581 cumulative IPC: 3.442 (Simulation time: 00 hr 17 min 12 sec)
Heartbeat CPU 0 instructions: 209001481 cycles: 60936737 heartbeat IPC: 3.63 cumulative IPC: 3.443 (Simulation time: 00 hr 17 min 14 sec)
Heartbeat CPU 0 instructions: 209501484 cycles: 61077994 heartbeat IPC: 3.54 cumulative IPC: 3.443 (Simulation time: 00 hr 17 min 17 sec)
Heartbeat CPU 0 instructions: 210001485 cycles: 61215906 heartbeat IPC: 3.626 cumulative IPC: 3.444 (Simulation time: 00 hr 17 min 19 sec)
Heartbeat CPU 0 instructions: 210501485 cycles: 61358123 heartbeat IPC: 3.516 cumulative IPC: 3.444 (Simulation time: 00 hr 17 min 21 sec)
Heartbeat CPU 0 instructions: 211001490 cycles: 61495688 heartbeat IPC: 3.635 cumulative IPC: 3.445 (Simulation time: 00 hr 17 min 23 sec)
Heartbeat CPU 0 instructions: 211501495 cycles: 61637122 heartbeat IPC: 3.535 cumulative IPC: 3.445 (Simulation time: 00 hr 17 min 25 sec)
Heartbeat CPU 0 instructions: 212001498 cycles: 61778131 heartbeat IPC: 3.546 cumulative IPC: 3.445 (Simulation time: 00 hr 17 min 27 sec)
Heartbeat CPU 0 instructions: 212501501 cycles: 61921303 heartbeat IPC: 3.492 cumulative IPC: 3.445 (Simulation time: 00 hr 17 min 29 sec)
Heartbeat CPU 0 instructions: 213001508 cycles: 62060719 heartbeat IPC: 3.586 cumulative IPC: 3.446 (Simulation time: 00 hr 17 min 31 sec)
Heartbeat CPU 0 instructions: 213501511 cycles: 62202932 heartbeat IPC: 3.516 cumulative IPC: 3.446 (Simulation time: 00 hr 17 min 34 sec)
Heartbeat CPU 0 instructions: 214001516 cycles: 62342263 heartbeat IPC: 3.589 cumulative IPC: 3.446 (Simulation time: 00 hr 17 min 36 sec)
Heartbeat CPU 0 instructions: 214501516 cycles: 62484870 heartbeat IPC: 3.506 cumulative IPC: 3.446 (Simulation time: 00 hr 17 min 38 sec)
Heartbeat CPU 0 instructions: 215001518 cycles: 62622702 heartbeat IPC: 3.628 cumulative IPC: 3.447 (Simulation time: 00 hr 17 min 40 sec)
Heartbeat CPU 0 instructions: 215501522 cycles: 62765579 heartbeat IPC: 3.5 cumulative IPC: 3.447 (Simulation time: 00 hr 17 min 42 sec)
Heartbeat CPU 0 instructions: 216001529 cycles: 62903088 heartbeat IPC: 3.636 cumulative IPC: 3.448 (Simulation time: 00 hr 17 min 44 sec)
Heartbeat CPU 0 instructions: 216501534 cycles: 63045714 heartbeat IPC: 3.506 cumulative IPC: 3.448 (Simulation time: 00 hr 17 min 46 sec)
Heartbeat CPU 0 instructions: 217001535 cycles: 63183170 heartbeat IPC: 3.638 cumulative IPC: 3.448 (Simulation time: 00 hr 17 min 48 sec)
Heartbeat CPU 0 instructions: 217501542 cycles: 63324757 heartbeat IPC: 3.531 cumulative IPC: 3.449 (Simulation time: 00 hr 17 min 51 sec)
Heartbeat CPU 0 instructions: 218001542 cycles: 63462155 heartbeat IPC: 3.639 cumulative IPC: 3.449 (Simulation time: 00 hr 17 min 53 sec)
Heartbeat CPU 0 instructions: 218501543 cycles: 63603242 heartbeat IPC: 3.544 cumulative IPC: 3.449 (Simulation time: 00 hr 17 min 55 sec)
Heartbeat CPU 0 instructions: 219001550 cycles: 63740603 heartbeat IPC: 3.64 cumulative IPC: 3.45 (Simulation time: 00 hr 17 min 57 sec)
Heartbeat CPU 0 instructions: 219501557 cycles: 63882766 heartbeat IPC: 3.517 cumulative IPC: 3.45 (Simulation time: 00 hr 17 min 59 sec)
Heartbeat CPU 0 instructions: 220001564 cycles: 64021132 heartbeat IPC: 3.614 cumulative IPC: 3.451 (Simulation time: 00 hr 18 min 01 sec)
Heartbeat CPU 0 instructions: 220501571 cycles: 64161945 heartbeat IPC: 3.551 cumulative IPC: 3.451 (Simulation time: 00 hr 18 min 03 sec)
Heartbeat CPU 0 instructions: 221001576 cycles: 64301142 heartbeat IPC: 3.592 cumulative IPC: 3.451 (Simulation time: 00 hr 18 min 05 sec)
Heartbeat CPU 0 instructions: 221501583 cycles: 64440795 heartbeat IPC: 3.58 cumulative IPC: 3.452 (Simulation time: 00 hr 18 min 08 sec)
Heartbeat CPU 0 instructions: 222001585 cycles: 64582923 heartbeat IPC: 3.518 cumulative IPC: 3.452 (Simulation time: 00 hr 18 min 10 sec)
Heartbeat CPU 0 instructions: 222501586 cycles: 64722499 heartbeat IPC: 3.582 cumulative IPC: 3.452 (Simulation time: 00 hr 18 min 12 sec)
Heartbeat CPU 0 instructions: 223001593 cycles: 64863643 heartbeat IPC: 3.543 cumulative IPC: 3.452 (Simulation time: 00 hr 18 min 14 sec)
Heartbeat CPU 0 instructions: 223501600 cycles: 65001948 heartbeat IPC: 3.615 cumulative IPC: 3.453 (Simulation time: 00 hr 18 min 16 sec)
Heartbeat CPU 0 instructions: 224001601 cycles: 65144654 heartbeat IPC: 3.504 cumulative IPC: 3.453 (Simulation time: 00 hr 18 min 18 sec)
Heartbeat CPU 0 instructions: 224501606 cycles: 65284462 heartbeat IPC: 3.576 cumulative IPC: 3.453 (Simulation time: 00 hr 18 min 20 sec)
Heartbeat CPU 0 instructions: 225001611 cycles: 65425249 heartbeat IPC: 3.551 cumulative IPC: 3.454 (Simulation time: 00 hr 18 min 22 sec)
Heartbeat CPU 0 instructions: 225501614 cycles: 65564314 heartbeat IPC: 3.595 cumulative IPC: 3.454 (Simulation time: 00 hr 18 min 25 sec)
Heartbeat CPU 0 instructions: 226001618 cycles: 65705536 heartbeat IPC: 3.541 cumulative IPC: 3.454 (Simulation time: 00 hr 18 min 27 sec)
Heartbeat CPU 0 instructions: 226501625 cycles: 65845896 heartbeat IPC: 3.562 cumulative IPC: 3.455 (Simulation time: 00 hr 18 min 29 sec)
Heartbeat CPU 0 instructions: 227001628 cycles: 65987106 heartbeat IPC: 3.541 cumulative IPC: 3.455 (Simulation time: 00 hr 18 min 31 sec)
Heartbeat CPU 0 instructions: 227501635 cycles: 66125271 heartbeat IPC: 3.619 cumulative IPC: 3.455 (Simulation time: 00 hr 18 min 33 sec)
Heartbeat CPU 0 instructions: 228001638 cycles: 66266112 heartbeat IPC: 3.55 cumulative IPC: 3.456 (Simulation time: 00 hr 18 min 35 sec)
Heartbeat CPU 0 instructions: 228501643 cycles: 66404650 heartbeat IPC: 3.609 cumulative IPC: 3.456 (Simulation time: 00 hr 18 min 37 sec)
Heartbeat CPU 0 instructions: 229001643 cycles: 66547849 heartbeat IPC: 3.492 cumulative IPC: 3.456 (Simulation time: 00 hr 18 min 39 sec)
Heartbeat CPU 0 instructions: 229501644 cycles: 66687238 heartbeat IPC: 3.587 cumulative IPC: 3.456 (Simulation time: 00 hr 18 min 42 sec)
Heartbeat CPU 0 instructions: 230001649 cycles: 66827939 heartbeat IPC: 3.554 cumulative IPC: 3.457 (Simulation time: 00 hr 18 min 44 sec)
Heartbeat CPU 0 instructions: 230501656 cycles: 66970262 heartbeat IPC: 3.513 cumulative IPC: 3.457 (Simulation time: 00 hr 18 min 46 sec)
Heartbeat CPU 0 instructions: 231001662 cycles: 67112711 heartbeat IPC: 3.51 cumulative IPC: 3.457 (Simulation time: 00 hr 18 min 48 sec)
Heartbeat CPU 0 instructions: 231501665 cycles: 67250207 heartbeat IPC: 3.636 cumulative IPC: 3.457 (Simulation time: 00 hr 18 min 50 sec)
Heartbeat CPU 0 instructions: 232001670 cycles: 67389931 heartbeat IPC: 3.579 cumulative IPC: 3.458 (Simulation time: 00 hr 18 min 52 sec)
Heartbeat CPU 0 instructions: 232501673 cycles: 67527943 heartbeat IPC: 3.623 cumulative IPC: 3.458 (Simulation time: 00 hr 18 min 54 sec)
Heartbeat CPU 0 instructions: 233001677 cycles: 67670000 heartbeat IPC: 3.52 cumulative IPC: 3.458 (Simulation time: 00 hr 18 min 56 sec)
Heartbeat CPU 0 instructions: 233501680 cycles: 67808623 heartbeat IPC: 3.607 cumulative IPC: 3.459 (Simulation time: 00 hr 18 min 58 sec)
Heartbeat CPU 0 instructions: 234001685 cycles: 67949091 heartbeat IPC: 3.56 cumulative IPC: 3.459 (Simulation time: 00 hr 19 min 01 sec)
Heartbeat CPU 0 instructions: 234501690 cycles: 68087037 heartbeat IPC: 3.625 cumulative IPC: 3.459 (Simulation time: 00 hr 19 min 03 sec)
Heartbeat CPU 0 instructions: 235001693 cycles: 68225110 heartbeat IPC: 3.621 cumulative IPC: 3.46 (Simulation time: 00 hr 19 min 05 sec)
Heartbeat CPU 0 instructions: 235501700 cycles: 68363540 heartbeat IPC: 3.612 cumulative IPC: 3.46 (Simulation time: 00 hr 19 min 07 sec)
Heartbeat CPU 0 instructions: 236001701 cycles: 68503585 heartbeat IPC: 3.57 cumulative IPC: 3.461 (Simulation time: 00 hr 19 min 09 sec)
Heartbeat CPU 0 instructions: 236501703 cycles: 68641057 heartbeat IPC: 3.637 cumulative IPC: 3.461 (Simulation time: 00 hr 19 min 11 sec)
Heartbeat CPU 0 instructions: 237001704 cycles: 68780628 heartbeat IPC: 3.582 cumulative IPC: 3.461 (Simulation time: 00 hr 19 min 13 sec)
Heartbeat CPU 0 instructions: 237501707 cycles: 68919978 heartbeat IPC: 3.588 cumulative IPC: 3.462 (Simulation time: 00 hr 19 min 15 sec)
Heartbeat CPU 0 instructions: 238001710 cycles: 69063167 heartbeat IPC: 3.492 cumulative IPC: 3.462 (Simulation time: 00 hr 19 min 17 sec)
Heartbeat CPU 0 instructions: 238501712 cycles: 69201555 heartbeat IPC: 3.613 cumulative IPC: 3.462 (Simulation time: 00 hr 19 min 20 sec)
Heartbeat CPU 0 instructions: 239001712 cycles: 69341269 heartbeat IPC: 3.579 cumulative IPC: 3.462 (Simulation time: 00 hr 19 min 22 sec)
Heartbeat CPU 0 instructions: 239501713 cycles: 69478897 heartbeat IPC: 3.633 cumulative IPC: 3.463 (Simulation time: 00 hr 19 min 24 sec)
Heartbeat CPU 0 instructions: 240001713 cycles: 69620330 heartbeat IPC: 3.535 cumulative IPC: 3.463 (Simulation time: 00 hr 19 min 26 sec)
Heartbeat CPU 0 instructions: 240501716 cycles: 69758932 heartbeat IPC: 3.607 cumulative IPC: 3.463 (Simulation time: 00 hr 19 min 28 sec)
Heartbeat CPU 0 instructions: 241001723 cycles: 69900084 heartbeat IPC: 3.542 cumulative IPC: 3.464 (Simulation time: 00 hr 19 min 30 sec)
Heartbeat CPU 0 instructions: 241501726 cycles: 70037952 heartbeat IPC: 3.627 cumulative IPC: 3.464 (Simulation time: 00 hr 19 min 32 sec)
Heartbeat CPU 0 instructions: 242001732 cycles: 70177945 heartbeat IPC: 3.572 cumulative IPC: 3.464 (Simulation time: 00 hr 19 min 34 sec)
Heartbeat CPU 0 instructions: 242501732 cycles: 70316062 heartbeat IPC: 3.62 cumulative IPC: 3.465 (Simulation time: 00 hr 19 min 36 sec)
Heartbeat CPU 0 instructions: 243001733 cycles: 70458390 heartbeat IPC: 3.513 cumulative IPC: 3.465 (Simulation time: 00 hr 19 min 39 sec)
Heartbeat CPU 0 instructions: 243501737 cycles: 70598548 heartbeat IPC: 3.567 cumulative IPC: 3.465 (Simulation time: 00 hr 19 min 41 sec)
Heartbeat CPU 0 instructions: 244001744 cycles: 70736527 heartbeat IPC: 3.624 cumulative IPC: 3.465 (Simulation time: 00 hr 19 min 43 sec)
Heartbeat CPU 0 instructions: 244501748 cycles: 70876058 heartbeat IPC: 3.583 cumulative IPC: 3.466 (Simulation time: 00 hr 19 min 45 sec)
Heartbeat CPU 0 instructions: 245001750 cycles: 71014388 heartbeat IPC: 3.615 cumulative IPC: 3.466 (Simulation time: 00 hr 19 min 47 sec)
Heartbeat CPU 0 instructions: 245501751 cycles: 71154970 heartbeat IPC: 3.557 cumulative IPC: 3.466 (Simulation time: 00 hr 19 min 49 sec)
Heartbeat CPU 0 instructions: 246001756 cycles: 71293174 heartbeat IPC: 3.618 cumulative IPC: 3.467 (Simulation time: 00 hr 19 min 51 sec)
Heartbeat CPU 0 instructions: 246501763 cycles: 71433901 heartbeat IPC: 3.553 cumulative IPC: 3.467 (Simulation time: 00 hr 19 min 53 sec)
Heartbeat CPU 0 instructions: 247001769 cycles: 71572272 heartbeat IPC: 3.614 cumulative IPC: 3.467 (Simulation time: 00 hr 19 min 55 sec)
Heartbeat CPU 0 instructions: 247501776 cycles: 71714242 heartbeat IPC: 3.522 cumulative IPC: 3.467 (Simulation time: 00 hr 19 min 58 sec)
Heartbeat CPU 0 instructions: 248001783 cycles: 71852450 heartbeat IPC: 3.618 cumulative IPC: 3.468 (Simulation time: 00 hr 20 min 00 sec)
Heartbeat CPU 0 instructions: 248501786 cycles: 71992237 heartbeat IPC: 3.577 cumulative IPC: 3.468 (Simulation time: 00 hr 20 min 02 sec)
Heartbeat CPU 0 instructions: 249001791 cycles: 72129703 heartbeat IPC: 3.637 cumulative IPC: 3.468 (Simulation time: 00 hr 20 min 04 sec)
Heartbeat CPU 0 instructions: 249501792 cycles: 72273012 heartbeat IPC: 3.489 cumulative IPC: 3.468 (Simulation time: 00 hr 20 min 06 sec)
Simulation finished CPU 0 instructions: 200000001 cycles: 57655820 cumulative IPC: 3.469 (Simulation time: 00 hr 20 min 08 sec)
Simulation complete CPU 0 instructions: 200000001 cycles: 57655820 cumulative IPC: 3.469 (Simulation time: 00 hr 20 min 08 sec)

ChampSim completed all CPUs

=== Simulation ===
CPU 0 runs /local-ssd/ben/dpc4-traces/ai-ml/vit.cpp-large-ggml-model-f16.gguf.armadillo.1.champsimtrace.gz

Region of Interest Statistics

CPU 0 cumulative IPC: 3.469 instructions: 200000001 cycles: 57655820
CPU 0 Branch Prediction Accuracy: 97.94% MPKI: 1.416 Average ROB Occupancy at Mispredict: 314.9
Branch type MPKI
BRANCH_DIRECT_JUMP: 7e-05
BRANCH_INDIRECT: 3.5e-05
BRANCH_CONDITIONAL: 1.415
BRANCH_DIRECT_CALL: 8.5e-05
BRANCH_INDIRECT_CALL: 2e-05
BRANCH_RETURN: 0.000105

cpu0->cpu0_STLB TOTAL        ACCESS:      26715 HIT:      15555 MISS:      11160 MSHR_MERGE:          0
cpu0->cpu0_STLB LOAD         ACCESS:      26715 HIT:      15555 MISS:      11160 MSHR_MERGE:          0
cpu0->cpu0_STLB RFO          ACCESS:          0 HIT:          0 MISS:          0 MSHR_MERGE:          0
cpu0->cpu0_STLB PREFETCH     ACCESS:          0 HIT:          0 MISS:          0 MSHR_MERGE:          0
cpu0->cpu0_STLB WRITE        ACCESS:          0 HIT:          0 MISS:          0 MSHR_MERGE:          0
cpu0->cpu0_STLB TRANSLATION  ACCESS:          0 HIT:          0 MISS:          0 MSHR_MERGE:          0
cpu0->cpu0_STLB PREFETCH REQUESTED:          0 ISSUED:          0 USEFUL:          0 USELESS:          0
cpu0->cpu0_STLB AVERAGE MISS LATENCY: 97.25 cycles
cpu0->cpu0_L2C TOTAL        ACCESS:   16099469 HIT:   14122417 MISS:    1977052 MSHR_MERGE:    1100144
cpu0->cpu0_L2C LOAD         ACCESS:    3742372 HIT:    3457024 MISS:     285348 MSHR_MERGE:     149466
cpu0->cpu0_L2C RFO          ACCESS:      57386 HIT:      22704 MISS:      34682 MSHR_MERGE:          0
cpu0->cpu0_L2C PREFETCH     ACCESS:   12188048 HIT:   10532777 MISS:    1655271 MSHR_MERGE:     950678
cpu0->cpu0_L2C WRITE        ACCESS:     108957 HIT:     108951 MISS:          6 MSHR_MERGE:          0
cpu0->cpu0_L2C TRANSLATION  ACCESS:       2706 HIT:        961 MISS:       1745 MSHR_MERGE:          0
cpu0->cpu0_L2C PREFETCH REQUESTED:   15824585 ISSUED:   10557928 USEFUL:     498886 USELESS:     106653
cpu0->cpu0_L2C AVERAGE MISS LATENCY: 144.7 cycles
cpu0->cpu0_L1I TOTAL        ACCESS:   26280600 HIT:   26280475 MISS:        125 MSHR_MERGE:         18
cpu0->cpu0_L1I LOAD         ACCESS:   26280600 HIT:   26280475 MISS:        125 MSHR_MERGE:         18
cpu0->cpu0_L1I RFO          ACCESS:          0 HIT:          0 MISS:          0 MSHR_MERGE:          0
cpu0->cpu0_L1I PREFETCH     ACCESS:          0 HIT:          0 MISS:          0 MSHR_MERGE:          0
cpu0->cpu0_L1I WRITE        ACCESS:          0 HIT:          0 MISS:          0 MSHR_MERGE:          0
cpu0->cpu0_L1I TRANSLATION  ACCESS:          0 HIT:          0 MISS:          0 MSHR_MERGE:          0
cpu0->cpu0_L1I PREFETCH REQUESTED:          0 ISSUED:          0 USEFUL:          0 USELESS:          0
cpu0->cpu0_L1I AVERAGE MISS LATENCY: 139.1 cycles
cpu0->cpu0_L1D TOTAL        ACCESS:   63624047 HIT:   55243310 MISS:    8380737 MSHR_MERGE:    2948260
cpu0->cpu0_L1D LOAD         ACCESS:   47155263 HIT:   41457734 MISS:    5697529 MSHR_MERGE:    1955264
cpu0->cpu0_L1D RFO          ACCESS:          0 HIT:          0 MISS:          0 MSHR_MERGE:          0
cpu0->cpu0_L1D PREFETCH     ACCESS:   15408204 HIT:   12980683 MISS:    2427521 MSHR_MERGE:     797401
cpu0->cpu0_L1D WRITE        ACCESS:    1038257 HIT:     785277 MISS:     252980 MSHR_MERGE:     195594
cpu0->cpu0_L1D TRANSLATION  ACCESS:      22323 HIT:      19616 MISS:       2707 MSHR_MERGE:          1
cpu0->cpu0_L1D PREFETCH REQUESTED:   49100296 ISSUED:   15408201 USEFUL:    1593971 USELESS:      36136
cpu0->cpu0_L1D AVERAGE MISS LATENCY: 24.02 cycles
cpu0->cpu0_ITLB TOTAL        ACCESS:   21442885 HIT:   21442866 MISS:         19 MSHR_MERGE:          7
cpu0->cpu0_ITLB LOAD         ACCESS:   21442885 HIT:   21442866 MISS:         19 MSHR_MERGE:          7
cpu0->cpu0_ITLB RFO          ACCESS:          0 HIT:          0 MISS:          0 MSHR_MERGE:          0
cpu0->cpu0_ITLB PREFETCH     ACCESS:          0 HIT:          0 MISS:          0 MSHR_MERGE:          0
cpu0->cpu0_ITLB WRITE        ACCESS:          0 HIT:          0 MISS:          0 MSHR_MERGE:          0
cpu0->cpu0_ITLB TRANSLATION  ACCESS:          0 HIT:          0 MISS:          0 MSHR_MERGE:          0
cpu0->cpu0_ITLB PREFETCH REQUESTED:          0 ISSUED:          0 USEFUL:          0 USELESS:          0
cpu0->cpu0_ITLB AVERAGE MISS LATENCY: 402.8 cycles
cpu0->cpu0_DTLB TOTAL        ACCESS:   50919798 HIT:   50806409 MISS:     113389 MSHR_MERGE:      86686
cpu0->cpu0_DTLB LOAD         ACCESS:   50919798 HIT:   50806409 MISS:     113389 MSHR_MERGE:      86686
cpu0->cpu0_DTLB RFO          ACCESS:          0 HIT:          0 MISS:          0 MSHR_MERGE:          0
cpu0->cpu0_DTLB PREFETCH     ACCESS:          0 HIT:          0 MISS:          0 MSHR_MERGE:          0
cpu0->cpu0_DTLB WRITE        ACCESS:          0 HIT:          0 MISS:          0 MSHR_MERGE:          0
cpu0->cpu0_DTLB TRANSLATION  ACCESS:          0 HIT:          0 MISS:          0 MSHR_MERGE:          0
cpu0->cpu0_DTLB PREFETCH REQUESTED:          0 ISSUED:          0 USEFUL:          0 USELESS:          0
cpu0->cpu0_DTLB AVERAGE MISS LATENCY: 45.88 cycles
cpu0->LLC TOTAL        ACCESS:    1736458 HIT:     320328 MISS:    1416130 MSHR_MERGE:     625811
cpu0->LLC LOAD         ACCESS:     135882 HIT:      33107 MISS:     102775 MSHR_MERGE:      35608
cpu0->LLC RFO          ACCESS:      34682 HIT:       1463 MISS:      33219 MSHR_MERGE:          0
cpu0->LLC PREFETCH     ACCESS:    1516139 HIT:     280600 MISS:    1235539 MSHR_MERGE:     590203
cpu0->LLC WRITE        ACCESS:      48010 HIT:       5152 MISS:      42858 MSHR_MERGE:          0
cpu0->LLC TRANSLATION  ACCESS:       1745 HIT:          6 MISS:       1739 MSHR_MERGE:          0
cpu0->LLC PREFETCH REQUESTED:     901461 ISSUED:     811546 USEFUL:      93862 USELESS:     354212
cpu0->LLC AVERAGE MISS LATENCY: 163.6 cycles

DRAM Statistics

Channel 0 RQ ROW_BUFFER_HIT:     315288
  ROW_BUFFER_MISS:     432163
  AVG DBUS CONGESTED CYCLE: 4.848
Channel 0 WQ ROW_BUFFER_HIT:       5657
  ROW_BUFFER_MISS:      27140
  FULL:        398
Channel 0 REFRESHES ISSUED:       4804
