[VMEM] WARNING: physical memory size is smaller than virtual memory size.

*** ChampSim Multicore Out-of-Order Simulator ***
Warmup Instructions: 50000000
Simulation Instructions: 200000000
Number of CPUs: 1
Page size: 4096
Core 0: /local-ssd/ben/dpc4-traces/Graph/Ligra/ligra_Radii.com-lj.ungraph.gcc_6.3.0_O3.drop_25000M.length_250M.champsimtrace.xz
Off-chip DRAM Size: 64 GiB Channels: 1 Width: 64-bit Data Rate: 4807 MT/s
Heartbeat CPU 0 instructions: 500000 cycles: 423331 heartbeat IPC: 1.181 cumulative IPC: 1.181 (Simulation time: 00 hr 00 min 06 sec)
Heartbeat CPU 0 instructions: 1000000 cycles: 753212 heartbeat IPC: 1.516 cumulative IPC: 1.328 (Simulation time: 00 hr 00 min 11 sec)
Heartbeat CPU 0 instructions: 1500003 cycles: 1010346 heartbeat IPC: 1.945 cumulative IPC: 1.485 (Simulation time: 00 hr 00 min 15 sec)
Heartbeat CPU 0 instructions: 2000006 cycles: 1122696 heartbeat IPC: 4.45 cumulative IPC: 1.781 (Simulation time: 00 hr 00 min 17 sec)
Heartbeat CPU 0 instructions: 2500008 cycles: 1222697 heartbeat IPC: 5 cumulative IPC: 2.045 (Simulation time: 00 hr 00 min 18 sec)
Heartbeat CPU 0 instructions: 3000011 cycles: 1322697 heartbeat IPC: 5 cumulative IPC: 2.268 (Simulation time: 00 hr 00 min 20 sec)
Heartbeat CPU 0 instructions: 3500013 cycles: 1422711 heartbeat IPC: 4.999 cumulative IPC: 2.46 (Simulation time: 00 hr 00 min 21 sec)
Heartbeat CPU 0 instructions: 4000015 cycles: 1522712 heartbeat IPC: 5 cumulative IPC: 2.627 (Simulation time: 00 hr 00 min 22 sec)
Heartbeat CPU 0 instructions: 4500015 cycles: 1622718 heartbeat IPC: 5 cumulative IPC: 2.773 (Simulation time: 00 hr 00 min 24 sec)
Heartbeat CPU 0 instructions: 5000015 cycles: 1748565 heartbeat IPC: 3.973 cumulative IPC: 2.859 (Simulation time: 00 hr 00 min 26 sec)
Heartbeat CPU 0 instructions: 5500018 cycles: 2054998 heartbeat IPC: 1.632 cumulative IPC: 2.676 (Simulation time: 00 hr 00 min 31 sec)
Heartbeat CPU 0 instructions: 6000022 cycles: 2367271 heartbeat IPC: 1.601 cumulative IPC: 2.535 (Simulation time: 00 hr 00 min 38 sec)
Heartbeat CPU 0 instructions: 6500024 cycles: 2643101 heartbeat IPC: 1.813 cumulative IPC: 2.459 (Simulation time: 00 hr 00 min 43 sec)
Heartbeat CPU 0 instructions: 7000028 cycles: 2890395 heartbeat IPC: 2.022 cumulative IPC: 2.422 (Simulation time: 00 hr 00 min 49 sec)
Heartbeat CPU 0 instructions: 7500032 cycles: 3120150 heartbeat IPC: 2.176 cumulative IPC: 2.404 (Simulation time: 00 hr 00 min 54 sec)
Heartbeat CPU 0 instructions: 8000037 cycles: 3315028 heartbeat IPC: 2.566 cumulative IPC: 2.413 (Simulation time: 00 hr 00 min 58 sec)
Heartbeat CPU 0 instructions: 8500044 cycles: 3513094 heartbeat IPC: 2.524 cumulative IPC: 2.42 (Simulation time: 00 hr 01 min 03 sec)
Heartbeat CPU 0 instructions: 9000045 cycles: 3682126 heartbeat IPC: 2.958 cumulative IPC: 2.444 (Simulation time: 00 hr 01 min 06 sec)
Heartbeat CPU 0 instructions: 9500051 cycles: 3860494 heartbeat IPC: 2.803 cumulative IPC: 2.461 (Simulation time: 00 hr 01 min 11 sec)
Heartbeat CPU 0 instructions: 10000056 cycles: 4035599 heartbeat IPC: 2.855 cumulative IPC: 2.478 (Simulation time: 00 hr 01 min 15 sec)
Heartbeat CPU 0 instructions: 10500060 cycles: 4195772 heartbeat IPC: 3.122 cumulative IPC: 2.503 (Simulation time: 00 hr 01 min 19 sec)
Heartbeat CPU 0 instructions: 11000062 cycles: 4351330 heartbeat IPC: 3.214 cumulative IPC: 2.528 (Simulation time: 00 hr 01 min 22 sec)
Heartbeat CPU 0 instructions: 11500066 cycles: 4503131 heartbeat IPC: 3.294 cumulative IPC: 2.554 (Simulation time: 00 hr 01 min 26 sec)
Heartbeat CPU 0 instructions: 12000067 cycles: 4641559 heartbeat IPC: 3.612 cumulative IPC: 2.585 (Simulation time: 00 hr 01 min 30 sec)
Heartbeat CPU 0 instructions: 12500068 cycles: 4772712 heartbeat IPC: 3.812 cumulative IPC: 2.619 (Simulation time: 00 hr 01 min 34 sec)
Heartbeat CPU 0 instructions: 13000071 cycles: 4907988 heartbeat IPC: 3.696 cumulative IPC: 2.649 (Simulation time: 00 hr 01 min 37 sec)
Heartbeat CPU 0 instructions: 13500075 cycles: 5036008 heartbeat IPC: 3.906 cumulative IPC: 2.681 (Simulation time: 00 hr 01 min 41 sec)
Heartbeat CPU 0 instructions: 14000081 cycles: 5163714 heartbeat IPC: 3.915 cumulative IPC: 2.711 (Simulation time: 00 hr 01 min 45 sec)
Heartbeat CPU 0 instructions: 14500083 cycles: 5288247 heartbeat IPC: 4.015 cumulative IPC: 2.742 (Simulation time: 00 hr 01 min 48 sec)
Heartbeat CPU 0 instructions: 15000088 cycles: 5407335 heartbeat IPC: 4.199 cumulative IPC: 2.774 (Simulation time: 00 hr 01 min 52 sec)
Heartbeat CPU 0 instructions: 15500091 cycles: 5525473 heartbeat IPC: 4.232 cumulative IPC: 2.805 (Simulation time: 00 hr 01 min 55 sec)
Heartbeat CPU 0 instructions: 16000096 cycles: 5640198 heartbeat IPC: 4.358 cumulative IPC: 2.837 (Simulation time: 00 hr 01 min 59 sec)
Heartbeat CPU 0 instructions: 16500101 cycles: 5753853 heartbeat IPC: 4.399 cumulative IPC: 2.868 (Simulation time: 00 hr 02 min 02 sec)
Heartbeat CPU 0 instructions: 17000102 cycles: 5866045 heartbeat IPC: 4.457 cumulative IPC: 2.898 (Simulation time: 00 hr 02 min 06 sec)
Heartbeat CPU 0 instructions: 17500104 cycles: 5979132 heartbeat IPC: 4.421 cumulative IPC: 2.927 (Simulation time: 00 hr 02 min 09 sec)
Heartbeat CPU 0 instructions: 18000110 cycles: 6092770 heartbeat IPC: 4.4 cumulative IPC: 2.954 (Simulation time: 00 hr 02 min 13 sec)
Heartbeat CPU 0 instructions: 18500111 cycles: 6202718 heartbeat IPC: 4.548 cumulative IPC: 2.983 (Simulation time: 00 hr 02 min 16 sec)
Heartbeat CPU 0 instructions: 19000116 cycles: 6313207 heartbeat IPC: 4.525 cumulative IPC: 3.01 (Simulation time: 00 hr 02 min 20 sec)
Heartbeat CPU 0 instructions: 19500121 cycles: 6424492 heartbeat IPC: 4.493 cumulative IPC: 3.035 (Simulation time: 00 hr 02 min 23 sec)
Heartbeat CPU 0 instructions: 20000123 cycles: 6535452 heartbeat IPC: 4.506 cumulative IPC: 3.06 (Simulation time: 00 hr 02 min 26 sec)
Heartbeat CPU 0 instructions: 20500126 cycles: 6645686 heartbeat IPC: 4.536 cumulative IPC: 3.085 (Simulation time: 00 hr 02 min 30 sec)
Heartbeat CPU 0 instructions: 21000126 cycles: 6752943 heartbeat IPC: 4.662 cumulative IPC: 3.11 (Simulation time: 00 hr 02 min 33 sec)
Heartbeat CPU 0 instructions: 21500129 cycles: 6861596 heartbeat IPC: 4.602 cumulative IPC: 3.133 (Simulation time: 00 hr 02 min 36 sec)
Heartbeat CPU 0 instructions: 22000136 cycles: 6970232 heartbeat IPC: 4.603 cumulative IPC: 3.156 (Simulation time: 00 hr 02 min 39 sec)
Heartbeat CPU 0 instructions: 22500139 cycles: 7076904 heartbeat IPC: 4.687 cumulative IPC: 3.179 (Simulation time: 00 hr 02 min 41 sec)
Heartbeat CPU 0 instructions: 23000143 cycles: 7184344 heartbeat IPC: 4.654 cumulative IPC: 3.201 (Simulation time: 00 hr 02 min 44 sec)
Heartbeat CPU 0 instructions: 23500143 cycles: 7293567 heartbeat IPC: 4.578 cumulative IPC: 3.222 (Simulation time: 00 hr 02 min 47 sec)
Heartbeat CPU 0 instructions: 24000147 cycles: 7399437 heartbeat IPC: 4.723 cumulative IPC: 3.244 (Simulation time: 00 hr 02 min 49 sec)
Heartbeat CPU 0 instructions: 24500147 cycles: 7502244 heartbeat IPC: 4.863 cumulative IPC: 3.266 (Simulation time: 00 hr 02 min 51 sec)
Heartbeat CPU 0 instructions: 25000149 cycles: 7604250 heartbeat IPC: 4.902 cumulative IPC: 3.288 (Simulation time: 00 hr 02 min 52 sec)
Heartbeat CPU 0 instructions: 25500149 cycles: 7712210 heartbeat IPC: 4.631 cumulative IPC: 3.306 (Simulation time: 00 hr 02 min 55 sec)
Heartbeat CPU 0 instructions: 26000154 cycles: 7820428 heartbeat IPC: 4.62 cumulative IPC: 3.325 (Simulation time: 00 hr 02 min 59 sec)
Heartbeat CPU 0 instructions: 26500157 cycles: 7928646 heartbeat IPC: 4.62 cumulative IPC: 3.342 (Simulation time: 00 hr 03 min 01 sec)
Heartbeat CPU 0 instructions: 27000163 cycles: 8037111 heartbeat IPC: 4.61 cumulative IPC: 3.359 (Simulation time: 00 hr 03 min 04 sec)
Heartbeat CPU 0 instructions: 27500169 cycles: 8144476 heartbeat IPC: 4.657 cumulative IPC: 3.377 (Simulation time: 00 hr 03 min 07 sec)
Heartbeat CPU 0 instructions: 28000173 cycles: 8250284 heartbeat IPC: 4.726 cumulative IPC: 3.394 (Simulation time: 00 hr 03 min 10 sec)
Heartbeat CPU 0 instructions: 28500178 cycles: 8353494 heartbeat IPC: 4.845 cumulative IPC: 3.412 (Simulation time: 00 hr 03 min 12 sec)
Heartbeat CPU 0 instructions: 29000181 cycles: 8455414 heartbeat IPC: 4.906 cumulative IPC: 3.43 (Simulation time: 00 hr 03 min 15 sec)
Heartbeat CPU 0 instructions: 29500181 cycles: 8557715 heartbeat IPC: 4.888 cumulative IPC: 3.447 (Simulation time: 00 hr 03 min 17 sec)
Heartbeat CPU 0 instructions: 30000187 cycles: 8659539 heartbeat IPC: 4.91 cumulative IPC: 3.464 (Simulation time: 00 hr 03 min 20 sec)
Heartbeat CPU 0 instructions: 30500189 cycles: 8761190 heartbeat IPC: 4.919 cumulative IPC: 3.481 (Simulation time: 00 hr 03 min 22 sec)
Heartbeat CPU 0 instructions: 31000191 cycles: 8863874 heartbeat IPC: 4.869 cumulative IPC: 3.497 (Simulation time: 00 hr 03 min 25 sec)
Heartbeat CPU 0 instructions: 31500194 cycles: 8967121 heartbeat IPC: 4.843 cumulative IPC: 3.513 (Simulation time: 00 hr 03 min 27 sec)
Heartbeat CPU 0 instructions: 32000201 cycles: 9069166 heartbeat IPC: 4.9 cumulative IPC: 3.528 (Simulation time: 00 hr 03 min 29 sec)
Heartbeat CPU 0 instructions: 32500203 cycles: 9171750 heartbeat IPC: 4.874 cumulative IPC: 3.544 (Simulation time: 00 hr 03 min 31 sec)
Heartbeat CPU 0 instructions: 33000203 cycles: 9274057 heartbeat IPC: 4.887 cumulative IPC: 3.558 (Simulation time: 00 hr 03 min 33 sec)
Heartbeat CPU 0 instructions: 33500205 cycles: 9398116 heartbeat IPC: 4.03 cumulative IPC: 3.565 (Simulation time: 00 hr 03 min 34 sec)
Heartbeat CPU 0 instructions: 34000209 cycles: 9541173 heartbeat IPC: 3.495 cumulative IPC: 3.564 (Simulation time: 00 hr 03 min 36 sec)
Heartbeat CPU 0 instructions: 34500209 cycles: 9684008 heartbeat IPC: 3.501 cumulative IPC: 3.563 (Simulation time: 00 hr 03 min 37 sec)
Heartbeat CPU 0 instructions: 35000213 cycles: 9817952 heartbeat IPC: 3.733 cumulative IPC: 3.565 (Simulation time: 00 hr 03 min 39 sec)
Heartbeat CPU 0 instructions: 35500219 cycles: 9945775 heartbeat IPC: 3.912 cumulative IPC: 3.569 (Simulation time: 00 hr 03 min 40 sec)
Heartbeat CPU 0 instructions: 36000221 cycles: 10066902 heartbeat IPC: 4.128 cumulative IPC: 3.576 (Simulation time: 00 hr 03 min 41 sec)
Heartbeat CPU 0 instructions: 36500223 cycles: 10185178 heartbeat IPC: 4.227 cumulative IPC: 3.584 (Simulation time: 00 hr 03 min 43 sec)
Heartbeat CPU 0 instructions: 37000229 cycles: 10300305 heartbeat IPC: 4.343 cumulative IPC: 3.592 (Simulation time: 00 hr 03 min 44 sec)
Heartbeat CPU 0 instructions: 37500229 cycles: 10437823 heartbeat IPC: 3.636 cumulative IPC: 3.593 (Simulation time: 00 hr 03 min 45 sec)
Heartbeat CPU 0 instructions: 38000229 cycles: 10583503 heartbeat IPC: 3.432 cumulative IPC: 3.591 (Simulation time: 00 hr 03 min 47 sec)
Heartbeat CPU 0 instructions: 38500229 cycles: 10719764 heartbeat IPC: 3.669 cumulative IPC: 3.592 (Simulation time: 00 hr 03 min 48 sec)
Heartbeat CPU 0 instructions: 39000229 cycles: 10850542 heartbeat IPC: 3.823 cumulative IPC: 3.594 (Simulation time: 00 hr 03 min 50 sec)
Heartbeat CPU 0 instructions: 39500233 cycles: 10985837 heartbeat IPC: 3.696 cumulative IPC: 3.596 (Simulation time: 00 hr 03 min 51 sec)
Heartbeat CPU 0 instructions: 40000234 cycles: 11157106 heartbeat IPC: 2.919 cumulative IPC: 3.585 (Simulation time: 00 hr 03 min 53 sec)
Heartbeat CPU 0 instructions: 40500235 cycles: 11372243 heartbeat IPC: 2.324 cumulative IPC: 3.561 (Simulation time: 00 hr 03 min 59 sec)
Heartbeat CPU 0 instructions: 41000236 cycles: 11586585 heartbeat IPC: 2.333 cumulative IPC: 3.539 (Simulation time: 00 hr 04 min 06 sec)
Heartbeat CPU 0 instructions: 41500242 cycles: 11792062 heartbeat IPC: 2.433 cumulative IPC: 3.519 (Simulation time: 00 hr 04 min 12 sec)
Heartbeat CPU 0 instructions: 42000246 cycles: 12071067 heartbeat IPC: 1.792 cumulative IPC: 3.479 (Simulation time: 00 hr 04 min 19 sec)
Heartbeat CPU 0 instructions: 42500247 cycles: 12479136 heartbeat IPC: 1.225 cumulative IPC: 3.406 (Simulation time: 00 hr 04 min 25 sec)
Heartbeat CPU 0 instructions: 43000253 cycles: 12795283 heartbeat IPC: 1.582 cumulative IPC: 3.361 (Simulation time: 00 hr 04 min 31 sec)
Heartbeat CPU 0 instructions: 43500259 cycles: 13052833 heartbeat IPC: 1.941 cumulative IPC: 3.333 (Simulation time: 00 hr 04 min 36 sec)
Heartbeat CPU 0 instructions: 44000264 cycles: 13284941 heartbeat IPC: 2.154 cumulative IPC: 3.312 (Simulation time: 00 hr 04 min 41 sec)
Heartbeat CPU 0 instructions: 44500268 cycles: 13517094 heartbeat IPC: 2.154 cumulative IPC: 3.292 (Simulation time: 00 hr 04 min 46 sec)
Heartbeat CPU 0 instructions: 45000273 cycles: 13741755 heartbeat IPC: 2.226 cumulative IPC: 3.275 (Simulation time: 00 hr 04 min 50 sec)
Heartbeat CPU 0 instructions: 45500276 cycles: 13973008 heartbeat IPC: 2.162 cumulative IPC: 3.256 (Simulation time: 00 hr 04 min 55 sec)
Heartbeat CPU 0 instructions: 46000282 cycles: 14156002 heartbeat IPC: 2.732 cumulative IPC: 3.25 (Simulation time: 00 hr 04 min 58 sec)
Heartbeat CPU 0 instructions: 46500283 cycles: 14256003 heartbeat IPC: 5 cumulative IPC: 3.262 (Simulation time: 00 hr 04 min 59 sec)
Heartbeat CPU 0 instructions: 47000288 cycles: 14356003 heartbeat IPC: 5 cumulative IPC: 3.274 (Simulation time: 00 hr 05 min 00 sec)
Heartbeat CPU 0 instructions: 47500293 cycles: 14479211 heartbeat IPC: 4.058 cumulative IPC: 3.281 (Simulation time: 00 hr 05 min 02 sec)
Heartbeat CPU 0 instructions: 48000297 cycles: 14645204 heartbeat IPC: 3.012 cumulative IPC: 3.278 (Simulation time: 00 hr 05 min 04 sec)
Heartbeat CPU 0 instructions: 48500301 cycles: 14811197 heartbeat IPC: 3.012 cumulative IPC: 3.275 (Simulation time: 00 hr 05 min 06 sec)
Heartbeat CPU 0 instructions: 49000302 cycles: 14971976 heartbeat IPC: 3.11 cumulative IPC: 3.273 (Simulation time: 00 hr 05 min 09 sec)
Heartbeat CPU 0 instructions: 49500302 cycles: 15086508 heartbeat IPC: 4.366 cumulative IPC: 3.281 (Simulation time: 00 hr 05 min 12 sec)
Warmup finished CPU 0 instructions: 50000002 cycles: 15194306 cumulative IPC: 3.291 (Simulation time: 00 hr 05 min 15 sec)
Warmup complete CPU 0 instructions: 50000002 cycles: 15194306 cumulative IPC: 3.291 (Simulation time: 00 hr 05 min 15 sec)
Heartbeat CPU 0 instructions: 50000302 cycles: 15194808 heartbeat IPC: 4.617 cumulative IPC: 0.5976 (Simulation time: 00 hr 05 min 15 sec)
Heartbeat CPU 0 instructions: 50500307 cycles: 17687403 heartbeat IPC: 0.2006 cumulative IPC: 0.2007 (Simulation time: 00 hr 05 min 35 sec)
Heartbeat CPU 0 instructions: 51000309 cycles: 20240709 heartbeat IPC: 0.1958 cumulative IPC: 0.1982 (Simulation time: 00 hr 05 min 55 sec)
Heartbeat CPU 0 instructions: 51500312 cycles: 22239265 heartbeat IPC: 0.2502 cumulative IPC: 0.213 (Simulation time: 00 hr 06 min 11 sec)
Heartbeat CPU 0 instructions: 52000315 cycles: 24670566 heartbeat IPC: 0.2057 cumulative IPC: 0.2111 (Simulation time: 00 hr 06 min 30 sec)
Heartbeat CPU 0 instructions: 52500315 cycles: 27235835 heartbeat IPC: 0.1949 cumulative IPC: 0.2076 (Simulation time: 00 hr 06 min 50 sec)
Heartbeat CPU 0 instructions: 53000316 cycles: 29576600 heartbeat IPC: 0.2136 cumulative IPC: 0.2086 (Simulation time: 00 hr 07 min 08 sec)
Heartbeat CPU 0 instructions: 53500319 cycles: 32048793 heartbeat IPC: 0.2023 cumulative IPC: 0.2077 (Simulation time: 00 hr 07 min 28 sec)
Heartbeat CPU 0 instructions: 54000321 cycles: 34547523 heartbeat IPC: 0.2001 cumulative IPC: 0.2067 (Simulation time: 00 hr 07 min 47 sec)
Heartbeat CPU 0 instructions: 54500326 cycles: 37083633 heartbeat IPC: 0.1972 cumulative IPC: 0.2056 (Simulation time: 00 hr 08 min 07 sec)
Heartbeat CPU 0 instructions: 55000331 cycles: 39880647 heartbeat IPC: 0.1788 cumulative IPC: 0.2026 (Simulation time: 00 hr 08 min 28 sec)
Heartbeat CPU 0 instructions: 55500336 cycles: 42492875 heartbeat IPC: 0.1914 cumulative IPC: 0.2015 (Simulation time: 00 hr 08 min 49 sec)
Heartbeat CPU 0 instructions: 56000336 cycles: 44938929 heartbeat IPC: 0.2044 cumulative IPC: 0.2017 (Simulation time: 00 hr 09 min 08 sec)
Heartbeat CPU 0 instructions: 56500337 cycles: 47813314 heartbeat IPC: 0.174 cumulative IPC: 0.1993 (Simulation time: 00 hr 09 min 30 sec)
Heartbeat CPU 0 instructions: 57000342 cycles: 50543688 heartbeat IPC: 0.1831 cumulative IPC: 0.198 (Simulation time: 00 hr 09 min 51 sec)
Heartbeat CPU 0 instructions: 57500343 cycles: 52949569 heartbeat IPC: 0.2078 cumulative IPC: 0.1987 (Simulation time: 00 hr 10 min 10 sec)
Heartbeat CPU 0 instructions: 58000343 cycles: 55790489 heartbeat IPC: 0.176 cumulative IPC: 0.1971 (Simulation time: 00 hr 10 min 32 sec)
Heartbeat CPU 0 instructions: 58500348 cycles: 58433303 heartbeat IPC: 0.1892 cumulative IPC: 0.1966 (Simulation time: 00 hr 10 min 53 sec)
Heartbeat CPU 0 instructions: 59000349 cycles: 61141040 heartbeat IPC: 0.1847 cumulative IPC: 0.1959 (Simulation time: 00 hr 11 min 14 sec)
Heartbeat CPU 0 instructions: 59500355 cycles: 63805559 heartbeat IPC: 0.1877 cumulative IPC: 0.1954 (Simulation time: 00 hr 11 min 34 sec)
Heartbeat CPU 0 instructions: 60000362 cycles: 66363916 heartbeat IPC: 0.1954 cumulative IPC: 0.1954 (Simulation time: 00 hr 11 min 54 sec)
Heartbeat CPU 0 instructions: 60500363 cycles: 69013147 heartbeat IPC: 0.1887 cumulative IPC: 0.1951 (Simulation time: 00 hr 12 min 15 sec)
Heartbeat CPU 0 instructions: 61000364 cycles: 71775602 heartbeat IPC: 0.181 cumulative IPC: 0.1944 (Simulation time: 00 hr 12 min 36 sec)
Heartbeat CPU 0 instructions: 61500368 cycles: 74555330 heartbeat IPC: 0.1799 cumulative IPC: 0.1937 (Simulation time: 00 hr 12 min 58 sec)
Heartbeat CPU 0 instructions: 62000368 cycles: 77366949 heartbeat IPC: 0.1778 cumulative IPC: 0.193 (Simulation time: 00 hr 13 min 19 sec)
Heartbeat CPU 0 instructions: 62500374 cycles: 79791941 heartbeat IPC: 0.2062 cumulative IPC: 0.1935 (Simulation time: 00 hr 13 min 38 sec)
Heartbeat CPU 0 instructions: 63000379 cycles: 82411632 heartbeat IPC: 0.1909 cumulative IPC: 0.1934 (Simulation time: 00 hr 13 min 59 sec)
Heartbeat CPU 0 instructions: 63500383 cycles: 85060924 heartbeat IPC: 0.1887 cumulative IPC: 0.1932 (Simulation time: 00 hr 14 min 19 sec)
Heartbeat CPU 0 instructions: 64000387 cycles: 87768430 heartbeat IPC: 0.1847 cumulative IPC: 0.1929 (Simulation time: 00 hr 14 min 40 sec)
Heartbeat CPU 0 instructions: 64500387 cycles: 89385281 heartbeat IPC: 0.3092 cumulative IPC: 0.1954 (Simulation time: 00 hr 14 min 53 sec)
Heartbeat CPU 0 instructions: 65000391 cycles: 91007263 heartbeat IPC: 0.3083 cumulative IPC: 0.1979 (Simulation time: 00 hr 15 min 06 sec)
Heartbeat CPU 0 instructions: 65500396 cycles: 92805240 heartbeat IPC: 0.2781 cumulative IPC: 0.1997 (Simulation time: 00 hr 15 min 20 sec)
Heartbeat CPU 0 instructions: 66000399 cycles: 95323545 heartbeat IPC: 0.1985 cumulative IPC: 0.1997 (Simulation time: 00 hr 15 min 39 sec)
Heartbeat CPU 0 instructions: 66500403 cycles: 97244129 heartbeat IPC: 0.2603 cumulative IPC: 0.2011 (Simulation time: 00 hr 15 min 55 sec)
Heartbeat CPU 0 instructions: 67000404 cycles: 99541851 heartbeat IPC: 0.2176 cumulative IPC: 0.2016 (Simulation time: 00 hr 16 min 12 sec)
Heartbeat CPU 0 instructions: 67500404 cycles: 101704865 heartbeat IPC: 0.2312 cumulative IPC: 0.2023 (Simulation time: 00 hr 16 min 29 sec)
Heartbeat CPU 0 instructions: 68000408 cycles: 103536740 heartbeat IPC: 0.2729 cumulative IPC: 0.2038 (Simulation time: 00 hr 16 min 44 sec)
Heartbeat CPU 0 instructions: 68500412 cycles: 105674733 heartbeat IPC: 0.2339 cumulative IPC: 0.2045 (Simulation time: 00 hr 17 min 00 sec)
Heartbeat CPU 0 instructions: 69000413 cycles: 107704673 heartbeat IPC: 0.2463 cumulative IPC: 0.2054 (Simulation time: 00 hr 17 min 16 sec)
Heartbeat CPU 0 instructions: 69500418 cycles: 108979694 heartbeat IPC: 0.3922 cumulative IPC: 0.2079 (Simulation time: 00 hr 17 min 26 sec)
Heartbeat CPU 0 instructions: 70000419 cycles: 110133660 heartbeat IPC: 0.4333 cumulative IPC: 0.2107 (Simulation time: 00 hr 17 min 35 sec)
Heartbeat CPU 0 instructions: 70500421 cycles: 110846076 heartbeat IPC: 0.7018 cumulative IPC: 0.2143 (Simulation time: 00 hr 17 min 41 sec)
Heartbeat CPU 0 instructions: 71000422 cycles: 111548882 heartbeat IPC: 0.7114 cumulative IPC: 0.2179 (Simulation time: 00 hr 17 min 47 sec)
Heartbeat CPU 0 instructions: 71500423 cycles: 111881740 heartbeat IPC: 1.502 cumulative IPC: 0.2224 (Simulation time: 00 hr 17 min 49 sec)
Heartbeat CPU 0 instructions: 72000423 cycles: 112256714 heartbeat IPC: 1.333 cumulative IPC: 0.2267 (Simulation time: 00 hr 17 min 52 sec)
Heartbeat CPU 0 instructions: 72500425 cycles: 112671210 heartbeat IPC: 1.206 cumulative IPC: 0.2308 (Simulation time: 00 hr 17 min 55 sec)
Heartbeat CPU 0 instructions: 73000425 cycles: 113085037 heartbeat IPC: 1.208 cumulative IPC: 0.235 (Simulation time: 00 hr 17 min 58 sec)
Heartbeat CPU 0 instructions: 73500426 cycles: 113523569 heartbeat IPC: 1.14 cumulative IPC: 0.239 (Simulation time: 00 hr 18 min 01 sec)
Heartbeat CPU 0 instructions: 74000427 cycles: 113977331 heartbeat IPC: 1.102 cumulative IPC: 0.243 (Simulation time: 00 hr 18 min 04 sec)
Heartbeat CPU 0 instructions: 74500429 cycles: 114366865 heartbeat IPC: 1.284 cumulative IPC: 0.247 (Simulation time: 00 hr 18 min 07 sec)
Heartbeat CPU 0 instructions: 75000433 cycles: 114762603 heartbeat IPC: 1.263 cumulative IPC: 0.2511 (Simulation time: 00 hr 18 min 10 sec)
Heartbeat CPU 0 instructions: 75500433 cycles: 115101304 heartbeat IPC: 1.476 cumulative IPC: 0.2552 (Simulation time: 00 hr 18 min 12 sec)
Heartbeat CPU 0 instructions: 76000434 cycles: 115440063 heartbeat IPC: 1.476 cumulative IPC: 0.2594 (Simulation time: 00 hr 18 min 16 sec)
Heartbeat CPU 0 instructions: 76500438 cycles: 118778319 heartbeat IPC: 0.1498 cumulative IPC: 0.2558 (Simulation time: 00 hr 19 min 03 sec)
Heartbeat CPU 0 instructions: 77000439 cycles: 122364064 heartbeat IPC: 0.1394 cumulative IPC: 0.2519 (Simulation time: 00 hr 19 min 55 sec)
Heartbeat CPU 0 instructions: 77500441 cycles: 125521547 heartbeat IPC: 0.1584 cumulative IPC: 0.2493 (Simulation time: 00 hr 20 min 38 sec)
Heartbeat CPU 0 instructions: 78000445 cycles: 127415104 heartbeat IPC: 0.2641 cumulative IPC: 0.2495 (Simulation time: 00 hr 21 min 03 sec)
Heartbeat CPU 0 instructions: 78500449 cycles: 129233834 heartbeat IPC: 0.2749 cumulative IPC: 0.2499 (Simulation time: 00 hr 21 min 27 sec)
Heartbeat CPU 0 instructions: 79000453 cycles: 131026095 heartbeat IPC: 0.279 cumulative IPC: 0.2504 (Simulation time: 00 hr 21 min 51 sec)
Heartbeat CPU 0 instructions: 79500457 cycles: 132841246 heartbeat IPC: 0.2755 cumulative IPC: 0.2508 (Simulation time: 00 hr 22 min 16 sec)
Heartbeat CPU 0 instructions: 80000460 cycles: 134590567 heartbeat IPC: 0.2858 cumulative IPC: 0.2513 (Simulation time: 00 hr 22 min 39 sec)
Heartbeat CPU 0 instructions: 80500465 cycles: 136291180 heartbeat IPC: 0.294 cumulative IPC: 0.2519 (Simulation time: 00 hr 23 min 02 sec)
Heartbeat CPU 0 instructions: 81000468 cycles: 137236307 heartbeat IPC: 0.529 cumulative IPC: 0.254 (Simulation time: 00 hr 23 min 13 sec)
Heartbeat CPU 0 instructions: 81500470 cycles: 137719551 heartbeat IPC: 1.035 cumulative IPC: 0.2571 (Simulation time: 00 hr 23 min 18 sec)
Heartbeat CPU 0 instructions: 82000474 cycles: 138138017 heartbeat IPC: 1.195 cumulative IPC: 0.2603 (Simulation time: 00 hr 23 min 22 sec)
Heartbeat CPU 0 instructions: 82500478 cycles: 138238728 heartbeat IPC: 4.965 cumulative IPC: 0.2641 (Simulation time: 00 hr 23 min 24 sec)
Heartbeat CPU 0 instructions: 83000482 cycles: 138339436 heartbeat IPC: 4.965 cumulative IPC: 0.268 (Simulation time: 00 hr 23 min 25 sec)
Heartbeat CPU 0 instructions: 83500487 cycles: 140669714 heartbeat IPC: 0.2146 cumulative IPC: 0.267 (Simulation time: 00 hr 23 min 44 sec)
Heartbeat CPU 0 instructions: 84000493 cycles: 143362968 heartbeat IPC: 0.1857 cumulative IPC: 0.2653 (Simulation time: 00 hr 24 min 04 sec)
Heartbeat CPU 0 instructions: 84500495 cycles: 145944297 heartbeat IPC: 0.1937 cumulative IPC: 0.2639 (Simulation time: 00 hr 24 min 23 sec)
Heartbeat CPU 0 instructions: 85000495 cycles: 148645965 heartbeat IPC: 0.1851 cumulative IPC: 0.2623 (Simulation time: 00 hr 24 min 43 sec)
Heartbeat CPU 0 instructions: 85500495 cycles: 151321191 heartbeat IPC: 0.1869 cumulative IPC: 0.2608 (Simulation time: 00 hr 25 min 03 sec)
Heartbeat CPU 0 instructions: 86000500 cycles: 153961115 heartbeat IPC: 0.1894 cumulative IPC: 0.2594 (Simulation time: 00 hr 25 min 23 sec)
Heartbeat CPU 0 instructions: 86500501 cycles: 156532934 heartbeat IPC: 0.1944 cumulative IPC: 0.2582 (Simulation time: 00 hr 25 min 42 sec)
Heartbeat CPU 0 instructions: 87000501 cycles: 159134525 heartbeat IPC: 0.1922 cumulative IPC: 0.2571 (Simulation time: 00 hr 26 min 01 sec)
Heartbeat CPU 0 instructions: 87500501 cycles: 161816106 heartbeat IPC: 0.1865 cumulative IPC: 0.2558 (Simulation time: 00 hr 26 min 20 sec)
Heartbeat CPU 0 instructions: 88000502 cycles: 164385507 heartbeat IPC: 0.1946 cumulative IPC: 0.2547 (Simulation time: 00 hr 26 min 38 sec)
Heartbeat CPU 0 instructions: 88500502 cycles: 167300241 heartbeat IPC: 0.1715 cumulative IPC: 0.2531 (Simulation time: 00 hr 26 min 59 sec)
Heartbeat CPU 0 instructions: 89000503 cycles: 169953060 heartbeat IPC: 0.1885 cumulative IPC: 0.252 (Simulation time: 00 hr 27 min 17 sec)
Heartbeat CPU 0 instructions: 89500503 cycles: 172406434 heartbeat IPC: 0.2038 cumulative IPC: 0.2513 (Simulation time: 00 hr 27 min 35 sec)
Heartbeat CPU 0 instructions: 90000503 cycles: 174742291 heartbeat IPC: 0.2141 cumulative IPC: 0.2507 (Simulation time: 00 hr 27 min 51 sec)
Heartbeat CPU 0 instructions: 90500510 cycles: 177657781 heartbeat IPC: 0.1715 cumulative IPC: 0.2493 (Simulation time: 00 hr 28 min 11 sec)
Heartbeat CPU 0 instructions: 91000510 cycles: 180115541 heartbeat IPC: 0.2034 cumulative IPC: 0.2486 (Simulation time: 00 hr 28 min 28 sec)
Heartbeat CPU 0 instructions: 91500513 cycles: 182682131 heartbeat IPC: 0.1948 cumulative IPC: 0.2478 (Simulation time: 00 hr 28 min 46 sec)
Heartbeat CPU 0 instructions: 92000513 cycles: 185346857 heartbeat IPC: 0.1876 cumulative IPC: 0.2468 (Simulation time: 00 hr 29 min 04 sec)
Heartbeat CPU 0 instructions: 92500514 cycles: 188035065 heartbeat IPC: 0.186 cumulative IPC: 0.2459 (Simulation time: 00 hr 29 min 23 sec)
Heartbeat CPU 0 instructions: 93000515 cycles: 190659316 heartbeat IPC: 0.1905 cumulative IPC: 0.2451 (Simulation time: 00 hr 29 min 41 sec)
Heartbeat CPU 0 instructions: 93500521 cycles: 193190321 heartbeat IPC: 0.1976 cumulative IPC: 0.2444 (Simulation time: 00 hr 29 min 59 sec)
Heartbeat CPU 0 instructions: 94000527 cycles: 196025843 heartbeat IPC: 0.1763 cumulative IPC: 0.2433 (Simulation time: 00 hr 30 min 18 sec)
Heartbeat CPU 0 instructions: 94500529 cycles: 198572801 heartbeat IPC: 0.1963 cumulative IPC: 0.2427 (Simulation time: 00 hr 30 min 36 sec)
Heartbeat CPU 0 instructions: 95000531 cycles: 201306996 heartbeat IPC: 0.1829 cumulative IPC: 0.2418 (Simulation time: 00 hr 30 min 54 sec)
Heartbeat CPU 0 instructions: 95500532 cycles: 203831181 heartbeat IPC: 0.1981 cumulative IPC: 0.2412 (Simulation time: 00 hr 31 min 12 sec)
Heartbeat CPU 0 instructions: 96000533 cycles: 206472090 heartbeat IPC: 0.1893 cumulative IPC: 0.2405 (Simulation time: 00 hr 31 min 30 sec)
Heartbeat CPU 0 instructions: 96500537 cycles: 208798219 heartbeat IPC: 0.215 cumulative IPC: 0.2402 (Simulation time: 00 hr 31 min 46 sec)
Heartbeat CPU 0 instructions: 97000541 cycles: 210764580 heartbeat IPC: 0.2543 cumulative IPC: 0.2403 (Simulation time: 00 hr 31 min 59 sec)
Heartbeat CPU 0 instructions: 97500545 cycles: 211851782 heartbeat IPC: 0.4599 cumulative IPC: 0.2415 (Simulation time: 00 hr 32 min 07 sec)
Heartbeat CPU 0 instructions: 98000547 cycles: 213219212 heartbeat IPC: 0.3657 cumulative IPC: 0.2424 (Simulation time: 00 hr 32 min 17 sec)
Heartbeat CPU 0 instructions: 98500551 cycles: 214707457 heartbeat IPC: 0.336 cumulative IPC: 0.2431 (Simulation time: 00 hr 32 min 28 sec)
Heartbeat CPU 0 instructions: 99000558 cycles: 216615240 heartbeat IPC: 0.2621 cumulative IPC: 0.2433 (Simulation time: 00 hr 32 min 41 sec)
Heartbeat CPU 0 instructions: 99500559 cycles: 218610172 heartbeat IPC: 0.2506 cumulative IPC: 0.2433 (Simulation time: 00 hr 32 min 55 sec)
Heartbeat CPU 0 instructions: 100000559 cycles: 220463056 heartbeat IPC: 0.2698 cumulative IPC: 0.2436 (Simulation time: 00 hr 33 min 08 sec)
Heartbeat CPU 0 instructions: 100500559 cycles: 222283843 heartbeat IPC: 0.2746 cumulative IPC: 0.2439 (Simulation time: 00 hr 33 min 21 sec)
Heartbeat CPU 0 instructions: 101000562 cycles: 223067212 heartbeat IPC: 0.6383 cumulative IPC: 0.2453 (Simulation time: 00 hr 33 min 27 sec)
Heartbeat CPU 0 instructions: 101500564 cycles: 223569253 heartbeat IPC: 0.9959 cumulative IPC: 0.2472 (Simulation time: 00 hr 33 min 30 sec)
Heartbeat CPU 0 instructions: 102000564 cycles: 223929889 heartbeat IPC: 1.386 cumulative IPC: 0.2491 (Simulation time: 00 hr 33 min 33 sec)
Heartbeat CPU 0 instructions: 102500564 cycles: 224357944 heartbeat IPC: 1.168 cumulative IPC: 0.251 (Simulation time: 00 hr 33 min 36 sec)
Heartbeat CPU 0 instructions: 103000564 cycles: 224763556 heartbeat IPC: 1.233 cumulative IPC: 0.2529 (Simulation time: 00 hr 33 min 38 sec)
Heartbeat CPU 0 instructions: 103500566 cycles: 225197505 heartbeat IPC: 1.152 cumulative IPC: 0.2548 (Simulation time: 00 hr 33 min 41 sec)
Heartbeat CPU 0 instructions: 104000568 cycles: 225653271 heartbeat IPC: 1.097 cumulative IPC: 0.2566 (Simulation time: 00 hr 33 min 44 sec)
Heartbeat CPU 0 instructions: 104500568 cycles: 225999330 heartbeat IPC: 1.445 cumulative IPC: 0.2585 (Simulation time: 00 hr 33 min 46 sec)
Heartbeat CPU 0 instructions: 105000570 cycles: 226336128 heartbeat IPC: 1.485 cumulative IPC: 0.2605 (Simulation time: 00 hr 33 min 48 sec)
Heartbeat CPU 0 instructions: 105500570 cycles: 226669680 heartbeat IPC: 1.499 cumulative IPC: 0.2624 (Simulation time: 00 hr 33 min 52 sec)
Heartbeat CPU 0 instructions: 106000570 cycles: 229844070 heartbeat IPC: 0.1575 cumulative IPC: 0.2609 (Simulation time: 00 hr 34 min 31 sec)
Heartbeat CPU 0 instructions: 106500574 cycles: 233372923 heartbeat IPC: 0.1417 cumulative IPC: 0.259 (Simulation time: 00 hr 35 min 16 sec)
Heartbeat CPU 0 instructions: 107000575 cycles: 235900615 heartbeat IPC: 0.1978 cumulative IPC: 0.2583 (Simulation time: 00 hr 35 min 46 sec)
Heartbeat CPU 0 instructions: 107500579 cycles: 237723030 heartbeat IPC: 0.2744 cumulative IPC: 0.2584 (Simulation time: 00 hr 36 min 08 sec)
Heartbeat CPU 0 instructions: 108000583 cycles: 239510604 heartbeat IPC: 0.2797 cumulative IPC: 0.2586 (Simulation time: 00 hr 36 min 30 sec)
Heartbeat CPU 0 instructions: 108500587 cycles: 241314240 heartbeat IPC: 0.2772 cumulative IPC: 0.2587 (Simulation time: 00 hr 36 min 51 sec)
Heartbeat CPU 0 instructions: 109000590 cycles: 243084596 heartbeat IPC: 0.2824 cumulative IPC: 0.2589 (Simulation time: 00 hr 37 min 13 sec)
Heartbeat CPU 0 instructions: 109500590 cycles: 244604349 heartbeat IPC: 0.329 cumulative IPC: 0.2594 (Simulation time: 00 hr 37 min 31 sec)
Heartbeat CPU 0 instructions: 110000593 cycles: 245108611 heartbeat IPC: 0.9916 cumulative IPC: 0.261 (Simulation time: 00 hr 37 min 35 sec)
Heartbeat CPU 0 instructions: 110500594 cycles: 245557611 heartbeat IPC: 1.114 cumulative IPC: 0.2626 (Simulation time: 00 hr 37 min 39 sec)
Heartbeat CPU 0 instructions: 111000599 cycles: 245658327 heartbeat IPC: 4.965 cumulative IPC: 0.2647 (Simulation time: 00 hr 37 min 41 sec)
Heartbeat CPU 0 instructions: 111500602 cycles: 246253166 heartbeat IPC: 0.8406 cumulative IPC: 0.2662 (Simulation time: 00 hr 37 min 45 sec)
Heartbeat CPU 0 instructions: 112000603 cycles: 249114030 heartbeat IPC: 0.1748 cumulative IPC: 0.2651 (Simulation time: 00 hr 38 min 05 sec)
Heartbeat CPU 0 instructions: 112500607 cycles: 251895736 heartbeat IPC: 0.1797 cumulative IPC: 0.264 (Simulation time: 00 hr 38 min 24 sec)
Heartbeat CPU 0 instructions: 113000607 cycles: 254494312 heartbeat IPC: 0.1924 cumulative IPC: 0.2633 (Simulation time: 00 hr 38 min 42 sec)
Heartbeat CPU 0 instructions: 113500607 cycles: 257231885 heartbeat IPC: 0.1826 cumulative IPC: 0.2624 (Simulation time: 00 hr 39 min 01 sec)
Heartbeat CPU 0 instructions: 114000607 cycles: 259560676 heartbeat IPC: 0.2147 cumulative IPC: 0.2619 (Simulation time: 00 hr 39 min 17 sec)
Heartbeat CPU 0 instructions: 114500608 cycles: 262210966 heartbeat IPC: 0.1887 cumulative IPC: 0.2611 (Simulation time: 00 hr 39 min 36 sec)
Heartbeat CPU 0 instructions: 115000614 cycles: 264932288 heartbeat IPC: 0.1837 cumulative IPC: 0.2603 (Simulation time: 00 hr 39 min 54 sec)
Heartbeat CPU 0 instructions: 115500616 cycles: 267686187 heartbeat IPC: 0.1816 cumulative IPC: 0.2594 (Simulation time: 00 hr 40 min 13 sec)
Heartbeat CPU 0 instructions: 116000616 cycles: 270331966 heartbeat IPC: 0.189 cumulative IPC: 0.2587 (Simulation time: 00 hr 40 min 31 sec)
Heartbeat CPU 0 instructions: 116500616 cycles: 273175828 heartbeat IPC: 0.1758 cumulative IPC: 0.2578 (Simulation time: 00 hr 40 min 50 sec)
Heartbeat CPU 0 instructions: 117000622 cycles: 275797675 heartbeat IPC: 0.1907 cumulative IPC: 0.2571 (Simulation time: 00 hr 41 min 07 sec)
Heartbeat CPU 0 instructions: 117500622 cycles: 278637675 heartbeat IPC: 0.1761 cumulative IPC: 0.2562 (Simulation time: 00 hr 41 min 27 sec)
Heartbeat CPU 0 instructions: 118000628 cycles: 280815633 heartbeat IPC: 0.2296 cumulative IPC: 0.256 (Simulation time: 00 hr 41 min 42 sec)
Heartbeat CPU 0 instructions: 118500630 cycles: 283296407 heartbeat IPC: 0.2016 cumulative IPC: 0.2555 (Simulation time: 00 hr 41 min 59 sec)
Heartbeat CPU 0 instructions: 119000635 cycles: 285196153 heartbeat IPC: 0.2632 cumulative IPC: 0.2556 (Simulation time: 00 hr 42 min 12 sec)
Heartbeat CPU 0 instructions: 119500636 cycles: 287635908 heartbeat IPC: 0.2049 cumulative IPC: 0.2551 (Simulation time: 00 hr 42 min 29 sec)
Heartbeat CPU 0 instructions: 120000638 cycles: 290153627 heartbeat IPC: 0.1986 cumulative IPC: 0.2546 (Simulation time: 00 hr 42 min 46 sec)
Heartbeat CPU 0 instructions: 120500643 cycles: 292852285 heartbeat IPC: 0.1853 cumulative IPC: 0.2539 (Simulation time: 00 hr 43 min 04 sec)
Heartbeat CPU 0 instructions: 121000643 cycles: 295271316 heartbeat IPC: 0.2067 cumulative IPC: 0.2535 (Simulation time: 00 hr 43 min 21 sec)
Heartbeat CPU 0 instructions: 121500646 cycles: 297882587 heartbeat IPC: 0.1915 cumulative IPC: 0.2529 (Simulation time: 00 hr 43 min 39 sec)
Heartbeat CPU 0 instructions: 122000648 cycles: 300412051 heartbeat IPC: 0.1977 cumulative IPC: 0.2524 (Simulation time: 00 hr 43 min 57 sec)
Heartbeat CPU 0 instructions: 122500652 cycles: 303073132 heartbeat IPC: 0.1879 cumulative IPC: 0.2518 (Simulation time: 00 hr 44 min 15 sec)
Heartbeat CPU 0 instructions: 123000653 cycles: 305668012 heartbeat IPC: 0.1927 cumulative IPC: 0.2513 (Simulation time: 00 hr 44 min 33 sec)
Heartbeat CPU 0 instructions: 123500654 cycles: 308080917 heartbeat IPC: 0.2072 cumulative IPC: 0.251 (Simulation time: 00 hr 44 min 49 sec)
Heartbeat CPU 0 instructions: 124000661 cycles: 310007863 heartbeat IPC: 0.2595 cumulative IPC: 0.251 (Simulation time: 00 hr 45 min 02 sec)
Heartbeat CPU 0 instructions: 124500664 cycles: 311235021 heartbeat IPC: 0.4074 cumulative IPC: 0.2517 (Simulation time: 00 hr 45 min 11 sec)
Heartbeat CPU 0 instructions: 125000667 cycles: 313072789 heartbeat IPC: 0.2721 cumulative IPC: 0.2518 (Simulation time: 00 hr 45 min 24 sec)
Heartbeat CPU 0 instructions: 125500671 cycles: 315085051 heartbeat IPC: 0.2485 cumulative IPC: 0.2518 (Simulation time: 00 hr 45 min 38 sec)
Heartbeat CPU 0 instructions: 126000678 cycles: 316401467 heartbeat IPC: 0.3798 cumulative IPC: 0.2523 (Simulation time: 00 hr 45 min 47 sec)
Heartbeat CPU 0 instructions: 126500680 cycles: 316826074 heartbeat IPC: 1.178 cumulative IPC: 0.2536 (Simulation time: 00 hr 45 min 50 sec)
Heartbeat CPU 0 instructions: 127000680 cycles: 317226229 heartbeat IPC: 1.25 cumulative IPC: 0.2549 (Simulation time: 00 hr 45 min 53 sec)
Heartbeat CPU 0 instructions: 127500680 cycles: 317651811 heartbeat IPC: 1.175 cumulative IPC: 0.2562 (Simulation time: 00 hr 45 min 55 sec)
Heartbeat CPU 0 instructions: 128000680 cycles: 318044809 heartbeat IPC: 1.272 cumulative IPC: 0.2576 (Simulation time: 00 hr 45 min 58 sec)
Heartbeat CPU 0 instructions: 128500680 cycles: 318494910 heartbeat IPC: 1.111 cumulative IPC: 0.2588 (Simulation time: 00 hr 46 min 01 sec)
Heartbeat CPU 0 instructions: 129000681 cycles: 318888420 heartbeat IPC: 1.271 cumulative IPC: 0.2601 (Simulation time: 00 hr 46 min 03 sec)
Heartbeat CPU 0 instructions: 129500686 cycles: 319231227 heartbeat IPC: 1.459 cumulative IPC: 0.2615 (Simulation time: 00 hr 46 min 06 sec)
Heartbeat CPU 0 instructions: 130000686 cycles: 322234454 heartbeat IPC: 0.1665 cumulative IPC: 0.2606 (Simulation time: 00 hr 46 min 44 sec)
Heartbeat CPU 0 instructions: 130500689 cycles: 325661212 heartbeat IPC: 0.1459 cumulative IPC: 0.2593 (Simulation time: 00 hr 47 min 27 sec)
Heartbeat CPU 0 instructions: 131000695 cycles: 327721413 heartbeat IPC: 0.2427 cumulative IPC: 0.2592 (Simulation time: 00 hr 47 min 51 sec)
Heartbeat CPU 0 instructions: 131500698 cycles: 329501074 heartbeat IPC: 0.281 cumulative IPC: 0.2593 (Simulation time: 00 hr 48 min 12 sec)
Heartbeat CPU 0 instructions: 132000703 cycles: 331288496 heartbeat IPC: 0.2797 cumulative IPC: 0.2594 (Simulation time: 00 hr 48 min 34 sec)
Heartbeat CPU 0 instructions: 132500706 cycles: 333084776 heartbeat IPC: 0.2784 cumulative IPC: 0.2595 (Simulation time: 00 hr 48 min 56 sec)
Heartbeat CPU 0 instructions: 133000709 cycles: 334441649 heartbeat IPC: 0.3685 cumulative IPC: 0.26 (Simulation time: 00 hr 49 min 11 sec)
Heartbeat CPU 0 instructions: 133500713 cycles: 334927239 heartbeat IPC: 1.03 cumulative IPC: 0.2612 (Simulation time: 00 hr 49 min 16 sec)
Heartbeat CPU 0 instructions: 134000715 cycles: 335194772 heartbeat IPC: 1.869 cumulative IPC: 0.2625 (Simulation time: 00 hr 49 min 18 sec)
Heartbeat CPU 0 instructions: 134500719 cycles: 335295611 heartbeat IPC: 4.958 cumulative IPC: 0.264 (Simulation time: 00 hr 49 min 20 sec)
Heartbeat CPU 0 instructions: 135000720 cycles: 338116044 heartbeat IPC: 0.1773 cumulative IPC: 0.2632 (Simulation time: 00 hr 49 min 39 sec)
Heartbeat CPU 0 instructions: 135500725 cycles: 340877089 heartbeat IPC: 0.1811 cumulative IPC: 0.2625 (Simulation time: 00 hr 49 min 58 sec)
Heartbeat CPU 0 instructions: 136000731 cycles: 343628289 heartbeat IPC: 0.1817 cumulative IPC: 0.2619 (Simulation time: 00 hr 50 min 17 sec)
Heartbeat CPU 0 instructions: 136500738 cycles: 345776050 heartbeat IPC: 0.2328 cumulative IPC: 0.2617 (Simulation time: 00 hr 50 min 32 sec)
Heartbeat CPU 0 instructions: 137000738 cycles: 348266884 heartbeat IPC: 0.2007 cumulative IPC: 0.2612 (Simulation time: 00 hr 50 min 49 sec)
Heartbeat CPU 0 instructions: 137500739 cycles: 350874728 heartbeat IPC: 0.1917 cumulative IPC: 0.2607 (Simulation time: 00 hr 51 min 07 sec)
Heartbeat CPU 0 instructions: 138000740 cycles: 353605078 heartbeat IPC: 0.1831 cumulative IPC: 0.26 (Simulation time: 00 hr 51 min 25 sec)
Heartbeat CPU 0 instructions: 138500745 cycles: 356341838 heartbeat IPC: 0.1827 cumulative IPC: 0.2594 (Simulation time: 00 hr 51 min 44 sec)
Heartbeat CPU 0 instructions: 139000747 cycles: 359014151 heartbeat IPC: 0.1871 cumulative IPC: 0.2589 (Simulation time: 00 hr 52 min 02 sec)
Heartbeat CPU 0 instructions: 139500753 cycles: 361939114 heartbeat IPC: 0.1709 cumulative IPC: 0.2581 (Simulation time: 00 hr 52 min 21 sec)
Heartbeat CPU 0 instructions: 140000755 cycles: 364386294 heartbeat IPC: 0.2043 cumulative IPC: 0.2577 (Simulation time: 00 hr 52 min 38 sec)
Heartbeat CPU 0 instructions: 140500757 cycles: 366387963 heartbeat IPC: 0.2498 cumulative IPC: 0.2577 (Simulation time: 00 hr 52 min 52 sec)
Heartbeat CPU 0 instructions: 141000757 cycles: 368362147 heartbeat IPC: 0.2533 cumulative IPC: 0.2577 (Simulation time: 00 hr 53 min 05 sec)
Heartbeat CPU 0 instructions: 141500757 cycles: 370832686 heartbeat IPC: 0.2024 cumulative IPC: 0.2573 (Simulation time: 00 hr 53 min 23 sec)
Heartbeat CPU 0 instructions: 142000759 cycles: 373431722 heartbeat IPC: 0.1924 cumulative IPC: 0.2568 (Simulation time: 00 hr 53 min 40 sec)
Heartbeat CPU 0 instructions: 142500761 cycles: 375997706 heartbeat IPC: 0.1949 cumulative IPC: 0.2564 (Simulation time: 00 hr 53 min 58 sec)
Heartbeat CPU 0 instructions: 143000761 cycles: 378637674 heartbeat IPC: 0.1894 cumulative IPC: 0.2559 (Simulation time: 00 hr 54 min 16 sec)
Heartbeat CPU 0 instructions: 143500767 cycles: 380950963 heartbeat IPC: 0.2161 cumulative IPC: 0.2556 (Simulation time: 00 hr 54 min 32 sec)
Heartbeat CPU 0 instructions: 144000767 cycles: 383607278 heartbeat IPC: 0.1882 cumulative IPC: 0.2552 (Simulation time: 00 hr 54 min 50 sec)
Heartbeat CPU 0 instructions: 144500772 cycles: 386176550 heartbeat IPC: 0.1946 cumulative IPC: 0.2547 (Simulation time: 00 hr 55 min 08 sec)
Heartbeat CPU 0 instructions: 145000772 cycles: 388747685 heartbeat IPC: 0.1945 cumulative IPC: 0.2543 (Simulation time: 00 hr 55 min 25 sec)
Heartbeat CPU 0 instructions: 145500777 cycles: 390979241 heartbeat IPC: 0.2241 cumulative IPC: 0.2541 (Simulation time: 00 hr 55 min 41 sec)
Heartbeat CPU 0 instructions: 146000778 cycles: 392280244 heartbeat IPC: 0.3843 cumulative IPC: 0.2546 (Simulation time: 00 hr 55 min 50 sec)
Heartbeat CPU 0 instructions: 146500780 cycles: 393924758 heartbeat IPC: 0.304 cumulative IPC: 0.2548 (Simulation time: 00 hr 56 min 02 sec)
Heartbeat CPU 0 instructions: 147000785 cycles: 395267816 heartbeat IPC: 0.3723 cumulative IPC: 0.2552 (Simulation time: 00 hr 56 min 11 sec)
Heartbeat CPU 0 instructions: 147500785 cycles: 395636736 heartbeat IPC: 1.355 cumulative IPC: 0.2563 (Simulation time: 00 hr 56 min 14 sec)
Heartbeat CPU 0 instructions: 148000785 cycles: 396046354 heartbeat IPC: 1.221 cumulative IPC: 0.2573 (Simulation time: 00 hr 56 min 16 sec)
Heartbeat CPU 0 instructions: 148500785 cycles: 396430960 heartbeat IPC: 1.3 cumulative IPC: 0.2584 (Simulation time: 00 hr 56 min 19 sec)
Heartbeat CPU 0 instructions: 149000785 cycles: 396874692 heartbeat IPC: 1.127 cumulative IPC: 0.2594 (Simulation time: 00 hr 56 min 22 sec)
Heartbeat CPU 0 instructions: 149500786 cycles: 397285556 heartbeat IPC: 1.217 cumulative IPC: 0.2604 (Simulation time: 00 hr 56 min 24 sec)
Heartbeat CPU 0 instructions: 150000788 cycles: 397915610 heartbeat IPC: 0.7936 cumulative IPC: 0.2613 (Simulation time: 00 hr 56 min 31 sec)
Heartbeat CPU 0 instructions: 150500792 cycles: 401430473 heartbeat IPC: 0.1423 cumulative IPC: 0.2602 (Simulation time: 00 hr 57 min 15 sec)
Heartbeat CPU 0 instructions: 151000792 cycles: 404157529 heartbeat IPC: 0.1833 cumulative IPC: 0.2597 (Simulation time: 00 hr 57 min 48 sec)
Heartbeat CPU 0 instructions: 151500795 cycles: 405936934 heartbeat IPC: 0.281 cumulative IPC: 0.2598 (Simulation time: 00 hr 58 min 09 sec)
Heartbeat CPU 0 instructions: 152000799 cycles: 407707241 heartbeat IPC: 0.2824 cumulative IPC: 0.2599 (Simulation time: 00 hr 58 min 30 sec)
Heartbeat CPU 0 instructions: 152500803 cycles: 409451184 heartbeat IPC: 0.2867 cumulative IPC: 0.26 (Simulation time: 00 hr 58 min 51 sec)
Heartbeat CPU 0 instructions: 153000805 cycles: 410471273 heartbeat IPC: 0.4902 cumulative IPC: 0.2606 (Simulation time: 00 hr 59 min 03 sec)
Heartbeat CPU 0 instructions: 153500810 cycles: 410917728 heartbeat IPC: 1.12 cumulative IPC: 0.2615 (Simulation time: 00 hr 59 min 07 sec)
Heartbeat CPU 0 instructions: 154000814 cycles: 411018450 heartbeat IPC: 4.964 cumulative IPC: 0.2627 (Simulation time: 00 hr 59 min 08 sec)
Heartbeat CPU 0 instructions: 154500818 cycles: 413065523 heartbeat IPC: 0.2443 cumulative IPC: 0.2626 (Simulation time: 00 hr 59 min 22 sec)
Heartbeat CPU 0 instructions: 155000823 cycles: 415868667 heartbeat IPC: 0.1784 cumulative IPC: 0.2621 (Simulation time: 00 hr 59 min 42 sec)
Heartbeat CPU 0 instructions: 155500826 cycles: 418843886 heartbeat IPC: 0.1681 cumulative IPC: 0.2614 (Simulation time: 01 hr 00 min 02 sec)
Heartbeat CPU 0 instructions: 156000827 cycles: 420478860 heartbeat IPC: 0.3058 cumulative IPC: 0.2615 (Simulation time: 01 hr 00 min 13 sec)
Heartbeat CPU 0 instructions: 156500834 cycles: 423254100 heartbeat IPC: 0.1802 cumulative IPC: 0.261 (Simulation time: 01 hr 00 min 32 sec)
Heartbeat CPU 0 instructions: 157000834 cycles: 426127408 heartbeat IPC: 0.174 cumulative IPC: 0.2604 (Simulation time: 01 hr 00 min 52 sec)
Heartbeat CPU 0 instructions: 157500834 cycles: 428576560 heartbeat IPC: 0.2042 cumulative IPC: 0.2601 (Simulation time: 01 hr 01 min 08 sec)
Heartbeat CPU 0 instructions: 158000841 cycles: 431098142 heartbeat IPC: 0.1983 cumulative IPC: 0.2597 (Simulation time: 01 hr 01 min 25 sec)
Heartbeat CPU 0 instructions: 158500843 cycles: 433903888 heartbeat IPC: 0.1782 cumulative IPC: 0.2591 (Simulation time: 01 hr 01 min 44 sec)
Heartbeat CPU 0 instructions: 159000845 cycles: 436639258 heartbeat IPC: 0.1828 cumulative IPC: 0.2586 (Simulation time: 01 hr 02 min 02 sec)
Heartbeat CPU 0 instructions: 159500845 cycles: 439066817 heartbeat IPC: 0.206 cumulative IPC: 0.2583 (Simulation time: 01 hr 02 min 19 sec)
Heartbeat CPU 0 instructions: 160000849 cycles: 441541148 heartbeat IPC: 0.2021 cumulative IPC: 0.258 (Simulation time: 01 hr 02 min 36 sec)
Heartbeat CPU 0 instructions: 160500849 cycles: 444073437 heartbeat IPC: 0.1974 cumulative IPC: 0.2577 (Simulation time: 01 hr 02 min 53 sec)
Heartbeat CPU 0 instructions: 161000852 cycles: 446581483 heartbeat IPC: 0.1994 cumulative IPC: 0.2573 (Simulation time: 01 hr 03 min 11 sec)
Heartbeat CPU 0 instructions: 161500854 cycles: 449229043 heartbeat IPC: 0.1889 cumulative IPC: 0.2569 (Simulation time: 01 hr 03 min 29 sec)
Heartbeat CPU 0 instructions: 162000854 cycles: 451655146 heartbeat IPC: 0.2061 cumulative IPC: 0.2566 (Simulation time: 01 hr 03 min 46 sec)
Heartbeat CPU 0 instructions: 162500854 cycles: 454371652 heartbeat IPC: 0.1841 cumulative IPC: 0.2562 (Simulation time: 01 hr 04 min 04 sec)
Heartbeat CPU 0 instructions: 163000855 cycles: 456960462 heartbeat IPC: 0.1931 cumulative IPC: 0.2558 (Simulation time: 01 hr 04 min 22 sec)
Heartbeat CPU 0 instructions: 163500855 cycles: 458950859 heartbeat IPC: 0.2512 cumulative IPC: 0.2558 (Simulation time: 01 hr 04 min 35 sec)
Heartbeat CPU 0 instructions: 164000857 cycles: 460244774 heartbeat IPC: 0.3864 cumulative IPC: 0.2562 (Simulation time: 01 hr 04 min 45 sec)
Heartbeat CPU 0 instructions: 164500858 cycles: 461219790 heartbeat IPC: 0.5128 cumulative IPC: 0.2567 (Simulation time: 01 hr 04 min 51 sec)
Heartbeat CPU 0 instructions: 165000858 cycles: 461601686 heartbeat IPC: 1.309 cumulative IPC: 0.2576 (Simulation time: 01 hr 04 min 54 sec)
Heartbeat CPU 0 instructions: 165500858 cycles: 462014464 heartbeat IPC: 1.211 cumulative IPC: 0.2585 (Simulation time: 01 hr 04 min 57 sec)
Heartbeat CPU 0 instructions: 166000858 cycles: 462457725 heartbeat IPC: 1.128 cumulative IPC: 0.2594 (Simulation time: 01 hr 04 min 59 sec)
Heartbeat CPU 0 instructions: 166500858 cycles: 462874684 heartbeat IPC: 1.199 cumulative IPC: 0.2602 (Simulation time: 01 hr 05 min 02 sec)
Heartbeat CPU 0 instructions: 167000864 cycles: 464687848 heartbeat IPC: 0.2758 cumulative IPC: 0.2603 (Simulation time: 01 hr 05 min 24 sec)
Heartbeat CPU 0 instructions: 167500865 cycles: 467966803 heartbeat IPC: 0.1525 cumulative IPC: 0.2595 (Simulation time: 01 hr 06 min 03 sec)
Heartbeat CPU 0 instructions: 168000868 cycles: 469801728 heartbeat IPC: 0.2725 cumulative IPC: 0.2596 (Simulation time: 01 hr 06 min 24 sec)
Heartbeat CPU 0 instructions: 168500872 cycles: 471526956 heartbeat IPC: 0.2898 cumulative IPC: 0.2597 (Simulation time: 01 hr 06 min 45 sec)
Heartbeat CPU 0 instructions: 169000876 cycles: 473284010 heartbeat IPC: 0.2846 cumulative IPC: 0.2598 (Simulation time: 01 hr 07 min 06 sec)
Heartbeat CPU 0 instructions: 169500878 cycles: 473977551 heartbeat IPC: 0.7209 cumulative IPC: 0.2605 (Simulation time: 01 hr 07 min 13 sec)
Heartbeat CPU 0 instructions: 170000881 cycles: 474222852 heartbeat IPC: 2.038 cumulative IPC: 0.2614 (Simulation time: 01 hr 07 min 15 sec)
Heartbeat CPU 0 instructions: 170500881 cycles: 475700726 heartbeat IPC: 0.3383 cumulative IPC: 0.2617 (Simulation time: 01 hr 07 min 25 sec)
Heartbeat CPU 0 instructions: 171000881 cycles: 478710608 heartbeat IPC: 0.1661 cumulative IPC: 0.261 (Simulation time: 01 hr 07 min 46 sec)
Heartbeat CPU 0 instructions: 171500881 cycles: 481676223 heartbeat IPC: 0.1686 cumulative IPC: 0.2605 (Simulation time: 01 hr 08 min 06 sec)
Heartbeat CPU 0 instructions: 172000882 cycles: 482781378 heartbeat IPC: 0.4524 cumulative IPC: 0.2609 (Simulation time: 01 hr 08 min 14 sec)
Heartbeat CPU 0 instructions: 172500884 cycles: 485653507 heartbeat IPC: 0.1741 cumulative IPC: 0.2604 (Simulation time: 01 hr 08 min 33 sec)
Heartbeat CPU 0 instructions: 173000884 cycles: 488518354 heartbeat IPC: 0.1745 cumulative IPC: 0.2599 (Simulation time: 01 hr 08 min 52 sec)
Heartbeat CPU 0 instructions: 173500884 cycles: 490805226 heartbeat IPC: 0.2186 cumulative IPC: 0.2597 (Simulation time: 01 hr 09 min 08 sec)
Heartbeat CPU 0 instructions: 174000884 cycles: 492671355 heartbeat IPC: 0.2679 cumulative IPC: 0.2597 (Simulation time: 01 hr 09 min 20 sec)
Heartbeat CPU 0 instructions: 174500884 cycles: 494938966 heartbeat IPC: 0.2205 cumulative IPC: 0.2595 (Simulation time: 01 hr 09 min 36 sec)
Heartbeat CPU 0 instructions: 175000890 cycles: 496289745 heartbeat IPC: 0.3702 cumulative IPC: 0.2598 (Simulation time: 01 hr 09 min 45 sec)
Heartbeat CPU 0 instructions: 175500891 cycles: 498975077 heartbeat IPC: 0.1862 cumulative IPC: 0.2594 (Simulation time: 01 hr 10 min 03 sec)
Heartbeat CPU 0 instructions: 176000893 cycles: 501490263 heartbeat IPC: 0.1988 cumulative IPC: 0.2591 (Simulation time: 01 hr 10 min 20 sec)
Heartbeat CPU 0 instructions: 176500894 cycles: 503944577 heartbeat IPC: 0.2037 cumulative IPC: 0.2588 (Simulation time: 01 hr 10 min 37 sec)
Heartbeat CPU 0 instructions: 177000896 cycles: 506126911 heartbeat IPC: 0.2291 cumulative IPC: 0.2587 (Simulation time: 01 hr 10 min 52 sec)
Heartbeat CPU 0 instructions: 177500901 cycles: 508704003 heartbeat IPC: 0.194 cumulative IPC: 0.2584 (Simulation time: 01 hr 11 min 10 sec)
Heartbeat CPU 0 instructions: 178000902 cycles: 511348257 heartbeat IPC: 0.1891 cumulative IPC: 0.258 (Simulation time: 01 hr 11 min 28 sec)
Heartbeat CPU 0 instructions: 178500904 cycles: 513966985 heartbeat IPC: 0.1909 cumulative IPC: 0.2576 (Simulation time: 01 hr 11 min 45 sec)
Heartbeat CPU 0 instructions: 179000909 cycles: 515524378 heartbeat IPC: 0.3211 cumulative IPC: 0.2578 (Simulation time: 01 hr 11 min 56 sec)
Heartbeat CPU 0 instructions: 179500910 cycles: 516461779 heartbeat IPC: 0.5334 cumulative IPC: 0.2583 (Simulation time: 01 hr 12 min 03 sec)
Heartbeat CPU 0 instructions: 180000913 cycles: 516823397 heartbeat IPC: 1.383 cumulative IPC: 0.2592 (Simulation time: 01 hr 12 min 05 sec)
Heartbeat CPU 0 instructions: 180500913 cycles: 517151387 heartbeat IPC: 1.524 cumulative IPC: 0.26 (Simulation time: 01 hr 12 min 07 sec)
Heartbeat CPU 0 instructions: 181000913 cycles: 517589687 heartbeat IPC: 1.141 cumulative IPC: 0.2608 (Simulation time: 01 hr 12 min 10 sec)
Heartbeat CPU 0 instructions: 181500913 cycles: 518368649 heartbeat IPC: 0.6419 cumulative IPC: 0.2613 (Simulation time: 01 hr 12 min 18 sec)
Heartbeat CPU 0 instructions: 182000917 cycles: 521779777 heartbeat IPC: 0.1466 cumulative IPC: 0.2606 (Simulation time: 01 hr 12 min 59 sec)
Heartbeat CPU 0 instructions: 182500920 cycles: 523623468 heartbeat IPC: 0.2712 cumulative IPC: 0.2606 (Simulation time: 01 hr 13 min 21 sec)
Heartbeat CPU 0 instructions: 183000925 cycles: 525328437 heartbeat IPC: 0.2933 cumulative IPC: 0.2607 (Simulation time: 01 hr 13 min 41 sec)
Heartbeat CPU 0 instructions: 183500928 cycles: 526628081 heartbeat IPC: 0.3847 cumulative IPC: 0.261 (Simulation time: 01 hr 13 min 56 sec)
Heartbeat CPU 0 instructions: 184000929 cycles: 526973494 heartbeat IPC: 1.448 cumulative IPC: 0.2618 (Simulation time: 01 hr 13 min 59 sec)
Heartbeat CPU 0 instructions: 184500931 cycles: 528319402 heartbeat IPC: 0.3715 cumulative IPC: 0.2621 (Simulation time: 01 hr 14 min 09 sec)
Heartbeat CPU 0 instructions: 185000931 cycles: 531360723 heartbeat IPC: 0.1644 cumulative IPC: 0.2615 (Simulation time: 01 hr 14 min 29 sec)
Heartbeat CPU 0 instructions: 185500932 cycles: 534122533 heartbeat IPC: 0.181 cumulative IPC: 0.2611 (Simulation time: 01 hr 14 min 48 sec)
Heartbeat CPU 0 instructions: 186000939 cycles: 536956848 heartbeat IPC: 0.1764 cumulative IPC: 0.2607 (Simulation time: 01 hr 15 min 07 sec)
Heartbeat CPU 0 instructions: 186500940 cycles: 539904953 heartbeat IPC: 0.1696 cumulative IPC: 0.2601 (Simulation time: 01 hr 15 min 26 sec)
Heartbeat CPU 0 instructions: 187000941 cycles: 542494496 heartbeat IPC: 0.1931 cumulative IPC: 0.2598 (Simulation time: 01 hr 15 min 44 sec)
Heartbeat CPU 0 instructions: 187500943 cycles: 544634129 heartbeat IPC: 0.2337 cumulative IPC: 0.2597 (Simulation time: 01 hr 15 min 58 sec)
Heartbeat CPU 0 instructions: 188000944 cycles: 547253060 heartbeat IPC: 0.1909 cumulative IPC: 0.2594 (Simulation time: 01 hr 16 min 16 sec)
Heartbeat CPU 0 instructions: 188500947 cycles: 549801313 heartbeat IPC: 0.1962 cumulative IPC: 0.2591 (Simulation time: 01 hr 16 min 33 sec)
Heartbeat CPU 0 instructions: 189000949 cycles: 551928883 heartbeat IPC: 0.235 cumulative IPC: 0.259 (Simulation time: 01 hr 16 min 48 sec)
Heartbeat CPU 0 instructions: 189500950 cycles: 553221277 heartbeat IPC: 0.3869 cumulative IPC: 0.2593 (Simulation time: 01 hr 16 min 58 sec)
Heartbeat CPU 0 instructions: 190000956 cycles: 555725475 heartbeat IPC: 0.1997 cumulative IPC: 0.259 (Simulation time: 01 hr 17 min 15 sec)
Heartbeat CPU 0 instructions: 190500956 cycles: 558245464 heartbeat IPC: 0.1984 cumulative IPC: 0.2587 (Simulation time: 01 hr 17 min 32 sec)
Heartbeat CPU 0 instructions: 191000962 cycles: 560357656 heartbeat IPC: 0.2367 cumulative IPC: 0.2586 (Simulation time: 01 hr 17 min 46 sec)
Heartbeat CPU 0 instructions: 191500964 cycles: 561297461 heartbeat IPC: 0.532 cumulative IPC: 0.2591 (Simulation time: 01 hr 17 min 53 sec)
Heartbeat CPU 0 instructions: 192000964 cycles: 561723384 heartbeat IPC: 1.174 cumulative IPC: 0.2598 (Simulation time: 01 hr 17 min 55 sec)
Heartbeat CPU 0 instructions: 192500965 cycles: 562104845 heartbeat IPC: 1.311 cumulative IPC: 0.2606 (Simulation time: 01 hr 17 min 58 sec)
Heartbeat CPU 0 instructions: 193000971 cycles: 562766232 heartbeat IPC: 0.756 cumulative IPC: 0.2612 (Simulation time: 01 hr 18 min 04 sec)
Heartbeat CPU 0 instructions: 193500976 cycles: 565932047 heartbeat IPC: 0.1579 cumulative IPC: 0.2606 (Simulation time: 01 hr 18 min 42 sec)
Heartbeat CPU 0 instructions: 194000976 cycles: 567698392 heartbeat IPC: 0.2831 cumulative IPC: 0.2606 (Simulation time: 01 hr 19 min 03 sec)
Heartbeat CPU 0 instructions: 194500983 cycles: 569358816 heartbeat IPC: 0.3011 cumulative IPC: 0.2608 (Simulation time: 01 hr 19 min 22 sec)
Heartbeat CPU 0 instructions: 195000983 cycles: 569875886 heartbeat IPC: 0.967 cumulative IPC: 0.2614 (Simulation time: 01 hr 19 min 27 sec)
Heartbeat CPU 0 instructions: 195500986 cycles: 571001948 heartbeat IPC: 0.444 cumulative IPC: 0.2618 (Simulation time: 01 hr 19 min 35 sec)
Heartbeat CPU 0 instructions: 196000986 cycles: 573848463 heartbeat IPC: 0.1757 cumulative IPC: 0.2613 (Simulation time: 01 hr 19 min 54 sec)
Heartbeat CPU 0 instructions: 196500986 cycles: 576574144 heartbeat IPC: 0.1834 cumulative IPC: 0.261 (Simulation time: 01 hr 20 min 12 sec)
Heartbeat CPU 0 instructions: 197000988 cycles: 579273363 heartbeat IPC: 0.1852 cumulative IPC: 0.2606 (Simulation time: 01 hr 20 min 30 sec)
Heartbeat CPU 0 instructions: 197500988 cycles: 582183942 heartbeat IPC: 0.1718 cumulative IPC: 0.2601 (Simulation time: 01 hr 20 min 50 sec)
Heartbeat CPU 0 instructions: 198000989 cycles: 584872224 heartbeat IPC: 0.186 cumulative IPC: 0.2598 (Simulation time: 01 hr 21 min 08 sec)
Heartbeat CPU 0 instructions: 198500996 cycles: 587469279 heartbeat IPC: 0.1925 cumulative IPC: 0.2595 (Simulation time: 01 hr 21 min 25 sec)
Heartbeat CPU 0 instructions: 199000996 cycles: 589968057 heartbeat IPC: 0.2001 cumulative IPC: 0.2592 (Simulation time: 01 hr 21 min 43 sec)
Heartbeat CPU 0 instructions: 199501000 cycles: 591046457 heartbeat IPC: 0.4637 cumulative IPC: 0.2596 (Simulation time: 01 hr 21 min 51 sec)
Heartbeat CPU 0 instructions: 200001005 cycles: 591169503 heartbeat IPC: 4.064 cumulative IPC: 0.2604 (Simulation time: 01 hr 21 min 52 sec)
Heartbeat CPU 0 instructions: 200501009 cycles: 591695445 heartbeat IPC: 0.9507 cumulative IPC: 0.2611 (Simulation time: 01 hr 21 min 57 sec)
Heartbeat CPU 0 instructions: 201001014 cycles: 594151767 heartbeat IPC: 0.2036 cumulative IPC: 0.2608 (Simulation time: 01 hr 22 min 14 sec)
Heartbeat CPU 0 instructions: 201501014 cycles: 596459265 heartbeat IPC: 0.2167 cumulative IPC: 0.2606 (Simulation time: 01 hr 22 min 30 sec)
Heartbeat CPU 0 instructions: 202001018 cycles: 598028374 heartbeat IPC: 0.3187 cumulative IPC: 0.2608 (Simulation time: 01 hr 22 min 41 sec)
Heartbeat CPU 0 instructions: 202501018 cycles: 598624079 heartbeat IPC: 0.8393 cumulative IPC: 0.2614 (Simulation time: 01 hr 22 min 45 sec)
Heartbeat CPU 0 instructions: 203001018 cycles: 599038984 heartbeat IPC: 1.205 cumulative IPC: 0.2621 (Simulation time: 01 hr 22 min 48 sec)
Heartbeat CPU 0 instructions: 203501018 cycles: 599271130 heartbeat IPC: 2.154 cumulative IPC: 0.2628 (Simulation time: 01 hr 22 min 50 sec)
Heartbeat CPU 0 instructions: 204001021 cycles: 599627755 heartbeat IPC: 1.402 cumulative IPC: 0.2635 (Simulation time: 01 hr 22 min 52 sec)
Heartbeat CPU 0 instructions: 204501023 cycles: 602565370 heartbeat IPC: 0.1702 cumulative IPC: 0.263 (Simulation time: 01 hr 23 min 27 sec)
Heartbeat CPU 0 instructions: 205001027 cycles: 604310781 heartbeat IPC: 0.2865 cumulative IPC: 0.2631 (Simulation time: 01 hr 23 min 48 sec)
Heartbeat CPU 0 instructions: 205501027 cycles: 605497968 heartbeat IPC: 0.4212 cumulative IPC: 0.2634 (Simulation time: 01 hr 24 min 02 sec)
Heartbeat CPU 0 instructions: 206001027 cycles: 606048581 heartbeat IPC: 0.9081 cumulative IPC: 0.264 (Simulation time: 01 hr 24 min 06 sec)
Heartbeat CPU 0 instructions: 206501027 cycles: 608762457 heartbeat IPC: 0.1842 cumulative IPC: 0.2637 (Simulation time: 01 hr 24 min 24 sec)
Heartbeat CPU 0 instructions: 207001030 cycles: 611408744 heartbeat IPC: 0.1889 cumulative IPC: 0.2633 (Simulation time: 01 hr 24 min 42 sec)
Heartbeat CPU 0 instructions: 207501036 cycles: 614345702 heartbeat IPC: 0.1702 cumulative IPC: 0.2629 (Simulation time: 01 hr 25 min 01 sec)
Heartbeat CPU 0 instructions: 208001040 cycles: 617176887 heartbeat IPC: 0.1766 cumulative IPC: 0.2625 (Simulation time: 01 hr 25 min 20 sec)
Heartbeat CPU 0 instructions: 208501043 cycles: 619228961 heartbeat IPC: 0.2437 cumulative IPC: 0.2624 (Simulation time: 01 hr 25 min 34 sec)
Heartbeat CPU 0 instructions: 209001043 cycles: 621891977 heartbeat IPC: 0.1878 cumulative IPC: 0.2621 (Simulation time: 01 hr 25 min 52 sec)
Heartbeat CPU 0 instructions: 209501046 cycles: 624251211 heartbeat IPC: 0.2119 cumulative IPC: 0.2619 (Simulation time: 01 hr 26 min 09 sec)
Heartbeat CPU 0 instructions: 210001046 cycles: 626487021 heartbeat IPC: 0.2236 cumulative IPC: 0.2617 (Simulation time: 01 hr 26 min 24 sec)
Heartbeat CPU 0 instructions: 210501047 cycles: 628175474 heartbeat IPC: 0.2961 cumulative IPC: 0.2618 (Simulation time: 01 hr 26 min 36 sec)
Heartbeat CPU 0 instructions: 211001047 cycles: 628550927 heartbeat IPC: 1.332 cumulative IPC: 0.2625 (Simulation time: 01 hr 26 min 38 sec)
Heartbeat CPU 0 instructions: 211501047 cycles: 628963887 heartbeat IPC: 1.211 cumulative IPC: 0.2631 (Simulation time: 01 hr 26 min 41 sec)
Heartbeat CPU 0 instructions: 212001051 cycles: 630881964 heartbeat IPC: 0.2607 cumulative IPC: 0.2631 (Simulation time: 01 hr 27 min 04 sec)
Heartbeat CPU 0 instructions: 212501053 cycles: 632817918 heartbeat IPC: 0.2583 cumulative IPC: 0.2631 (Simulation time: 01 hr 27 min 27 sec)
Heartbeat CPU 0 instructions: 213001054 cycles: 633912547 heartbeat IPC: 0.4568 cumulative IPC: 0.2634 (Simulation time: 01 hr 27 min 39 sec)
Heartbeat CPU 0 instructions: 213501054 cycles: 635363733 heartbeat IPC: 0.3445 cumulative IPC: 0.2636 (Simulation time: 01 hr 27 min 49 sec)
Heartbeat CPU 0 instructions: 214001054 cycles: 637839539 heartbeat IPC: 0.202 cumulative IPC: 0.2634 (Simulation time: 01 hr 28 min 06 sec)
Heartbeat CPU 0 instructions: 214501060 cycles: 640630132 heartbeat IPC: 0.1792 cumulative IPC: 0.263 (Simulation time: 01 hr 28 min 25 sec)
Heartbeat CPU 0 instructions: 215001064 cycles: 643451290 heartbeat IPC: 0.1772 cumulative IPC: 0.2626 (Simulation time: 01 hr 28 min 43 sec)
Heartbeat CPU 0 instructions: 215501067 cycles: 645895152 heartbeat IPC: 0.2046 cumulative IPC: 0.2624 (Simulation time: 01 hr 29 min 00 sec)
Heartbeat CPU 0 instructions: 216001068 cycles: 648475856 heartbeat IPC: 0.1937 cumulative IPC: 0.2621 (Simulation time: 01 hr 29 min 17 sec)
Heartbeat CPU 0 instructions: 216501075 cycles: 650758134 heartbeat IPC: 0.2191 cumulative IPC: 0.262 (Simulation time: 01 hr 29 min 33 sec)
Heartbeat CPU 0 instructions: 217001077 cycles: 652381604 heartbeat IPC: 0.308 cumulative IPC: 0.2621 (Simulation time: 01 hr 29 min 44 sec)
Heartbeat CPU 0 instructions: 217501078 cycles: 652804315 heartbeat IPC: 1.183 cumulative IPC: 0.2627 (Simulation time: 01 hr 29 min 47 sec)
Heartbeat CPU 0 instructions: 218001084 cycles: 654661028 heartbeat IPC: 0.2693 cumulative IPC: 0.2627 (Simulation time: 01 hr 30 min 09 sec)
Heartbeat CPU 0 instructions: 218501084 cycles: 656444429 heartbeat IPC: 0.2804 cumulative IPC: 0.2628 (Simulation time: 01 hr 30 min 29 sec)
Heartbeat CPU 0 instructions: 219001084 cycles: 656918442 heartbeat IPC: 1.055 cumulative IPC: 0.2634 (Simulation time: 01 hr 30 min 34 sec)
Heartbeat CPU 0 instructions: 219501088 cycles: 659161489 heartbeat IPC: 0.2229 cumulative IPC: 0.2632 (Simulation time: 01 hr 30 min 49 sec)
Heartbeat CPU 0 instructions: 220001088 cycles: 661984948 heartbeat IPC: 0.1771 cumulative IPC: 0.2628 (Simulation time: 01 hr 31 min 08 sec)
Heartbeat CPU 0 instructions: 220501089 cycles: 664712786 heartbeat IPC: 0.1833 cumulative IPC: 0.2625 (Simulation time: 01 hr 31 min 26 sec)
Heartbeat CPU 0 instructions: 221001091 cycles: 667270030 heartbeat IPC: 0.1955 cumulative IPC: 0.2622 (Simulation time: 01 hr 31 min 43 sec)
Heartbeat CPU 0 instructions: 221501093 cycles: 669854001 heartbeat IPC: 0.1935 cumulative IPC: 0.262 (Simulation time: 01 hr 32 min 01 sec)
Heartbeat CPU 0 instructions: 222001095 cycles: 671438417 heartbeat IPC: 0.3156 cumulative IPC: 0.2621 (Simulation time: 01 hr 32 min 12 sec)
Heartbeat CPU 0 instructions: 222501097 cycles: 671868449 heartbeat IPC: 1.163 cumulative IPC: 0.2627 (Simulation time: 01 hr 32 min 15 sec)
Heartbeat CPU 0 instructions: 223001099 cycles: 674017659 heartbeat IPC: 0.2326 cumulative IPC: 0.2626 (Simulation time: 01 hr 32 min 40 sec)
Heartbeat CPU 0 instructions: 223501099 cycles: 674904810 heartbeat IPC: 0.5636 cumulative IPC: 0.263 (Simulation time: 01 hr 32 min 50 sec)
Heartbeat CPU 0 instructions: 224001106 cycles: 677304465 heartbeat IPC: 0.2084 cumulative IPC: 0.2628 (Simulation time: 01 hr 33 min 06 sec)
Heartbeat CPU 0 instructions: 224501113 cycles: 680084917 heartbeat IPC: 0.1798 cumulative IPC: 0.2625 (Simulation time: 01 hr 33 min 24 sec)
Heartbeat CPU 0 instructions: 225001120 cycles: 682588589 heartbeat IPC: 0.1997 cumulative IPC: 0.2622 (Simulation time: 01 hr 33 min 41 sec)
Heartbeat CPU 0 instructions: 225501124 cycles: 684835632 heartbeat IPC: 0.2225 cumulative IPC: 0.2621 (Simulation time: 01 hr 33 min 56 sec)
Heartbeat CPU 0 instructions: 226001125 cycles: 686535659 heartbeat IPC: 0.2941 cumulative IPC: 0.2622 (Simulation time: 01 hr 34 min 08 sec)
Heartbeat CPU 0 instructions: 226501129 cycles: 687383501 heartbeat IPC: 0.5897 cumulative IPC: 0.2626 (Simulation time: 01 hr 34 min 17 sec)
Heartbeat CPU 0 instructions: 227001129 cycles: 689177194 heartbeat IPC: 0.2788 cumulative IPC: 0.2626 (Simulation time: 01 hr 34 min 37 sec)
Heartbeat CPU 0 instructions: 227501130 cycles: 690746942 heartbeat IPC: 0.3185 cumulative IPC: 0.2627 (Simulation time: 01 hr 34 min 48 sec)
Heartbeat CPU 0 instructions: 228001130 cycles: 693518030 heartbeat IPC: 0.1804 cumulative IPC: 0.2624 (Simulation time: 01 hr 35 min 07 sec)
Heartbeat CPU 0 instructions: 228501130 cycles: 695923474 heartbeat IPC: 0.2079 cumulative IPC: 0.2622 (Simulation time: 01 hr 35 min 23 sec)
Heartbeat CPU 0 instructions: 229001131 cycles: 697435803 heartbeat IPC: 0.3306 cumulative IPC: 0.2624 (Simulation time: 01 hr 35 min 33 sec)
Heartbeat CPU 0 instructions: 229501131 cycles: 698735484 heartbeat IPC: 0.3847 cumulative IPC: 0.2626 (Simulation time: 01 hr 35 min 42 sec)
Heartbeat CPU 0 instructions: 230001132 cycles: 699538793 heartbeat IPC: 0.6224 cumulative IPC: 0.263 (Simulation time: 01 hr 35 min 51 sec)
Heartbeat CPU 0 instructions: 230501137 cycles: 700913738 heartbeat IPC: 0.3637 cumulative IPC: 0.2632 (Simulation time: 01 hr 36 min 06 sec)
Heartbeat CPU 0 instructions: 231001141 cycles: 703498593 heartbeat IPC: 0.1934 cumulative IPC: 0.263 (Simulation time: 01 hr 36 min 23 sec)
Heartbeat CPU 0 instructions: 231501148 cycles: 705950731 heartbeat IPC: 0.2039 cumulative IPC: 0.2628 (Simulation time: 01 hr 36 min 40 sec)
Heartbeat CPU 0 instructions: 232001149 cycles: 707769429 heartbeat IPC: 0.2749 cumulative IPC: 0.2628 (Simulation time: 01 hr 36 min 53 sec)
Heartbeat CPU 0 instructions: 232501156 cycles: 708783940 heartbeat IPC: 0.4929 cumulative IPC: 0.2631 (Simulation time: 01 hr 37 min 03 sec)
Heartbeat CPU 0 instructions: 233001161 cycles: 710398700 heartbeat IPC: 0.3096 cumulative IPC: 0.2632 (Simulation time: 01 hr 37 min 17 sec)
Heartbeat CPU 0 instructions: 233501162 cycles: 712922653 heartbeat IPC: 0.1981 cumulative IPC: 0.263 (Simulation time: 01 hr 37 min 34 sec)
Heartbeat CPU 0 instructions: 234001166 cycles: 713709409 heartbeat IPC: 0.6355 cumulative IPC: 0.2634 (Simulation time: 01 hr 37 min 40 sec)
Heartbeat CPU 0 instructions: 234501168 cycles: 714337744 heartbeat IPC: 0.7958 cumulative IPC: 0.2639 (Simulation time: 01 hr 37 min 44 sec)
Heartbeat CPU 0 instructions: 235001171 cycles: 715903555 heartbeat IPC: 0.3193 cumulative IPC: 0.264 (Simulation time: 01 hr 37 min 59 sec)
Heartbeat CPU 0 instructions: 235501176 cycles: 718131140 heartbeat IPC: 0.2245 cumulative IPC: 0.2639 (Simulation time: 01 hr 38 min 14 sec)
Heartbeat CPU 0 instructions: 236001178 cycles: 718629358 heartbeat IPC: 1.004 cumulative IPC: 0.2644 (Simulation time: 01 hr 38 min 18 sec)
Heartbeat CPU 0 instructions: 236501181 cycles: 719780637 heartbeat IPC: 0.4343 cumulative IPC: 0.2647 (Simulation time: 01 hr 38 min 29 sec)
Heartbeat CPU 0 instructions: 237001181 cycles: 721555847 heartbeat IPC: 0.2817 cumulative IPC: 0.2647 (Simulation time: 01 hr 38 min 41 sec)
Heartbeat CPU 0 instructions: 237501181 cycles: 723029675 heartbeat IPC: 0.3393 cumulative IPC: 0.2649 (Simulation time: 01 hr 38 min 53 sec)
Heartbeat CPU 0 instructions: 238001182 cycles: 724052673 heartbeat IPC: 0.4888 cumulative IPC: 0.2652 (Simulation time: 01 hr 39 min 02 sec)
Heartbeat CPU 0 instructions: 238501182 cycles: 725314636 heartbeat IPC: 0.3962 cumulative IPC: 0.2654 (Simulation time: 01 hr 39 min 11 sec)
Heartbeat CPU 0 instructions: 239001182 cycles: 726466710 heartbeat IPC: 0.434 cumulative IPC: 0.2657 (Simulation time: 01 hr 39 min 21 sec)
Heartbeat CPU 0 instructions: 239501184 cycles: 727423633 heartbeat IPC: 0.5225 cumulative IPC: 0.2661 (Simulation time: 01 hr 39 min 28 sec)
Heartbeat CPU 0 instructions: 240001187 cycles: 728201858 heartbeat IPC: 0.6425 cumulative IPC: 0.2665 (Simulation time: 01 hr 39 min 34 sec)
Heartbeat CPU 0 instructions: 240501188 cycles: 728910645 heartbeat IPC: 0.7054 cumulative IPC: 0.2669 (Simulation time: 01 hr 39 min 40 sec)
Heartbeat CPU 0 instructions: 241001188 cycles: 731122633 heartbeat IPC: 0.226 cumulative IPC: 0.2668 (Simulation time: 01 hr 39 min 57 sec)
Heartbeat CPU 0 instructions: 241501188 cycles: 733661537 heartbeat IPC: 0.1969 cumulative IPC: 0.2665 (Simulation time: 01 hr 40 min 18 sec)
Heartbeat CPU 0 instructions: 242001188 cycles: 736244256 heartbeat IPC: 0.1936 cumulative IPC: 0.2663 (Simulation time: 01 hr 40 min 38 sec)
Heartbeat CPU 0 instructions: 242501188 cycles: 738829441 heartbeat IPC: 0.1934 cumulative IPC: 0.266 (Simulation time: 01 hr 40 min 59 sec)
Heartbeat CPU 0 instructions: 243001189 cycles: 741406653 heartbeat IPC: 0.194 cumulative IPC: 0.2658 (Simulation time: 01 hr 41 min 20 sec)
Heartbeat CPU 0 instructions: 243501189 cycles: 743980261 heartbeat IPC: 0.1943 cumulative IPC: 0.2655 (Simulation time: 01 hr 41 min 40 sec)
Heartbeat CPU 0 instructions: 244001189 cycles: 746558337 heartbeat IPC: 0.1939 cumulative IPC: 0.2653 (Simulation time: 01 hr 42 min 01 sec)
Heartbeat CPU 0 instructions: 244501189 cycles: 749132546 heartbeat IPC: 0.1942 cumulative IPC: 0.265 (Simulation time: 01 hr 42 min 21 sec)
Heartbeat CPU 0 instructions: 245001189 cycles: 751701988 heartbeat IPC: 0.1946 cumulative IPC: 0.2648 (Simulation time: 01 hr 42 min 42 sec)
Heartbeat CPU 0 instructions: 245501189 cycles: 754287470 heartbeat IPC: 0.1934 cumulative IPC: 0.2645 (Simulation time: 01 hr 43 min 02 sec)
Heartbeat CPU 0 instructions: 246001189 cycles: 756867897 heartbeat IPC: 0.1938 cumulative IPC: 0.2643 (Simulation time: 01 hr 43 min 23 sec)
Heartbeat CPU 0 instructions: 246501191 cycles: 759452476 heartbeat IPC: 0.1935 cumulative IPC: 0.264 (Simulation time: 01 hr 43 min 43 sec)
Heartbeat CPU 0 instructions: 247001191 cycles: 762028105 heartbeat IPC: 0.1941 cumulative IPC: 0.2638 (Simulation time: 01 hr 44 min 04 sec)
Heartbeat CPU 0 instructions: 247501191 cycles: 764256265 heartbeat IPC: 0.2244 cumulative IPC: 0.2637 (Simulation time: 01 hr 44 min 22 sec)
Heartbeat CPU 0 instructions: 248001191 cycles: 764802407 heartbeat IPC: 0.9155 cumulative IPC: 0.2641 (Simulation time: 01 hr 44 min 26 sec)
Heartbeat CPU 0 instructions: 248501191 cycles: 765351762 heartbeat IPC: 0.9102 cumulative IPC: 0.2646 (Simulation time: 01 hr 44 min 31 sec)
Heartbeat CPU 0 instructions: 249001191 cycles: 765891879 heartbeat IPC: 0.9257 cumulative IPC: 0.2651 (Simulation time: 01 hr 44 min 36 sec)
Heartbeat CPU 0 instructions: 249501191 cycles: 766427933 heartbeat IPC: 0.9327 cumulative IPC: 0.2656 (Simulation time: 01 hr 44 min 40 sec)
*** Reached end of trace: (0, "/local-ssd/ben/dpc4-traces/Graph/Ligra/ligra_Radii.com-lj.ungraph.gcc_6.3.0_O3.drop_25000M.length_250M.champsimtrace.xz")
Simulation finished CPU 0 instructions: 200000001 cycles: 751780825 cumulative IPC: 0.266 (Simulation time: 01 hr 44 min 45 sec)
Simulation complete CPU 0 instructions: 200000001 cycles: 751780825 cumulative IPC: 0.266 (Simulation time: 01 hr 44 min 45 sec)

ChampSim completed all CPUs

=== Simulation ===
CPU 0 runs /local-ssd/ben/dpc4-traces/Graph/Ligra/ligra_Radii.com-lj.ungraph.gcc_6.3.0_O3.drop_25000M.length_250M.champsimtrace.xz

Region of Interest Statistics

CPU 0 cumulative IPC: 0.266 instructions: 200000001 cycles: 751780825
CPU 0 Branch Prediction Accuracy: 89.58% MPKI: 17.31 Average ROB Occupancy at Mispredict: 23.2
Branch type MPKI
BRANCH_DIRECT_JUMP: 0.00044
BRANCH_INDIRECT: 1.5e-05
BRANCH_CONDITIONAL: 17.31
BRANCH_DIRECT_CALL: 0.00012
BRANCH_INDIRECT_CALL: 1e-05
BRANCH_RETURN: 0.000155

cpu0->cpu0_STLB TOTAL        ACCESS:    7945394 HIT:    1780043 MISS:    6165351 MSHR_MERGE:          0
cpu0->cpu0_STLB LOAD         ACCESS:    7945394 HIT:    1780043 MISS:    6165351 MSHR_MERGE:          0
cpu0->cpu0_STLB RFO          ACCESS:          0 HIT:          0 MISS:          0 MSHR_MERGE:          0
cpu0->cpu0_STLB PREFETCH     ACCESS:          0 HIT:          0 MISS:          0 MSHR_MERGE:          0
cpu0->cpu0_STLB WRITE        ACCESS:          0 HIT:          0 MISS:          0 MSHR_MERGE:          0
cpu0->cpu0_STLB TRANSLATION  ACCESS:          0 HIT:          0 MISS:          0 MSHR_MERGE:          0
cpu0->cpu0_STLB PREFETCH REQUESTED:          0 ISSUED:          0 USEFUL:          0 USELESS:          0
cpu0->cpu0_STLB AVERAGE MISS LATENCY: 77.8 cycles
cpu0->cpu0_L2C TOTAL        ACCESS:   46237498 HIT:   21049881 MISS:   25187617 MSHR_MERGE:    2154233
cpu0->cpu0_L2C LOAD         ACCESS:    6061241 HIT:    1017120 MISS:    5044121 MSHR_MERGE:     219037
cpu0->cpu0_L2C RFO          ACCESS:    2626421 HIT:      59188 MISS:    2567233 MSHR_MERGE:         14
cpu0->cpu0_L2C PREFETCH     ACCESS:   28029821 HIT:   10824201 MISS:   17205620 MSHR_MERGE:    1935182
cpu0->cpu0_L2C WRITE        ACCESS:    4216329 HIT:    4216303 MISS:         26 MSHR_MERGE:          0
cpu0->cpu0_L2C TRANSLATION  ACCESS:    5303686 HIT:    4933069 MISS:     370617 MSHR_MERGE:          0
cpu0->cpu0_L2C PREFETCH REQUESTED:   20864615 ISSUED:   20665635 USEFUL:    2348434 USELESS:    8803453
cpu0->cpu0_L2C AVERAGE MISS LATENCY: 399.7 cycles
cpu0->cpu0_L1I TOTAL        ACCESS:   14696545 HIT:   14696432 MISS:        113 MSHR_MERGE:          5
cpu0->cpu0_L1I LOAD         ACCESS:   14696545 HIT:   14696432 MISS:        113 MSHR_MERGE:          5
cpu0->cpu0_L1I RFO          ACCESS:          0 HIT:          0 MISS:          0 MSHR_MERGE:          0
cpu0->cpu0_L1I PREFETCH     ACCESS:          0 HIT:          0 MISS:          0 MSHR_MERGE:          0
cpu0->cpu0_L1I WRITE        ACCESS:          0 HIT:          0 MISS:          0 MSHR_MERGE:          0
cpu0->cpu0_L1I TRANSLATION  ACCESS:          0 HIT:          0 MISS:          0 MSHR_MERGE:          0
cpu0->cpu0_L1I PREFETCH REQUESTED:          0 ISSUED:          0 USEFUL:          0 USELESS:          0
cpu0->cpu0_L1I AVERAGE MISS LATENCY: 203.9 cycles
cpu0->cpu0_L1D TOTAL        ACCESS:  103868523 HIT:   65630483 MISS:   38238040 MSHR_MERGE:   16882462
cpu0->cpu0_L1D LOAD         ACCESS:   37780703 HIT:   30146274 MISS:    7634429 MSHR_MERGE:    1573293
cpu0->cpu0_L1D RFO          ACCESS:          0 HIT:          0 MISS:          0 MSHR_MERGE:          0
cpu0->cpu0_L1D PREFETCH     ACCESS:   28633725 HIT:   17918637 MISS:   10715088 MSHR_MERGE:    3350900
cpu0->cpu0_L1D WRITE        ACCESS:   24740681 HIT:   10169913 MISS:   14570768 MSHR_MERGE:   11944200
cpu0->cpu0_L1D TRANSLATION  ACCESS:   12713414 HIT:    7395659 MISS:    5317755 MSHR_MERGE:      14069
cpu0->cpu0_L1D PREFETCH REQUESTED:   83598147 ISSUED:   28633727 USEFUL:    1247005 USELESS:    6117194
cpu0->cpu0_L1D AVERAGE MISS LATENCY: 237 cycles
cpu0->cpu0_ITLB TOTAL        ACCESS:   12421295 HIT:   12421272 MISS:         23 MSHR_MERGE:          8
cpu0->cpu0_ITLB LOAD         ACCESS:   12421295 HIT:   12421272 MISS:         23 MSHR_MERGE:          8
cpu0->cpu0_ITLB RFO          ACCESS:          0 HIT:          0 MISS:          0 MSHR_MERGE:          0
cpu0->cpu0_ITLB PREFETCH     ACCESS:          0 HIT:          0 MISS:          0 MSHR_MERGE:          0
cpu0->cpu0_ITLB WRITE        ACCESS:          0 HIT:          0 MISS:          0 MSHR_MERGE:          0
cpu0->cpu0_ITLB TRANSLATION  ACCESS:          0 HIT:          0 MISS:          0 MSHR_MERGE:          0
cpu0->cpu0_ITLB PREFETCH REQUESTED:          0 ISSUED:          0 USEFUL:          0 USELESS:          0
cpu0->cpu0_ITLB AVERAGE MISS LATENCY: 356.3 cycles
cpu0->cpu0_DTLB TOTAL        ACCESS:   86681322 HIT:   76744021 MISS:    9937301 MSHR_MERGE:    1991922
cpu0->cpu0_DTLB LOAD         ACCESS:   86681322 HIT:   76744021 MISS:    9937301 MSHR_MERGE:    1991922
cpu0->cpu0_DTLB RFO          ACCESS:          0 HIT:          0 MISS:          0 MSHR_MERGE:          0
cpu0->cpu0_DTLB PREFETCH     ACCESS:          0 HIT:          0 MISS:          0 MSHR_MERGE:          0
cpu0->cpu0_DTLB WRITE        ACCESS:          0 HIT:          0 MISS:          0 MSHR_MERGE:          0
cpu0->cpu0_DTLB TRANSLATION  ACCESS:          0 HIT:          0 MISS:          0 MSHR_MERGE:          0
cpu0->cpu0_DTLB PREFETCH REQUESTED:          0 ISSUED:          0 USEFUL:          0 USELESS:          0
cpu0->cpu0_DTLB AVERAGE MISS LATENCY: 66.16 cycles
cpu0->LLC TOTAL        ACCESS:   41803888 HIT:    3648664 MISS:   38155224 MSHR_MERGE:    6087622
cpu0->LLC LOAD         ACCESS:    4825084 HIT:     246055 MISS:    4579029 MSHR_MERGE:      20319
cpu0->LLC RFO          ACCESS:    2567219 HIT:      76185 MISS:    2491034 MSHR_MERGE:          2
cpu0->LLC PREFETCH     ACCESS:   29939913 HIT:    2842717 MISS:   27097196 MSHR_MERGE:    6067301
cpu0->LLC WRITE        ACCESS:    4101055 HIT:     480162 MISS:    3620893 MSHR_MERGE:          0
cpu0->LLC TRANSLATION  ACCESS:     370617 HIT:       3545 MISS:     367072 MSHR_MERGE:          0
cpu0->LLC PREFETCH REQUESTED:   14761365 ISSUED:   14669470 USEFUL:     946842 USELESS:    7175842
cpu0->LLC AVERAGE MISS LATENCY: 270.9 cycles

DRAM Statistics

Channel 0 RQ ROW_BUFFER_HIT:     519117
  ROW_BUFFER_MISS:   27924968
  AVG DBUS CONGESTED CYCLE: 7.656
Channel 0 WQ ROW_BUFFER_HIT:     349061
  ROW_BUFFER_MISS:    3530879
  FULL:    1061833
Channel 0 REFRESHES ISSUED:      62644
