[VMEM] WARNING: physical memory size is smaller than virtual memory size.

*** ChampSim Multicore Out-of-Order Simulator ***
Warmup Instructions: 50000000
Simulation Instructions: 200000000
Number of CPUs: 1
Page size: 4096
Core 0: /local-ssd/ben/dpc4-traces/gtraces_v2/yankee_0000.champsim.gz
Off-chip DRAM Size: 64 GiB Channels: 1 Width: 64-bit Data Rate: 4807 MT/s
[BTB] WARNING: target of return is a lower address than the corresponding call. This is usually a problem with your trace.
[BTB] WARNING: target of return is a lower address than the corresponding call. This is usually a problem with your trace.
Heartbeat CPU 0 instructions: 500007 cycles: 266605 heartbeat IPC: 1.875 cumulative IPC: 1.875 (Simulation time: 00 hr 00 min 04 sec)
[BTB] WARNING: target of return is a lower address than the corresponding call. This is usually a problem with your trace.
[BTB] WARNING: target of return is a lower address than the corresponding call. This is usually a problem with your trace.
[BTB] WARNING: target of return is a lower address than the corresponding call. This is usually a problem with your trace.
[BTB] WARNING: target of return is a lower address than the corresponding call. This is usually a problem with your trace.
[BTB] WARNING: target of return is a lower address than the corresponding call. This is usually a problem with your trace.
[BTB] WARNING: target of return is a lower address than the corresponding call. This is usually a problem with your trace.
[BTB] WARNING: target of return is a lower address than the corresponding call. This is usually a problem with your trace.
Heartbeat CPU 0 instructions: 1000011 cycles: 498069 heartbeat IPC: 2.16 cumulative IPC: 2.008 (Simulation time: 00 hr 00 min 08 sec)
[BTB] WARNING: target of return is a lower address than the corresponding call. This is usually a problem with your trace.
Heartbeat CPU 0 instructions: 1500016 cycles: 921240 heartbeat IPC: 1.182 cumulative IPC: 1.628 (Simulation time: 00 hr 00 min 15 sec)
Heartbeat CPU 0 instructions: 2000018 cycles: 1118844 heartbeat IPC: 2.53 cumulative IPC: 1.788 (Simulation time: 00 hr 00 min 19 sec)
Heartbeat CPU 0 instructions: 2500025 cycles: 1294310 heartbeat IPC: 2.85 cumulative IPC: 1.932 (Simulation time: 00 hr 00 min 23 sec)
Heartbeat CPU 0 instructions: 3000028 cycles: 1524042 heartbeat IPC: 2.176 cumulative IPC: 1.968 (Simulation time: 00 hr 00 min 27 sec)
Heartbeat CPU 0 instructions: 3500029 cycles: 1688031 heartbeat IPC: 3.049 cumulative IPC: 2.073 (Simulation time: 00 hr 00 min 29 sec)
Heartbeat CPU 0 instructions: 4000030 cycles: 1825098 heartbeat IPC: 3.648 cumulative IPC: 2.192 (Simulation time: 00 hr 00 min 31 sec)
Heartbeat CPU 0 instructions: 4500034 cycles: 1959011 heartbeat IPC: 3.734 cumulative IPC: 2.297 (Simulation time: 00 hr 00 min 34 sec)
Heartbeat CPU 0 instructions: 5000039 cycles: 2075989 heartbeat IPC: 4.274 cumulative IPC: 2.409 (Simulation time: 00 hr 00 min 36 sec)
Heartbeat CPU 0 instructions: 5500041 cycles: 2213204 heartbeat IPC: 3.644 cumulative IPC: 2.485 (Simulation time: 00 hr 00 min 39 sec)
Heartbeat CPU 0 instructions: 6000041 cycles: 2392438 heartbeat IPC: 2.79 cumulative IPC: 2.508 (Simulation time: 00 hr 00 min 42 sec)
Heartbeat CPU 0 instructions: 6500047 cycles: 2529803 heartbeat IPC: 3.64 cumulative IPC: 2.569 (Simulation time: 00 hr 00 min 44 sec)
Heartbeat CPU 0 instructions: 7000047 cycles: 2650848 heartbeat IPC: 4.131 cumulative IPC: 2.641 (Simulation time: 00 hr 00 min 46 sec)
Heartbeat CPU 0 instructions: 7500054 cycles: 2771113 heartbeat IPC: 4.158 cumulative IPC: 2.707 (Simulation time: 00 hr 00 min 48 sec)
Heartbeat CPU 0 instructions: 8000055 cycles: 2886574 heartbeat IPC: 4.33 cumulative IPC: 2.771 (Simulation time: 00 hr 00 min 50 sec)
Heartbeat CPU 0 instructions: 8500061 cycles: 3033147 heartbeat IPC: 3.411 cumulative IPC: 2.802 (Simulation time: 00 hr 00 min 53 sec)
Heartbeat CPU 0 instructions: 9000065 cycles: 3169103 heartbeat IPC: 3.678 cumulative IPC: 2.84 (Simulation time: 00 hr 00 min 55 sec)
Heartbeat CPU 0 instructions: 9500072 cycles: 3285970 heartbeat IPC: 4.278 cumulative IPC: 2.891 (Simulation time: 00 hr 00 min 57 sec)
Heartbeat CPU 0 instructions: 10000078 cycles: 3443829 heartbeat IPC: 3.167 cumulative IPC: 2.904 (Simulation time: 00 hr 01 min 00 sec)
Heartbeat CPU 0 instructions: 10500084 cycles: 3594954 heartbeat IPC: 3.309 cumulative IPC: 2.921 (Simulation time: 00 hr 01 min 03 sec)
Heartbeat CPU 0 instructions: 11000090 cycles: 3737907 heartbeat IPC: 3.498 cumulative IPC: 2.943 (Simulation time: 00 hr 01 min 05 sec)
Heartbeat CPU 0 instructions: 11500090 cycles: 3866313 heartbeat IPC: 3.894 cumulative IPC: 2.974 (Simulation time: 00 hr 01 min 08 sec)
Heartbeat CPU 0 instructions: 12000097 cycles: 3991342 heartbeat IPC: 3.999 cumulative IPC: 3.007 (Simulation time: 00 hr 01 min 10 sec)
Heartbeat CPU 0 instructions: 12500097 cycles: 4111716 heartbeat IPC: 4.154 cumulative IPC: 3.04 (Simulation time: 00 hr 01 min 12 sec)
Heartbeat CPU 0 instructions: 13000104 cycles: 4254030 heartbeat IPC: 3.513 cumulative IPC: 3.056 (Simulation time: 00 hr 01 min 15 sec)
Heartbeat CPU 0 instructions: 13500107 cycles: 4383730 heartbeat IPC: 3.855 cumulative IPC: 3.08 (Simulation time: 00 hr 01 min 17 sec)
Heartbeat CPU 0 instructions: 14000114 cycles: 4531676 heartbeat IPC: 3.38 cumulative IPC: 3.089 (Simulation time: 00 hr 01 min 20 sec)
Heartbeat CPU 0 instructions: 14500114 cycles: 4644080 heartbeat IPC: 4.448 cumulative IPC: 3.122 (Simulation time: 00 hr 01 min 22 sec)
Heartbeat CPU 0 instructions: 15000114 cycles: 4748245 heartbeat IPC: 4.8 cumulative IPC: 3.159 (Simulation time: 00 hr 01 min 25 sec)
Heartbeat CPU 0 instructions: 15500114 cycles: 4858582 heartbeat IPC: 4.532 cumulative IPC: 3.19 (Simulation time: 00 hr 01 min 28 sec)
Heartbeat CPU 0 instructions: 16000117 cycles: 5000771 heartbeat IPC: 3.516 cumulative IPC: 3.2 (Simulation time: 00 hr 01 min 30 sec)
Heartbeat CPU 0 instructions: 16500117 cycles: 5135715 heartbeat IPC: 3.705 cumulative IPC: 3.213 (Simulation time: 00 hr 01 min 33 sec)
Heartbeat CPU 0 instructions: 17000119 cycles: 5245993 heartbeat IPC: 4.534 cumulative IPC: 3.241 (Simulation time: 00 hr 01 min 35 sec)
Heartbeat CPU 0 instructions: 17500120 cycles: 5360228 heartbeat IPC: 4.377 cumulative IPC: 3.265 (Simulation time: 00 hr 01 min 37 sec)
Heartbeat CPU 0 instructions: 18000123 cycles: 5462627 heartbeat IPC: 4.883 cumulative IPC: 3.295 (Simulation time: 00 hr 01 min 38 sec)
Heartbeat CPU 0 instructions: 18500125 cycles: 5566018 heartbeat IPC: 4.836 cumulative IPC: 3.324 (Simulation time: 00 hr 01 min 39 sec)
Heartbeat CPU 0 instructions: 19000132 cycles: 5668560 heartbeat IPC: 4.876 cumulative IPC: 3.352 (Simulation time: 00 hr 01 min 41 sec)
Heartbeat CPU 0 instructions: 19500138 cycles: 5776120 heartbeat IPC: 4.649 cumulative IPC: 3.376 (Simulation time: 00 hr 01 min 43 sec)
Heartbeat CPU 0 instructions: 20000141 cycles: 5916845 heartbeat IPC: 3.553 cumulative IPC: 3.38 (Simulation time: 00 hr 01 min 45 sec)
Heartbeat CPU 0 instructions: 20500146 cycles: 6050591 heartbeat IPC: 3.738 cumulative IPC: 3.388 (Simulation time: 00 hr 01 min 48 sec)
Heartbeat CPU 0 instructions: 21000147 cycles: 6203352 heartbeat IPC: 3.273 cumulative IPC: 3.385 (Simulation time: 00 hr 01 min 51 sec)
Heartbeat CPU 0 instructions: 21500148 cycles: 6368865 heartbeat IPC: 3.021 cumulative IPC: 3.376 (Simulation time: 00 hr 01 min 54 sec)
Heartbeat CPU 0 instructions: 22000149 cycles: 6510905 heartbeat IPC: 3.52 cumulative IPC: 3.379 (Simulation time: 00 hr 01 min 56 sec)
Heartbeat CPU 0 instructions: 22500149 cycles: 6640911 heartbeat IPC: 3.846 cumulative IPC: 3.388 (Simulation time: 00 hr 01 min 58 sec)
Heartbeat CPU 0 instructions: 23000150 cycles: 6756722 heartbeat IPC: 4.317 cumulative IPC: 3.404 (Simulation time: 00 hr 02 min 00 sec)
Heartbeat CPU 0 instructions: 23500150 cycles: 6875893 heartbeat IPC: 4.196 cumulative IPC: 3.418 (Simulation time: 00 hr 02 min 02 sec)
Heartbeat CPU 0 instructions: 24000153 cycles: 6995626 heartbeat IPC: 4.176 cumulative IPC: 3.431 (Simulation time: 00 hr 02 min 04 sec)
Heartbeat CPU 0 instructions: 24500160 cycles: 7115820 heartbeat IPC: 4.16 cumulative IPC: 3.443 (Simulation time: 00 hr 02 min 07 sec)
Heartbeat CPU 0 instructions: 25000164 cycles: 7254152 heartbeat IPC: 3.615 cumulative IPC: 3.446 (Simulation time: 00 hr 02 min 09 sec)
Heartbeat CPU 0 instructions: 25500166 cycles: 7372298 heartbeat IPC: 4.232 cumulative IPC: 3.459 (Simulation time: 00 hr 02 min 11 sec)
Heartbeat CPU 0 instructions: 26000166 cycles: 7479425 heartbeat IPC: 4.667 cumulative IPC: 3.476 (Simulation time: 00 hr 02 min 13 sec)
Heartbeat CPU 0 instructions: 26500168 cycles: 7580612 heartbeat IPC: 4.941 cumulative IPC: 3.496 (Simulation time: 00 hr 02 min 14 sec)
Heartbeat CPU 0 instructions: 27000168 cycles: 7690405 heartbeat IPC: 4.554 cumulative IPC: 3.511 (Simulation time: 00 hr 02 min 16 sec)
Heartbeat CPU 0 instructions: 27500168 cycles: 7804910 heartbeat IPC: 4.367 cumulative IPC: 3.523 (Simulation time: 00 hr 02 min 18 sec)
Heartbeat CPU 0 instructions: 28000170 cycles: 7913560 heartbeat IPC: 4.602 cumulative IPC: 3.538 (Simulation time: 00 hr 02 min 20 sec)
Heartbeat CPU 0 instructions: 28500173 cycles: 8033199 heartbeat IPC: 4.179 cumulative IPC: 3.548 (Simulation time: 00 hr 02 min 22 sec)
Heartbeat CPU 0 instructions: 29000175 cycles: 8147852 heartbeat IPC: 4.361 cumulative IPC: 3.559 (Simulation time: 00 hr 02 min 24 sec)
Heartbeat CPU 0 instructions: 29500177 cycles: 8265857 heartbeat IPC: 4.237 cumulative IPC: 3.569 (Simulation time: 00 hr 02 min 26 sec)
Heartbeat CPU 0 instructions: 30000177 cycles: 8376864 heartbeat IPC: 4.504 cumulative IPC: 3.581 (Simulation time: 00 hr 02 min 28 sec)
Heartbeat CPU 0 instructions: 30500181 cycles: 8487478 heartbeat IPC: 4.52 cumulative IPC: 3.594 (Simulation time: 00 hr 02 min 30 sec)
Heartbeat CPU 0 instructions: 31000186 cycles: 8611260 heartbeat IPC: 4.039 cumulative IPC: 3.6 (Simulation time: 00 hr 02 min 32 sec)
Heartbeat CPU 0 instructions: 31500187 cycles: 8749364 heartbeat IPC: 3.62 cumulative IPC: 3.6 (Simulation time: 00 hr 02 min 35 sec)
Heartbeat CPU 0 instructions: 32000187 cycles: 8884519 heartbeat IPC: 3.699 cumulative IPC: 3.602 (Simulation time: 00 hr 02 min 37 sec)
Heartbeat CPU 0 instructions: 32500187 cycles: 9007077 heartbeat IPC: 4.08 cumulative IPC: 3.608 (Simulation time: 00 hr 02 min 39 sec)
Heartbeat CPU 0 instructions: 33000190 cycles: 9121630 heartbeat IPC: 4.365 cumulative IPC: 3.618 (Simulation time: 00 hr 02 min 42 sec)
Heartbeat CPU 0 instructions: 33500191 cycles: 9250292 heartbeat IPC: 3.886 cumulative IPC: 3.622 (Simulation time: 00 hr 02 min 44 sec)
Heartbeat CPU 0 instructions: 34000196 cycles: 9401891 heartbeat IPC: 3.298 cumulative IPC: 3.616 (Simulation time: 00 hr 02 min 47 sec)
Heartbeat CPU 0 instructions: 34500198 cycles: 9567915 heartbeat IPC: 3.012 cumulative IPC: 3.606 (Simulation time: 00 hr 02 min 50 sec)
Heartbeat CPU 0 instructions: 35000203 cycles: 9695555 heartbeat IPC: 3.917 cumulative IPC: 3.61 (Simulation time: 00 hr 02 min 52 sec)
Heartbeat CPU 0 instructions: 35500207 cycles: 9811774 heartbeat IPC: 4.302 cumulative IPC: 3.618 (Simulation time: 00 hr 02 min 54 sec)
Heartbeat CPU 0 instructions: 36000211 cycles: 9930891 heartbeat IPC: 4.198 cumulative IPC: 3.625 (Simulation time: 00 hr 02 min 56 sec)
Heartbeat CPU 0 instructions: 36500214 cycles: 10089875 heartbeat IPC: 3.145 cumulative IPC: 3.618 (Simulation time: 00 hr 02 min 59 sec)
Heartbeat CPU 0 instructions: 37000214 cycles: 10220505 heartbeat IPC: 3.828 cumulative IPC: 3.62 (Simulation time: 00 hr 03 min 02 sec)
Heartbeat CPU 0 instructions: 37500217 cycles: 10344138 heartbeat IPC: 4.044 cumulative IPC: 3.625 (Simulation time: 00 hr 03 min 04 sec)
Heartbeat CPU 0 instructions: 38000223 cycles: 10470426 heartbeat IPC: 3.959 cumulative IPC: 3.629 (Simulation time: 00 hr 03 min 06 sec)
Heartbeat CPU 0 instructions: 38500225 cycles: 10574145 heartbeat IPC: 4.821 cumulative IPC: 3.641 (Simulation time: 00 hr 03 min 08 sec)
Heartbeat CPU 0 instructions: 39000226 cycles: 10677040 heartbeat IPC: 4.859 cumulative IPC: 3.653 (Simulation time: 00 hr 03 min 10 sec)
Heartbeat CPU 0 instructions: 39500230 cycles: 10777027 heartbeat IPC: 5.001 cumulative IPC: 3.665 (Simulation time: 00 hr 03 min 11 sec)
Heartbeat CPU 0 instructions: 40000236 cycles: 10877024 heartbeat IPC: 5 cumulative IPC: 3.677 (Simulation time: 00 hr 03 min 13 sec)
Heartbeat CPU 0 instructions: 40500242 cycles: 10977025 heartbeat IPC: 5 cumulative IPC: 3.69 (Simulation time: 00 hr 03 min 14 sec)
Heartbeat CPU 0 instructions: 41000247 cycles: 11080864 heartbeat IPC: 4.815 cumulative IPC: 3.7 (Simulation time: 00 hr 03 min 16 sec)
Heartbeat CPU 0 instructions: 41500248 cycles: 11181690 heartbeat IPC: 4.959 cumulative IPC: 3.711 (Simulation time: 00 hr 03 min 18 sec)
Heartbeat CPU 0 instructions: 42000249 cycles: 11316216 heartbeat IPC: 3.717 cumulative IPC: 3.712 (Simulation time: 00 hr 03 min 20 sec)
Heartbeat CPU 0 instructions: 42500251 cycles: 11444104 heartbeat IPC: 3.91 cumulative IPC: 3.714 (Simulation time: 00 hr 03 min 22 sec)
Heartbeat CPU 0 instructions: 43000255 cycles: 11571655 heartbeat IPC: 3.92 cumulative IPC: 3.716 (Simulation time: 00 hr 03 min 25 sec)
Heartbeat CPU 0 instructions: 43500261 cycles: 11686180 heartbeat IPC: 4.366 cumulative IPC: 3.722 (Simulation time: 00 hr 03 min 27 sec)
Heartbeat CPU 0 instructions: 44000268 cycles: 11793134 heartbeat IPC: 4.675 cumulative IPC: 3.731 (Simulation time: 00 hr 03 min 28 sec)
Heartbeat CPU 0 instructions: 44500274 cycles: 11912053 heartbeat IPC: 4.205 cumulative IPC: 3.736 (Simulation time: 00 hr 03 min 31 sec)
Heartbeat CPU 0 instructions: 45000279 cycles: 12047443 heartbeat IPC: 3.693 cumulative IPC: 3.735 (Simulation time: 00 hr 03 min 33 sec)
Heartbeat CPU 0 instructions: 45500283 cycles: 12165765 heartbeat IPC: 4.226 cumulative IPC: 3.74 (Simulation time: 00 hr 03 min 35 sec)
Heartbeat CPU 0 instructions: 46000289 cycles: 12276967 heartbeat IPC: 4.496 cumulative IPC: 3.747 (Simulation time: 00 hr 03 min 37 sec)
Heartbeat CPU 0 instructions: 46500289 cycles: 12387364 heartbeat IPC: 4.529 cumulative IPC: 3.754 (Simulation time: 00 hr 03 min 39 sec)
Heartbeat CPU 0 instructions: 47000291 cycles: 12504874 heartbeat IPC: 4.255 cumulative IPC: 3.759 (Simulation time: 00 hr 03 min 41 sec)
Heartbeat CPU 0 instructions: 47500292 cycles: 12636925 heartbeat IPC: 3.786 cumulative IPC: 3.759 (Simulation time: 00 hr 03 min 44 sec)
Heartbeat CPU 0 instructions: 48000298 cycles: 12747637 heartbeat IPC: 4.516 cumulative IPC: 3.765 (Simulation time: 00 hr 03 min 46 sec)
Heartbeat CPU 0 instructions: 48500298 cycles: 12875568 heartbeat IPC: 3.908 cumulative IPC: 3.767 (Simulation time: 00 hr 03 min 48 sec)
Heartbeat CPU 0 instructions: 49000298 cycles: 12994385 heartbeat IPC: 4.208 cumulative IPC: 3.771 (Simulation time: 00 hr 03 min 50 sec)
Heartbeat CPU 0 instructions: 49500298 cycles: 13104988 heartbeat IPC: 4.521 cumulative IPC: 3.777 (Simulation time: 00 hr 03 min 53 sec)
Warmup finished CPU 0 instructions: 50000002 cycles: 13221386 cumulative IPC: 3.782 (Simulation time: 00 hr 03 min 55 sec)
Warmup complete CPU 0 instructions: 50000002 cycles: 13221386 cumulative IPC: 3.782 (Simulation time: 00 hr 03 min 55 sec)
Heartbeat CPU 0 instructions: 50000302 cycles: 13222167 heartbeat IPC: 4.267 cumulative IPC: 0.3841 (Simulation time: 00 hr 03 min 55 sec)
Heartbeat CPU 0 instructions: 50500308 cycles: 14520545 heartbeat IPC: 0.3851 cumulative IPC: 0.3851 (Simulation time: 00 hr 04 min 05 sec)
Heartbeat CPU 0 instructions: 51000312 cycles: 15024056 heartbeat IPC: 0.993 cumulative IPC: 0.5549 (Simulation time: 00 hr 04 min 09 sec)
Heartbeat CPU 0 instructions: 51500319 cycles: 16557637 heartbeat IPC: 0.326 cumulative IPC: 0.4497 (Simulation time: 00 hr 04 min 20 sec)
Heartbeat CPU 0 instructions: 52000322 cycles: 17604030 heartbeat IPC: 0.4778 cumulative IPC: 0.4564 (Simulation time: 00 hr 04 min 28 sec)
Heartbeat CPU 0 instructions: 52500323 cycles: 18089458 heartbeat IPC: 1.03 cumulative IPC: 0.5136 (Simulation time: 00 hr 04 min 32 sec)
Heartbeat CPU 0 instructions: 53000327 cycles: 18559764 heartbeat IPC: 1.063 cumulative IPC: 0.562 (Simulation time: 00 hr 04 min 36 sec)
Heartbeat CPU 0 instructions: 53500330 cycles: 18825725 heartbeat IPC: 1.88 cumulative IPC: 0.6246 (Simulation time: 00 hr 04 min 38 sec)
Heartbeat CPU 0 instructions: 54000331 cycles: 19070400 heartbeat IPC: 2.044 cumulative IPC: 0.6839 (Simulation time: 00 hr 04 min 41 sec)
Heartbeat CPU 0 instructions: 54500332 cycles: 19315425 heartbeat IPC: 2.041 cumulative IPC: 0.7385 (Simulation time: 00 hr 04 min 44 sec)
Heartbeat CPU 0 instructions: 55000335 cycles: 19593828 heartbeat IPC: 1.796 cumulative IPC: 0.7847 (Simulation time: 00 hr 04 min 46 sec)
Heartbeat CPU 0 instructions: 55500339 cycles: 19838920 heartbeat IPC: 2.04 cumulative IPC: 0.8312 (Simulation time: 00 hr 04 min 49 sec)
Heartbeat CPU 0 instructions: 56000345 cycles: 20077120 heartbeat IPC: 2.099 cumulative IPC: 0.8752 (Simulation time: 00 hr 04 min 51 sec)
Heartbeat CPU 0 instructions: 56500350 cycles: 20304523 heartbeat IPC: 2.199 cumulative IPC: 0.9177 (Simulation time: 00 hr 04 min 54 sec)
Heartbeat CPU 0 instructions: 57000353 cycles: 20546234 heartbeat IPC: 2.069 cumulative IPC: 0.9557 (Simulation time: 00 hr 04 min 56 sec)
Heartbeat CPU 0 instructions: 57500354 cycles: 20795913 heartbeat IPC: 2.003 cumulative IPC: 0.9902 (Simulation time: 00 hr 04 min 59 sec)
Heartbeat CPU 0 instructions: 58000355 cycles: 21044147 heartbeat IPC: 2.014 cumulative IPC: 1.023 (Simulation time: 00 hr 05 min 02 sec)
Heartbeat CPU 0 instructions: 58500359 cycles: 21326947 heartbeat IPC: 1.768 cumulative IPC: 1.049 (Simulation time: 00 hr 05 min 04 sec)
Heartbeat CPU 0 instructions: 59000359 cycles: 22436449 heartbeat IPC: 0.4507 cumulative IPC: 0.9767 (Simulation time: 00 hr 05 min 13 sec)
Heartbeat CPU 0 instructions: 59500362 cycles: 24020498 heartbeat IPC: 0.3156 cumulative IPC: 0.8797 (Simulation time: 00 hr 05 min 23 sec)
Heartbeat CPU 0 instructions: 60000368 cycles: 25143742 heartbeat IPC: 0.4451 cumulative IPC: 0.8388 (Simulation time: 00 hr 05 min 31 sec)
Heartbeat CPU 0 instructions: 60500368 cycles: 26164064 heartbeat IPC: 0.49 cumulative IPC: 0.8113 (Simulation time: 00 hr 05 min 39 sec)
Heartbeat CPU 0 instructions: 61000368 cycles: 27695249 heartbeat IPC: 0.3265 cumulative IPC: 0.76 (Simulation time: 00 hr 05 min 49 sec)
Heartbeat CPU 0 instructions: 61500375 cycles: 28595704 heartbeat IPC: 0.5553 cumulative IPC: 0.748 (Simulation time: 00 hr 05 min 56 sec)
Heartbeat CPU 0 instructions: 62000376 cycles: 29240006 heartbeat IPC: 0.776 cumulative IPC: 0.7492 (Simulation time: 00 hr 06 min 01 sec)
Heartbeat CPU 0 instructions: 62500376 cycles: 29734621 heartbeat IPC: 1.011 cumulative IPC: 0.757 (Simulation time: 00 hr 06 min 05 sec)
Heartbeat CPU 0 instructions: 63000379 cycles: 30321575 heartbeat IPC: 0.8519 cumulative IPC: 0.7602 (Simulation time: 00 hr 06 min 10 sec)
Heartbeat CPU 0 instructions: 63500380 cycles: 31259283 heartbeat IPC: 0.5332 cumulative IPC: 0.7484 (Simulation time: 00 hr 06 min 17 sec)
Heartbeat CPU 0 instructions: 64000381 cycles: 32696400 heartbeat IPC: 0.3479 cumulative IPC: 0.7189 (Simulation time: 00 hr 06 min 28 sec)
Heartbeat CPU 0 instructions: 64500381 cycles: 33860579 heartbeat IPC: 0.4295 cumulative IPC: 0.7026 (Simulation time: 00 hr 06 min 36 sec)
Heartbeat CPU 0 instructions: 65000383 cycles: 34924302 heartbeat IPC: 0.47 cumulative IPC: 0.6912 (Simulation time: 00 hr 06 min 44 sec)
Heartbeat CPU 0 instructions: 65500388 cycles: 36404969 heartbeat IPC: 0.3377 cumulative IPC: 0.6686 (Simulation time: 00 hr 06 min 55 sec)
Heartbeat CPU 0 instructions: 66000389 cycles: 37821085 heartbeat IPC: 0.3531 cumulative IPC: 0.6504 (Simulation time: 00 hr 07 min 04 sec)
Heartbeat CPU 0 instructions: 66500392 cycles: 38908667 heartbeat IPC: 0.4597 cumulative IPC: 0.6424 (Simulation time: 00 hr 07 min 12 sec)
Heartbeat CPU 0 instructions: 67000393 cycles: 40149809 heartbeat IPC: 0.4029 cumulative IPC: 0.6313 (Simulation time: 00 hr 07 min 21 sec)
Heartbeat CPU 0 instructions: 67500394 cycles: 40880874 heartbeat IPC: 0.6839 cumulative IPC: 0.6327 (Simulation time: 00 hr 07 min 27 sec)
Heartbeat CPU 0 instructions: 68000395 cycles: 41456822 heartbeat IPC: 0.8681 cumulative IPC: 0.6375 (Simulation time: 00 hr 07 min 32 sec)
Heartbeat CPU 0 instructions: 68500398 cycles: 41911743 heartbeat IPC: 1.099 cumulative IPC: 0.6448 (Simulation time: 00 hr 07 min 36 sec)
Heartbeat CPU 0 instructions: 69000399 cycles: 42305157 heartbeat IPC: 1.271 cumulative IPC: 0.6533 (Simulation time: 00 hr 07 min 40 sec)
Heartbeat CPU 0 instructions: 69500400 cycles: 43103086 heartbeat IPC: 0.6266 cumulative IPC: 0.6526 (Simulation time: 00 hr 07 min 46 sec)
Heartbeat CPU 0 instructions: 70000400 cycles: 44537998 heartbeat IPC: 0.3485 cumulative IPC: 0.6387 (Simulation time: 00 hr 07 min 57 sec)
Heartbeat CPU 0 instructions: 70500402 cycles: 45696564 heartbeat IPC: 0.4316 cumulative IPC: 0.6313 (Simulation time: 00 hr 08 min 05 sec)
Heartbeat CPU 0 instructions: 71000403 cycles: 46611774 heartbeat IPC: 0.5463 cumulative IPC: 0.6289 (Simulation time: 00 hr 08 min 12 sec)
Heartbeat CPU 0 instructions: 71500403 cycles: 48143327 heartbeat IPC: 0.3265 cumulative IPC: 0.6157 (Simulation time: 00 hr 08 min 23 sec)
Heartbeat CPU 0 instructions: 72000405 cycles: 49058515 heartbeat IPC: 0.5463 cumulative IPC: 0.6139 (Simulation time: 00 hr 08 min 29 sec)
Heartbeat CPU 0 instructions: 72500411 cycles: 49738918 heartbeat IPC: 0.7349 cumulative IPC: 0.6162 (Simulation time: 00 hr 08 min 35 sec)
Heartbeat CPU 0 instructions: 73000413 cycles: 50950210 heartbeat IPC: 0.4128 cumulative IPC: 0.6096 (Simulation time: 00 hr 08 min 43 sec)
Heartbeat CPU 0 instructions: 73500417 cycles: 52532313 heartbeat IPC: 0.316 cumulative IPC: 0.5978 (Simulation time: 00 hr 08 min 55 sec)
Heartbeat CPU 0 instructions: 74000417 cycles: 53601515 heartbeat IPC: 0.4676 cumulative IPC: 0.5944 (Simulation time: 00 hr 09 min 03 sec)
Heartbeat CPU 0 instructions: 74500421 cycles: 54333508 heartbeat IPC: 0.6831 cumulative IPC: 0.5959 (Simulation time: 00 hr 09 min 08 sec)
Heartbeat CPU 0 instructions: 75000421 cycles: 55332135 heartbeat IPC: 0.5007 cumulative IPC: 0.5937 (Simulation time: 00 hr 09 min 16 sec)
Heartbeat CPU 0 instructions: 75500427 cycles: 56337794 heartbeat IPC: 0.4972 cumulative IPC: 0.5914 (Simulation time: 00 hr 09 min 23 sec)
Heartbeat CPU 0 instructions: 76000427 cycles: 57005518 heartbeat IPC: 0.7488 cumulative IPC: 0.5938 (Simulation time: 00 hr 09 min 29 sec)
Heartbeat CPU 0 instructions: 76500427 cycles: 58217282 heartbeat IPC: 0.4126 cumulative IPC: 0.589 (Simulation time: 00 hr 09 min 38 sec)
Heartbeat CPU 0 instructions: 77000432 cycles: 59324370 heartbeat IPC: 0.4516 cumulative IPC: 0.5857 (Simulation time: 00 hr 09 min 46 sec)
Heartbeat CPU 0 instructions: 77500438 cycles: 59944118 heartbeat IPC: 0.8068 cumulative IPC: 0.5886 (Simulation time: 00 hr 09 min 51 sec)
Heartbeat CPU 0 instructions: 78000443 cycles: 60270744 heartbeat IPC: 1.531 cumulative IPC: 0.5951 (Simulation time: 00 hr 09 min 53 sec)
Heartbeat CPU 0 instructions: 78500443 cycles: 61281185 heartbeat IPC: 0.4948 cumulative IPC: 0.593 (Simulation time: 00 hr 10 min 01 sec)
Heartbeat CPU 0 instructions: 79000446 cycles: 62203609 heartbeat IPC: 0.5421 cumulative IPC: 0.5921 (Simulation time: 00 hr 10 min 08 sec)
Heartbeat CPU 0 instructions: 79500446 cycles: 63097461 heartbeat IPC: 0.5594 cumulative IPC: 0.5915 (Simulation time: 00 hr 10 min 15 sec)
Heartbeat CPU 0 instructions: 80000446 cycles: 64513750 heartbeat IPC: 0.353 cumulative IPC: 0.5849 (Simulation time: 00 hr 10 min 25 sec)
Heartbeat CPU 0 instructions: 80500446 cycles: 65792754 heartbeat IPC: 0.3909 cumulative IPC: 0.5802 (Simulation time: 00 hr 10 min 35 sec)
Heartbeat CPU 0 instructions: 81000447 cycles: 66829895 heartbeat IPC: 0.4821 cumulative IPC: 0.5783 (Simulation time: 00 hr 10 min 43 sec)
Heartbeat CPU 0 instructions: 81500447 cycles: 67985336 heartbeat IPC: 0.4327 cumulative IPC: 0.5752 (Simulation time: 00 hr 10 min 51 sec)
Heartbeat CPU 0 instructions: 82000449 cycles: 69313972 heartbeat IPC: 0.3763 cumulative IPC: 0.5705 (Simulation time: 00 hr 11 min 00 sec)
Heartbeat CPU 0 instructions: 82500449 cycles: 70604060 heartbeat IPC: 0.3876 cumulative IPC: 0.5664 (Simulation time: 00 hr 11 min 10 sec)
Heartbeat CPU 0 instructions: 83000451 cycles: 71211959 heartbeat IPC: 0.8225 cumulative IPC: 0.5691 (Simulation time: 00 hr 11 min 15 sec)
Heartbeat CPU 0 instructions: 83500453 cycles: 71601562 heartbeat IPC: 1.283 cumulative IPC: 0.5738 (Simulation time: 00 hr 11 min 18 sec)
Heartbeat CPU 0 instructions: 84000455 cycles: 72641733 heartbeat IPC: 0.4807 cumulative IPC: 0.5722 (Simulation time: 00 hr 11 min 26 sec)
Heartbeat CPU 0 instructions: 84500455 cycles: 73883770 heartbeat IPC: 0.4026 cumulative IPC: 0.5687 (Simulation time: 00 hr 11 min 35 sec)
Heartbeat CPU 0 instructions: 85000459 cycles: 74796075 heartbeat IPC: 0.5481 cumulative IPC: 0.5684 (Simulation time: 00 hr 11 min 42 sec)
Heartbeat CPU 0 instructions: 85500462 cycles: 75446434 heartbeat IPC: 0.7688 cumulative IPC: 0.5705 (Simulation time: 00 hr 11 min 47 sec)
Heartbeat CPU 0 instructions: 86000464 cycles: 76064699 heartbeat IPC: 0.8087 cumulative IPC: 0.5729 (Simulation time: 00 hr 11 min 52 sec)
Heartbeat CPU 0 instructions: 86500464 cycles: 76618306 heartbeat IPC: 0.9032 cumulative IPC: 0.5757 (Simulation time: 00 hr 11 min 57 sec)
Heartbeat CPU 0 instructions: 87000465 cycles: 76959058 heartbeat IPC: 1.467 cumulative IPC: 0.5805 (Simulation time: 00 hr 12 min 00 sec)
Heartbeat CPU 0 instructions: 87500472 cycles: 77462673 heartbeat IPC: 0.9928 cumulative IPC: 0.5837 (Simulation time: 00 hr 12 min 04 sec)
Heartbeat CPU 0 instructions: 88000477 cycles: 78549625 heartbeat IPC: 0.46 cumulative IPC: 0.5817 (Simulation time: 00 hr 12 min 13 sec)
Heartbeat CPU 0 instructions: 88500484 cycles: 79573524 heartbeat IPC: 0.4883 cumulative IPC: 0.5802 (Simulation time: 00 hr 12 min 20 sec)
Heartbeat CPU 0 instructions: 89000489 cycles: 80231468 heartbeat IPC: 0.76 cumulative IPC: 0.582 (Simulation time: 00 hr 12 min 26 sec)
Heartbeat CPU 0 instructions: 89500492 cycles: 80708031 heartbeat IPC: 1.049 cumulative IPC: 0.5853 (Simulation time: 00 hr 12 min 29 sec)
Heartbeat CPU 0 instructions: 90000493 cycles: 81226774 heartbeat IPC: 0.9639 cumulative IPC: 0.5882 (Simulation time: 00 hr 12 min 34 sec)
Heartbeat CPU 0 instructions: 90500493 cycles: 82274184 heartbeat IPC: 0.4774 cumulative IPC: 0.5865 (Simulation time: 00 hr 12 min 42 sec)
Heartbeat CPU 0 instructions: 91000495 cycles: 83815480 heartbeat IPC: 0.3244 cumulative IPC: 0.5808 (Simulation time: 00 hr 12 min 53 sec)
Heartbeat CPU 0 instructions: 91500497 cycles: 84689623 heartbeat IPC: 0.572 cumulative IPC: 0.5807 (Simulation time: 00 hr 13 min 00 sec)
Heartbeat CPU 0 instructions: 92000501 cycles: 85595662 heartbeat IPC: 0.5519 cumulative IPC: 0.5803 (Simulation time: 00 hr 13 min 07 sec)
Heartbeat CPU 0 instructions: 92500501 cycles: 86721198 heartbeat IPC: 0.4442 cumulative IPC: 0.5782 (Simulation time: 00 hr 13 min 15 sec)
Heartbeat CPU 0 instructions: 93000508 cycles: 87339225 heartbeat IPC: 0.809 cumulative IPC: 0.5802 (Simulation time: 00 hr 13 min 20 sec)
Heartbeat CPU 0 instructions: 93500510 cycles: 88081380 heartbeat IPC: 0.6737 cumulative IPC: 0.5811 (Simulation time: 00 hr 13 min 26 sec)
Heartbeat CPU 0 instructions: 94000512 cycles: 89233954 heartbeat IPC: 0.4338 cumulative IPC: 0.5789 (Simulation time: 00 hr 13 min 34 sec)
Heartbeat CPU 0 instructions: 94500519 cycles: 90723581 heartbeat IPC: 0.3357 cumulative IPC: 0.5742 (Simulation time: 00 hr 13 min 44 sec)
Heartbeat CPU 0 instructions: 95000522 cycles: 92638206 heartbeat IPC: 0.2611 cumulative IPC: 0.5666 (Simulation time: 00 hr 13 min 57 sec)
Heartbeat CPU 0 instructions: 95500527 cycles: 94031098 heartbeat IPC: 0.359 cumulative IPC: 0.5631 (Simulation time: 00 hr 14 min 07 sec)
Heartbeat CPU 0 instructions: 96000528 cycles: 95386230 heartbeat IPC: 0.369 cumulative IPC: 0.5599 (Simulation time: 00 hr 14 min 17 sec)
Heartbeat CPU 0 instructions: 96500528 cycles: 96648331 heartbeat IPC: 0.3962 cumulative IPC: 0.5574 (Simulation time: 00 hr 14 min 27 sec)
Heartbeat CPU 0 instructions: 97000528 cycles: 97370509 heartbeat IPC: 0.6924 cumulative IPC: 0.5585 (Simulation time: 00 hr 14 min 32 sec)
Heartbeat CPU 0 instructions: 97500532 cycles: 97870084 heartbeat IPC: 1.001 cumulative IPC: 0.5611 (Simulation time: 00 hr 14 min 36 sec)
Heartbeat CPU 0 instructions: 98000537 cycles: 98652819 heartbeat IPC: 0.6388 cumulative IPC: 0.5619 (Simulation time: 00 hr 14 min 42 sec)
Heartbeat CPU 0 instructions: 98500544 cycles: 99735034 heartbeat IPC: 0.462 cumulative IPC: 0.5606 (Simulation time: 00 hr 14 min 50 sec)
Heartbeat CPU 0 instructions: 99000544 cycles: 100454929 heartbeat IPC: 0.6945 cumulative IPC: 0.5617 (Simulation time: 00 hr 14 min 56 sec)
Heartbeat CPU 0 instructions: 99500544 cycles: 101083367 heartbeat IPC: 0.7956 cumulative IPC: 0.5634 (Simulation time: 00 hr 15 min 01 sec)
Heartbeat CPU 0 instructions: 100000546 cycles: 102194749 heartbeat IPC: 0.4499 cumulative IPC: 0.562 (Simulation time: 00 hr 15 min 09 sec)
Heartbeat CPU 0 instructions: 100500547 cycles: 103057509 heartbeat IPC: 0.5795 cumulative IPC: 0.5621 (Simulation time: 00 hr 15 min 16 sec)
Heartbeat CPU 0 instructions: 101000553 cycles: 103492032 heartbeat IPC: 1.151 cumulative IPC: 0.565 (Simulation time: 00 hr 15 min 20 sec)
Heartbeat CPU 0 instructions: 101500555 cycles: 103874451 heartbeat IPC: 1.307 cumulative IPC: 0.5681 (Simulation time: 00 hr 15 min 24 sec)
Heartbeat CPU 0 instructions: 102000556 cycles: 104208669 heartbeat IPC: 1.496 cumulative IPC: 0.5715 (Simulation time: 00 hr 15 min 27 sec)
Heartbeat CPU 0 instructions: 102500561 cycles: 104542059 heartbeat IPC: 1.5 cumulative IPC: 0.5749 (Simulation time: 00 hr 15 min 31 sec)
Heartbeat CPU 0 instructions: 103000564 cycles: 105961947 heartbeat IPC: 0.3521 cumulative IPC: 0.5715 (Simulation time: 00 hr 15 min 41 sec)
Heartbeat CPU 0 instructions: 103500571 cycles: 107346905 heartbeat IPC: 0.361 cumulative IPC: 0.5684 (Simulation time: 00 hr 15 min 51 sec)
Heartbeat CPU 0 instructions: 104000572 cycles: 108080167 heartbeat IPC: 0.6819 cumulative IPC: 0.5693 (Simulation time: 00 hr 15 min 57 sec)
Heartbeat CPU 0 instructions: 104500578 cycles: 109390600 heartbeat IPC: 0.3816 cumulative IPC: 0.5667 (Simulation time: 00 hr 16 min 06 sec)
Heartbeat CPU 0 instructions: 105000579 cycles: 110241000 heartbeat IPC: 0.588 cumulative IPC: 0.5669 (Simulation time: 00 hr 16 min 13 sec)
Heartbeat CPU 0 instructions: 105500583 cycles: 111613167 heartbeat IPC: 0.3644 cumulative IPC: 0.5641 (Simulation time: 00 hr 16 min 23 sec)
Heartbeat CPU 0 instructions: 106000586 cycles: 112328410 heartbeat IPC: 0.6991 cumulative IPC: 0.5651 (Simulation time: 00 hr 16 min 28 sec)
Heartbeat CPU 0 instructions: 106500589 cycles: 112882546 heartbeat IPC: 0.9023 cumulative IPC: 0.5669 (Simulation time: 00 hr 16 min 33 sec)
Heartbeat CPU 0 instructions: 107000593 cycles: 113658249 heartbeat IPC: 0.6446 cumulative IPC: 0.5675 (Simulation time: 00 hr 16 min 39 sec)
Heartbeat CPU 0 instructions: 107500593 cycles: 114799901 heartbeat IPC: 0.438 cumulative IPC: 0.5661 (Simulation time: 00 hr 16 min 47 sec)
Heartbeat CPU 0 instructions: 108000593 cycles: 115886611 heartbeat IPC: 0.4601 cumulative IPC: 0.5649 (Simulation time: 00 hr 16 min 56 sec)
Heartbeat CPU 0 instructions: 108500593 cycles: 116613459 heartbeat IPC: 0.6879 cumulative IPC: 0.5658 (Simulation time: 00 hr 17 min 01 sec)
Heartbeat CPU 0 instructions: 109000600 cycles: 117179790 heartbeat IPC: 0.8829 cumulative IPC: 0.5675 (Simulation time: 00 hr 17 min 06 sec)
Heartbeat CPU 0 instructions: 109500600 cycles: 117688221 heartbeat IPC: 0.9834 cumulative IPC: 0.5696 (Simulation time: 00 hr 17 min 10 sec)
Heartbeat CPU 0 instructions: 110000605 cycles: 118206812 heartbeat IPC: 0.9642 cumulative IPC: 0.5715 (Simulation time: 00 hr 17 min 14 sec)
Heartbeat CPU 0 instructions: 110500608 cycles: 118619845 heartbeat IPC: 1.211 cumulative IPC: 0.574 (Simulation time: 00 hr 17 min 18 sec)
Heartbeat CPU 0 instructions: 111000609 cycles: 119226347 heartbeat IPC: 0.8244 cumulative IPC: 0.5755 (Simulation time: 00 hr 17 min 23 sec)
Heartbeat CPU 0 instructions: 111500611 cycles: 120554211 heartbeat IPC: 0.3765 cumulative IPC: 0.573 (Simulation time: 00 hr 17 min 33 sec)
Heartbeat CPU 0 instructions: 112000615 cycles: 121419029 heartbeat IPC: 0.5782 cumulative IPC: 0.573 (Simulation time: 00 hr 17 min 40 sec)
Heartbeat CPU 0 instructions: 112500618 cycles: 122035995 heartbeat IPC: 0.8104 cumulative IPC: 0.5744 (Simulation time: 00 hr 17 min 45 sec)
Heartbeat CPU 0 instructions: 113000618 cycles: 122529705 heartbeat IPC: 1.013 cumulative IPC: 0.5764 (Simulation time: 00 hr 17 min 49 sec)
Heartbeat CPU 0 instructions: 113500618 cycles: 123028383 heartbeat IPC: 1.003 cumulative IPC: 0.5783 (Simulation time: 00 hr 17 min 54 sec)
Heartbeat CPU 0 instructions: 114000618 cycles: 123781304 heartbeat IPC: 0.6641 cumulative IPC: 0.5789 (Simulation time: 00 hr 17 min 59 sec)
Heartbeat CPU 0 instructions: 114500618 cycles: 125249157 heartbeat IPC: 0.3406 cumulative IPC: 0.5758 (Simulation time: 00 hr 18 min 10 sec)
Heartbeat CPU 0 instructions: 115000621 cycles: 125891134 heartbeat IPC: 0.7788 cumulative IPC: 0.5769 (Simulation time: 00 hr 18 min 16 sec)
Heartbeat CPU 0 instructions: 115500624 cycles: 127537456 heartbeat IPC: 0.3037 cumulative IPC: 0.573 (Simulation time: 00 hr 18 min 28 sec)
Heartbeat CPU 0 instructions: 116000624 cycles: 128584670 heartbeat IPC: 0.4775 cumulative IPC: 0.5721 (Simulation time: 00 hr 18 min 35 sec)
Heartbeat CPU 0 instructions: 116500627 cycles: 129397685 heartbeat IPC: 0.615 cumulative IPC: 0.5724 (Simulation time: 00 hr 18 min 42 sec)
Heartbeat CPU 0 instructions: 117000630 cycles: 130026730 heartbeat IPC: 0.7949 cumulative IPC: 0.5736 (Simulation time: 00 hr 18 min 46 sec)
Heartbeat CPU 0 instructions: 117500630 cycles: 130791442 heartbeat IPC: 0.6538 cumulative IPC: 0.5741 (Simulation time: 00 hr 18 min 52 sec)
Heartbeat CPU 0 instructions: 118000631 cycles: 132457856 heartbeat IPC: 0.3 cumulative IPC: 0.5703 (Simulation time: 00 hr 19 min 04 sec)
Heartbeat CPU 0 instructions: 118500632 cycles: 133541307 heartbeat IPC: 0.4615 cumulative IPC: 0.5693 (Simulation time: 00 hr 19 min 12 sec)
Heartbeat CPU 0 instructions: 119000634 cycles: 134281680 heartbeat IPC: 0.6753 cumulative IPC: 0.57 (Simulation time: 00 hr 19 min 18 sec)
Heartbeat CPU 0 instructions: 119500634 cycles: 135327796 heartbeat IPC: 0.478 cumulative IPC: 0.5692 (Simulation time: 00 hr 19 min 26 sec)
Heartbeat CPU 0 instructions: 120000634 cycles: 136232639 heartbeat IPC: 0.5526 cumulative IPC: 0.5691 (Simulation time: 00 hr 19 min 32 sec)
Heartbeat CPU 0 instructions: 120500634 cycles: 136952434 heartbeat IPC: 0.6946 cumulative IPC: 0.5698 (Simulation time: 00 hr 19 min 38 sec)
Heartbeat CPU 0 instructions: 121000639 cycles: 137740984 heartbeat IPC: 0.6341 cumulative IPC: 0.5702 (Simulation time: 00 hr 19 min 44 sec)
Heartbeat CPU 0 instructions: 121500642 cycles: 138829469 heartbeat IPC: 0.4594 cumulative IPC: 0.5692 (Simulation time: 00 hr 19 min 52 sec)
Heartbeat CPU 0 instructions: 122000646 cycles: 139515631 heartbeat IPC: 0.7287 cumulative IPC: 0.5701 (Simulation time: 00 hr 19 min 57 sec)
Heartbeat CPU 0 instructions: 122500647 cycles: 140264826 heartbeat IPC: 0.6674 cumulative IPC: 0.5707 (Simulation time: 00 hr 20 min 03 sec)
Heartbeat CPU 0 instructions: 123000647 cycles: 141353137 heartbeat IPC: 0.4594 cumulative IPC: 0.5697 (Simulation time: 00 hr 20 min 11 sec)
Heartbeat CPU 0 instructions: 123500648 cycles: 142067978 heartbeat IPC: 0.6995 cumulative IPC: 0.5705 (Simulation time: 00 hr 20 min 16 sec)
Heartbeat CPU 0 instructions: 124000648 cycles: 143202744 heartbeat IPC: 0.4406 cumulative IPC: 0.5693 (Simulation time: 00 hr 20 min 24 sec)
Heartbeat CPU 0 instructions: 124500653 cycles: 144552917 heartbeat IPC: 0.3703 cumulative IPC: 0.5673 (Simulation time: 00 hr 20 min 34 sec)
Heartbeat CPU 0 instructions: 125000660 cycles: 145230628 heartbeat IPC: 0.7378 cumulative IPC: 0.5681 (Simulation time: 00 hr 20 min 39 sec)
Heartbeat CPU 0 instructions: 125500663 cycles: 145830039 heartbeat IPC: 0.8342 cumulative IPC: 0.5693 (Simulation time: 00 hr 20 min 44 sec)
Heartbeat CPU 0 instructions: 126000664 cycles: 146249209 heartbeat IPC: 1.193 cumulative IPC: 0.5713 (Simulation time: 00 hr 20 min 48 sec)
Heartbeat CPU 0 instructions: 126500664 cycles: 146900329 heartbeat IPC: 0.7679 cumulative IPC: 0.5723 (Simulation time: 00 hr 20 min 53 sec)
Heartbeat CPU 0 instructions: 127000664 cycles: 148008936 heartbeat IPC: 0.451 cumulative IPC: 0.5713 (Simulation time: 00 hr 21 min 02 sec)
Heartbeat CPU 0 instructions: 127500664 cycles: 149372242 heartbeat IPC: 0.3668 cumulative IPC: 0.5692 (Simulation time: 00 hr 21 min 12 sec)
Heartbeat CPU 0 instructions: 128000667 cycles: 150401517 heartbeat IPC: 0.4858 cumulative IPC: 0.5686 (Simulation time: 00 hr 21 min 20 sec)
Heartbeat CPU 0 instructions: 128500669 cycles: 150988369 heartbeat IPC: 0.852 cumulative IPC: 0.5698 (Simulation time: 00 hr 21 min 24 sec)
Heartbeat CPU 0 instructions: 129000669 cycles: 151416813 heartbeat IPC: 1.167 cumulative IPC: 0.5717 (Simulation time: 00 hr 21 min 28 sec)
Heartbeat CPU 0 instructions: 129500676 cycles: 151791131 heartbeat IPC: 1.336 cumulative IPC: 0.5737 (Simulation time: 00 hr 21 min 32 sec)
Heartbeat CPU 0 instructions: 130000677 cycles: 152301224 heartbeat IPC: 0.9802 cumulative IPC: 0.5752 (Simulation time: 00 hr 21 min 36 sec)
Heartbeat CPU 0 instructions: 130500678 cycles: 152554992 heartbeat IPC: 1.97 cumulative IPC: 0.5778 (Simulation time: 00 hr 21 min 38 sec)
Heartbeat CPU 0 instructions: 131000680 cycles: 152770986 heartbeat IPC: 2.315 cumulative IPC: 0.5804 (Simulation time: 00 hr 21 min 40 sec)
Heartbeat CPU 0 instructions: 131500680 cycles: 153010929 heartbeat IPC: 2.084 cumulative IPC: 0.583 (Simulation time: 00 hr 21 min 42 sec)
Heartbeat CPU 0 instructions: 132000680 cycles: 153270858 heartbeat IPC: 1.924 cumulative IPC: 0.5855 (Simulation time: 00 hr 21 min 45 sec)
Heartbeat CPU 0 instructions: 132500684 cycles: 153487019 heartbeat IPC: 2.313 cumulative IPC: 0.5882 (Simulation time: 00 hr 21 min 47 sec)
Heartbeat CPU 0 instructions: 133000689 cycles: 154324112 heartbeat IPC: 0.5973 cumulative IPC: 0.5882 (Simulation time: 00 hr 21 min 54 sec)
Heartbeat CPU 0 instructions: 133500692 cycles: 154986216 heartbeat IPC: 0.7552 cumulative IPC: 0.589 (Simulation time: 00 hr 21 min 59 sec)
Heartbeat CPU 0 instructions: 134000695 cycles: 155372512 heartbeat IPC: 1.294 cumulative IPC: 0.5909 (Simulation time: 00 hr 22 min 03 sec)
Heartbeat CPU 0 instructions: 134500695 cycles: 155755688 heartbeat IPC: 1.305 cumulative IPC: 0.5928 (Simulation time: 00 hr 22 min 06 sec)
Heartbeat CPU 0 instructions: 135000695 cycles: 156265141 heartbeat IPC: 0.9814 cumulative IPC: 0.5942 (Simulation time: 00 hr 22 min 10 sec)
Heartbeat CPU 0 instructions: 135500696 cycles: 156563864 heartbeat IPC: 1.674 cumulative IPC: 0.5965 (Simulation time: 00 hr 22 min 13 sec)
Heartbeat CPU 0 instructions: 136000698 cycles: 156901069 heartbeat IPC: 1.483 cumulative IPC: 0.5986 (Simulation time: 00 hr 22 min 16 sec)
Heartbeat CPU 0 instructions: 136500698 cycles: 158002079 heartbeat IPC: 0.4541 cumulative IPC: 0.5975 (Simulation time: 00 hr 22 min 24 sec)
Heartbeat CPU 0 instructions: 137000698 cycles: 158983020 heartbeat IPC: 0.5097 cumulative IPC: 0.5969 (Simulation time: 00 hr 22 min 31 sec)
Heartbeat CPU 0 instructions: 137500698 cycles: 159421644 heartbeat IPC: 1.14 cumulative IPC: 0.5985 (Simulation time: 00 hr 22 min 35 sec)
Heartbeat CPU 0 instructions: 138000698 cycles: 159749752 heartbeat IPC: 1.524 cumulative IPC: 0.6006 (Simulation time: 00 hr 22 min 38 sec)
Heartbeat CPU 0 instructions: 138500700 cycles: 160155313 heartbeat IPC: 1.233 cumulative IPC: 0.6023 (Simulation time: 00 hr 22 min 42 sec)
Heartbeat CPU 0 instructions: 139000702 cycles: 160838479 heartbeat IPC: 0.7319 cumulative IPC: 0.6029 (Simulation time: 00 hr 22 min 47 sec)
Heartbeat CPU 0 instructions: 139500708 cycles: 161571038 heartbeat IPC: 0.6825 cumulative IPC: 0.6033 (Simulation time: 00 hr 22 min 52 sec)
Heartbeat CPU 0 instructions: 140000709 cycles: 162836744 heartbeat IPC: 0.395 cumulative IPC: 0.6015 (Simulation time: 00 hr 23 min 01 sec)
Heartbeat CPU 0 instructions: 140500709 cycles: 164571796 heartbeat IPC: 0.2882 cumulative IPC: 0.598 (Simulation time: 00 hr 23 min 13 sec)
Heartbeat CPU 0 instructions: 141000713 cycles: 166010196 heartbeat IPC: 0.3476 cumulative IPC: 0.5956 (Simulation time: 00 hr 23 min 23 sec)
Heartbeat CPU 0 instructions: 141500715 cycles: 166829852 heartbeat IPC: 0.61 cumulative IPC: 0.5957 (Simulation time: 00 hr 23 min 29 sec)
Heartbeat CPU 0 instructions: 142000715 cycles: 167702243 heartbeat IPC: 0.5731 cumulative IPC: 0.5955 (Simulation time: 00 hr 23 min 35 sec)
Heartbeat CPU 0 instructions: 142500716 cycles: 168457788 heartbeat IPC: 0.6618 cumulative IPC: 0.5959 (Simulation time: 00 hr 23 min 41 sec)
Heartbeat CPU 0 instructions: 143000716 cycles: 170187687 heartbeat IPC: 0.289 cumulative IPC: 0.5925 (Simulation time: 00 hr 23 min 53 sec)
Heartbeat CPU 0 instructions: 143500723 cycles: 171488610 heartbeat IPC: 0.3843 cumulative IPC: 0.5908 (Simulation time: 00 hr 24 min 02 sec)
Heartbeat CPU 0 instructions: 144000729 cycles: 172657784 heartbeat IPC: 0.4277 cumulative IPC: 0.5896 (Simulation time: 00 hr 24 min 10 sec)
Heartbeat CPU 0 instructions: 144500729 cycles: 173359440 heartbeat IPC: 0.7126 cumulative IPC: 0.5901 (Simulation time: 00 hr 24 min 15 sec)
Heartbeat CPU 0 instructions: 145000734 cycles: 174694986 heartbeat IPC: 0.3744 cumulative IPC: 0.5883 (Simulation time: 00 hr 24 min 24 sec)
Heartbeat CPU 0 instructions: 145500737 cycles: 175424103 heartbeat IPC: 0.6858 cumulative IPC: 0.5888 (Simulation time: 00 hr 24 min 29 sec)
Heartbeat CPU 0 instructions: 146000740 cycles: 176696518 heartbeat IPC: 0.393 cumulative IPC: 0.5872 (Simulation time: 00 hr 24 min 38 sec)
Heartbeat CPU 0 instructions: 146500744 cycles: 177942844 heartbeat IPC: 0.4012 cumulative IPC: 0.5858 (Simulation time: 00 hr 24 min 46 sec)
Heartbeat CPU 0 instructions: 147000746 cycles: 178786066 heartbeat IPC: 0.593 cumulative IPC: 0.5859 (Simulation time: 00 hr 24 min 52 sec)
Heartbeat CPU 0 instructions: 147500747 cycles: 179613584 heartbeat IPC: 0.6042 cumulative IPC: 0.586 (Simulation time: 00 hr 24 min 58 sec)
Heartbeat CPU 0 instructions: 148000749 cycles: 181201686 heartbeat IPC: 0.3148 cumulative IPC: 0.5834 (Simulation time: 00 hr 25 min 09 sec)
Heartbeat CPU 0 instructions: 148500754 cycles: 182054438 heartbeat IPC: 0.5863 cumulative IPC: 0.5834 (Simulation time: 00 hr 25 min 15 sec)
Heartbeat CPU 0 instructions: 149000759 cycles: 183343250 heartbeat IPC: 0.388 cumulative IPC: 0.5819 (Simulation time: 00 hr 25 min 23 sec)
Heartbeat CPU 0 instructions: 149500762 cycles: 184868654 heartbeat IPC: 0.3278 cumulative IPC: 0.5797 (Simulation time: 00 hr 25 min 33 sec)
Heartbeat CPU 0 instructions: 150000768 cycles: 186124115 heartbeat IPC: 0.3983 cumulative IPC: 0.5784 (Simulation time: 00 hr 25 min 42 sec)
Heartbeat CPU 0 instructions: 150500771 cycles: 186996710 heartbeat IPC: 0.573 cumulative IPC: 0.5783 (Simulation time: 00 hr 25 min 48 sec)
Heartbeat CPU 0 instructions: 151000771 cycles: 187630520 heartbeat IPC: 0.7889 cumulative IPC: 0.5791 (Simulation time: 00 hr 25 min 53 sec)
Heartbeat CPU 0 instructions: 151500773 cycles: 188041561 heartbeat IPC: 1.216 cumulative IPC: 0.5806 (Simulation time: 00 hr 25 min 56 sec)
Heartbeat CPU 0 instructions: 152000774 cycles: 188594871 heartbeat IPC: 0.9037 cumulative IPC: 0.5816 (Simulation time: 00 hr 26 min 00 sec)
Heartbeat CPU 0 instructions: 152500774 cycles: 188934407 heartbeat IPC: 1.473 cumulative IPC: 0.5833 (Simulation time: 00 hr 26 min 03 sec)
Heartbeat CPU 0 instructions: 153000779 cycles: 189198328 heartbeat IPC: 1.895 cumulative IPC: 0.5853 (Simulation time: 00 hr 26 min 06 sec)
Heartbeat CPU 0 instructions: 153500780 cycles: 189630391 heartbeat IPC: 1.157 cumulative IPC: 0.5867 (Simulation time: 00 hr 26 min 10 sec)
Heartbeat CPU 0 instructions: 154000781 cycles: 190431807 heartbeat IPC: 0.6239 cumulative IPC: 0.5869 (Simulation time: 00 hr 26 min 16 sec)
Heartbeat CPU 0 instructions: 154500786 cycles: 192135917 heartbeat IPC: 0.2934 cumulative IPC: 0.5841 (Simulation time: 00 hr 26 min 27 sec)
Heartbeat CPU 0 instructions: 155000788 cycles: 193257588 heartbeat IPC: 0.4458 cumulative IPC: 0.5832 (Simulation time: 00 hr 26 min 35 sec)
Heartbeat CPU 0 instructions: 155500790 cycles: 193810408 heartbeat IPC: 0.9045 cumulative IPC: 0.5842 (Simulation time: 00 hr 26 min 39 sec)
Heartbeat CPU 0 instructions: 156000797 cycles: 194515174 heartbeat IPC: 0.7095 cumulative IPC: 0.5847 (Simulation time: 00 hr 26 min 44 sec)
Heartbeat CPU 0 instructions: 156500798 cycles: 195117202 heartbeat IPC: 0.8305 cumulative IPC: 0.5855 (Simulation time: 00 hr 26 min 48 sec)
Heartbeat CPU 0 instructions: 157000798 cycles: 196356941 heartbeat IPC: 0.4033 cumulative IPC: 0.5843 (Simulation time: 00 hr 26 min 56 sec)
Heartbeat CPU 0 instructions: 157500798 cycles: 197179622 heartbeat IPC: 0.6078 cumulative IPC: 0.5844 (Simulation time: 00 hr 27 min 02 sec)
Heartbeat CPU 0 instructions: 158000804 cycles: 198418772 heartbeat IPC: 0.4035 cumulative IPC: 0.5832 (Simulation time: 00 hr 27 min 10 sec)
Heartbeat CPU 0 instructions: 158500806 cycles: 199172770 heartbeat IPC: 0.6631 cumulative IPC: 0.5835 (Simulation time: 00 hr 27 min 16 sec)
Heartbeat CPU 0 instructions: 159000812 cycles: 199855104 heartbeat IPC: 0.7328 cumulative IPC: 0.584 (Simulation time: 00 hr 27 min 21 sec)
Heartbeat CPU 0 instructions: 159500813 cycles: 200384512 heartbeat IPC: 0.9445 cumulative IPC: 0.5851 (Simulation time: 00 hr 27 min 25 sec)
Heartbeat CPU 0 instructions: 160000813 cycles: 201460775 heartbeat IPC: 0.4646 cumulative IPC: 0.5844 (Simulation time: 00 hr 27 min 32 sec)
Heartbeat CPU 0 instructions: 160500813 cycles: 202298237 heartbeat IPC: 0.597 cumulative IPC: 0.5844 (Simulation time: 00 hr 27 min 38 sec)
Heartbeat CPU 0 instructions: 161000818 cycles: 202917285 heartbeat IPC: 0.8077 cumulative IPC: 0.5852 (Simulation time: 00 hr 27 min 42 sec)
Heartbeat CPU 0 instructions: 161500820 cycles: 203291082 heartbeat IPC: 1.338 cumulative IPC: 0.5866 (Simulation time: 00 hr 27 min 45 sec)
Heartbeat CPU 0 instructions: 162000827 cycles: 203835913 heartbeat IPC: 0.9177 cumulative IPC: 0.5876 (Simulation time: 00 hr 27 min 49 sec)
Heartbeat CPU 0 instructions: 162500831 cycles: 204109385 heartbeat IPC: 1.828 cumulative IPC: 0.5894 (Simulation time: 00 hr 27 min 52 sec)
Heartbeat CPU 0 instructions: 163000831 cycles: 204665337 heartbeat IPC: 0.8994 cumulative IPC: 0.5903 (Simulation time: 00 hr 27 min 56 sec)
Heartbeat CPU 0 instructions: 163500831 cycles: 205732808 heartbeat IPC: 0.4684 cumulative IPC: 0.5896 (Simulation time: 00 hr 28 min 03 sec)
Heartbeat CPU 0 instructions: 164000835 cycles: 207209677 heartbeat IPC: 0.3386 cumulative IPC: 0.5877 (Simulation time: 00 hr 28 min 13 sec)
Heartbeat CPU 0 instructions: 164500835 cycles: 208473274 heartbeat IPC: 0.3957 cumulative IPC: 0.5864 (Simulation time: 00 hr 28 min 21 sec)
Heartbeat CPU 0 instructions: 165000835 cycles: 210186519 heartbeat IPC: 0.2918 cumulative IPC: 0.5839 (Simulation time: 00 hr 28 min 31 sec)
Heartbeat CPU 0 instructions: 165500838 cycles: 211829908 heartbeat IPC: 0.3043 cumulative IPC: 0.5816 (Simulation time: 00 hr 28 min 41 sec)
Heartbeat CPU 0 instructions: 166000839 cycles: 212888355 heartbeat IPC: 0.4724 cumulative IPC: 0.581 (Simulation time: 00 hr 28 min 48 sec)
Heartbeat CPU 0 instructions: 166500840 cycles: 213437802 heartbeat IPC: 0.91 cumulative IPC: 0.5819 (Simulation time: 00 hr 28 min 52 sec)
Heartbeat CPU 0 instructions: 167000840 cycles: 214065612 heartbeat IPC: 0.7964 cumulative IPC: 0.5825 (Simulation time: 00 hr 28 min 57 sec)
Heartbeat CPU 0 instructions: 167500841 cycles: 215236366 heartbeat IPC: 0.4271 cumulative IPC: 0.5816 (Simulation time: 00 hr 29 min 05 sec)
Heartbeat CPU 0 instructions: 168000842 cycles: 215992914 heartbeat IPC: 0.6609 cumulative IPC: 0.5819 (Simulation time: 00 hr 29 min 10 sec)
Heartbeat CPU 0 instructions: 168500844 cycles: 217336328 heartbeat IPC: 0.3722 cumulative IPC: 0.5806 (Simulation time: 00 hr 29 min 18 sec)
Heartbeat CPU 0 instructions: 169000844 cycles: 218174441 heartbeat IPC: 0.5966 cumulative IPC: 0.5806 (Simulation time: 00 hr 29 min 24 sec)
Heartbeat CPU 0 instructions: 169500846 cycles: 219090113 heartbeat IPC: 0.546 cumulative IPC: 0.5805 (Simulation time: 00 hr 29 min 30 sec)
Heartbeat CPU 0 instructions: 170000851 cycles: 220229170 heartbeat IPC: 0.439 cumulative IPC: 0.5797 (Simulation time: 00 hr 29 min 37 sec)
Heartbeat CPU 0 instructions: 170500851 cycles: 221504878 heartbeat IPC: 0.3919 cumulative IPC: 0.5785 (Simulation time: 00 hr 29 min 45 sec)
Heartbeat CPU 0 instructions: 171000857 cycles: 222085100 heartbeat IPC: 0.8617 cumulative IPC: 0.5793 (Simulation time: 00 hr 29 min 50 sec)
Heartbeat CPU 0 instructions: 171500862 cycles: 223360882 heartbeat IPC: 0.3919 cumulative IPC: 0.5782 (Simulation time: 00 hr 29 min 58 sec)
Heartbeat CPU 0 instructions: 172000862 cycles: 224534440 heartbeat IPC: 0.4261 cumulative IPC: 0.5773 (Simulation time: 00 hr 30 min 06 sec)
Heartbeat CPU 0 instructions: 172500869 cycles: 226289716 heartbeat IPC: 0.2849 cumulative IPC: 0.5749 (Simulation time: 00 hr 30 min 16 sec)
Heartbeat CPU 0 instructions: 173000870 cycles: 226850128 heartbeat IPC: 0.8922 cumulative IPC: 0.5758 (Simulation time: 00 hr 30 min 21 sec)
Heartbeat CPU 0 instructions: 173500870 cycles: 228269216 heartbeat IPC: 0.3523 cumulative IPC: 0.5743 (Simulation time: 00 hr 30 min 30 sec)
Heartbeat CPU 0 instructions: 174000872 cycles: 229054528 heartbeat IPC: 0.6367 cumulative IPC: 0.5745 (Simulation time: 00 hr 30 min 35 sec)
Heartbeat CPU 0 instructions: 174500876 cycles: 229384050 heartbeat IPC: 1.517 cumulative IPC: 0.576 (Simulation time: 00 hr 30 min 38 sec)
Heartbeat CPU 0 instructions: 175000876 cycles: 229750496 heartbeat IPC: 1.364 cumulative IPC: 0.5773 (Simulation time: 00 hr 30 min 41 sec)
Heartbeat CPU 0 instructions: 175500879 cycles: 230531378 heartbeat IPC: 0.6403 cumulative IPC: 0.5775 (Simulation time: 00 hr 30 min 46 sec)
Heartbeat CPU 0 instructions: 176000879 cycles: 231976918 heartbeat IPC: 0.3459 cumulative IPC: 0.576 (Simulation time: 00 hr 30 min 56 sec)
Heartbeat CPU 0 instructions: 176500879 cycles: 233060504 heartbeat IPC: 0.4614 cumulative IPC: 0.5754 (Simulation time: 00 hr 31 min 03 sec)
Heartbeat CPU 0 instructions: 177000884 cycles: 234149353 heartbeat IPC: 0.4592 cumulative IPC: 0.5749 (Simulation time: 00 hr 31 min 10 sec)
Heartbeat CPU 0 instructions: 177500887 cycles: 235033980 heartbeat IPC: 0.5652 cumulative IPC: 0.5748 (Simulation time: 00 hr 31 min 16 sec)
Heartbeat CPU 0 instructions: 178000887 cycles: 236319053 heartbeat IPC: 0.3891 cumulative IPC: 0.5737 (Simulation time: 00 hr 31 min 24 sec)
Heartbeat CPU 0 instructions: 178500888 cycles: 237345100 heartbeat IPC: 0.4873 cumulative IPC: 0.5733 (Simulation time: 00 hr 31 min 31 sec)
Heartbeat CPU 0 instructions: 179000889 cycles: 238921798 heartbeat IPC: 0.3171 cumulative IPC: 0.5716 (Simulation time: 00 hr 31 min 40 sec)
Heartbeat CPU 0 instructions: 179500889 cycles: 240188993 heartbeat IPC: 0.3946 cumulative IPC: 0.5706 (Simulation time: 00 hr 31 min 49 sec)
Heartbeat CPU 0 instructions: 180000893 cycles: 241177724 heartbeat IPC: 0.5057 cumulative IPC: 0.5703 (Simulation time: 00 hr 31 min 55 sec)
Heartbeat CPU 0 instructions: 180500894 cycles: 241812898 heartbeat IPC: 0.7872 cumulative IPC: 0.5709 (Simulation time: 00 hr 32 min 00 sec)
Heartbeat CPU 0 instructions: 181000894 cycles: 242519695 heartbeat IPC: 0.7074 cumulative IPC: 0.5713 (Simulation time: 00 hr 32 min 05 sec)
Heartbeat CPU 0 instructions: 181500894 cycles: 242933309 heartbeat IPC: 1.209 cumulative IPC: 0.5725 (Simulation time: 00 hr 32 min 08 sec)
Heartbeat CPU 0 instructions: 182000895 cycles: 244451416 heartbeat IPC: 0.3294 cumulative IPC: 0.5709 (Simulation time: 00 hr 32 min 18 sec)
Heartbeat CPU 0 instructions: 182500895 cycles: 245877969 heartbeat IPC: 0.3505 cumulative IPC: 0.5695 (Simulation time: 00 hr 32 min 27 sec)
Heartbeat CPU 0 instructions: 183000900 cycles: 247462923 heartbeat IPC: 0.3155 cumulative IPC: 0.5678 (Simulation time: 00 hr 32 min 37 sec)
Heartbeat CPU 0 instructions: 183500900 cycles: 248069077 heartbeat IPC: 0.8249 cumulative IPC: 0.5685 (Simulation time: 00 hr 32 min 41 sec)
Heartbeat CPU 0 instructions: 184000906 cycles: 248695449 heartbeat IPC: 0.7983 cumulative IPC: 0.5691 (Simulation time: 00 hr 32 min 45 sec)
Heartbeat CPU 0 instructions: 184500910 cycles: 248961338 heartbeat IPC: 1.88 cumulative IPC: 0.5705 (Simulation time: 00 hr 32 min 48 sec)
Heartbeat CPU 0 instructions: 185000910 cycles: 249378301 heartbeat IPC: 1.199 cumulative IPC: 0.5717 (Simulation time: 00 hr 32 min 52 sec)
Heartbeat CPU 0 instructions: 185500910 cycles: 250293397 heartbeat IPC: 0.5464 cumulative IPC: 0.5716 (Simulation time: 00 hr 32 min 58 sec)
Heartbeat CPU 0 instructions: 186000913 cycles: 251750399 heartbeat IPC: 0.3432 cumulative IPC: 0.5702 (Simulation time: 00 hr 33 min 07 sec)
Heartbeat CPU 0 instructions: 186500916 cycles: 252693281 heartbeat IPC: 0.5303 cumulative IPC: 0.57 (Simulation time: 00 hr 33 min 14 sec)
Heartbeat CPU 0 instructions: 187000917 cycles: 253812938 heartbeat IPC: 0.4466 cumulative IPC: 0.5694 (Simulation time: 00 hr 33 min 21 sec)
Heartbeat CPU 0 instructions: 187500918 cycles: 254589864 heartbeat IPC: 0.6436 cumulative IPC: 0.5697 (Simulation time: 00 hr 33 min 26 sec)
Heartbeat CPU 0 instructions: 188000918 cycles: 255338765 heartbeat IPC: 0.6676 cumulative IPC: 0.57 (Simulation time: 00 hr 33 min 31 sec)
Heartbeat CPU 0 instructions: 188500918 cycles: 256307742 heartbeat IPC: 0.516 cumulative IPC: 0.5698 (Simulation time: 00 hr 33 min 37 sec)
Heartbeat CPU 0 instructions: 189000919 cycles: 257593177 heartbeat IPC: 0.389 cumulative IPC: 0.5688 (Simulation time: 00 hr 33 min 46 sec)
Heartbeat CPU 0 instructions: 189500923 cycles: 258251830 heartbeat IPC: 0.7591 cumulative IPC: 0.5693 (Simulation time: 00 hr 33 min 50 sec)
Heartbeat CPU 0 instructions: 190000928 cycles: 259116104 heartbeat IPC: 0.5785 cumulative IPC: 0.5694 (Simulation time: 00 hr 33 min 56 sec)
Heartbeat CPU 0 instructions: 190500930 cycles: 260042499 heartbeat IPC: 0.5397 cumulative IPC: 0.5692 (Simulation time: 00 hr 34 min 02 sec)
Heartbeat CPU 0 instructions: 191000930 cycles: 260528944 heartbeat IPC: 1.028 cumulative IPC: 0.5701 (Simulation time: 00 hr 34 min 06 sec)
Heartbeat CPU 0 instructions: 191500930 cycles: 260904685 heartbeat IPC: 1.331 cumulative IPC: 0.5713 (Simulation time: 00 hr 34 min 09 sec)
Heartbeat CPU 0 instructions: 192000934 cycles: 261404576 heartbeat IPC: 1 cumulative IPC: 0.5722 (Simulation time: 00 hr 34 min 13 sec)
Heartbeat CPU 0 instructions: 192500935 cycles: 262586095 heartbeat IPC: 0.4232 cumulative IPC: 0.5715 (Simulation time: 00 hr 34 min 20 sec)
Heartbeat CPU 0 instructions: 193000935 cycles: 263439980 heartbeat IPC: 0.5856 cumulative IPC: 0.5715 (Simulation time: 00 hr 34 min 26 sec)
Heartbeat CPU 0 instructions: 193500940 cycles: 264193108 heartbeat IPC: 0.6639 cumulative IPC: 0.5718 (Simulation time: 00 hr 34 min 31 sec)
Heartbeat CPU 0 instructions: 194000947 cycles: 264564171 heartbeat IPC: 1.347 cumulative IPC: 0.5729 (Simulation time: 00 hr 34 min 34 sec)
Heartbeat CPU 0 instructions: 194500953 cycles: 265025432 heartbeat IPC: 1.084 cumulative IPC: 0.5739 (Simulation time: 00 hr 34 min 38 sec)
Heartbeat CPU 0 instructions: 195000954 cycles: 265819215 heartbeat IPC: 0.6299 cumulative IPC: 0.574 (Simulation time: 00 hr 34 min 44 sec)
Heartbeat CPU 0 instructions: 195500954 cycles: 266912089 heartbeat IPC: 0.4575 cumulative IPC: 0.5735 (Simulation time: 00 hr 34 min 51 sec)
Heartbeat CPU 0 instructions: 196000955 cycles: 267555091 heartbeat IPC: 0.7776 cumulative IPC: 0.5741 (Simulation time: 00 hr 34 min 55 sec)
Heartbeat CPU 0 instructions: 196500955 cycles: 268134262 heartbeat IPC: 0.8633 cumulative IPC: 0.5747 (Simulation time: 00 hr 35 min 00 sec)
Heartbeat CPU 0 instructions: 197000955 cycles: 269076153 heartbeat IPC: 0.5308 cumulative IPC: 0.5745 (Simulation time: 00 hr 35 min 06 sec)
Heartbeat CPU 0 instructions: 197500955 cycles: 270805613 heartbeat IPC: 0.2891 cumulative IPC: 0.5726 (Simulation time: 00 hr 35 min 17 sec)
Heartbeat CPU 0 instructions: 198000956 cycles: 271935716 heartbeat IPC: 0.4424 cumulative IPC: 0.5721 (Simulation time: 00 hr 35 min 24 sec)
Heartbeat CPU 0 instructions: 198500956 cycles: 273428426 heartbeat IPC: 0.335 cumulative IPC: 0.5707 (Simulation time: 00 hr 35 min 33 sec)
Heartbeat CPU 0 instructions: 199000958 cycles: 274673024 heartbeat IPC: 0.4017 cumulative IPC: 0.5699 (Simulation time: 00 hr 35 min 41 sec)
Heartbeat CPU 0 instructions: 199500959 cycles: 275539563 heartbeat IPC: 0.577 cumulative IPC: 0.5699 (Simulation time: 00 hr 35 min 47 sec)
Heartbeat CPU 0 instructions: 200000961 cycles: 276564509 heartbeat IPC: 0.4878 cumulative IPC: 0.5696 (Simulation time: 00 hr 35 min 54 sec)
Heartbeat CPU 0 instructions: 200500962 cycles: 277393191 heartbeat IPC: 0.6034 cumulative IPC: 0.5697 (Simulation time: 00 hr 36 min 00 sec)
Heartbeat CPU 0 instructions: 201000964 cycles: 278363515 heartbeat IPC: 0.5153 cumulative IPC: 0.5695 (Simulation time: 00 hr 36 min 06 sec)
Heartbeat CPU 0 instructions: 201500964 cycles: 279524726 heartbeat IPC: 0.4306 cumulative IPC: 0.5689 (Simulation time: 00 hr 36 min 14 sec)
Heartbeat CPU 0 instructions: 202000967 cycles: 280484670 heartbeat IPC: 0.5209 cumulative IPC: 0.5687 (Simulation time: 00 hr 36 min 20 sec)
Heartbeat CPU 0 instructions: 202500968 cycles: 280763466 heartbeat IPC: 1.793 cumulative IPC: 0.57 (Simulation time: 00 hr 36 min 23 sec)
Heartbeat CPU 0 instructions: 203000973 cycles: 281338245 heartbeat IPC: 0.8699 cumulative IPC: 0.5707 (Simulation time: 00 hr 36 min 27 sec)
Heartbeat CPU 0 instructions: 203500973 cycles: 281686363 heartbeat IPC: 1.436 cumulative IPC: 0.5718 (Simulation time: 00 hr 36 min 30 sec)
Heartbeat CPU 0 instructions: 204000974 cycles: 282332251 heartbeat IPC: 0.7741 cumulative IPC: 0.5723 (Simulation time: 00 hr 36 min 34 sec)
Heartbeat CPU 0 instructions: 204500976 cycles: 283411466 heartbeat IPC: 0.4633 cumulative IPC: 0.5718 (Simulation time: 00 hr 36 min 42 sec)
Heartbeat CPU 0 instructions: 205000977 cycles: 284199528 heartbeat IPC: 0.6345 cumulative IPC: 0.572 (Simulation time: 00 hr 36 min 47 sec)
Heartbeat CPU 0 instructions: 205500977 cycles: 285499634 heartbeat IPC: 0.3846 cumulative IPC: 0.5711 (Simulation time: 00 hr 36 min 55 sec)
Heartbeat CPU 0 instructions: 206000980 cycles: 286384921 heartbeat IPC: 0.5648 cumulative IPC: 0.5711 (Simulation time: 00 hr 37 min 01 sec)
Heartbeat CPU 0 instructions: 206500980 cycles: 287270451 heartbeat IPC: 0.5646 cumulative IPC: 0.5711 (Simulation time: 00 hr 37 min 07 sec)
Heartbeat CPU 0 instructions: 207000980 cycles: 288540065 heartbeat IPC: 0.3938 cumulative IPC: 0.5703 (Simulation time: 00 hr 37 min 15 sec)
Heartbeat CPU 0 instructions: 207500980 cycles: 289313348 heartbeat IPC: 0.6466 cumulative IPC: 0.5705 (Simulation time: 00 hr 37 min 20 sec)
Heartbeat CPU 0 instructions: 208000985 cycles: 289737427 heartbeat IPC: 1.179 cumulative IPC: 0.5714 (Simulation time: 00 hr 37 min 24 sec)
Heartbeat CPU 0 instructions: 208500986 cycles: 290205221 heartbeat IPC: 1.069 cumulative IPC: 0.5722 (Simulation time: 00 hr 37 min 27 sec)
Heartbeat CPU 0 instructions: 209000988 cycles: 290712943 heartbeat IPC: 0.9848 cumulative IPC: 0.573 (Simulation time: 00 hr 37 min 31 sec)
Heartbeat CPU 0 instructions: 209500989 cycles: 291195175 heartbeat IPC: 1.037 cumulative IPC: 0.5738 (Simulation time: 00 hr 37 min 35 sec)
Heartbeat CPU 0 instructions: 210000991 cycles: 291951617 heartbeat IPC: 0.661 cumulative IPC: 0.574 (Simulation time: 00 hr 37 min 40 sec)
Heartbeat CPU 0 instructions: 210500996 cycles: 292538410 heartbeat IPC: 0.8521 cumulative IPC: 0.5746 (Simulation time: 00 hr 37 min 45 sec)
Heartbeat CPU 0 instructions: 211000996 cycles: 293183606 heartbeat IPC: 0.775 cumulative IPC: 0.5751 (Simulation time: 00 hr 37 min 49 sec)
Heartbeat CPU 0 instructions: 211500998 cycles: 293685295 heartbeat IPC: 0.9966 cumulative IPC: 0.5758 (Simulation time: 00 hr 37 min 53 sec)
Heartbeat CPU 0 instructions: 212001001 cycles: 294161492 heartbeat IPC: 1.05 cumulative IPC: 0.5766 (Simulation time: 00 hr 37 min 57 sec)
Heartbeat CPU 0 instructions: 212501001 cycles: 294604234 heartbeat IPC: 1.129 cumulative IPC: 0.5775 (Simulation time: 00 hr 38 min 00 sec)
Heartbeat CPU 0 instructions: 213001001 cycles: 295837766 heartbeat IPC: 0.4053 cumulative IPC: 0.5768 (Simulation time: 00 hr 38 min 08 sec)
Heartbeat CPU 0 instructions: 213501002 cycles: 296535587 heartbeat IPC: 0.7165 cumulative IPC: 0.5771 (Simulation time: 00 hr 38 min 13 sec)
Heartbeat CPU 0 instructions: 214001005 cycles: 297420929 heartbeat IPC: 0.5648 cumulative IPC: 0.5771 (Simulation time: 00 hr 38 min 19 sec)
Heartbeat CPU 0 instructions: 214501005 cycles: 298803176 heartbeat IPC: 0.3617 cumulative IPC: 0.576 (Simulation time: 00 hr 38 min 28 sec)
Heartbeat CPU 0 instructions: 215001006 cycles: 299702878 heartbeat IPC: 0.5557 cumulative IPC: 0.576 (Simulation time: 00 hr 38 min 34 sec)
Heartbeat CPU 0 instructions: 215501011 cycles: 300720633 heartbeat IPC: 0.4913 cumulative IPC: 0.5757 (Simulation time: 00 hr 38 min 40 sec)
Heartbeat CPU 0 instructions: 216001014 cycles: 302442654 heartbeat IPC: 0.2904 cumulative IPC: 0.574 (Simulation time: 00 hr 38 min 51 sec)
Heartbeat CPU 0 instructions: 216501021 cycles: 303730259 heartbeat IPC: 0.3883 cumulative IPC: 0.5731 (Simulation time: 00 hr 38 min 59 sec)
Heartbeat CPU 0 instructions: 217001021 cycles: 304507454 heartbeat IPC: 0.6433 cumulative IPC: 0.5733 (Simulation time: 00 hr 39 min 04 sec)
Heartbeat CPU 0 instructions: 217501024 cycles: 305378079 heartbeat IPC: 0.5743 cumulative IPC: 0.5733 (Simulation time: 00 hr 39 min 10 sec)
Heartbeat CPU 0 instructions: 218001024 cycles: 306391361 heartbeat IPC: 0.4934 cumulative IPC: 0.573 (Simulation time: 00 hr 39 min 17 sec)
Heartbeat CPU 0 instructions: 218501024 cycles: 307083438 heartbeat IPC: 0.7225 cumulative IPC: 0.5734 (Simulation time: 00 hr 39 min 21 sec)
Heartbeat CPU 0 instructions: 219001026 cycles: 308241022 heartbeat IPC: 0.4319 cumulative IPC: 0.5728 (Simulation time: 00 hr 39 min 29 sec)
Heartbeat CPU 0 instructions: 219501027 cycles: 309118128 heartbeat IPC: 0.5701 cumulative IPC: 0.5728 (Simulation time: 00 hr 39 min 35 sec)
Heartbeat CPU 0 instructions: 220001030 cycles: 310175124 heartbeat IPC: 0.473 cumulative IPC: 0.5725 (Simulation time: 00 hr 39 min 41 sec)
Heartbeat CPU 0 instructions: 220501032 cycles: 310923531 heartbeat IPC: 0.6681 cumulative IPC: 0.5727 (Simulation time: 00 hr 39 min 47 sec)
Heartbeat CPU 0 instructions: 221001034 cycles: 311533402 heartbeat IPC: 0.8198 cumulative IPC: 0.5732 (Simulation time: 00 hr 39 min 51 sec)
Heartbeat CPU 0 instructions: 221501034 cycles: 312106743 heartbeat IPC: 0.8721 cumulative IPC: 0.5738 (Simulation time: 00 hr 39 min 55 sec)
Heartbeat CPU 0 instructions: 222001035 cycles: 312785587 heartbeat IPC: 0.7365 cumulative IPC: 0.5742 (Simulation time: 00 hr 40 min 00 sec)
Heartbeat CPU 0 instructions: 222501037 cycles: 314205090 heartbeat IPC: 0.3522 cumulative IPC: 0.5731 (Simulation time: 00 hr 40 min 09 sec)
Heartbeat CPU 0 instructions: 223001038 cycles: 315936682 heartbeat IPC: 0.2888 cumulative IPC: 0.5715 (Simulation time: 00 hr 40 min 20 sec)
Heartbeat CPU 0 instructions: 223501040 cycles: 316492097 heartbeat IPC: 0.9002 cumulative IPC: 0.5721 (Simulation time: 00 hr 40 min 24 sec)
Heartbeat CPU 0 instructions: 224001046 cycles: 317019617 heartbeat IPC: 0.9478 cumulative IPC: 0.5728 (Simulation time: 00 hr 40 min 29 sec)
Heartbeat CPU 0 instructions: 224501046 cycles: 318145462 heartbeat IPC: 0.4441 cumulative IPC: 0.5723 (Simulation time: 00 hr 40 min 36 sec)
Heartbeat CPU 0 instructions: 225001053 cycles: 319440500 heartbeat IPC: 0.3861 cumulative IPC: 0.5715 (Simulation time: 00 hr 40 min 45 sec)
Heartbeat CPU 0 instructions: 225501055 cycles: 320227438 heartbeat IPC: 0.6354 cumulative IPC: 0.5717 (Simulation time: 00 hr 40 min 50 sec)
Heartbeat CPU 0 instructions: 226001062 cycles: 320927790 heartbeat IPC: 0.7139 cumulative IPC: 0.572 (Simulation time: 00 hr 40 min 55 sec)
Heartbeat CPU 0 instructions: 226501062 cycles: 322419104 heartbeat IPC: 0.3353 cumulative IPC: 0.5708 (Simulation time: 00 hr 41 min 04 sec)
Heartbeat CPU 0 instructions: 227001062 cycles: 323335257 heartbeat IPC: 0.5458 cumulative IPC: 0.5708 (Simulation time: 00 hr 41 min 11 sec)
Heartbeat CPU 0 instructions: 227501063 cycles: 324066898 heartbeat IPC: 0.6834 cumulative IPC: 0.571 (Simulation time: 00 hr 41 min 16 sec)
Heartbeat CPU 0 instructions: 228001065 cycles: 324630719 heartbeat IPC: 0.8868 cumulative IPC: 0.5716 (Simulation time: 00 hr 41 min 20 sec)
Heartbeat CPU 0 instructions: 228501065 cycles: 325795491 heartbeat IPC: 0.4293 cumulative IPC: 0.5711 (Simulation time: 00 hr 41 min 28 sec)
Heartbeat CPU 0 instructions: 229001065 cycles: 326971762 heartbeat IPC: 0.4251 cumulative IPC: 0.5705 (Simulation time: 00 hr 41 min 35 sec)
Heartbeat CPU 0 instructions: 229501070 cycles: 327620275 heartbeat IPC: 0.771 cumulative IPC: 0.5709 (Simulation time: 00 hr 41 min 40 sec)
Heartbeat CPU 0 instructions: 230001075 cycles: 328383648 heartbeat IPC: 0.655 cumulative IPC: 0.5711 (Simulation time: 00 hr 41 min 45 sec)
Heartbeat CPU 0 instructions: 230501081 cycles: 329675292 heartbeat IPC: 0.3871 cumulative IPC: 0.5704 (Simulation time: 00 hr 41 min 54 sec)
Heartbeat CPU 0 instructions: 231001081 cycles: 330416686 heartbeat IPC: 0.6744 cumulative IPC: 0.5706 (Simulation time: 00 hr 41 min 59 sec)
Heartbeat CPU 0 instructions: 231501085 cycles: 331116109 heartbeat IPC: 0.7149 cumulative IPC: 0.5709 (Simulation time: 00 hr 42 min 03 sec)
Heartbeat CPU 0 instructions: 232001085 cycles: 331931245 heartbeat IPC: 0.6134 cumulative IPC: 0.5711 (Simulation time: 00 hr 42 min 09 sec)
Heartbeat CPU 0 instructions: 232501090 cycles: 332471993 heartbeat IPC: 0.9247 cumulative IPC: 0.5717 (Simulation time: 00 hr 42 min 13 sec)
Heartbeat CPU 0 instructions: 233001092 cycles: 333008301 heartbeat IPC: 0.9323 cumulative IPC: 0.5723 (Simulation time: 00 hr 42 min 17 sec)
Heartbeat CPU 0 instructions: 233501094 cycles: 333868524 heartbeat IPC: 0.5812 cumulative IPC: 0.5723 (Simulation time: 00 hr 42 min 23 sec)
Heartbeat CPU 0 instructions: 234001094 cycles: 335719497 heartbeat IPC: 0.2701 cumulative IPC: 0.5705 (Simulation time: 00 hr 42 min 35 sec)
Heartbeat CPU 0 instructions: 234501095 cycles: 336711210 heartbeat IPC: 0.5042 cumulative IPC: 0.5703 (Simulation time: 00 hr 42 min 41 sec)
Heartbeat CPU 0 instructions: 235001097 cycles: 337671938 heartbeat IPC: 0.5204 cumulative IPC: 0.5702 (Simulation time: 00 hr 42 min 48 sec)
Heartbeat CPU 0 instructions: 235501098 cycles: 338623051 heartbeat IPC: 0.5257 cumulative IPC: 0.5701 (Simulation time: 00 hr 42 min 54 sec)
Heartbeat CPU 0 instructions: 236001098 cycles: 338945473 heartbeat IPC: 1.551 cumulative IPC: 0.571 (Simulation time: 00 hr 42 min 57 sec)
Heartbeat CPU 0 instructions: 236501100 cycles: 339617395 heartbeat IPC: 0.7441 cumulative IPC: 0.5714 (Simulation time: 00 hr 43 min 01 sec)
Heartbeat CPU 0 instructions: 237001103 cycles: 341433995 heartbeat IPC: 0.2752 cumulative IPC: 0.5698 (Simulation time: 00 hr 43 min 13 sec)
Heartbeat CPU 0 instructions: 237501107 cycles: 342512188 heartbeat IPC: 0.4637 cumulative IPC: 0.5694 (Simulation time: 00 hr 43 min 20 sec)
Heartbeat CPU 0 instructions: 238001107 cycles: 343588014 heartbeat IPC: 0.4648 cumulative IPC: 0.5691 (Simulation time: 00 hr 43 min 27 sec)
Heartbeat CPU 0 instructions: 238501108 cycles: 344211155 heartbeat IPC: 0.8024 cumulative IPC: 0.5695 (Simulation time: 00 hr 43 min 31 sec)
Heartbeat CPU 0 instructions: 239001108 cycles: 344762291 heartbeat IPC: 0.9072 cumulative IPC: 0.5701 (Simulation time: 00 hr 43 min 35 sec)
Heartbeat CPU 0 instructions: 239501112 cycles: 345177149 heartbeat IPC: 1.205 cumulative IPC: 0.5709 (Simulation time: 00 hr 43 min 39 sec)
Heartbeat CPU 0 instructions: 240001115 cycles: 346052845 heartbeat IPC: 0.571 cumulative IPC: 0.5709 (Simulation time: 00 hr 43 min 45 sec)
Heartbeat CPU 0 instructions: 240501115 cycles: 347036901 heartbeat IPC: 0.5081 cumulative IPC: 0.5707 (Simulation time: 00 hr 43 min 51 sec)
Heartbeat CPU 0 instructions: 241001119 cycles: 347668852 heartbeat IPC: 0.7912 cumulative IPC: 0.5711 (Simulation time: 00 hr 43 min 56 sec)
Heartbeat CPU 0 instructions: 241501119 cycles: 348203761 heartbeat IPC: 0.9347 cumulative IPC: 0.5717 (Simulation time: 00 hr 44 min 00 sec)
Heartbeat CPU 0 instructions: 242001119 cycles: 348884970 heartbeat IPC: 0.734 cumulative IPC: 0.572 (Simulation time: 00 hr 44 min 05 sec)
Heartbeat CPU 0 instructions: 242501123 cycles: 349887203 heartbeat IPC: 0.4989 cumulative IPC: 0.5718 (Simulation time: 00 hr 44 min 11 sec)
Heartbeat CPU 0 instructions: 243001128 cycles: 350559628 heartbeat IPC: 0.7436 cumulative IPC: 0.5721 (Simulation time: 00 hr 44 min 16 sec)
Heartbeat CPU 0 instructions: 243501129 cycles: 351108752 heartbeat IPC: 0.9105 cumulative IPC: 0.5727 (Simulation time: 00 hr 44 min 20 sec)
Heartbeat CPU 0 instructions: 244001129 cycles: 352163865 heartbeat IPC: 0.4739 cumulative IPC: 0.5724 (Simulation time: 00 hr 44 min 27 sec)
Heartbeat CPU 0 instructions: 244501135 cycles: 352970432 heartbeat IPC: 0.6199 cumulative IPC: 0.5725 (Simulation time: 00 hr 44 min 33 sec)
Heartbeat CPU 0 instructions: 245001138 cycles: 353575375 heartbeat IPC: 0.8265 cumulative IPC: 0.5729 (Simulation time: 00 hr 44 min 37 sec)
Heartbeat CPU 0 instructions: 245501140 cycles: 353987680 heartbeat IPC: 1.213 cumulative IPC: 0.5737 (Simulation time: 00 hr 44 min 40 sec)
Heartbeat CPU 0 instructions: 246001147 cycles: 354488234 heartbeat IPC: 0.9989 cumulative IPC: 0.5743 (Simulation time: 00 hr 44 min 44 sec)
Heartbeat CPU 0 instructions: 246501147 cycles: 355621471 heartbeat IPC: 0.4412 cumulative IPC: 0.5739 (Simulation time: 00 hr 44 min 52 sec)
Heartbeat CPU 0 instructions: 247001147 cycles: 356629552 heartbeat IPC: 0.496 cumulative IPC: 0.5737 (Simulation time: 00 hr 44 min 58 sec)
Heartbeat CPU 0 instructions: 247501148 cycles: 357260349 heartbeat IPC: 0.7926 cumulative IPC: 0.5741 (Simulation time: 00 hr 45 min 02 sec)
Heartbeat CPU 0 instructions: 248001149 cycles: 357614629 heartbeat IPC: 1.411 cumulative IPC: 0.5749 (Simulation time: 00 hr 45 min 05 sec)
Heartbeat CPU 0 instructions: 248501149 cycles: 358018995 heartbeat IPC: 1.237 cumulative IPC: 0.5757 (Simulation time: 00 hr 45 min 08 sec)
Heartbeat CPU 0 instructions: 249001153 cycles: 358536381 heartbeat IPC: 0.9664 cumulative IPC: 0.5763 (Simulation time: 00 hr 45 min 12 sec)
Heartbeat CPU 0 instructions: 249501154 cycles: 358977445 heartbeat IPC: 1.134 cumulative IPC: 0.577 (Simulation time: 00 hr 45 min 16 sec)
Simulation finished CPU 0 instructions: 200000002 cycles: 346519836 cumulative IPC: 0.5772 (Simulation time: 00 hr 45 min 21 sec)
Simulation complete CPU 0 instructions: 200000002 cycles: 346519836 cumulative IPC: 0.5772 (Simulation time: 00 hr 45 min 21 sec)

ChampSim completed all CPUs

=== Simulation ===
CPU 0 runs /local-ssd/ben/dpc4-traces/gtraces_v2/yankee_0000.champsim.gz

Region of Interest Statistics

CPU 0 cumulative IPC: 0.5772 instructions: 200000002 cycles: 346519836
CPU 0 Branch Prediction Accuracy: 88.52% MPKI: 21.11 Average ROB Occupancy at Mispredict: 23.69
Branch type MPKI
BRANCH_DIRECT_JUMP: 0.8628
BRANCH_INDIRECT: 0.5346
BRANCH_CONDITIONAL: 16.78
BRANCH_DIRECT_CALL: 1.572
BRANCH_INDIRECT_CALL: 0.48
BRANCH_RETURN: 0.8826

cpu0->cpu0_STLB TOTAL        ACCESS:    1988398 HIT:    1400020 MISS:     588378 MSHR_MERGE:          0
cpu0->cpu0_STLB LOAD         ACCESS:    1988398 HIT:    1400020 MISS:     588378 MSHR_MERGE:          0
cpu0->cpu0_STLB RFO          ACCESS:          0 HIT:          0 MISS:          0 MSHR_MERGE:          0
cpu0->cpu0_STLB PREFETCH     ACCESS:          0 HIT:          0 MISS:          0 MSHR_MERGE:          0
cpu0->cpu0_STLB WRITE        ACCESS:          0 HIT:          0 MISS:          0 MSHR_MERGE:          0
cpu0->cpu0_STLB TRANSLATION  ACCESS:          0 HIT:          0 MISS:          0 MSHR_MERGE:          0
cpu0->cpu0_STLB PREFETCH REQUESTED:          0 ISSUED:          0 USEFUL:          0 USELESS:          0
cpu0->cpu0_STLB AVERAGE MISS LATENCY: 196.1 cycles
cpu0->cpu0_L2C TOTAL        ACCESS:   25381269 HIT:   16956646 MISS:    8424623 MSHR_MERGE:    2773478
cpu0->cpu0_L2C LOAD         ACCESS:    4038924 HIT:    2866560 MISS:    1172364 MSHR_MERGE:     204453
cpu0->cpu0_L2C RFO          ACCESS:     740822 HIT:     254389 MISS:     486433 MSHR_MERGE:       7610
cpu0->cpu0_L2C PREFETCH     ACCESS:   18637560 HIT:   12201410 MISS:    6436150 MSHR_MERGE:    2561415
cpu0->cpu0_L2C WRITE        ACCESS:    1259328 HIT:    1259316 MISS:         12 MSHR_MERGE:          0
cpu0->cpu0_L2C TRANSLATION  ACCESS:     704635 HIT:     374971 MISS:     329664 MSHR_MERGE:          0
cpu0->cpu0_L2C PREFETCH REQUESTED:   18364406 ISSUED:   16699745 USEFUL:    1790236 USELESS:    1407900
cpu0->cpu0_L2C AVERAGE MISS LATENCY: 209.7 cycles
cpu0->cpu0_L1I TOTAL        ACCESS:   13379686 HIT:   10435474 MISS:    2944212 MSHR_MERGE:     669620
cpu0->cpu0_L1I LOAD         ACCESS:   13379686 HIT:   10435474 MISS:    2944212 MSHR_MERGE:     669620
cpu0->cpu0_L1I RFO          ACCESS:          0 HIT:          0 MISS:          0 MSHR_MERGE:          0
cpu0->cpu0_L1I PREFETCH     ACCESS:          0 HIT:          0 MISS:          0 MSHR_MERGE:          0
cpu0->cpu0_L1I WRITE        ACCESS:          0 HIT:          0 MISS:          0 MSHR_MERGE:          0
cpu0->cpu0_L1I TRANSLATION  ACCESS:          0 HIT:          0 MISS:          0 MSHR_MERGE:          0
cpu0->cpu0_L1I PREFETCH REQUESTED:          0 ISSUED:          0 USEFUL:          0 USELESS:          0
cpu0->cpu0_L1I AVERAGE MISS LATENCY: 55.15 cycles
cpu0->cpu0_L1D TOTAL        ACCESS:   79686679 HIT:   71101520 MISS:    8585159 MSHR_MERGE:    3437544
cpu0->cpu0_L1D LOAD         ACCESS:   33890659 HIT:   31591991 MISS:    2298668 MSHR_MERGE:     534329
cpu0->cpu0_L1D RFO          ACCESS:          0 HIT:          0 MISS:          0 MSHR_MERGE:          0
cpu0->cpu0_L1D PREFETCH     ACCESS:   21135597 HIT:   18452803 MISS:    2682794 MSHR_MERGE:     744992
cpu0->cpu0_L1D WRITE        ACCESS:   23114033 HIT:   20220437 MISS:    2893596 MSHR_MERGE:    2152757
cpu0->cpu0_L1D TRANSLATION  ACCESS:    1546390 HIT:     836289 MISS:     710101 MSHR_MERGE:       5466
cpu0->cpu0_L1D PREFETCH REQUESTED:   22754739 ISSUED:   21135589 USEFUL:     657769 USELESS:    1279877
cpu0->cpu0_L1D AVERAGE MISS LATENCY: 104.5 cycles
cpu0->cpu0_ITLB TOTAL        ACCESS:   10803685 HIT:   10545889 MISS:     257796 MSHR_MERGE:     127671
cpu0->cpu0_ITLB LOAD         ACCESS:   10803685 HIT:   10545889 MISS:     257796 MSHR_MERGE:     127671
cpu0->cpu0_ITLB RFO          ACCESS:          0 HIT:          0 MISS:          0 MSHR_MERGE:          0
cpu0->cpu0_ITLB PREFETCH     ACCESS:          0 HIT:          0 MISS:          0 MSHR_MERGE:          0
cpu0->cpu0_ITLB WRITE        ACCESS:          0 HIT:          0 MISS:          0 MSHR_MERGE:          0
cpu0->cpu0_ITLB TRANSLATION  ACCESS:          0 HIT:          0 MISS:          0 MSHR_MERGE:          0
cpu0->cpu0_ITLB PREFETCH REQUESTED:          0 ISSUED:          0 USEFUL:          0 USELESS:          0
cpu0->cpu0_ITLB AVERAGE MISS LATENCY: 49.15 cycles
cpu0->cpu0_DTLB TOTAL        ACCESS:   72275168 HIT:   69255609 MISS:    3019559 MSHR_MERGE:    1161286
cpu0->cpu0_DTLB LOAD         ACCESS:   72275168 HIT:   69255609 MISS:    3019559 MSHR_MERGE:    1161286
cpu0->cpu0_DTLB RFO          ACCESS:          0 HIT:          0 MISS:          0 MSHR_MERGE:          0
cpu0->cpu0_DTLB PREFETCH     ACCESS:          0 HIT:          0 MISS:          0 MSHR_MERGE:          0
cpu0->cpu0_DTLB WRITE        ACCESS:          0 HIT:          0 MISS:          0 MSHR_MERGE:          0
cpu0->cpu0_DTLB TRANSLATION  ACCESS:          0 HIT:          0 MISS:          0 MSHR_MERGE:          0
cpu0->cpu0_DTLB PREFETCH REQUESTED:          0 ISSUED:          0 USEFUL:          0 USELESS:          0
cpu0->cpu0_DTLB AVERAGE MISS LATENCY: 64.33 cycles
cpu0->LLC TOTAL        ACCESS:    8697364 HIT:    2156482 MISS:    6540882 MSHR_MERGE:     367096
cpu0->LLC LOAD         ACCESS:     967911 HIT:     269652 MISS:     698259 MSHR_MERGE:       2257
cpu0->LLC RFO          ACCESS:     478823 HIT:      24430 MISS:     454393 MSHR_MERGE:        712
cpu0->LLC PREFETCH     ACCESS:    6035486 HIT:    1661950 MISS:    4373536 MSHR_MERGE:     364127
cpu0->LLC WRITE        ACCESS:     885480 HIT:     180444 MISS:     705036 MSHR_MERGE:          0
cpu0->LLC TRANSLATION  ACCESS:     329664 HIT:      20006 MISS:     309658 MSHR_MERGE:          0
cpu0->LLC PREFETCH REQUESTED:    2203063 ISSUED:    2160749 USEFUL:     208065 USELESS:    1047329
cpu0->LLC AVERAGE MISS LATENCY: 165.2 cycles

DRAM Statistics

Channel 0 RQ ROW_BUFFER_HIT:     151362
  ROW_BUFFER_MISS:    5317221
  AVG DBUS CONGESTED CYCLE: 16.27
Channel 0 WQ ROW_BUFFER_HIT:     207036
  ROW_BUFFER_MISS:     609001
  FULL:          0
Channel 0 REFRESHES ISSUED:      28875
