[VMEM] WARNING: physical memory size is smaller than virtual memory size.

*** ChampSim Multicore Out-of-Order Simulator ***
Warmup Instructions: 50000000
Simulation Instructions: 200000000
Number of CPUs: 1
Page size: 4096
Core 0: /local-ssd/ben/dpc4-traces/ai-ml/llama2.c-stories42M.1.champsimtrace.gz
CMC Prefetcher Initialized
Off-chip DRAM Size: 64 GiB Channels: 1 Width: 64-bit Data Rate: 4807 MT/s
Heartbeat CPU 0 instructions: 500003 cycles: 127604 heartbeat IPC: 3.918 cumulative IPC: 3.918 (Simulation time: 00 hr 00 min 02 sec)
Heartbeat CPU 0 instructions: 1000009 cycles: 253186 heartbeat IPC: 3.982 cumulative IPC: 3.95 (Simulation time: 00 hr 00 min 04 sec)
Heartbeat CPU 0 instructions: 1500013 cycles: 378970 heartbeat IPC: 3.975 cumulative IPC: 3.958 (Simulation time: 00 hr 00 min 06 sec)
Heartbeat CPU 0 instructions: 2000013 cycles: 504552 heartbeat IPC: 3.981 cumulative IPC: 3.964 (Simulation time: 00 hr 00 min 07 sec)
Heartbeat CPU 0 instructions: 2500017 cycles: 630332 heartbeat IPC: 3.975 cumulative IPC: 3.966 (Simulation time: 00 hr 00 min 09 sec)
Heartbeat CPU 0 instructions: 3000017 cycles: 756126 heartbeat IPC: 3.975 cumulative IPC: 3.968 (Simulation time: 00 hr 00 min 11 sec)
Heartbeat CPU 0 instructions: 3500017 cycles: 881920 heartbeat IPC: 3.975 cumulative IPC: 3.969 (Simulation time: 00 hr 00 min 13 sec)
Heartbeat CPU 0 instructions: 4000017 cycles: 1007700 heartbeat IPC: 3.975 cumulative IPC: 3.969 (Simulation time: 00 hr 00 min 15 sec)
Heartbeat CPU 0 instructions: 4500017 cycles: 1133280 heartbeat IPC: 3.982 cumulative IPC: 3.971 (Simulation time: 00 hr 00 min 17 sec)
Heartbeat CPU 0 instructions: 5000017 cycles: 1259058 heartbeat IPC: 3.975 cumulative IPC: 3.971 (Simulation time: 00 hr 00 min 19 sec)
Heartbeat CPU 0 instructions: 5500017 cycles: 1384638 heartbeat IPC: 3.982 cumulative IPC: 3.972 (Simulation time: 00 hr 00 min 21 sec)
Heartbeat CPU 0 instructions: 6000017 cycles: 1510418 heartbeat IPC: 3.975 cumulative IPC: 3.972 (Simulation time: 00 hr 00 min 23 sec)
Heartbeat CPU 0 instructions: 6500017 cycles: 1635998 heartbeat IPC: 3.982 cumulative IPC: 3.973 (Simulation time: 00 hr 00 min 25 sec)
Heartbeat CPU 0 instructions: 7000017 cycles: 1761776 heartbeat IPC: 3.975 cumulative IPC: 3.973 (Simulation time: 00 hr 00 min 26 sec)
Heartbeat CPU 0 instructions: 7500017 cycles: 1887356 heartbeat IPC: 3.982 cumulative IPC: 3.974 (Simulation time: 00 hr 00 min 28 sec)
Heartbeat CPU 0 instructions: 8000017 cycles: 2013142 heartbeat IPC: 3.975 cumulative IPC: 3.974 (Simulation time: 00 hr 00 min 30 sec)
Heartbeat CPU 0 instructions: 8500017 cycles: 2138719 heartbeat IPC: 3.982 cumulative IPC: 3.974 (Simulation time: 00 hr 00 min 32 sec)
Heartbeat CPU 0 instructions: 9000017 cycles: 2264504 heartbeat IPC: 3.975 cumulative IPC: 3.974 (Simulation time: 00 hr 00 min 34 sec)
Heartbeat CPU 0 instructions: 9500017 cycles: 2390084 heartbeat IPC: 3.982 cumulative IPC: 3.975 (Simulation time: 00 hr 00 min 36 sec)
Heartbeat CPU 0 instructions: 10000017 cycles: 2515864 heartbeat IPC: 3.975 cumulative IPC: 3.975 (Simulation time: 00 hr 00 min 38 sec)
Heartbeat CPU 0 instructions: 10500017 cycles: 2641644 heartbeat IPC: 3.975 cumulative IPC: 3.975 (Simulation time: 00 hr 00 min 40 sec)
Heartbeat CPU 0 instructions: 11000017 cycles: 2767224 heartbeat IPC: 3.982 cumulative IPC: 3.975 (Simulation time: 00 hr 00 min 42 sec)
Heartbeat CPU 0 instructions: 11500017 cycles: 2893008 heartbeat IPC: 3.975 cumulative IPC: 3.975 (Simulation time: 00 hr 00 min 44 sec)
Heartbeat CPU 0 instructions: 12000017 cycles: 3018584 heartbeat IPC: 3.982 cumulative IPC: 3.975 (Simulation time: 00 hr 00 min 46 sec)
Heartbeat CPU 0 instructions: 12500017 cycles: 3144370 heartbeat IPC: 3.975 cumulative IPC: 3.975 (Simulation time: 00 hr 00 min 48 sec)
Heartbeat CPU 0 instructions: 13000017 cycles: 3269948 heartbeat IPC: 3.982 cumulative IPC: 3.976 (Simulation time: 00 hr 00 min 50 sec)
Heartbeat CPU 0 instructions: 13500017 cycles: 3395730 heartbeat IPC: 3.975 cumulative IPC: 3.976 (Simulation time: 00 hr 00 min 51 sec)
Heartbeat CPU 0 instructions: 14000017 cycles: 3521310 heartbeat IPC: 3.982 cumulative IPC: 3.976 (Simulation time: 00 hr 00 min 53 sec)
Heartbeat CPU 0 instructions: 14500017 cycles: 3647090 heartbeat IPC: 3.975 cumulative IPC: 3.976 (Simulation time: 00 hr 00 min 55 sec)
Heartbeat CPU 0 instructions: 15000017 cycles: 3772670 heartbeat IPC: 3.982 cumulative IPC: 3.976 (Simulation time: 00 hr 00 min 57 sec)
Heartbeat CPU 0 instructions: 15500019 cycles: 3898454 heartbeat IPC: 3.975 cumulative IPC: 3.976 (Simulation time: 00 hr 00 min 59 sec)
Heartbeat CPU 0 instructions: 16000023 cycles: 4024040 heartbeat IPC: 3.981 cumulative IPC: 3.976 (Simulation time: 00 hr 01 min 01 sec)
Heartbeat CPU 0 instructions: 16500023 cycles: 4149823 heartbeat IPC: 3.975 cumulative IPC: 3.976 (Simulation time: 00 hr 01 min 03 sec)
Heartbeat CPU 0 instructions: 17000023 cycles: 4275407 heartbeat IPC: 3.981 cumulative IPC: 3.976 (Simulation time: 00 hr 01 min 05 sec)
Heartbeat CPU 0 instructions: 17500027 cycles: 4401192 heartbeat IPC: 3.975 cumulative IPC: 3.976 (Simulation time: 00 hr 01 min 07 sec)
Heartbeat CPU 0 instructions: 18000031 cycles: 4527182 heartbeat IPC: 3.969 cumulative IPC: 3.976 (Simulation time: 00 hr 01 min 09 sec)
Heartbeat CPU 0 instructions: 18500031 cycles: 4652761 heartbeat IPC: 3.982 cumulative IPC: 3.976 (Simulation time: 00 hr 01 min 11 sec)
Heartbeat CPU 0 instructions: 19000031 cycles: 4778547 heartbeat IPC: 3.975 cumulative IPC: 3.976 (Simulation time: 00 hr 01 min 13 sec)
Heartbeat CPU 0 instructions: 19500031 cycles: 4904125 heartbeat IPC: 3.982 cumulative IPC: 3.976 (Simulation time: 00 hr 01 min 15 sec)
Heartbeat CPU 0 instructions: 20000031 cycles: 5029907 heartbeat IPC: 3.975 cumulative IPC: 3.976 (Simulation time: 00 hr 01 min 17 sec)
Heartbeat CPU 0 instructions: 20500031 cycles: 5155487 heartbeat IPC: 3.982 cumulative IPC: 3.976 (Simulation time: 00 hr 01 min 18 sec)
Heartbeat CPU 0 instructions: 21000031 cycles: 5281267 heartbeat IPC: 3.975 cumulative IPC: 3.976 (Simulation time: 00 hr 01 min 20 sec)
Heartbeat CPU 0 instructions: 21500031 cycles: 5406847 heartbeat IPC: 3.982 cumulative IPC: 3.976 (Simulation time: 00 hr 01 min 22 sec)
Heartbeat CPU 0 instructions: 22000031 cycles: 5532627 heartbeat IPC: 3.975 cumulative IPC: 3.976 (Simulation time: 00 hr 01 min 24 sec)
Heartbeat CPU 0 instructions: 22500031 cycles: 5658207 heartbeat IPC: 3.982 cumulative IPC: 3.977 (Simulation time: 00 hr 01 min 26 sec)
Heartbeat CPU 0 instructions: 23000031 cycles: 5783985 heartbeat IPC: 3.975 cumulative IPC: 3.977 (Simulation time: 00 hr 01 min 28 sec)
Heartbeat CPU 0 instructions: 23500031 cycles: 5909565 heartbeat IPC: 3.982 cumulative IPC: 3.977 (Simulation time: 00 hr 01 min 30 sec)
Heartbeat CPU 0 instructions: 24000031 cycles: 6035353 heartbeat IPC: 3.975 cumulative IPC: 3.977 (Simulation time: 00 hr 01 min 32 sec)
Heartbeat CPU 0 instructions: 24500036 cycles: 6164510 heartbeat IPC: 3.871 cumulative IPC: 3.974 (Simulation time: 00 hr 01 min 34 sec)
Heartbeat CPU 0 instructions: 25000039 cycles: 6291039 heartbeat IPC: 3.952 cumulative IPC: 3.974 (Simulation time: 00 hr 01 min 36 sec)
Heartbeat CPU 0 instructions: 25500039 cycles: 6417027 heartbeat IPC: 3.969 cumulative IPC: 3.974 (Simulation time: 00 hr 01 min 38 sec)
Heartbeat CPU 0 instructions: 26000040 cycles: 6542880 heartbeat IPC: 3.973 cumulative IPC: 3.974 (Simulation time: 00 hr 01 min 40 sec)
Heartbeat CPU 0 instructions: 26500040 cycles: 6669481 heartbeat IPC: 3.949 cumulative IPC: 3.973 (Simulation time: 00 hr 01 min 42 sec)
Heartbeat CPU 0 instructions: 27000046 cycles: 6795573 heartbeat IPC: 3.965 cumulative IPC: 3.973 (Simulation time: 00 hr 01 min 44 sec)
Heartbeat CPU 0 instructions: 27500052 cycles: 6921652 heartbeat IPC: 3.966 cumulative IPC: 3.973 (Simulation time: 00 hr 01 min 46 sec)
Heartbeat CPU 0 instructions: 28000059 cycles: 7047966 heartbeat IPC: 3.958 cumulative IPC: 3.973 (Simulation time: 00 hr 01 min 48 sec)
Heartbeat CPU 0 instructions: 28500065 cycles: 7174039 heartbeat IPC: 3.966 cumulative IPC: 3.973 (Simulation time: 00 hr 01 min 50 sec)
Heartbeat CPU 0 instructions: 29000068 cycles: 7299259 heartbeat IPC: 3.993 cumulative IPC: 3.973 (Simulation time: 00 hr 01 min 52 sec)
Heartbeat CPU 0 instructions: 29500073 cycles: 7425780 heartbeat IPC: 3.952 cumulative IPC: 3.973 (Simulation time: 00 hr 01 min 54 sec)
Heartbeat CPU 0 instructions: 30000075 cycles: 7552080 heartbeat IPC: 3.959 cumulative IPC: 3.972 (Simulation time: 00 hr 01 min 56 sec)
Heartbeat CPU 0 instructions: 30500075 cycles: 7678222 heartbeat IPC: 3.964 cumulative IPC: 3.972 (Simulation time: 00 hr 01 min 58 sec)
Heartbeat CPU 0 instructions: 31000077 cycles: 7803857 heartbeat IPC: 3.98 cumulative IPC: 3.972 (Simulation time: 00 hr 02 min 00 sec)
Heartbeat CPU 0 instructions: 31500084 cycles: 7929720 heartbeat IPC: 3.973 cumulative IPC: 3.972 (Simulation time: 00 hr 02 min 02 sec)
Heartbeat CPU 0 instructions: 32000087 cycles: 8053724 heartbeat IPC: 4.032 cumulative IPC: 3.973 (Simulation time: 00 hr 02 min 04 sec)
Heartbeat CPU 0 instructions: 32500091 cycles: 8179618 heartbeat IPC: 3.972 cumulative IPC: 3.973 (Simulation time: 00 hr 02 min 05 sec)
Heartbeat CPU 0 instructions: 33000091 cycles: 8305724 heartbeat IPC: 3.965 cumulative IPC: 3.973 (Simulation time: 00 hr 02 min 07 sec)
Heartbeat CPU 0 instructions: 33500096 cycles: 8431807 heartbeat IPC: 3.966 cumulative IPC: 3.973 (Simulation time: 00 hr 02 min 09 sec)
Heartbeat CPU 0 instructions: 34000096 cycles: 8557895 heartbeat IPC: 3.965 cumulative IPC: 3.973 (Simulation time: 00 hr 02 min 11 sec)
Heartbeat CPU 0 instructions: 34500102 cycles: 8683998 heartbeat IPC: 3.965 cumulative IPC: 3.973 (Simulation time: 00 hr 02 min 13 sec)
Heartbeat CPU 0 instructions: 35000106 cycles: 8809362 heartbeat IPC: 3.988 cumulative IPC: 3.973 (Simulation time: 00 hr 02 min 15 sec)
Heartbeat CPU 0 instructions: 35500108 cycles: 8935656 heartbeat IPC: 3.959 cumulative IPC: 3.973 (Simulation time: 00 hr 02 min 17 sec)
Heartbeat CPU 0 instructions: 36000114 cycles: 9061991 heartbeat IPC: 3.958 cumulative IPC: 3.973 (Simulation time: 00 hr 02 min 19 sec)
Heartbeat CPU 0 instructions: 36500121 cycles: 9188200 heartbeat IPC: 3.962 cumulative IPC: 3.972 (Simulation time: 00 hr 02 min 21 sec)
Heartbeat CPU 0 instructions: 37000121 cycles: 9314255 heartbeat IPC: 3.967 cumulative IPC: 3.972 (Simulation time: 00 hr 02 min 23 sec)
Heartbeat CPU 0 instructions: 37500122 cycles: 9438313 heartbeat IPC: 4.03 cumulative IPC: 3.973 (Simulation time: 00 hr 02 min 25 sec)
Heartbeat CPU 0 instructions: 38000128 cycles: 9564113 heartbeat IPC: 3.975 cumulative IPC: 3.973 (Simulation time: 00 hr 02 min 27 sec)
Heartbeat CPU 0 instructions: 38500128 cycles: 9690417 heartbeat IPC: 3.959 cumulative IPC: 3.973 (Simulation time: 00 hr 02 min 29 sec)
Heartbeat CPU 0 instructions: 39000134 cycles: 9816290 heartbeat IPC: 3.972 cumulative IPC: 3.973 (Simulation time: 00 hr 02 min 31 sec)
Heartbeat CPU 0 instructions: 39500141 cycles: 9942395 heartbeat IPC: 3.965 cumulative IPC: 3.973 (Simulation time: 00 hr 02 min 33 sec)
Heartbeat CPU 0 instructions: 40000147 cycles: 10068474 heartbeat IPC: 3.966 cumulative IPC: 3.973 (Simulation time: 00 hr 02 min 35 sec)
Heartbeat CPU 0 instructions: 40500154 cycles: 10193301 heartbeat IPC: 4.006 cumulative IPC: 3.973 (Simulation time: 00 hr 02 min 37 sec)
Heartbeat CPU 0 instructions: 41000156 cycles: 10319602 heartbeat IPC: 3.959 cumulative IPC: 3.973 (Simulation time: 00 hr 02 min 39 sec)
Heartbeat CPU 0 instructions: 41500158 cycles: 10446123 heartbeat IPC: 3.952 cumulative IPC: 3.973 (Simulation time: 00 hr 02 min 41 sec)
Heartbeat CPU 0 instructions: 42000161 cycles: 10572265 heartbeat IPC: 3.964 cumulative IPC: 3.973 (Simulation time: 00 hr 02 min 43 sec)
Heartbeat CPU 0 instructions: 42500164 cycles: 10697892 heartbeat IPC: 3.98 cumulative IPC: 3.973 (Simulation time: 00 hr 02 min 45 sec)
Heartbeat CPU 0 instructions: 43000166 cycles: 10823777 heartbeat IPC: 3.972 cumulative IPC: 3.973 (Simulation time: 00 hr 02 min 47 sec)
Heartbeat CPU 0 instructions: 43500173 cycles: 10947781 heartbeat IPC: 4.032 cumulative IPC: 3.973 (Simulation time: 00 hr 02 min 49 sec)
Heartbeat CPU 0 instructions: 44000173 cycles: 11073908 heartbeat IPC: 3.964 cumulative IPC: 3.973 (Simulation time: 00 hr 02 min 51 sec)
Heartbeat CPU 0 instructions: 44500179 cycles: 11199781 heartbeat IPC: 3.972 cumulative IPC: 3.973 (Simulation time: 00 hr 02 min 53 sec)
Heartbeat CPU 0 instructions: 45000186 cycles: 11326095 heartbeat IPC: 3.958 cumulative IPC: 3.973 (Simulation time: 00 hr 02 min 55 sec)
Heartbeat CPU 0 instructions: 45500192 cycles: 11452173 heartbeat IPC: 3.966 cumulative IPC: 3.973 (Simulation time: 00 hr 02 min 57 sec)
Heartbeat CPU 0 instructions: 46000192 cycles: 11578278 heartbeat IPC: 3.965 cumulative IPC: 3.973 (Simulation time: 00 hr 02 min 59 sec)
Heartbeat CPU 0 instructions: 46500192 cycles: 11703386 heartbeat IPC: 3.997 cumulative IPC: 3.973 (Simulation time: 00 hr 03 min 01 sec)
Heartbeat CPU 0 instructions: 47000194 cycles: 11829699 heartbeat IPC: 3.958 cumulative IPC: 3.973 (Simulation time: 00 hr 03 min 03 sec)
Heartbeat CPU 0 instructions: 47500200 cycles: 11955837 heartbeat IPC: 3.964 cumulative IPC: 3.973 (Simulation time: 00 hr 03 min 05 sec)
Heartbeat CPU 0 instructions: 48000207 cycles: 12082045 heartbeat IPC: 3.962 cumulative IPC: 3.973 (Simulation time: 00 hr 03 min 07 sec)
Heartbeat CPU 0 instructions: 48500211 cycles: 12208118 heartbeat IPC: 3.966 cumulative IPC: 3.973 (Simulation time: 00 hr 03 min 09 sec)
Heartbeat CPU 0 instructions: 49000212 cycles: 12332166 heartbeat IPC: 4.031 cumulative IPC: 3.973 (Simulation time: 00 hr 03 min 10 sec)
Heartbeat CPU 0 instructions: 49500218 cycles: 12458003 heartbeat IPC: 3.973 cumulative IPC: 3.973 (Simulation time: 00 hr 03 min 12 sec)
Warmup halting CPU 0 at instruction 50000000 cycle 12583850 for remainder of phase
Warmup finished CPU 0 instructions: 50000000 cycles: 12583850 cumulative IPC: 3.973 (Simulation time: 00 hr 03 min 14 sec)
Warmup complete CPU 0 instructions: 50000000 cycles: 12583850 cumulative IPC: 3.973 (Simulation time: 00 hr 03 min 14 sec)
Heartbeat CPU 0 instructions: 50000220 cycles: 12583921 heartbeat IPC: 3.971 cumulative IPC: 3.099 (Simulation time: 00 hr 03 min 14 sec)
Heartbeat CPU 0 instructions: 50500225 cycles: 12970523 heartbeat IPC: 1.293 cumulative IPC: 1.294 (Simulation time: 00 hr 03 min 19 sec)
Heartbeat CPU 0 instructions: 51000225 cycles: 13356888 heartbeat IPC: 1.294 cumulative IPC: 1.294 (Simulation time: 00 hr 03 min 23 sec)
Heartbeat CPU 0 instructions: 51500230 cycles: 13755041 heartbeat IPC: 1.256 cumulative IPC: 1.281 (Simulation time: 00 hr 03 min 28 sec)
Heartbeat CPU 0 instructions: 52000231 cycles: 14129646 heartbeat IPC: 1.335 cumulative IPC: 1.294 (Simulation time: 00 hr 03 min 32 sec)
Heartbeat CPU 0 instructions: 52500237 cycles: 14447978 heartbeat IPC: 1.571 cumulative IPC: 1.341 (Simulation time: 00 hr 03 min 36 sec)
Heartbeat CPU 0 instructions: 53000237 cycles: 14768257 heartbeat IPC: 1.561 cumulative IPC: 1.373 (Simulation time: 00 hr 03 min 40 sec)
Heartbeat CPU 0 instructions: 53500238 cycles: 15148005 heartbeat IPC: 1.317 cumulative IPC: 1.365 (Simulation time: 00 hr 03 min 44 sec)
Heartbeat CPU 0 instructions: 54000238 cycles: 15538786 heartbeat IPC: 1.279 cumulative IPC: 1.354 (Simulation time: 00 hr 03 min 48 sec)
Heartbeat CPU 0 instructions: 54500241 cycles: 15855724 heartbeat IPC: 1.578 cumulative IPC: 1.375 (Simulation time: 00 hr 03 min 52 sec)
Heartbeat CPU 0 instructions: 55000247 cycles: 16246626 heartbeat IPC: 1.279 cumulative IPC: 1.365 (Simulation time: 00 hr 03 min 56 sec)
Heartbeat CPU 0 instructions: 55500254 cycles: 16655422 heartbeat IPC: 1.223 cumulative IPC: 1.351 (Simulation time: 00 hr 04 min 01 sec)
Heartbeat CPU 0 instructions: 56000261 cycles: 17062506 heartbeat IPC: 1.228 cumulative IPC: 1.34 (Simulation time: 00 hr 04 min 05 sec)
Heartbeat CPU 0 instructions: 56500264 cycles: 17469542 heartbeat IPC: 1.228 cumulative IPC: 1.33 (Simulation time: 00 hr 04 min 09 sec)
Heartbeat CPU 0 instructions: 57000265 cycles: 17877349 heartbeat IPC: 1.226 cumulative IPC: 1.322 (Simulation time: 00 hr 04 min 14 sec)
Heartbeat CPU 0 instructions: 57500270 cycles: 18284377 heartbeat IPC: 1.228 cumulative IPC: 1.316 (Simulation time: 00 hr 04 min 18 sec)
Heartbeat CPU 0 instructions: 58000272 cycles: 18624443 heartbeat IPC: 1.47 cumulative IPC: 1.324 (Simulation time: 00 hr 04 min 22 sec)
Heartbeat CPU 0 instructions: 58500275 cycles: 18952291 heartbeat IPC: 1.525 cumulative IPC: 1.335 (Simulation time: 00 hr 04 min 26 sec)
Heartbeat CPU 0 instructions: 59000277 cycles: 19309161 heartbeat IPC: 1.401 cumulative IPC: 1.338 (Simulation time: 00 hr 04 min 30 sec)
Heartbeat CPU 0 instructions: 59500277 cycles: 19714955 heartbeat IPC: 1.232 cumulative IPC: 1.332 (Simulation time: 00 hr 04 min 34 sec)
Heartbeat CPU 0 instructions: 60000283 cycles: 20073781 heartbeat IPC: 1.393 cumulative IPC: 1.335 (Simulation time: 00 hr 04 min 38 sec)
Heartbeat CPU 0 instructions: 60500284 cycles: 20441607 heartbeat IPC: 1.359 cumulative IPC: 1.336 (Simulation time: 00 hr 04 min 42 sec)
Heartbeat CPU 0 instructions: 61000287 cycles: 20849100 heartbeat IPC: 1.227 cumulative IPC: 1.331 (Simulation time: 00 hr 04 min 46 sec)
Heartbeat CPU 0 instructions: 61500292 cycles: 21256214 heartbeat IPC: 1.228 cumulative IPC: 1.326 (Simulation time: 00 hr 04 min 51 sec)
Heartbeat CPU 0 instructions: 62000292 cycles: 21663714 heartbeat IPC: 1.227 cumulative IPC: 1.322 (Simulation time: 00 hr 04 min 55 sec)
Heartbeat CPU 0 instructions: 62500295 cycles: 22070686 heartbeat IPC: 1.229 cumulative IPC: 1.318 (Simulation time: 00 hr 05 min 00 sec)
Heartbeat CPU 0 instructions: 63000295 cycles: 22476853 heartbeat IPC: 1.231 cumulative IPC: 1.314 (Simulation time: 00 hr 05 min 04 sec)
Heartbeat CPU 0 instructions: 63500302 cycles: 22852819 heartbeat IPC: 1.33 cumulative IPC: 1.315 (Simulation time: 00 hr 05 min 08 sec)
Heartbeat CPU 0 instructions: 64000305 cycles: 23178085 heartbeat IPC: 1.537 cumulative IPC: 1.322 (Simulation time: 00 hr 05 min 12 sec)
Heartbeat CPU 0 instructions: 64500305 cycles: 23503814 heartbeat IPC: 1.535 cumulative IPC: 1.328 (Simulation time: 00 hr 05 min 16 sec)
Heartbeat CPU 0 instructions: 65000309 cycles: 23902815 heartbeat IPC: 1.253 cumulative IPC: 1.325 (Simulation time: 00 hr 05 min 20 sec)
Heartbeat CPU 0 instructions: 65500311 cycles: 24304788 heartbeat IPC: 1.244 cumulative IPC: 1.322 (Simulation time: 00 hr 05 min 24 sec)
Heartbeat CPU 0 instructions: 66000313 cycles: 24627762 heartbeat IPC: 1.548 cumulative IPC: 1.328 (Simulation time: 00 hr 05 min 28 sec)
Heartbeat CPU 0 instructions: 66500315 cycles: 25032941 heartbeat IPC: 1.234 cumulative IPC: 1.325 (Simulation time: 00 hr 05 min 32 sec)
Heartbeat CPU 0 instructions: 67000317 cycles: 25439337 heartbeat IPC: 1.23 cumulative IPC: 1.322 (Simulation time: 00 hr 05 min 37 sec)
Heartbeat CPU 0 instructions: 67500318 cycles: 25846777 heartbeat IPC: 1.227 cumulative IPC: 1.319 (Simulation time: 00 hr 05 min 41 sec)
Heartbeat CPU 0 instructions: 68000318 cycles: 26254261 heartbeat IPC: 1.227 cumulative IPC: 1.317 (Simulation time: 00 hr 05 min 45 sec)
Heartbeat CPU 0 instructions: 68500323 cycles: 26661458 heartbeat IPC: 1.228 cumulative IPC: 1.314 (Simulation time: 00 hr 05 min 50 sec)
Heartbeat CPU 0 instructions: 69000323 cycles: 27070886 heartbeat IPC: 1.221 cumulative IPC: 1.312 (Simulation time: 00 hr 05 min 54 sec)
Heartbeat CPU 0 instructions: 69500324 cycles: 27399976 heartbeat IPC: 1.519 cumulative IPC: 1.316 (Simulation time: 00 hr 05 min 58 sec)
Heartbeat CPU 0 instructions: 70000324 cycles: 27726757 heartbeat IPC: 1.53 cumulative IPC: 1.321 (Simulation time: 00 hr 06 min 02 sec)
Heartbeat CPU 0 instructions: 70500326 cycles: 28093000 heartbeat IPC: 1.365 cumulative IPC: 1.322 (Simulation time: 00 hr 06 min 06 sec)
Heartbeat CPU 0 instructions: 71000332 cycles: 28501075 heartbeat IPC: 1.225 cumulative IPC: 1.319 (Simulation time: 00 hr 06 min 10 sec)
Heartbeat CPU 0 instructions: 71500338 cycles: 28908972 heartbeat IPC: 1.226 cumulative IPC: 1.317 (Simulation time: 00 hr 06 min 15 sec)
Heartbeat CPU 0 instructions: 72000340 cycles: 29317723 heartbeat IPC: 1.223 cumulative IPC: 1.315 (Simulation time: 00 hr 06 min 19 sec)
Heartbeat CPU 0 instructions: 72500341 cycles: 29725761 heartbeat IPC: 1.225 cumulative IPC: 1.313 (Simulation time: 00 hr 06 min 23 sec)
Heartbeat CPU 0 instructions: 73000341 cycles: 30133639 heartbeat IPC: 1.226 cumulative IPC: 1.311 (Simulation time: 00 hr 06 min 28 sec)
Heartbeat CPU 0 instructions: 73500343 cycles: 30542023 heartbeat IPC: 1.224 cumulative IPC: 1.309 (Simulation time: 00 hr 06 min 32 sec)
Heartbeat CPU 0 instructions: 74000349 cycles: 30949860 heartbeat IPC: 1.226 cumulative IPC: 1.307 (Simulation time: 00 hr 06 min 36 sec)
Heartbeat CPU 0 instructions: 74500355 cycles: 31357957 heartbeat IPC: 1.225 cumulative IPC: 1.305 (Simulation time: 00 hr 06 min 41 sec)
Heartbeat CPU 0 instructions: 75000361 cycles: 31766160 heartbeat IPC: 1.225 cumulative IPC: 1.303 (Simulation time: 00 hr 06 min 45 sec)
Heartbeat CPU 0 instructions: 75500367 cycles: 32150226 heartbeat IPC: 1.302 cumulative IPC: 1.303 (Simulation time: 00 hr 06 min 49 sec)
Heartbeat CPU 0 instructions: 76000373 cycles: 32531472 heartbeat IPC: 1.312 cumulative IPC: 1.303 (Simulation time: 00 hr 06 min 53 sec)
Heartbeat CPU 0 instructions: 76500379 cycles: 32916276 heartbeat IPC: 1.299 cumulative IPC: 1.303 (Simulation time: 00 hr 06 min 57 sec)
Heartbeat CPU 0 instructions: 77000385 cycles: 33306180 heartbeat IPC: 1.282 cumulative IPC: 1.303 (Simulation time: 00 hr 07 min 02 sec)
Heartbeat CPU 0 instructions: 77500391 cycles: 33697338 heartbeat IPC: 1.278 cumulative IPC: 1.303 (Simulation time: 00 hr 07 min 06 sec)
Heartbeat CPU 0 instructions: 78000397 cycles: 34086040 heartbeat IPC: 1.286 cumulative IPC: 1.302 (Simulation time: 00 hr 07 min 10 sec)
Heartbeat CPU 0 instructions: 78500403 cycles: 34474692 heartbeat IPC: 1.287 cumulative IPC: 1.302 (Simulation time: 00 hr 07 min 14 sec)
Heartbeat CPU 0 instructions: 79000404 cycles: 34864298 heartbeat IPC: 1.283 cumulative IPC: 1.302 (Simulation time: 00 hr 07 min 18 sec)
Heartbeat CPU 0 instructions: 79500404 cycles: 35251513 heartbeat IPC: 1.291 cumulative IPC: 1.301 (Simulation time: 00 hr 07 min 22 sec)
Heartbeat CPU 0 instructions: 80000409 cycles: 35640877 heartbeat IPC: 1.284 cumulative IPC: 1.301 (Simulation time: 00 hr 07 min 27 sec)
Heartbeat CPU 0 instructions: 80500412 cycles: 36030325 heartbeat IPC: 1.284 cumulative IPC: 1.301 (Simulation time: 00 hr 07 min 31 sec)
Heartbeat CPU 0 instructions: 81000414 cycles: 36423547 heartbeat IPC: 1.272 cumulative IPC: 1.3 (Simulation time: 00 hr 07 min 35 sec)
Heartbeat CPU 0 instructions: 81500420 cycles: 36813010 heartbeat IPC: 1.284 cumulative IPC: 1.3 (Simulation time: 00 hr 07 min 39 sec)
Heartbeat CPU 0 instructions: 82000426 cycles: 37204052 heartbeat IPC: 1.279 cumulative IPC: 1.3 (Simulation time: 00 hr 07 min 44 sec)
Heartbeat CPU 0 instructions: 82500432 cycles: 37593185 heartbeat IPC: 1.285 cumulative IPC: 1.3 (Simulation time: 00 hr 07 min 48 sec)
Heartbeat CPU 0 instructions: 83000438 cycles: 37986073 heartbeat IPC: 1.273 cumulative IPC: 1.299 (Simulation time: 00 hr 07 min 52 sec)
Heartbeat CPU 0 instructions: 83500444 cycles: 38373571 heartbeat IPC: 1.29 cumulative IPC: 1.299 (Simulation time: 00 hr 07 min 56 sec)
Heartbeat CPU 0 instructions: 84000450 cycles: 38760829 heartbeat IPC: 1.291 cumulative IPC: 1.299 (Simulation time: 00 hr 08 min 01 sec)
Heartbeat CPU 0 instructions: 84500456 cycles: 39152034 heartbeat IPC: 1.278 cumulative IPC: 1.299 (Simulation time: 00 hr 08 min 05 sec)
Heartbeat CPU 0 instructions: 85000462 cycles: 39541438 heartbeat IPC: 1.284 cumulative IPC: 1.298 (Simulation time: 00 hr 08 min 09 sec)
Heartbeat CPU 0 instructions: 85500467 cycles: 39933598 heartbeat IPC: 1.275 cumulative IPC: 1.298 (Simulation time: 00 hr 08 min 13 sec)
Heartbeat CPU 0 instructions: 86000467 cycles: 40324077 heartbeat IPC: 1.28 cumulative IPC: 1.298 (Simulation time: 00 hr 08 min 18 sec)
Heartbeat CPU 0 instructions: 86500468 cycles: 40710592 heartbeat IPC: 1.294 cumulative IPC: 1.298 (Simulation time: 00 hr 08 min 22 sec)
Heartbeat CPU 0 instructions: 87000475 cycles: 41099538 heartbeat IPC: 1.286 cumulative IPC: 1.298 (Simulation time: 00 hr 08 min 26 sec)
Heartbeat CPU 0 instructions: 87500480 cycles: 41489645 heartbeat IPC: 1.282 cumulative IPC: 1.297 (Simulation time: 00 hr 08 min 30 sec)
Heartbeat CPU 0 instructions: 88000483 cycles: 41880565 heartbeat IPC: 1.279 cumulative IPC: 1.297 (Simulation time: 00 hr 08 min 34 sec)
Heartbeat CPU 0 instructions: 88500485 cycles: 42270045 heartbeat IPC: 1.284 cumulative IPC: 1.297 (Simulation time: 00 hr 08 min 39 sec)
Heartbeat CPU 0 instructions: 89000491 cycles: 42658172 heartbeat IPC: 1.288 cumulative IPC: 1.297 (Simulation time: 00 hr 08 min 43 sec)
Heartbeat CPU 0 instructions: 89500497 cycles: 43048700 heartbeat IPC: 1.28 cumulative IPC: 1.297 (Simulation time: 00 hr 08 min 47 sec)
Heartbeat CPU 0 instructions: 90000503 cycles: 43438805 heartbeat IPC: 1.282 cumulative IPC: 1.296 (Simulation time: 00 hr 08 min 51 sec)
Heartbeat CPU 0 instructions: 90500509 cycles: 43825377 heartbeat IPC: 1.293 cumulative IPC: 1.296 (Simulation time: 00 hr 08 min 56 sec)
Heartbeat CPU 0 instructions: 91000515 cycles: 44214041 heartbeat IPC: 1.286 cumulative IPC: 1.296 (Simulation time: 00 hr 09 min 00 sec)
Heartbeat CPU 0 instructions: 91500521 cycles: 44606015 heartbeat IPC: 1.276 cumulative IPC: 1.296 (Simulation time: 00 hr 09 min 04 sec)
Heartbeat CPU 0 instructions: 92000527 cycles: 44996632 heartbeat IPC: 1.28 cumulative IPC: 1.296 (Simulation time: 00 hr 09 min 08 sec)
Heartbeat CPU 0 instructions: 92500530 cycles: 45386491 heartbeat IPC: 1.283 cumulative IPC: 1.296 (Simulation time: 00 hr 09 min 13 sec)
Heartbeat CPU 0 instructions: 93000534 cycles: 45778775 heartbeat IPC: 1.275 cumulative IPC: 1.295 (Simulation time: 00 hr 09 min 17 sec)
Heartbeat CPU 0 instructions: 93500540 cycles: 46169065 heartbeat IPC: 1.281 cumulative IPC: 1.295 (Simulation time: 00 hr 09 min 21 sec)
Heartbeat CPU 0 instructions: 94000546 cycles: 46561842 heartbeat IPC: 1.273 cumulative IPC: 1.295 (Simulation time: 00 hr 09 min 25 sec)
Heartbeat CPU 0 instructions: 94500552 cycles: 46951380 heartbeat IPC: 1.284 cumulative IPC: 1.295 (Simulation time: 00 hr 09 min 30 sec)
Heartbeat CPU 0 instructions: 95000558 cycles: 47341118 heartbeat IPC: 1.283 cumulative IPC: 1.295 (Simulation time: 00 hr 09 min 34 sec)
Heartbeat CPU 0 instructions: 95500564 cycles: 47733046 heartbeat IPC: 1.276 cumulative IPC: 1.294 (Simulation time: 00 hr 09 min 38 sec)
Heartbeat CPU 0 instructions: 96000570 cycles: 48121709 heartbeat IPC: 1.286 cumulative IPC: 1.294 (Simulation time: 00 hr 09 min 42 sec)
Heartbeat CPU 0 instructions: 96500576 cycles: 48510144 heartbeat IPC: 1.287 cumulative IPC: 1.294 (Simulation time: 00 hr 09 min 46 sec)
Heartbeat CPU 0 instructions: 97000582 cycles: 48896148 heartbeat IPC: 1.295 cumulative IPC: 1.294 (Simulation time: 00 hr 09 min 51 sec)
Heartbeat CPU 0 instructions: 97500588 cycles: 49287350 heartbeat IPC: 1.278 cumulative IPC: 1.294 (Simulation time: 00 hr 09 min 55 sec)
Heartbeat CPU 0 instructions: 98000594 cycles: 49677173 heartbeat IPC: 1.283 cumulative IPC: 1.294 (Simulation time: 00 hr 09 min 59 sec)
Heartbeat CPU 0 instructions: 98500600 cycles: 50066173 heartbeat IPC: 1.285 cumulative IPC: 1.294 (Simulation time: 00 hr 10 min 04 sec)
Heartbeat CPU 0 instructions: 99000601 cycles: 50457352 heartbeat IPC: 1.278 cumulative IPC: 1.294 (Simulation time: 00 hr 10 min 08 sec)
Heartbeat CPU 0 instructions: 99500607 cycles: 50849203 heartbeat IPC: 1.276 cumulative IPC: 1.294 (Simulation time: 00 hr 10 min 12 sec)
Heartbeat CPU 0 instructions: 100000607 cycles: 51249910 heartbeat IPC: 1.248 cumulative IPC: 1.293 (Simulation time: 00 hr 10 min 16 sec)
Heartbeat CPU 0 instructions: 100500608 cycles: 51646404 heartbeat IPC: 1.261 cumulative IPC: 1.293 (Simulation time: 00 hr 10 min 21 sec)
Heartbeat CPU 0 instructions: 101000610 cycles: 51938788 heartbeat IPC: 1.71 cumulative IPC: 1.296 (Simulation time: 00 hr 10 min 24 sec)
Heartbeat CPU 0 instructions: 101500613 cycles: 52301493 heartbeat IPC: 1.379 cumulative IPC: 1.297 (Simulation time: 00 hr 10 min 28 sec)
Heartbeat CPU 0 instructions: 102000615 cycles: 52695241 heartbeat IPC: 1.27 cumulative IPC: 1.296 (Simulation time: 00 hr 10 min 32 sec)
Heartbeat CPU 0 instructions: 102500616 cycles: 53089491 heartbeat IPC: 1.268 cumulative IPC: 1.296 (Simulation time: 00 hr 10 min 36 sec)
Heartbeat CPU 0 instructions: 103000616 cycles: 53486607 heartbeat IPC: 1.259 cumulative IPC: 1.296 (Simulation time: 00 hr 10 min 40 sec)
Heartbeat CPU 0 instructions: 103500621 cycles: 53881638 heartbeat IPC: 1.266 cumulative IPC: 1.295 (Simulation time: 00 hr 10 min 45 sec)
Heartbeat CPU 0 instructions: 104000626 cycles: 54276836 heartbeat IPC: 1.265 cumulative IPC: 1.295 (Simulation time: 00 hr 10 min 49 sec)
Heartbeat CPU 0 instructions: 104500628 cycles: 54591517 heartbeat IPC: 1.589 cumulative IPC: 1.297 (Simulation time: 00 hr 10 min 53 sec)
Heartbeat CPU 0 instructions: 105000628 cycles: 54863328 heartbeat IPC: 1.84 cumulative IPC: 1.301 (Simulation time: 00 hr 10 min 56 sec)
Heartbeat CPU 0 instructions: 105500632 cycles: 55155706 heartbeat IPC: 1.71 cumulative IPC: 1.304 (Simulation time: 00 hr 11 min 00 sec)
Heartbeat CPU 0 instructions: 106000637 cycles: 55543058 heartbeat IPC: 1.291 cumulative IPC: 1.304 (Simulation time: 00 hr 11 min 04 sec)
Heartbeat CPU 0 instructions: 106500639 cycles: 55893405 heartbeat IPC: 1.427 cumulative IPC: 1.305 (Simulation time: 00 hr 11 min 08 sec)
Heartbeat CPU 0 instructions: 107000641 cycles: 56194740 heartbeat IPC: 1.659 cumulative IPC: 1.307 (Simulation time: 00 hr 11 min 11 sec)
Heartbeat CPU 0 instructions: 107500641 cycles: 56574662 heartbeat IPC: 1.316 cumulative IPC: 1.307 (Simulation time: 00 hr 11 min 15 sec)
Heartbeat CPU 0 instructions: 108000642 cycles: 56967165 heartbeat IPC: 1.274 cumulative IPC: 1.307 (Simulation time: 00 hr 11 min 19 sec)
Heartbeat CPU 0 instructions: 108500649 cycles: 57358833 heartbeat IPC: 1.277 cumulative IPC: 1.307 (Simulation time: 00 hr 11 min 23 sec)
Heartbeat CPU 0 instructions: 109000650 cycles: 57747882 heartbeat IPC: 1.285 cumulative IPC: 1.306 (Simulation time: 00 hr 11 min 28 sec)
Heartbeat CPU 0 instructions: 109500655 cycles: 58138794 heartbeat IPC: 1.279 cumulative IPC: 1.306 (Simulation time: 00 hr 11 min 32 sec)
Heartbeat CPU 0 instructions: 110000662 cycles: 58508039 heartbeat IPC: 1.354 cumulative IPC: 1.307 (Simulation time: 00 hr 11 min 36 sec)
Heartbeat CPU 0 instructions: 110500663 cycles: 58778670 heartbeat IPC: 1.848 cumulative IPC: 1.31 (Simulation time: 00 hr 11 min 39 sec)
Heartbeat CPU 0 instructions: 111000664 cycles: 59050464 heartbeat IPC: 1.84 cumulative IPC: 1.313 (Simulation time: 00 hr 11 min 43 sec)
Heartbeat CPU 0 instructions: 111500664 cycles: 59378336 heartbeat IPC: 1.525 cumulative IPC: 1.314 (Simulation time: 00 hr 11 min 46 sec)
Heartbeat CPU 0 instructions: 112000664 cycles: 59745749 heartbeat IPC: 1.361 cumulative IPC: 1.315 (Simulation time: 00 hr 11 min 50 sec)
Heartbeat CPU 0 instructions: 112500665 cycles: 60031775 heartbeat IPC: 1.748 cumulative IPC: 1.317 (Simulation time: 00 hr 11 min 54 sec)
Heartbeat CPU 0 instructions: 113000666 cycles: 60391579 heartbeat IPC: 1.39 cumulative IPC: 1.318 (Simulation time: 00 hr 11 min 57 sec)
Heartbeat CPU 0 instructions: 113500671 cycles: 60780088 heartbeat IPC: 1.287 cumulative IPC: 1.318 (Simulation time: 00 hr 12 min 02 sec)
Heartbeat CPU 0 instructions: 114000675 cycles: 61176952 heartbeat IPC: 1.26 cumulative IPC: 1.317 (Simulation time: 00 hr 12 min 06 sec)
Heartbeat CPU 0 instructions: 114500679 cycles: 61570166 heartbeat IPC: 1.272 cumulative IPC: 1.317 (Simulation time: 00 hr 12 min 10 sec)
Heartbeat CPU 0 instructions: 115000681 cycles: 61963950 heartbeat IPC: 1.27 cumulative IPC: 1.316 (Simulation time: 00 hr 12 min 14 sec)
Heartbeat CPU 0 instructions: 115500682 cycles: 62358959 heartbeat IPC: 1.266 cumulative IPC: 1.316 (Simulation time: 00 hr 12 min 18 sec)
Heartbeat CPU 0 instructions: 116000683 cycles: 62664960 heartbeat IPC: 1.634 cumulative IPC: 1.318 (Simulation time: 00 hr 12 min 22 sec)
Heartbeat CPU 0 instructions: 116500684 cycles: 62936714 heartbeat IPC: 1.84 cumulative IPC: 1.321 (Simulation time: 00 hr 12 min 25 sec)
Heartbeat CPU 0 instructions: 117000685 cycles: 63240176 heartbeat IPC: 1.648 cumulative IPC: 1.323 (Simulation time: 00 hr 12 min 29 sec)
Heartbeat CPU 0 instructions: 117500686 cycles: 63633625 heartbeat IPC: 1.271 cumulative IPC: 1.322 (Simulation time: 00 hr 12 min 33 sec)
Heartbeat CPU 0 instructions: 118000687 cycles: 63975836 heartbeat IPC: 1.461 cumulative IPC: 1.323 (Simulation time: 00 hr 12 min 37 sec)
Heartbeat CPU 0 instructions: 118500687 cycles: 64284241 heartbeat IPC: 1.621 cumulative IPC: 1.325 (Simulation time: 00 hr 12 min 40 sec)
Heartbeat CPU 0 instructions: 119000693 cycles: 64673416 heartbeat IPC: 1.285 cumulative IPC: 1.325 (Simulation time: 00 hr 12 min 45 sec)
Heartbeat CPU 0 instructions: 119500693 cycles: 65066684 heartbeat IPC: 1.271 cumulative IPC: 1.324 (Simulation time: 00 hr 12 min 49 sec)
Heartbeat CPU 0 instructions: 120000699 cycles: 65457422 heartbeat IPC: 1.28 cumulative IPC: 1.324 (Simulation time: 00 hr 12 min 53 sec)
Heartbeat CPU 0 instructions: 120500699 cycles: 65851469 heartbeat IPC: 1.269 cumulative IPC: 1.324 (Simulation time: 00 hr 12 min 57 sec)
Heartbeat CPU 0 instructions: 121000704 cycles: 66243852 heartbeat IPC: 1.274 cumulative IPC: 1.323 (Simulation time: 00 hr 13 min 01 sec)
Heartbeat CPU 0 instructions: 121500706 cycles: 66608302 heartbeat IPC: 1.372 cumulative IPC: 1.323 (Simulation time: 00 hr 13 min 06 sec)
Heartbeat CPU 0 instructions: 122000711 cycles: 66878401 heartbeat IPC: 1.851 cumulative IPC: 1.326 (Simulation time: 00 hr 13 min 09 sec)
Heartbeat CPU 0 instructions: 122500717 cycles: 67148458 heartbeat IPC: 1.851 cumulative IPC: 1.329 (Simulation time: 00 hr 13 min 12 sec)
Heartbeat CPU 0 instructions: 123000717 cycles: 67518462 heartbeat IPC: 1.351 cumulative IPC: 1.329 (Simulation time: 00 hr 13 min 16 sec)
Heartbeat CPU 0 instructions: 123500720 cycles: 67917973 heartbeat IPC: 1.252 cumulative IPC: 1.328 (Simulation time: 00 hr 13 min 20 sec)
Heartbeat CPU 0 instructions: 124000722 cycles: 68196408 heartbeat IPC: 1.796 cumulative IPC: 1.331 (Simulation time: 00 hr 13 min 24 sec)
Heartbeat CPU 0 instructions: 124500727 cycles: 68581046 heartbeat IPC: 1.3 cumulative IPC: 1.33 (Simulation time: 00 hr 13 min 28 sec)
Heartbeat CPU 0 instructions: 125000727 cycles: 68977898 heartbeat IPC: 1.26 cumulative IPC: 1.33 (Simulation time: 00 hr 13 min 32 sec)
Heartbeat CPU 0 instructions: 125500734 cycles: 69378542 heartbeat IPC: 1.248 cumulative IPC: 1.329 (Simulation time: 00 hr 13 min 36 sec)
Heartbeat CPU 0 instructions: 126000735 cycles: 69772236 heartbeat IPC: 1.27 cumulative IPC: 1.329 (Simulation time: 00 hr 13 min 40 sec)
Heartbeat CPU 0 instructions: 126500740 cycles: 70166063 heartbeat IPC: 1.27 cumulative IPC: 1.329 (Simulation time: 00 hr 13 min 44 sec)
Heartbeat CPU 0 instructions: 127000745 cycles: 70563458 heartbeat IPC: 1.258 cumulative IPC: 1.328 (Simulation time: 00 hr 13 min 49 sec)
Heartbeat CPU 0 instructions: 127500745 cycles: 70861428 heartbeat IPC: 1.678 cumulative IPC: 1.33 (Simulation time: 00 hr 13 min 52 sec)
Heartbeat CPU 0 instructions: 128000746 cycles: 71136006 heartbeat IPC: 1.821 cumulative IPC: 1.332 (Simulation time: 00 hr 13 min 56 sec)
Heartbeat CPU 0 instructions: 128500752 cycles: 71441998 heartbeat IPC: 1.634 cumulative IPC: 1.334 (Simulation time: 00 hr 13 min 59 sec)
Heartbeat CPU 0 instructions: 129000756 cycles: 71823162 heartbeat IPC: 1.312 cumulative IPC: 1.334 (Simulation time: 00 hr 14 min 03 sec)
Heartbeat CPU 0 instructions: 129500758 cycles: 72155620 heartbeat IPC: 1.504 cumulative IPC: 1.335 (Simulation time: 00 hr 14 min 07 sec)
Heartbeat CPU 0 instructions: 130000761 cycles: 72480783 heartbeat IPC: 1.538 cumulative IPC: 1.336 (Simulation time: 00 hr 14 min 11 sec)
Heartbeat CPU 0 instructions: 130500763 cycles: 72873533 heartbeat IPC: 1.273 cumulative IPC: 1.335 (Simulation time: 00 hr 14 min 15 sec)
Heartbeat CPU 0 instructions: 131000768 cycles: 73268707 heartbeat IPC: 1.265 cumulative IPC: 1.335 (Simulation time: 00 hr 14 min 19 sec)
Heartbeat CPU 0 instructions: 131500769 cycles: 73668762 heartbeat IPC: 1.25 cumulative IPC: 1.334 (Simulation time: 00 hr 14 min 23 sec)
Heartbeat CPU 0 instructions: 132000769 cycles: 74064922 heartbeat IPC: 1.262 cumulative IPC: 1.334 (Simulation time: 00 hr 14 min 27 sec)
Heartbeat CPU 0 instructions: 132500774 cycles: 74463252 heartbeat IPC: 1.255 cumulative IPC: 1.333 (Simulation time: 00 hr 14 min 32 sec)
Heartbeat CPU 0 instructions: 133000774 cycles: 74821470 heartbeat IPC: 1.396 cumulative IPC: 1.334 (Simulation time: 00 hr 14 min 36 sec)
Heartbeat CPU 0 instructions: 133500780 cycles: 75099026 heartbeat IPC: 1.801 cumulative IPC: 1.336 (Simulation time: 00 hr 14 min 39 sec)
Heartbeat CPU 0 instructions: 134000785 cycles: 75373327 heartbeat IPC: 1.823 cumulative IPC: 1.338 (Simulation time: 00 hr 14 min 43 sec)
Heartbeat CPU 0 instructions: 134500785 cycles: 75741703 heartbeat IPC: 1.357 cumulative IPC: 1.338 (Simulation time: 00 hr 14 min 47 sec)
Heartbeat CPU 0 instructions: 135000790 cycles: 76125055 heartbeat IPC: 1.304 cumulative IPC: 1.338 (Simulation time: 00 hr 14 min 51 sec)
Heartbeat CPU 0 instructions: 135500790 cycles: 76400877 heartbeat IPC: 1.813 cumulative IPC: 1.34 (Simulation time: 00 hr 14 min 54 sec)
Heartbeat CPU 0 instructions: 136000791 cycles: 76783355 heartbeat IPC: 1.307 cumulative IPC: 1.34 (Simulation time: 00 hr 14 min 58 sec)
Heartbeat CPU 0 instructions: 136500794 cycles: 77171883 heartbeat IPC: 1.287 cumulative IPC: 1.339 (Simulation time: 00 hr 15 min 02 sec)
Heartbeat CPU 0 instructions: 137000798 cycles: 77567202 heartbeat IPC: 1.265 cumulative IPC: 1.339 (Simulation time: 00 hr 15 min 06 sec)
Heartbeat CPU 0 instructions: 137500798 cycles: 77961919 heartbeat IPC: 1.267 cumulative IPC: 1.338 (Simulation time: 00 hr 15 min 10 sec)
Heartbeat CPU 0 instructions: 138000803 cycles: 78358135 heartbeat IPC: 1.262 cumulative IPC: 1.338 (Simulation time: 00 hr 15 min 15 sec)
Heartbeat CPU 0 instructions: 138500808 cycles: 78755914 heartbeat IPC: 1.257 cumulative IPC: 1.337 (Simulation time: 00 hr 15 min 19 sec)
Heartbeat CPU 0 instructions: 139000814 cycles: 79046627 heartbeat IPC: 1.72 cumulative IPC: 1.339 (Simulation time: 00 hr 15 min 22 sec)
Heartbeat CPU 0 instructions: 139500815 cycles: 79319346 heartbeat IPC: 1.833 cumulative IPC: 1.341 (Simulation time: 00 hr 15 min 26 sec)
Heartbeat CPU 0 instructions: 140000819 cycles: 79640019 heartbeat IPC: 1.559 cumulative IPC: 1.342 (Simulation time: 00 hr 15 min 30 sec)
Heartbeat CPU 0 instructions: 140500819 cycles: 80032185 heartbeat IPC: 1.275 cumulative IPC: 1.342 (Simulation time: 00 hr 15 min 34 sec)
Heartbeat CPU 0 instructions: 141000821 cycles: 80362527 heartbeat IPC: 1.514 cumulative IPC: 1.343 (Simulation time: 00 hr 15 min 37 sec)
Heartbeat CPU 0 instructions: 141500821 cycles: 80699538 heartbeat IPC: 1.484 cumulative IPC: 1.343 (Simulation time: 00 hr 15 min 41 sec)
Heartbeat CPU 0 instructions: 142000828 cycles: 81088132 heartbeat IPC: 1.287 cumulative IPC: 1.343 (Simulation time: 00 hr 15 min 45 sec)
Heartbeat CPU 0 instructions: 142500835 cycles: 81447052 heartbeat IPC: 1.393 cumulative IPC: 1.343 (Simulation time: 00 hr 15 min 49 sec)
Heartbeat CPU 0 instructions: 143000838 cycles: 81835557 heartbeat IPC: 1.287 cumulative IPC: 1.343 (Simulation time: 00 hr 15 min 53 sec)
Heartbeat CPU 0 instructions: 143500839 cycles: 82236819 heartbeat IPC: 1.246 cumulative IPC: 1.342 (Simulation time: 00 hr 15 min 58 sec)
Heartbeat CPU 0 instructions: 144000844 cycles: 82637316 heartbeat IPC: 1.248 cumulative IPC: 1.342 (Simulation time: 00 hr 16 min 02 sec)
Heartbeat CPU 0 instructions: 144500850 cycles: 82985284 heartbeat IPC: 1.437 cumulative IPC: 1.342 (Simulation time: 00 hr 16 min 06 sec)
Heartbeat CPU 0 instructions: 145000856 cycles: 83257061 heartbeat IPC: 1.84 cumulative IPC: 1.344 (Simulation time: 00 hr 16 min 09 sec)
Heartbeat CPU 0 instructions: 145500857 cycles: 83531224 heartbeat IPC: 1.824 cumulative IPC: 1.346 (Simulation time: 00 hr 16 min 13 sec)
Heartbeat CPU 0 instructions: 146000858 cycles: 83911369 heartbeat IPC: 1.315 cumulative IPC: 1.346 (Simulation time: 00 hr 16 min 17 sec)
Heartbeat CPU 0 instructions: 146500864 cycles: 84305424 heartbeat IPC: 1.269 cumulative IPC: 1.345 (Simulation time: 00 hr 16 min 21 sec)
Heartbeat CPU 0 instructions: 147000870 cycles: 84703025 heartbeat IPC: 1.258 cumulative IPC: 1.345 (Simulation time: 00 hr 16 min 25 sec)
Heartbeat CPU 0 instructions: 147500876 cycles: 85101539 heartbeat IPC: 1.255 cumulative IPC: 1.345 (Simulation time: 00 hr 16 min 29 sec)
Heartbeat CPU 0 instructions: 148000878 cycles: 85500399 heartbeat IPC: 1.254 cumulative IPC: 1.344 (Simulation time: 00 hr 16 min 34 sec)
Heartbeat CPU 0 instructions: 148500879 cycles: 85895567 heartbeat IPC: 1.265 cumulative IPC: 1.344 (Simulation time: 00 hr 16 min 38 sec)
Heartbeat CPU 0 instructions: 149000879 cycles: 86296518 heartbeat IPC: 1.247 cumulative IPC: 1.343 (Simulation time: 00 hr 16 min 42 sec)
Heartbeat CPU 0 instructions: 149500881 cycles: 86693357 heartbeat IPC: 1.26 cumulative IPC: 1.343 (Simulation time: 00 hr 16 min 46 sec)
Heartbeat CPU 0 instructions: 150000887 cycles: 87094213 heartbeat IPC: 1.247 cumulative IPC: 1.342 (Simulation time: 00 hr 16 min 51 sec)
Heartbeat CPU 0 instructions: 150500893 cycles: 87491090 heartbeat IPC: 1.26 cumulative IPC: 1.342 (Simulation time: 00 hr 16 min 55 sec)
Heartbeat CPU 0 instructions: 151000899 cycles: 87883497 heartbeat IPC: 1.274 cumulative IPC: 1.341 (Simulation time: 00 hr 16 min 59 sec)
Heartbeat CPU 0 instructions: 151500905 cycles: 88273129 heartbeat IPC: 1.283 cumulative IPC: 1.341 (Simulation time: 00 hr 17 min 03 sec)
Heartbeat CPU 0 instructions: 152000911 cycles: 88663954 heartbeat IPC: 1.279 cumulative IPC: 1.341 (Simulation time: 00 hr 17 min 08 sec)
Heartbeat CPU 0 instructions: 152500917 cycles: 89058963 heartbeat IPC: 1.266 cumulative IPC: 1.34 (Simulation time: 00 hr 17 min 12 sec)
Heartbeat CPU 0 instructions: 153000923 cycles: 89457393 heartbeat IPC: 1.255 cumulative IPC: 1.34 (Simulation time: 00 hr 17 min 16 sec)
Heartbeat CPU 0 instructions: 153500929 cycles: 89856741 heartbeat IPC: 1.252 cumulative IPC: 1.339 (Simulation time: 00 hr 17 min 20 sec)
Heartbeat CPU 0 instructions: 154000935 cycles: 90256980 heartbeat IPC: 1.249 cumulative IPC: 1.339 (Simulation time: 00 hr 17 min 25 sec)
Heartbeat CPU 0 instructions: 154500941 cycles: 90659529 heartbeat IPC: 1.242 cumulative IPC: 1.338 (Simulation time: 00 hr 17 min 29 sec)
Heartbeat CPU 0 instructions: 155000942 cycles: 91055362 heartbeat IPC: 1.263 cumulative IPC: 1.338 (Simulation time: 00 hr 17 min 33 sec)
Heartbeat CPU 0 instructions: 155500948 cycles: 91458028 heartbeat IPC: 1.242 cumulative IPC: 1.338 (Simulation time: 00 hr 17 min 37 sec)
Heartbeat CPU 0 instructions: 156000954 cycles: 91854007 heartbeat IPC: 1.263 cumulative IPC: 1.337 (Simulation time: 00 hr 17 min 42 sec)
Heartbeat CPU 0 instructions: 156500960 cycles: 92253793 heartbeat IPC: 1.251 cumulative IPC: 1.337 (Simulation time: 00 hr 17 min 46 sec)
Heartbeat CPU 0 instructions: 157000966 cycles: 92653303 heartbeat IPC: 1.252 cumulative IPC: 1.336 (Simulation time: 00 hr 17 min 50 sec)
Heartbeat CPU 0 instructions: 157500972 cycles: 93048847 heartbeat IPC: 1.264 cumulative IPC: 1.336 (Simulation time: 00 hr 17 min 54 sec)
Heartbeat CPU 0 instructions: 158000978 cycles: 93449613 heartbeat IPC: 1.248 cumulative IPC: 1.336 (Simulation time: 00 hr 17 min 59 sec)
Heartbeat CPU 0 instructions: 158500984 cycles: 93849848 heartbeat IPC: 1.249 cumulative IPC: 1.335 (Simulation time: 00 hr 18 min 03 sec)
Heartbeat CPU 0 instructions: 159000990 cycles: 94247754 heartbeat IPC: 1.257 cumulative IPC: 1.335 (Simulation time: 00 hr 18 min 07 sec)
Heartbeat CPU 0 instructions: 159500996 cycles: 94646047 heartbeat IPC: 1.255 cumulative IPC: 1.334 (Simulation time: 00 hr 18 min 11 sec)
Heartbeat CPU 0 instructions: 160001002 cycles: 95042224 heartbeat IPC: 1.262 cumulative IPC: 1.334 (Simulation time: 00 hr 18 min 16 sec)
Heartbeat CPU 0 instructions: 160501008 cycles: 95438269 heartbeat IPC: 1.262 cumulative IPC: 1.334 (Simulation time: 00 hr 18 min 20 sec)
Heartbeat CPU 0 instructions: 161001014 cycles: 95837197 heartbeat IPC: 1.253 cumulative IPC: 1.333 (Simulation time: 00 hr 18 min 24 sec)
Heartbeat CPU 0 instructions: 161501021 cycles: 96231568 heartbeat IPC: 1.268 cumulative IPC: 1.333 (Simulation time: 00 hr 18 min 28 sec)
Heartbeat CPU 0 instructions: 162001021 cycles: 96632590 heartbeat IPC: 1.247 cumulative IPC: 1.333 (Simulation time: 00 hr 18 min 33 sec)
Heartbeat CPU 0 instructions: 162501027 cycles: 97032135 heartbeat IPC: 1.251 cumulative IPC: 1.332 (Simulation time: 00 hr 18 min 37 sec)
Heartbeat CPU 0 instructions: 163001033 cycles: 97427382 heartbeat IPC: 1.265 cumulative IPC: 1.332 (Simulation time: 00 hr 18 min 41 sec)
Heartbeat CPU 0 instructions: 163501039 cycles: 97825232 heartbeat IPC: 1.257 cumulative IPC: 1.332 (Simulation time: 00 hr 18 min 45 sec)
Heartbeat CPU 0 instructions: 164001045 cycles: 98225217 heartbeat IPC: 1.25 cumulative IPC: 1.331 (Simulation time: 00 hr 18 min 50 sec)
Heartbeat CPU 0 instructions: 164501051 cycles: 98625406 heartbeat IPC: 1.249 cumulative IPC: 1.331 (Simulation time: 00 hr 18 min 54 sec)
Heartbeat CPU 0 instructions: 165001057 cycles: 99023354 heartbeat IPC: 1.256 cumulative IPC: 1.33 (Simulation time: 00 hr 18 min 58 sec)
Heartbeat CPU 0 instructions: 165501063 cycles: 99422581 heartbeat IPC: 1.252 cumulative IPC: 1.33 (Simulation time: 00 hr 19 min 02 sec)
Heartbeat CPU 0 instructions: 166001069 cycles: 99819480 heartbeat IPC: 1.26 cumulative IPC: 1.33 (Simulation time: 00 hr 19 min 06 sec)
Heartbeat CPU 0 instructions: 166501075 cycles: 100218272 heartbeat IPC: 1.254 cumulative IPC: 1.329 (Simulation time: 00 hr 19 min 11 sec)
Heartbeat CPU 0 instructions: 167001081 cycles: 100619546 heartbeat IPC: 1.246 cumulative IPC: 1.329 (Simulation time: 00 hr 19 min 15 sec)
Heartbeat CPU 0 instructions: 167501087 cycles: 101015591 heartbeat IPC: 1.262 cumulative IPC: 1.329 (Simulation time: 00 hr 19 min 19 sec)
Heartbeat CPU 0 instructions: 168001092 cycles: 101416815 heartbeat IPC: 1.246 cumulative IPC: 1.328 (Simulation time: 00 hr 19 min 23 sec)
Heartbeat CPU 0 instructions: 168501092 cycles: 101812216 heartbeat IPC: 1.265 cumulative IPC: 1.328 (Simulation time: 00 hr 19 min 28 sec)
Heartbeat CPU 0 instructions: 169001092 cycles: 102212165 heartbeat IPC: 1.25 cumulative IPC: 1.328 (Simulation time: 00 hr 19 min 32 sec)
Heartbeat CPU 0 instructions: 169501092 cycles: 102610442 heartbeat IPC: 1.255 cumulative IPC: 1.327 (Simulation time: 00 hr 19 min 36 sec)
Heartbeat CPU 0 instructions: 170001098 cycles: 103006929 heartbeat IPC: 1.261 cumulative IPC: 1.327 (Simulation time: 00 hr 19 min 40 sec)
Heartbeat CPU 0 instructions: 170501104 cycles: 103406500 heartbeat IPC: 1.251 cumulative IPC: 1.327 (Simulation time: 00 hr 19 min 45 sec)
Heartbeat CPU 0 instructions: 171001110 cycles: 103799596 heartbeat IPC: 1.272 cumulative IPC: 1.327 (Simulation time: 00 hr 19 min 49 sec)
Heartbeat CPU 0 instructions: 171501116 cycles: 104201051 heartbeat IPC: 1.245 cumulative IPC: 1.326 (Simulation time: 00 hr 19 min 53 sec)
Heartbeat CPU 0 instructions: 172001122 cycles: 104598659 heartbeat IPC: 1.258 cumulative IPC: 1.326 (Simulation time: 00 hr 19 min 57 sec)
Heartbeat CPU 0 instructions: 172501128 cycles: 104999050 heartbeat IPC: 1.249 cumulative IPC: 1.326 (Simulation time: 00 hr 20 min 01 sec)
Heartbeat CPU 0 instructions: 173001134 cycles: 105398988 heartbeat IPC: 1.25 cumulative IPC: 1.325 (Simulation time: 00 hr 20 min 05 sec)
Heartbeat CPU 0 instructions: 173501140 cycles: 105797195 heartbeat IPC: 1.256 cumulative IPC: 1.325 (Simulation time: 00 hr 20 min 10 sec)
Heartbeat CPU 0 instructions: 174001146 cycles: 106192951 heartbeat IPC: 1.263 cumulative IPC: 1.325 (Simulation time: 00 hr 20 min 14 sec)
Heartbeat CPU 0 instructions: 174501152 cycles: 106592844 heartbeat IPC: 1.25 cumulative IPC: 1.324 (Simulation time: 00 hr 20 min 18 sec)
Heartbeat CPU 0 instructions: 175001152 cycles: 106998761 heartbeat IPC: 1.232 cumulative IPC: 1.324 (Simulation time: 00 hr 20 min 22 sec)
Heartbeat CPU 0 instructions: 175501154 cycles: 107390852 heartbeat IPC: 1.275 cumulative IPC: 1.324 (Simulation time: 00 hr 20 min 26 sec)
Heartbeat CPU 0 instructions: 176001160 cycles: 107756161 heartbeat IPC: 1.369 cumulative IPC: 1.324 (Simulation time: 00 hr 20 min 30 sec)
Heartbeat CPU 0 instructions: 176501162 cycles: 108051372 heartbeat IPC: 1.694 cumulative IPC: 1.325 (Simulation time: 00 hr 20 min 33 sec)
Heartbeat CPU 0 instructions: 177001162 cycles: 108445503 heartbeat IPC: 1.269 cumulative IPC: 1.325 (Simulation time: 00 hr 20 min 38 sec)
Heartbeat CPU 0 instructions: 177501167 cycles: 108846727 heartbeat IPC: 1.246 cumulative IPC: 1.325 (Simulation time: 00 hr 20 min 42 sec)
Heartbeat CPU 0 instructions: 178001172 cycles: 109250883 heartbeat IPC: 1.237 cumulative IPC: 1.324 (Simulation time: 00 hr 20 min 46 sec)
Heartbeat CPU 0 instructions: 178501172 cycles: 109653055 heartbeat IPC: 1.243 cumulative IPC: 1.324 (Simulation time: 00 hr 20 min 50 sec)
Heartbeat CPU 0 instructions: 179001173 cycles: 110050134 heartbeat IPC: 1.259 cumulative IPC: 1.324 (Simulation time: 00 hr 20 min 55 sec)
Heartbeat CPU 0 instructions: 179501178 cycles: 110439926 heartbeat IPC: 1.283 cumulative IPC: 1.323 (Simulation time: 00 hr 20 min 59 sec)
Heartbeat CPU 0 instructions: 180001179 cycles: 110710524 heartbeat IPC: 1.848 cumulative IPC: 1.325 (Simulation time: 00 hr 21 min 02 sec)
Heartbeat CPU 0 instructions: 180501183 cycles: 110983019 heartbeat IPC: 1.835 cumulative IPC: 1.326 (Simulation time: 00 hr 21 min 05 sec)
Heartbeat CPU 0 instructions: 181001189 cycles: 111321213 heartbeat IPC: 1.478 cumulative IPC: 1.327 (Simulation time: 00 hr 21 min 09 sec)
Heartbeat CPU 0 instructions: 181501189 cycles: 111707911 heartbeat IPC: 1.293 cumulative IPC: 1.327 (Simulation time: 00 hr 21 min 13 sec)
Heartbeat CPU 0 instructions: 182001191 cycles: 112005204 heartbeat IPC: 1.682 cumulative IPC: 1.328 (Simulation time: 00 hr 21 min 16 sec)
Heartbeat CPU 0 instructions: 182501196 cycles: 112364866 heartbeat IPC: 1.39 cumulative IPC: 1.328 (Simulation time: 00 hr 21 min 20 sec)
Heartbeat CPU 0 instructions: 183001200 cycles: 112755581 heartbeat IPC: 1.28 cumulative IPC: 1.328 (Simulation time: 00 hr 21 min 24 sec)
Heartbeat CPU 0 instructions: 183501207 cycles: 113154402 heartbeat IPC: 1.254 cumulative IPC: 1.327 (Simulation time: 00 hr 21 min 28 sec)
Heartbeat CPU 0 instructions: 184001213 cycles: 113561633 heartbeat IPC: 1.228 cumulative IPC: 1.327 (Simulation time: 00 hr 21 min 33 sec)
Heartbeat CPU 0 instructions: 184501213 cycles: 113962460 heartbeat IPC: 1.247 cumulative IPC: 1.327 (Simulation time: 00 hr 21 min 37 sec)
Heartbeat CPU 0 instructions: 185001218 cycles: 114360948 heartbeat IPC: 1.255 cumulative IPC: 1.326 (Simulation time: 00 hr 21 min 41 sec)
Heartbeat CPU 0 instructions: 185501218 cycles: 114679240 heartbeat IPC: 1.571 cumulative IPC: 1.327 (Simulation time: 00 hr 21 min 45 sec)
Heartbeat CPU 0 instructions: 186001222 cycles: 114950870 heartbeat IPC: 1.841 cumulative IPC: 1.329 (Simulation time: 00 hr 21 min 48 sec)
Heartbeat CPU 0 instructions: 186501222 cycles: 115246018 heartbeat IPC: 1.694 cumulative IPC: 1.33 (Simulation time: 00 hr 21 min 52 sec)
Heartbeat CPU 0 instructions: 187001222 cycles: 115638374 heartbeat IPC: 1.274 cumulative IPC: 1.329 (Simulation time: 00 hr 21 min 56 sec)
Heartbeat CPU 0 instructions: 187501224 cycles: 115997503 heartbeat IPC: 1.392 cumulative IPC: 1.33 (Simulation time: 00 hr 21 min 59 sec)
Heartbeat CPU 0 instructions: 188001229 cycles: 116294282 heartbeat IPC: 1.685 cumulative IPC: 1.331 (Simulation time: 00 hr 22 min 03 sec)
Heartbeat CPU 0 instructions: 188501233 cycles: 116683193 heartbeat IPC: 1.286 cumulative IPC: 1.33 (Simulation time: 00 hr 22 min 07 sec)
Heartbeat CPU 0 instructions: 189001238 cycles: 117081515 heartbeat IPC: 1.255 cumulative IPC: 1.33 (Simulation time: 00 hr 22 min 11 sec)
Heartbeat CPU 0 instructions: 189501239 cycles: 117480302 heartbeat IPC: 1.254 cumulative IPC: 1.33 (Simulation time: 00 hr 22 min 15 sec)
Heartbeat CPU 0 instructions: 190001239 cycles: 117876163 heartbeat IPC: 1.263 cumulative IPC: 1.33 (Simulation time: 00 hr 22 min 19 sec)
Heartbeat CPU 0 instructions: 190501244 cycles: 118272794 heartbeat IPC: 1.261 cumulative IPC: 1.329 (Simulation time: 00 hr 22 min 23 sec)
Heartbeat CPU 0 instructions: 191001247 cycles: 118651238 heartbeat IPC: 1.321 cumulative IPC: 1.329 (Simulation time: 00 hr 22 min 27 sec)
Heartbeat CPU 0 instructions: 191501247 cycles: 118922272 heartbeat IPC: 1.845 cumulative IPC: 1.331 (Simulation time: 00 hr 22 min 31 sec)
Heartbeat CPU 0 instructions: 192001248 cycles: 119193749 heartbeat IPC: 1.842 cumulative IPC: 1.332 (Simulation time: 00 hr 22 min 34 sec)
Heartbeat CPU 0 instructions: 192501252 cycles: 119546287 heartbeat IPC: 1.418 cumulative IPC: 1.332 (Simulation time: 00 hr 22 min 38 sec)
Heartbeat CPU 0 instructions: 193001252 cycles: 119938947 heartbeat IPC: 1.273 cumulative IPC: 1.332 (Simulation time: 00 hr 22 min 42 sec)
Heartbeat CPU 0 instructions: 193501253 cycles: 120232005 heartbeat IPC: 1.706 cumulative IPC: 1.333 (Simulation time: 00 hr 22 min 45 sec)
Heartbeat CPU 0 instructions: 194001259 cycles: 120593765 heartbeat IPC: 1.382 cumulative IPC: 1.333 (Simulation time: 00 hr 22 min 49 sec)
Heartbeat CPU 0 instructions: 194501260 cycles: 120994246 heartbeat IPC: 1.249 cumulative IPC: 1.333 (Simulation time: 00 hr 22 min 53 sec)
Heartbeat CPU 0 instructions: 195001265 cycles: 121395264 heartbeat IPC: 1.247 cumulative IPC: 1.333 (Simulation time: 00 hr 22 min 57 sec)
Heartbeat CPU 0 instructions: 195501265 cycles: 121798434 heartbeat IPC: 1.24 cumulative IPC: 1.332 (Simulation time: 00 hr 23 min 01 sec)
Heartbeat CPU 0 instructions: 196001270 cycles: 122197163 heartbeat IPC: 1.254 cumulative IPC: 1.332 (Simulation time: 00 hr 23 min 05 sec)
Heartbeat CPU 0 instructions: 196501275 cycles: 122597009 heartbeat IPC: 1.25 cumulative IPC: 1.332 (Simulation time: 00 hr 23 min 09 sec)
Heartbeat CPU 0 instructions: 197001279 cycles: 122908820 heartbeat IPC: 1.604 cumulative IPC: 1.332 (Simulation time: 00 hr 23 min 13 sec)
Heartbeat CPU 0 instructions: 197501280 cycles: 123180827 heartbeat IPC: 1.838 cumulative IPC: 1.334 (Simulation time: 00 hr 23 min 16 sec)
Heartbeat CPU 0 instructions: 198001285 cycles: 123481139 heartbeat IPC: 1.665 cumulative IPC: 1.335 (Simulation time: 00 hr 23 min 19 sec)
Heartbeat CPU 0 instructions: 198501291 cycles: 123880599 heartbeat IPC: 1.252 cumulative IPC: 1.334 (Simulation time: 00 hr 23 min 24 sec)
Heartbeat CPU 0 instructions: 199001291 cycles: 124238506 heartbeat IPC: 1.397 cumulative IPC: 1.334 (Simulation time: 00 hr 23 min 27 sec)
Heartbeat CPU 0 instructions: 199501294 cycles: 124553081 heartbeat IPC: 1.589 cumulative IPC: 1.335 (Simulation time: 00 hr 23 min 31 sec)
Heartbeat CPU 0 instructions: 200001300 cycles: 124954789 heartbeat IPC: 1.245 cumulative IPC: 1.335 (Simulation time: 00 hr 23 min 35 sec)
Heartbeat CPU 0 instructions: 200501305 cycles: 125358102 heartbeat IPC: 1.24 cumulative IPC: 1.335 (Simulation time: 00 hr 23 min 39 sec)
Heartbeat CPU 0 instructions: 201001307 cycles: 125761591 heartbeat IPC: 1.239 cumulative IPC: 1.334 (Simulation time: 00 hr 23 min 43 sec)
Heartbeat CPU 0 instructions: 201501310 cycles: 126161285 heartbeat IPC: 1.251 cumulative IPC: 1.334 (Simulation time: 00 hr 23 min 47 sec)
Heartbeat CPU 0 instructions: 202001314 cycles: 126560184 heartbeat IPC: 1.253 cumulative IPC: 1.334 (Simulation time: 00 hr 23 min 51 sec)
Heartbeat CPU 0 instructions: 202501318 cycles: 126932125 heartbeat IPC: 1.344 cumulative IPC: 1.334 (Simulation time: 00 hr 23 min 55 sec)
Heartbeat CPU 0 instructions: 203001319 cycles: 127207214 heartbeat IPC: 1.818 cumulative IPC: 1.335 (Simulation time: 00 hr 23 min 59 sec)
Heartbeat CPU 0 instructions: 203501323 cycles: 127481995 heartbeat IPC: 1.82 cumulative IPC: 1.336 (Simulation time: 00 hr 24 min 02 sec)
Heartbeat CPU 0 instructions: 204001329 cycles: 127840270 heartbeat IPC: 1.396 cumulative IPC: 1.336 (Simulation time: 00 hr 24 min 06 sec)
Heartbeat CPU 0 instructions: 204501334 cycles: 128230626 heartbeat IPC: 1.281 cumulative IPC: 1.336 (Simulation time: 00 hr 24 min 10 sec)
Heartbeat CPU 0 instructions: 205001336 cycles: 128515596 heartbeat IPC: 1.755 cumulative IPC: 1.337 (Simulation time: 00 hr 24 min 13 sec)
Heartbeat CPU 0 instructions: 205501336 cycles: 128881055 heartbeat IPC: 1.368 cumulative IPC: 1.337 (Simulation time: 00 hr 24 min 17 sec)
Heartbeat CPU 0 instructions: 206001337 cycles: 129274183 heartbeat IPC: 1.272 cumulative IPC: 1.337 (Simulation time: 00 hr 24 min 21 sec)
Heartbeat CPU 0 instructions: 206501343 cycles: 129674876 heartbeat IPC: 1.248 cumulative IPC: 1.337 (Simulation time: 00 hr 24 min 25 sec)
Heartbeat CPU 0 instructions: 207001343 cycles: 130076069 heartbeat IPC: 1.246 cumulative IPC: 1.336 (Simulation time: 00 hr 24 min 29 sec)
Heartbeat CPU 0 instructions: 207501348 cycles: 130477144 heartbeat IPC: 1.247 cumulative IPC: 1.336 (Simulation time: 00 hr 24 min 33 sec)
Heartbeat CPU 0 instructions: 208001348 cycles: 130875214 heartbeat IPC: 1.256 cumulative IPC: 1.336 (Simulation time: 00 hr 24 min 37 sec)
Heartbeat CPU 0 instructions: 208501351 cycles: 131184270 heartbeat IPC: 1.618 cumulative IPC: 1.336 (Simulation time: 00 hr 24 min 40 sec)
Heartbeat CPU 0 instructions: 209001355 cycles: 131459402 heartbeat IPC: 1.817 cumulative IPC: 1.338 (Simulation time: 00 hr 24 min 44 sec)
Heartbeat CPU 0 instructions: 209501356 cycles: 131765601 heartbeat IPC: 1.633 cumulative IPC: 1.338 (Simulation time: 00 hr 24 min 47 sec)
Heartbeat CPU 0 instructions: 210001356 cycles: 132160253 heartbeat IPC: 1.267 cumulative IPC: 1.338 (Simulation time: 00 hr 24 min 51 sec)
Heartbeat CPU 0 instructions: 210501362 cycles: 132507947 heartbeat IPC: 1.438 cumulative IPC: 1.338 (Simulation time: 00 hr 24 min 55 sec)
Heartbeat CPU 0 instructions: 211001363 cycles: 132815154 heartbeat IPC: 1.628 cumulative IPC: 1.339 (Simulation time: 00 hr 24 min 58 sec)
Heartbeat CPU 0 instructions: 211501364 cycles: 133193941 heartbeat IPC: 1.32 cumulative IPC: 1.339 (Simulation time: 00 hr 25 min 02 sec)
Heartbeat CPU 0 instructions: 212001369 cycles: 133587885 heartbeat IPC: 1.269 cumulative IPC: 1.339 (Simulation time: 00 hr 25 min 06 sec)
Heartbeat CPU 0 instructions: 212501374 cycles: 133983767 heartbeat IPC: 1.263 cumulative IPC: 1.339 (Simulation time: 00 hr 25 min 10 sec)
Heartbeat CPU 0 instructions: 213001380 cycles: 134383280 heartbeat IPC: 1.252 cumulative IPC: 1.338 (Simulation time: 00 hr 25 min 14 sec)
Heartbeat CPU 0 instructions: 213501382 cycles: 134779025 heartbeat IPC: 1.263 cumulative IPC: 1.338 (Simulation time: 00 hr 25 min 18 sec)
Heartbeat CPU 0 instructions: 214001383 cycles: 135143073 heartbeat IPC: 1.373 cumulative IPC: 1.338 (Simulation time: 00 hr 25 min 22 sec)
Heartbeat CPU 0 instructions: 214501387 cycles: 135419154 heartbeat IPC: 1.811 cumulative IPC: 1.339 (Simulation time: 00 hr 25 min 25 sec)
Heartbeat CPU 0 instructions: 215001387 cycles: 135692472 heartbeat IPC: 1.829 cumulative IPC: 1.34 (Simulation time: 00 hr 25 min 28 sec)
Heartbeat CPU 0 instructions: 215501392 cycles: 136062337 heartbeat IPC: 1.352 cumulative IPC: 1.34 (Simulation time: 00 hr 25 min 32 sec)
Heartbeat CPU 0 instructions: 216001398 cycles: 136454075 heartbeat IPC: 1.276 cumulative IPC: 1.34 (Simulation time: 00 hr 25 min 36 sec)
Heartbeat CPU 0 instructions: 216501400 cycles: 136735867 heartbeat IPC: 1.774 cumulative IPC: 1.341 (Simulation time: 00 hr 25 min 39 sec)
Heartbeat CPU 0 instructions: 217001406 cycles: 137130180 heartbeat IPC: 1.268 cumulative IPC: 1.341 (Simulation time: 00 hr 25 min 43 sec)
Heartbeat CPU 0 instructions: 217501406 cycles: 137513779 heartbeat IPC: 1.303 cumulative IPC: 1.341 (Simulation time: 00 hr 25 min 47 sec)
Heartbeat CPU 0 instructions: 218001413 cycles: 137872508 heartbeat IPC: 1.394 cumulative IPC: 1.341 (Simulation time: 00 hr 25 min 51 sec)
Heartbeat CPU 0 instructions: 218501417 cycles: 138277566 heartbeat IPC: 1.234 cumulative IPC: 1.341 (Simulation time: 00 hr 25 min 55 sec)
Heartbeat CPU 0 instructions: 219001419 cycles: 138678738 heartbeat IPC: 1.246 cumulative IPC: 1.34 (Simulation time: 00 hr 25 min 59 sec)
Heartbeat CPU 0 instructions: 219501420 cycles: 139080869 heartbeat IPC: 1.243 cumulative IPC: 1.34 (Simulation time: 00 hr 26 min 03 sec)
Heartbeat CPU 0 instructions: 220001426 cycles: 139380507 heartbeat IPC: 1.669 cumulative IPC: 1.341 (Simulation time: 00 hr 26 min 07 sec)
Heartbeat CPU 0 instructions: 220501427 cycles: 139655319 heartbeat IPC: 1.819 cumulative IPC: 1.342 (Simulation time: 00 hr 26 min 10 sec)
Heartbeat CPU 0 instructions: 221001427 cycles: 139969566 heartbeat IPC: 1.591 cumulative IPC: 1.342 (Simulation time: 00 hr 26 min 13 sec)
Heartbeat CPU 0 instructions: 221501432 cycles: 140359509 heartbeat IPC: 1.282 cumulative IPC: 1.342 (Simulation time: 00 hr 26 min 17 sec)
Heartbeat CPU 0 instructions: 222001435 cycles: 140757071 heartbeat IPC: 1.258 cumulative IPC: 1.342 (Simulation time: 00 hr 26 min 21 sec)
Heartbeat CPU 0 instructions: 222501437 cycles: 141155059 heartbeat IPC: 1.256 cumulative IPC: 1.342 (Simulation time: 00 hr 26 min 25 sec)
Heartbeat CPU 0 instructions: 223001443 cycles: 141551627 heartbeat IPC: 1.261 cumulative IPC: 1.341 (Simulation time: 00 hr 26 min 29 sec)
Heartbeat CPU 0 instructions: 223501449 cycles: 141952590 heartbeat IPC: 1.247 cumulative IPC: 1.341 (Simulation time: 00 hr 26 min 33 sec)
Heartbeat CPU 0 instructions: 224001455 cycles: 142355297 heartbeat IPC: 1.242 cumulative IPC: 1.341 (Simulation time: 00 hr 26 min 37 sec)
Heartbeat CPU 0 instructions: 224501461 cycles: 142749021 heartbeat IPC: 1.27 cumulative IPC: 1.341 (Simulation time: 00 hr 26 min 41 sec)
Heartbeat CPU 0 instructions: 225001467 cycles: 143150529 heartbeat IPC: 1.245 cumulative IPC: 1.34 (Simulation time: 00 hr 26 min 45 sec)
Heartbeat CPU 0 instructions: 225501473 cycles: 143551550 heartbeat IPC: 1.247 cumulative IPC: 1.34 (Simulation time: 00 hr 26 min 49 sec)
Heartbeat CPU 0 instructions: 226001479 cycles: 143951291 heartbeat IPC: 1.251 cumulative IPC: 1.34 (Simulation time: 00 hr 26 min 53 sec)
Heartbeat CPU 0 instructions: 226501485 cycles: 144342943 heartbeat IPC: 1.277 cumulative IPC: 1.34 (Simulation time: 00 hr 26 min 57 sec)
Heartbeat CPU 0 instructions: 227001490 cycles: 144737860 heartbeat IPC: 1.266 cumulative IPC: 1.339 (Simulation time: 00 hr 27 min 01 sec)
Heartbeat CPU 0 instructions: 227501490 cycles: 145132176 heartbeat IPC: 1.268 cumulative IPC: 1.339 (Simulation time: 00 hr 27 min 05 sec)
Heartbeat CPU 0 instructions: 228001490 cycles: 145527221 heartbeat IPC: 1.266 cumulative IPC: 1.339 (Simulation time: 00 hr 27 min 09 sec)
Heartbeat CPU 0 instructions: 228501490 cycles: 145925738 heartbeat IPC: 1.255 cumulative IPC: 1.339 (Simulation time: 00 hr 27 min 13 sec)
Heartbeat CPU 0 instructions: 229001496 cycles: 146327027 heartbeat IPC: 1.246 cumulative IPC: 1.338 (Simulation time: 00 hr 27 min 16 sec)
Heartbeat CPU 0 instructions: 229501502 cycles: 146726474 heartbeat IPC: 1.252 cumulative IPC: 1.338 (Simulation time: 00 hr 27 min 20 sec)
Heartbeat CPU 0 instructions: 230001508 cycles: 147123301 heartbeat IPC: 1.26 cumulative IPC: 1.338 (Simulation time: 00 hr 27 min 24 sec)
Heartbeat CPU 0 instructions: 230501514 cycles: 147520390 heartbeat IPC: 1.259 cumulative IPC: 1.338 (Simulation time: 00 hr 27 min 28 sec)
Heartbeat CPU 0 instructions: 231001520 cycles: 147920267 heartbeat IPC: 1.25 cumulative IPC: 1.337 (Simulation time: 00 hr 27 min 32 sec)
Heartbeat CPU 0 instructions: 231501526 cycles: 148318983 heartbeat IPC: 1.254 cumulative IPC: 1.337 (Simulation time: 00 hr 27 min 36 sec)
Heartbeat CPU 0 instructions: 232001532 cycles: 148716411 heartbeat IPC: 1.258 cumulative IPC: 1.337 (Simulation time: 00 hr 27 min 40 sec)
Heartbeat CPU 0 instructions: 232501538 cycles: 149116196 heartbeat IPC: 1.251 cumulative IPC: 1.337 (Simulation time: 00 hr 27 min 44 sec)
Heartbeat CPU 0 instructions: 233001544 cycles: 149515344 heartbeat IPC: 1.253 cumulative IPC: 1.336 (Simulation time: 00 hr 27 min 48 sec)
Heartbeat CPU 0 instructions: 233501550 cycles: 149913424 heartbeat IPC: 1.256 cumulative IPC: 1.336 (Simulation time: 00 hr 27 min 52 sec)
Heartbeat CPU 0 instructions: 234001553 cycles: 150309320 heartbeat IPC: 1.263 cumulative IPC: 1.336 (Simulation time: 00 hr 27 min 56 sec)
Heartbeat CPU 0 instructions: 234501557 cycles: 150710952 heartbeat IPC: 1.245 cumulative IPC: 1.336 (Simulation time: 00 hr 28 min 00 sec)
Heartbeat CPU 0 instructions: 235001563 cycles: 151112285 heartbeat IPC: 1.246 cumulative IPC: 1.335 (Simulation time: 00 hr 28 min 03 sec)
Heartbeat CPU 0 instructions: 235501569 cycles: 151512634 heartbeat IPC: 1.249 cumulative IPC: 1.335 (Simulation time: 00 hr 28 min 07 sec)
Heartbeat CPU 0 instructions: 236001575 cycles: 151910236 heartbeat IPC: 1.258 cumulative IPC: 1.335 (Simulation time: 00 hr 28 min 11 sec)
Heartbeat CPU 0 instructions: 236501581 cycles: 152307663 heartbeat IPC: 1.258 cumulative IPC: 1.335 (Simulation time: 00 hr 28 min 15 sec)
Heartbeat CPU 0 instructions: 237001587 cycles: 152707548 heartbeat IPC: 1.25 cumulative IPC: 1.335 (Simulation time: 00 hr 28 min 19 sec)
Heartbeat CPU 0 instructions: 237501593 cycles: 153109692 heartbeat IPC: 1.243 cumulative IPC: 1.334 (Simulation time: 00 hr 28 min 23 sec)
Heartbeat CPU 0 instructions: 238001599 cycles: 153511783 heartbeat IPC: 1.244 cumulative IPC: 1.334 (Simulation time: 00 hr 28 min 27 sec)
Heartbeat CPU 0 instructions: 238501605 cycles: 153909334 heartbeat IPC: 1.258 cumulative IPC: 1.334 (Simulation time: 00 hr 28 min 31 sec)
Heartbeat CPU 0 instructions: 239001611 cycles: 154307303 heartbeat IPC: 1.256 cumulative IPC: 1.334 (Simulation time: 00 hr 28 min 35 sec)
Heartbeat CPU 0 instructions: 239501617 cycles: 154708537 heartbeat IPC: 1.246 cumulative IPC: 1.333 (Simulation time: 00 hr 28 min 39 sec)
Heartbeat CPU 0 instructions: 240001623 cycles: 155104126 heartbeat IPC: 1.264 cumulative IPC: 1.333 (Simulation time: 00 hr 28 min 43 sec)
Heartbeat CPU 0 instructions: 240501624 cycles: 155504443 heartbeat IPC: 1.249 cumulative IPC: 1.333 (Simulation time: 00 hr 28 min 46 sec)
Heartbeat CPU 0 instructions: 241001630 cycles: 155906247 heartbeat IPC: 1.244 cumulative IPC: 1.333 (Simulation time: 00 hr 28 min 50 sec)
Heartbeat CPU 0 instructions: 241501636 cycles: 156300924 heartbeat IPC: 1.267 cumulative IPC: 1.332 (Simulation time: 00 hr 28 min 54 sec)
Heartbeat CPU 0 instructions: 242001642 cycles: 156696907 heartbeat IPC: 1.263 cumulative IPC: 1.332 (Simulation time: 00 hr 28 min 58 sec)
Heartbeat CPU 0 instructions: 242501648 cycles: 157095037 heartbeat IPC: 1.256 cumulative IPC: 1.332 (Simulation time: 00 hr 29 min 02 sec)
Heartbeat CPU 0 instructions: 243001654 cycles: 157495377 heartbeat IPC: 1.249 cumulative IPC: 1.332 (Simulation time: 00 hr 29 min 06 sec)
Heartbeat CPU 0 instructions: 243501660 cycles: 157897095 heartbeat IPC: 1.245 cumulative IPC: 1.332 (Simulation time: 00 hr 29 min 09 sec)
Heartbeat CPU 0 instructions: 244001666 cycles: 158297260 heartbeat IPC: 1.249 cumulative IPC: 1.331 (Simulation time: 00 hr 29 min 13 sec)
Heartbeat CPU 0 instructions: 244501672 cycles: 158696612 heartbeat IPC: 1.252 cumulative IPC: 1.331 (Simulation time: 00 hr 29 min 17 sec)
Heartbeat CPU 0 instructions: 245001678 cycles: 159093391 heartbeat IPC: 1.26 cumulative IPC: 1.331 (Simulation time: 00 hr 29 min 21 sec)
Heartbeat CPU 0 instructions: 245501684 cycles: 159493281 heartbeat IPC: 1.25 cumulative IPC: 1.331 (Simulation time: 00 hr 29 min 25 sec)
Heartbeat CPU 0 instructions: 246001690 cycles: 159893376 heartbeat IPC: 1.25 cumulative IPC: 1.331 (Simulation time: 00 hr 29 min 29 sec)
Heartbeat CPU 0 instructions: 246501696 cycles: 160293237 heartbeat IPC: 1.25 cumulative IPC: 1.33 (Simulation time: 00 hr 29 min 33 sec)
Heartbeat CPU 0 instructions: 247001703 cycles: 160696917 heartbeat IPC: 1.239 cumulative IPC: 1.33 (Simulation time: 00 hr 29 min 36 sec)
Heartbeat CPU 0 instructions: 247501703 cycles: 161095302 heartbeat IPC: 1.255 cumulative IPC: 1.33 (Simulation time: 00 hr 29 min 40 sec)
Heartbeat CPU 0 instructions: 248001709 cycles: 161498329 heartbeat IPC: 1.241 cumulative IPC: 1.33 (Simulation time: 00 hr 29 min 44 sec)
Heartbeat CPU 0 instructions: 248501715 cycles: 161902074 heartbeat IPC: 1.238 cumulative IPC: 1.329 (Simulation time: 00 hr 29 min 48 sec)
Heartbeat CPU 0 instructions: 249001721 cycles: 162302179 heartbeat IPC: 1.25 cumulative IPC: 1.329 (Simulation time: 00 hr 29 min 52 sec)
Heartbeat CPU 0 instructions: 249501727 cycles: 162700975 heartbeat IPC: 1.254 cumulative IPC: 1.329 (Simulation time: 00 hr 29 min 56 sec)
Simulation finished CPU 0 instructions: 200000000 cycles: 150513114 cumulative IPC: 1.329 (Simulation time: 00 hr 30 min 00 sec)
Simulation complete CPU 0 instructions: 200000000 cycles: 150513114 cumulative IPC: 1.329 (Simulation time: 00 hr 30 min 00 sec)

ChampSim completed all CPUs

=== Simulation ===
CPU 0 runs /local-ssd/ben/dpc4-traces/ai-ml/llama2.c-stories42M.1.champsimtrace.gz

Region of Interest Statistics

CPU 0 cumulative IPC: 1.329 instructions: 200000000 cycles: 150513114
CPU 0 Branch Prediction Accuracy: 99.29% MPKI: 1.012 Average ROB Occupancy at Mispredict: 558.9
Branch type MPKI
BRANCH_DIRECT_JUMP: 5e-06
BRANCH_INDIRECT: 0
BRANCH_CONDITIONAL: 1.012
BRANCH_DIRECT_CALL: 1.5e-05
BRANCH_INDIRECT_CALL: 5e-06
BRANCH_RETURN: 2.5e-05

cpu0->cpu0_STLB TOTAL        ACCESS:     111059 HIT:        522 MISS:     110537 MSHR_MERGE:          0
cpu0->cpu0_STLB LOAD         ACCESS:     111059 HIT:        522 MISS:     110537 MSHR_MERGE:          0
cpu0->cpu0_STLB RFO          ACCESS:          0 HIT:          0 MISS:          0 MSHR_MERGE:          0
cpu0->cpu0_STLB PREFETCH     ACCESS:          0 HIT:          0 MISS:          0 MSHR_MERGE:          0
cpu0->cpu0_STLB WRITE        ACCESS:          0 HIT:          0 MISS:          0 MSHR_MERGE:          0
cpu0->cpu0_STLB TRANSLATION  ACCESS:          0 HIT:          0 MISS:          0 MSHR_MERGE:          0
cpu0->cpu0_STLB PREFETCH REQUESTED:          0 ISSUED:          0 USEFUL:          0 USELESS:          0
cpu0->cpu0_STLB AVERAGE MISS LATENCY: 70.46 cycles
cpu0->cpu0_L2C TOTAL        ACCESS:   39244358 HIT:    3009709 MISS:   36234649 MSHR_MERGE:   29244610
cpu0->cpu0_L2C LOAD         ACCESS:    6938629 HIT:     947122 MISS:    5991507 MSHR_MERGE:    5417562
cpu0->cpu0_L2C RFO          ACCESS:      13744 HIT:       1536 MISS:      12208 MSHR_MERGE:          0
cpu0->cpu0_L2C PREFETCH     ACCESS:   32257432 HIT:    2044251 MISS:   30213181 MSHR_MERGE:   23827048
cpu0->cpu0_L2C WRITE        ACCESS:      18943 HIT:      16543 MISS:       2400 MSHR_MERGE:          0
cpu0->cpu0_L2C TRANSLATION  ACCESS:      15610 HIT:        257 MISS:      15353 MSHR_MERGE:          0
cpu0->cpu0_L2C PREFETCH REQUESTED:   34911500 ISSUED:   32242391 USEFUL:    6361180 USELESS:      11909
cpu0->cpu0_L2C AVERAGE MISS LATENCY: 130.3 cycles
cpu0->cpu0_L1I TOTAL        ACCESS:   22326133 HIT:   22326119 MISS:         14 MSHR_MERGE:          1
cpu0->cpu0_L1I LOAD         ACCESS:   22326133 HIT:   22326119 MISS:         14 MSHR_MERGE:          1
cpu0->cpu0_L1I RFO          ACCESS:          0 HIT:          0 MISS:          0 MSHR_MERGE:          0
cpu0->cpu0_L1I PREFETCH     ACCESS:          0 HIT:          0 MISS:          0 MSHR_MERGE:          0
cpu0->cpu0_L1I WRITE        ACCESS:          0 HIT:          0 MISS:          0 MSHR_MERGE:          0
cpu0->cpu0_L1I TRANSLATION  ACCESS:          0 HIT:          0 MISS:          0 MSHR_MERGE:          0
cpu0->cpu0_L1I PREFETCH REQUESTED:          0 ISSUED:          0 USEFUL:          0 USELESS:          0
cpu0->cpu0_L1I AVERAGE MISS LATENCY: 292.8 cycles
cpu0->cpu0_L1D TOTAL        ACCESS:   37649859 HIT:   19874624 MISS:   17775235 MSHR_MERGE:   10792220
cpu0->cpu0_L1D LOAD         ACCESS:   37126356 HIT:   19396493 MISS:   17729863 MSHR_MERGE:   10791247
cpu0->cpu0_L1D RFO          ACCESS:          0 HIT:          0 MISS:          0 MSHR_MERGE:          0
cpu0->cpu0_L1D PREFETCH     ACCESS:      15415 HIT:         59 MISS:      15356 MSHR_MERGE:        312
cpu0->cpu0_L1D WRITE        ACCESS:     286728 HIT:     272451 MISS:      14277 MSHR_MERGE:        532
cpu0->cpu0_L1D TRANSLATION  ACCESS:     221360 HIT:     205621 MISS:      15739 MSHR_MERGE:        129
cpu0->cpu0_L1D PREFETCH REQUESTED:      17540 ISSUED:      15415 USEFUL:       3183 USELESS:      11861
cpu0->cpu0_L1D AVERAGE MISS LATENCY: 121.6 cycles
cpu0->cpu0_ITLB TOTAL        ACCESS:   20478973 HIT:   20478972 MISS:          1 MSHR_MERGE:          0
cpu0->cpu0_ITLB LOAD         ACCESS:   20478973 HIT:   20478972 MISS:          1 MSHR_MERGE:          0
cpu0->cpu0_ITLB RFO          ACCESS:          0 HIT:          0 MISS:          0 MSHR_MERGE:          0
cpu0->cpu0_ITLB PREFETCH     ACCESS:          0 HIT:          0 MISS:          0 MSHR_MERGE:          0
cpu0->cpu0_ITLB WRITE        ACCESS:          0 HIT:          0 MISS:          0 MSHR_MERGE:          0
cpu0->cpu0_ITLB TRANSLATION  ACCESS:          0 HIT:          0 MISS:          0 MSHR_MERGE:          0
cpu0->cpu0_ITLB PREFETCH REQUESTED:          0 ISSUED:          0 USEFUL:          0 USELESS:          0
cpu0->cpu0_ITLB AVERAGE MISS LATENCY: 644 cycles
cpu0->cpu0_DTLB TOTAL        ACCESS:   37383634 HIT:   36768302 MISS:     615332 MSHR_MERGE:     504274
cpu0->cpu0_DTLB LOAD         ACCESS:   37383634 HIT:   36768302 MISS:     615332 MSHR_MERGE:     504274
cpu0->cpu0_DTLB RFO          ACCESS:          0 HIT:          0 MISS:          0 MSHR_MERGE:          0
cpu0->cpu0_DTLB PREFETCH     ACCESS:          0 HIT:          0 MISS:          0 MSHR_MERGE:          0
cpu0->cpu0_DTLB WRITE        ACCESS:          0 HIT:          0 MISS:          0 MSHR_MERGE:          0
cpu0->cpu0_DTLB TRANSLATION  ACCESS:          0 HIT:          0 MISS:          0 MSHR_MERGE:          0
cpu0->cpu0_DTLB PREFETCH REQUESTED:          0 ISSUED:          0 USEFUL:          0 USELESS:          0
cpu0->cpu0_DTLB AVERAGE MISS LATENCY: 76.12 cycles
cpu0->LLC TOTAL        ACCESS:    7485372 HIT:     126617 MISS:    7358755 MSHR_MERGE:     448759
cpu0->LLC LOAD         ACCESS:     573945 HIT:      16029 MISS:     557916 MSHR_MERGE:      23397
cpu0->LLC RFO          ACCESS:      12208 HIT:       6068 MISS:       6140 MSHR_MERGE:          0
cpu0->LLC PREFETCH     ACCESS:    6867129 HIT:      92666 MISS:    6774463 MSHR_MERGE:     425362
cpu0->LLC WRITE        ACCESS:      16737 HIT:      11689 MISS:       5048 MSHR_MERGE:          0
cpu0->LLC TRANSLATION  ACCESS:      15353 HIT:        165 MISS:      15188 MSHR_MERGE:          0
cpu0->LLC PREFETCH REQUESTED:     480998 ISSUED:     480998 USEFUL:      42358 USELESS:      51451
cpu0->LLC AVERAGE MISS LATENCY: 217.6 cycles

DRAM Statistics

Channel 0 RQ ROW_BUFFER_HIT:    2754289
  ROW_BUFFER_MISS:    4150437
  AVG DBUS CONGESTED CYCLE: 11.06
Channel 0 WQ ROW_BUFFER_HIT:        856
  ROW_BUFFER_MISS:       4034
  FULL:          0
Channel 0 REFRESHES ISSUED:      12542
