[VMEM] WARNING: physical memory size is smaller than virtual memory size.

*** ChampSim Multicore Out-of-Order Simulator ***
Warmup Instructions: 50000000
Simulation Instructions: 200000000
Number of CPUs: 1
Page size: 4096
Core 0: /local-ssd/ben/dpc4-traces/Graph/GAP/cc-5.trace.gz
CMC Prefetcher Initialized
Off-chip DRAM Size: 64 GiB Channels: 1 Width: 64-bit Data Rate: 4807 MT/s
Heartbeat CPU 0 instructions: 500004 cycles: 151360 heartbeat IPC: 3.303 cumulative IPC: 3.303 (Simulation time: 00 hr 00 min 02 sec)
Heartbeat CPU 0 instructions: 1000005 cycles: 299075 heartbeat IPC: 3.385 cumulative IPC: 3.344 (Simulation time: 00 hr 00 min 03 sec)
Heartbeat CPU 0 instructions: 1500005 cycles: 446636 heartbeat IPC: 3.388 cumulative IPC: 3.358 (Simulation time: 00 hr 00 min 04 sec)
Heartbeat CPU 0 instructions: 2000010 cycles: 556936 heartbeat IPC: 4.533 cumulative IPC: 3.591 (Simulation time: 00 hr 00 min 06 sec)
Heartbeat CPU 0 instructions: 2500017 cycles: 659893 heartbeat IPC: 4.856 cumulative IPC: 3.789 (Simulation time: 00 hr 00 min 07 sec)
Heartbeat CPU 0 instructions: 3000022 cycles: 763000 heartbeat IPC: 4.849 cumulative IPC: 3.932 (Simulation time: 00 hr 00 min 09 sec)
Heartbeat CPU 0 instructions: 3500026 cycles: 866406 heartbeat IPC: 4.835 cumulative IPC: 4.04 (Simulation time: 00 hr 00 min 11 sec)
Heartbeat CPU 0 instructions: 4000031 cycles: 969439 heartbeat IPC: 4.853 cumulative IPC: 4.126 (Simulation time: 00 hr 00 min 12 sec)
Heartbeat CPU 0 instructions: 4500032 cycles: 1072674 heartbeat IPC: 4.843 cumulative IPC: 4.195 (Simulation time: 00 hr 00 min 14 sec)
Heartbeat CPU 0 instructions: 5000035 cycles: 1175932 heartbeat IPC: 4.842 cumulative IPC: 4.252 (Simulation time: 00 hr 00 min 16 sec)
Heartbeat CPU 0 instructions: 5500038 cycles: 1279400 heartbeat IPC: 4.832 cumulative IPC: 4.299 (Simulation time: 00 hr 00 min 18 sec)
Heartbeat CPU 0 instructions: 6000044 cycles: 1382754 heartbeat IPC: 4.838 cumulative IPC: 4.339 (Simulation time: 00 hr 00 min 19 sec)
Heartbeat CPU 0 instructions: 6500048 cycles: 1486140 heartbeat IPC: 4.836 cumulative IPC: 4.374 (Simulation time: 00 hr 00 min 21 sec)
Heartbeat CPU 0 instructions: 7000055 cycles: 1589491 heartbeat IPC: 4.838 cumulative IPC: 4.404 (Simulation time: 00 hr 00 min 23 sec)
Heartbeat CPU 0 instructions: 7500057 cycles: 1692955 heartbeat IPC: 4.833 cumulative IPC: 4.43 (Simulation time: 00 hr 00 min 24 sec)
Heartbeat CPU 0 instructions: 8000060 cycles: 1796335 heartbeat IPC: 4.837 cumulative IPC: 4.454 (Simulation time: 00 hr 00 min 26 sec)
Heartbeat CPU 0 instructions: 8500062 cycles: 1899686 heartbeat IPC: 4.838 cumulative IPC: 4.474 (Simulation time: 00 hr 00 min 28 sec)
Heartbeat CPU 0 instructions: 9000067 cycles: 2003165 heartbeat IPC: 4.832 cumulative IPC: 4.493 (Simulation time: 00 hr 00 min 30 sec)
Heartbeat CPU 0 instructions: 9500073 cycles: 2106639 heartbeat IPC: 4.832 cumulative IPC: 4.51 (Simulation time: 00 hr 00 min 31 sec)
Heartbeat CPU 0 instructions: 10000074 cycles: 2209982 heartbeat IPC: 4.838 cumulative IPC: 4.525 (Simulation time: 00 hr 00 min 33 sec)
Heartbeat CPU 0 instructions: 10500080 cycles: 2313439 heartbeat IPC: 4.833 cumulative IPC: 4.539 (Simulation time: 00 hr 00 min 35 sec)
Heartbeat CPU 0 instructions: 11000082 cycles: 2417026 heartbeat IPC: 4.827 cumulative IPC: 4.551 (Simulation time: 00 hr 00 min 37 sec)
Heartbeat CPU 0 instructions: 11500083 cycles: 2520379 heartbeat IPC: 4.838 cumulative IPC: 4.563 (Simulation time: 00 hr 00 min 38 sec)
Heartbeat CPU 0 instructions: 12000090 cycles: 2623877 heartbeat IPC: 4.831 cumulative IPC: 4.573 (Simulation time: 00 hr 00 min 40 sec)
Heartbeat CPU 0 instructions: 12500095 cycles: 2727223 heartbeat IPC: 4.838 cumulative IPC: 4.583 (Simulation time: 00 hr 00 min 42 sec)
Heartbeat CPU 0 instructions: 13000095 cycles: 2830818 heartbeat IPC: 4.826 cumulative IPC: 4.592 (Simulation time: 00 hr 00 min 44 sec)
Heartbeat CPU 0 instructions: 13500098 cycles: 2934194 heartbeat IPC: 4.837 cumulative IPC: 4.601 (Simulation time: 00 hr 00 min 45 sec)
Heartbeat CPU 0 instructions: 14000100 cycles: 3037871 heartbeat IPC: 4.823 cumulative IPC: 4.609 (Simulation time: 00 hr 00 min 47 sec)
Heartbeat CPU 0 instructions: 14500100 cycles: 3141230 heartbeat IPC: 4.838 cumulative IPC: 4.616 (Simulation time: 00 hr 00 min 49 sec)
Heartbeat CPU 0 instructions: 15000105 cycles: 3244699 heartbeat IPC: 4.832 cumulative IPC: 4.623 (Simulation time: 00 hr 00 min 51 sec)
Heartbeat CPU 0 instructions: 15500107 cycles: 3348154 heartbeat IPC: 4.833 cumulative IPC: 4.629 (Simulation time: 00 hr 00 min 52 sec)
Heartbeat CPU 0 instructions: 16000113 cycles: 3451536 heartbeat IPC: 4.836 cumulative IPC: 4.636 (Simulation time: 00 hr 00 min 54 sec)
Heartbeat CPU 0 instructions: 16500113 cycles: 3555004 heartbeat IPC: 4.832 cumulative IPC: 4.641 (Simulation time: 00 hr 00 min 56 sec)
Heartbeat CPU 0 instructions: 17000113 cycles: 3658504 heartbeat IPC: 4.831 cumulative IPC: 4.647 (Simulation time: 00 hr 00 min 58 sec)
Heartbeat CPU 0 instructions: 17500118 cycles: 3761982 heartbeat IPC: 4.832 cumulative IPC: 4.652 (Simulation time: 00 hr 00 min 59 sec)
Heartbeat CPU 0 instructions: 18000124 cycles: 3865474 heartbeat IPC: 4.831 cumulative IPC: 4.657 (Simulation time: 00 hr 01 min 01 sec)
Heartbeat CPU 0 instructions: 18500126 cycles: 3969041 heartbeat IPC: 4.828 cumulative IPC: 4.661 (Simulation time: 00 hr 01 min 03 sec)
Heartbeat CPU 0 instructions: 19000126 cycles: 4072400 heartbeat IPC: 4.838 cumulative IPC: 4.666 (Simulation time: 00 hr 01 min 05 sec)
Heartbeat CPU 0 instructions: 19500132 cycles: 4176039 heartbeat IPC: 4.824 cumulative IPC: 4.67 (Simulation time: 00 hr 01 min 07 sec)
Heartbeat CPU 0 instructions: 20000137 cycles: 4279522 heartbeat IPC: 4.832 cumulative IPC: 4.673 (Simulation time: 00 hr 01 min 08 sec)
Heartbeat CPU 0 instructions: 20500139 cycles: 4383028 heartbeat IPC: 4.831 cumulative IPC: 4.677 (Simulation time: 00 hr 01 min 10 sec)
Heartbeat CPU 0 instructions: 21000139 cycles: 4486636 heartbeat IPC: 4.826 cumulative IPC: 4.681 (Simulation time: 00 hr 01 min 12 sec)
Heartbeat CPU 0 instructions: 21500146 cycles: 4590244 heartbeat IPC: 4.826 cumulative IPC: 4.684 (Simulation time: 00 hr 01 min 14 sec)
Heartbeat CPU 0 instructions: 22000147 cycles: 4694054 heartbeat IPC: 4.817 cumulative IPC: 4.687 (Simulation time: 00 hr 01 min 16 sec)
Heartbeat CPU 0 instructions: 22500151 cycles: 4797670 heartbeat IPC: 4.826 cumulative IPC: 4.69 (Simulation time: 00 hr 01 min 17 sec)
Heartbeat CPU 0 instructions: 23000154 cycles: 4901137 heartbeat IPC: 4.832 cumulative IPC: 4.693 (Simulation time: 00 hr 01 min 19 sec)
Heartbeat CPU 0 instructions: 23500157 cycles: 5004738 heartbeat IPC: 4.826 cumulative IPC: 4.696 (Simulation time: 00 hr 01 min 21 sec)
Heartbeat CPU 0 instructions: 24000160 cycles: 5108326 heartbeat IPC: 4.827 cumulative IPC: 4.698 (Simulation time: 00 hr 01 min 23 sec)
Heartbeat CPU 0 instructions: 24500163 cycles: 5211689 heartbeat IPC: 4.837 cumulative IPC: 4.701 (Simulation time: 00 hr 01 min 25 sec)
Heartbeat CPU 0 instructions: 25000165 cycles: 5315254 heartbeat IPC: 4.828 cumulative IPC: 4.703 (Simulation time: 00 hr 01 min 26 sec)
Heartbeat CPU 0 instructions: 25500169 cycles: 5418873 heartbeat IPC: 4.825 cumulative IPC: 4.706 (Simulation time: 00 hr 01 min 28 sec)
Heartbeat CPU 0 instructions: 26000176 cycles: 5522332 heartbeat IPC: 4.833 cumulative IPC: 4.708 (Simulation time: 00 hr 01 min 30 sec)
Heartbeat CPU 0 instructions: 26500178 cycles: 5625934 heartbeat IPC: 4.826 cumulative IPC: 4.71 (Simulation time: 00 hr 01 min 32 sec)
Heartbeat CPU 0 instructions: 27000182 cycles: 5729439 heartbeat IPC: 4.831 cumulative IPC: 4.713 (Simulation time: 00 hr 01 min 34 sec)
Heartbeat CPU 0 instructions: 27500183 cycles: 5833258 heartbeat IPC: 4.816 cumulative IPC: 4.714 (Simulation time: 00 hr 01 min 35 sec)
Heartbeat CPU 0 instructions: 28000183 cycles: 5936837 heartbeat IPC: 4.827 cumulative IPC: 4.716 (Simulation time: 00 hr 01 min 37 sec)
Heartbeat CPU 0 instructions: 28500187 cycles: 6040439 heartbeat IPC: 4.826 cumulative IPC: 4.718 (Simulation time: 00 hr 01 min 39 sec)
Heartbeat CPU 0 instructions: 29000191 cycles: 6143906 heartbeat IPC: 4.832 cumulative IPC: 4.72 (Simulation time: 00 hr 01 min 41 sec)
Heartbeat CPU 0 instructions: 29500191 cycles: 6247583 heartbeat IPC: 4.823 cumulative IPC: 4.722 (Simulation time: 00 hr 01 min 43 sec)
Heartbeat CPU 0 instructions: 30000196 cycles: 6351202 heartbeat IPC: 4.825 cumulative IPC: 4.724 (Simulation time: 00 hr 01 min 44 sec)
Heartbeat CPU 0 instructions: 30500199 cycles: 6454874 heartbeat IPC: 4.823 cumulative IPC: 4.725 (Simulation time: 00 hr 01 min 46 sec)
Heartbeat CPU 0 instructions: 31000206 cycles: 6558437 heartbeat IPC: 4.828 cumulative IPC: 4.727 (Simulation time: 00 hr 01 min 48 sec)
Heartbeat CPU 0 instructions: 31500210 cycles: 6662010 heartbeat IPC: 4.828 cumulative IPC: 4.728 (Simulation time: 00 hr 01 min 50 sec)
Heartbeat CPU 0 instructions: 32000212 cycles: 6765522 heartbeat IPC: 4.83 cumulative IPC: 4.73 (Simulation time: 00 hr 01 min 52 sec)
Heartbeat CPU 0 instructions: 32500217 cycles: 6869197 heartbeat IPC: 4.823 cumulative IPC: 4.731 (Simulation time: 00 hr 01 min 53 sec)
Heartbeat CPU 0 instructions: 33000217 cycles: 6972677 heartbeat IPC: 4.832 cumulative IPC: 4.733 (Simulation time: 00 hr 01 min 55 sec)
Heartbeat CPU 0 instructions: 33500221 cycles: 7076393 heartbeat IPC: 4.821 cumulative IPC: 4.734 (Simulation time: 00 hr 01 min 57 sec)
Heartbeat CPU 0 instructions: 34000222 cycles: 7179887 heartbeat IPC: 4.831 cumulative IPC: 4.735 (Simulation time: 00 hr 01 min 59 sec)
Heartbeat CPU 0 instructions: 34500228 cycles: 7283473 heartbeat IPC: 4.827 cumulative IPC: 4.737 (Simulation time: 00 hr 02 min 01 sec)
Heartbeat CPU 0 instructions: 35000231 cycles: 7386995 heartbeat IPC: 4.83 cumulative IPC: 4.738 (Simulation time: 00 hr 02 min 02 sec)
Heartbeat CPU 0 instructions: 35500237 cycles: 7490576 heartbeat IPC: 4.827 cumulative IPC: 4.739 (Simulation time: 00 hr 02 min 04 sec)
Heartbeat CPU 0 instructions: 36000240 cycles: 7593935 heartbeat IPC: 4.838 cumulative IPC: 4.741 (Simulation time: 00 hr 02 min 06 sec)
Heartbeat CPU 0 instructions: 36500243 cycles: 7697674 heartbeat IPC: 4.82 cumulative IPC: 4.742 (Simulation time: 00 hr 02 min 08 sec)
Heartbeat CPU 0 instructions: 37000249 cycles: 7801250 heartbeat IPC: 4.827 cumulative IPC: 4.743 (Simulation time: 00 hr 02 min 10 sec)
Heartbeat CPU 0 instructions: 37500249 cycles: 7904752 heartbeat IPC: 4.831 cumulative IPC: 4.744 (Simulation time: 00 hr 02 min 11 sec)
Heartbeat CPU 0 instructions: 38000251 cycles: 8008355 heartbeat IPC: 4.826 cumulative IPC: 4.745 (Simulation time: 00 hr 02 min 13 sec)
Heartbeat CPU 0 instructions: 38500257 cycles: 8112113 heartbeat IPC: 4.819 cumulative IPC: 4.746 (Simulation time: 00 hr 02 min 15 sec)
Heartbeat CPU 0 instructions: 39000259 cycles: 8215507 heartbeat IPC: 4.836 cumulative IPC: 4.747 (Simulation time: 00 hr 02 min 17 sec)
Heartbeat CPU 0 instructions: 39500259 cycles: 8319183 heartbeat IPC: 4.823 cumulative IPC: 4.748 (Simulation time: 00 hr 02 min 19 sec)
Heartbeat CPU 0 instructions: 40000264 cycles: 8422555 heartbeat IPC: 4.837 cumulative IPC: 4.749 (Simulation time: 00 hr 02 min 20 sec)
Heartbeat CPU 0 instructions: 40500264 cycles: 8526169 heartbeat IPC: 4.826 cumulative IPC: 4.75 (Simulation time: 00 hr 02 min 22 sec)
Heartbeat CPU 0 instructions: 41000264 cycles: 8629890 heartbeat IPC: 4.821 cumulative IPC: 4.751 (Simulation time: 00 hr 02 min 24 sec)
Heartbeat CPU 0 instructions: 41500268 cycles: 8733562 heartbeat IPC: 4.823 cumulative IPC: 4.752 (Simulation time: 00 hr 02 min 26 sec)
Heartbeat CPU 0 instructions: 42000275 cycles: 8837062 heartbeat IPC: 4.831 cumulative IPC: 4.753 (Simulation time: 00 hr 02 min 28 sec)
Heartbeat CPU 0 instructions: 42500278 cycles: 8940712 heartbeat IPC: 4.824 cumulative IPC: 4.754 (Simulation time: 00 hr 02 min 29 sec)
Heartbeat CPU 0 instructions: 43000279 cycles: 9044261 heartbeat IPC: 4.829 cumulative IPC: 4.754 (Simulation time: 00 hr 02 min 31 sec)
Heartbeat CPU 0 instructions: 43500282 cycles: 9147615 heartbeat IPC: 4.838 cumulative IPC: 4.755 (Simulation time: 00 hr 02 min 33 sec)
Heartbeat CPU 0 instructions: 44000287 cycles: 9250991 heartbeat IPC: 4.837 cumulative IPC: 4.756 (Simulation time: 00 hr 02 min 35 sec)
Heartbeat CPU 0 instructions: 44500290 cycles: 9354591 heartbeat IPC: 4.826 cumulative IPC: 4.757 (Simulation time: 00 hr 02 min 37 sec)
Heartbeat CPU 0 instructions: 45000293 cycles: 9458113 heartbeat IPC: 4.83 cumulative IPC: 4.758 (Simulation time: 00 hr 02 min 38 sec)
Heartbeat CPU 0 instructions: 45500299 cycles: 9561928 heartbeat IPC: 4.816 cumulative IPC: 4.758 (Simulation time: 00 hr 02 min 40 sec)
Heartbeat CPU 0 instructions: 46000306 cycles: 9665223 heartbeat IPC: 4.841 cumulative IPC: 4.759 (Simulation time: 00 hr 02 min 42 sec)
Heartbeat CPU 0 instructions: 46500309 cycles: 9768803 heartbeat IPC: 4.827 cumulative IPC: 4.76 (Simulation time: 00 hr 02 min 44 sec)
Heartbeat CPU 0 instructions: 47000315 cycles: 9872421 heartbeat IPC: 4.825 cumulative IPC: 4.761 (Simulation time: 00 hr 02 min 46 sec)
Heartbeat CPU 0 instructions: 47500318 cycles: 9976055 heartbeat IPC: 4.825 cumulative IPC: 4.761 (Simulation time: 00 hr 02 min 47 sec)
Heartbeat CPU 0 instructions: 48000319 cycles: 10079545 heartbeat IPC: 4.831 cumulative IPC: 4.762 (Simulation time: 00 hr 02 min 49 sec)
Heartbeat CPU 0 instructions: 48500321 cycles: 10183040 heartbeat IPC: 4.831 cumulative IPC: 4.763 (Simulation time: 00 hr 02 min 51 sec)
Heartbeat CPU 0 instructions: 49000323 cycles: 10286868 heartbeat IPC: 4.816 cumulative IPC: 4.763 (Simulation time: 00 hr 02 min 53 sec)
Heartbeat CPU 0 instructions: 49500325 cycles: 10390423 heartbeat IPC: 4.828 cumulative IPC: 4.764 (Simulation time: 00 hr 02 min 55 sec)
Warmup halting CPU 0 at instruction 50000005 cycle 10493850 for remainder of phase
Warmup finished CPU 0 instructions: 50000005 cycles: 10493850 cumulative IPC: 4.765 (Simulation time: 00 hr 02 min 56 sec)
Warmup complete CPU 0 instructions: 50000005 cycles: 10493850 cumulative IPC: 4.765 (Simulation time: 00 hr 02 min 56 sec)
Heartbeat CPU 0 instructions: 50000326 cycles: 10494125 heartbeat IPC: 4.822 cumulative IPC: 1.167 (Simulation time: 00 hr 02 min 56 sec)
Heartbeat CPU 0 instructions: 50500327 cycles: 11571615 heartbeat IPC: 0.464 cumulative IPC: 0.4642 (Simulation time: 00 hr 03 min 04 sec)
Heartbeat CPU 0 instructions: 51000327 cycles: 12470008 heartbeat IPC: 0.5565 cumulative IPC: 0.5062 (Simulation time: 00 hr 03 min 11 sec)
Heartbeat CPU 0 instructions: 51500327 cycles: 13532398 heartbeat IPC: 0.4706 cumulative IPC: 0.4938 (Simulation time: 00 hr 03 min 19 sec)
Heartbeat CPU 0 instructions: 52000327 cycles: 14450168 heartbeat IPC: 0.5448 cumulative IPC: 0.5056 (Simulation time: 00 hr 03 min 27 sec)
Heartbeat CPU 0 instructions: 52500330 cycles: 15529264 heartbeat IPC: 0.4634 cumulative IPC: 0.4965 (Simulation time: 00 hr 03 min 34 sec)
Heartbeat CPU 0 instructions: 53000330 cycles: 16570131 heartbeat IPC: 0.4804 cumulative IPC: 0.4938 (Simulation time: 00 hr 03 min 42 sec)
Heartbeat CPU 0 instructions: 53500333 cycles: 17600936 heartbeat IPC: 0.4851 cumulative IPC: 0.4925 (Simulation time: 00 hr 03 min 50 sec)
Heartbeat CPU 0 instructions: 54000335 cycles: 18591950 heartbeat IPC: 0.5045 cumulative IPC: 0.494 (Simulation time: 00 hr 03 min 57 sec)
Heartbeat CPU 0 instructions: 54500337 cycles: 19687651 heartbeat IPC: 0.4563 cumulative IPC: 0.4895 (Simulation time: 00 hr 04 min 05 sec)
Heartbeat CPU 0 instructions: 55000338 cycles: 20788832 heartbeat IPC: 0.4541 cumulative IPC: 0.4857 (Simulation time: 00 hr 04 min 13 sec)
Heartbeat CPU 0 instructions: 55500339 cycles: 21810386 heartbeat IPC: 0.4895 cumulative IPC: 0.486 (Simulation time: 00 hr 04 min 20 sec)
Heartbeat CPU 0 instructions: 56000340 cycles: 22753884 heartbeat IPC: 0.5299 cumulative IPC: 0.4894 (Simulation time: 00 hr 04 min 28 sec)
Heartbeat CPU 0 instructions: 56500342 cycles: 23694003 heartbeat IPC: 0.5318 cumulative IPC: 0.4924 (Simulation time: 00 hr 04 min 35 sec)
Heartbeat CPU 0 instructions: 57000342 cycles: 24697611 heartbeat IPC: 0.4982 cumulative IPC: 0.4929 (Simulation time: 00 hr 04 min 42 sec)
Heartbeat CPU 0 instructions: 57500343 cycles: 25691334 heartbeat IPC: 0.5032 cumulative IPC: 0.4935 (Simulation time: 00 hr 04 min 50 sec)
Heartbeat CPU 0 instructions: 58000344 cycles: 26623575 heartbeat IPC: 0.5363 cumulative IPC: 0.496 (Simulation time: 00 hr 04 min 57 sec)
Heartbeat CPU 0 instructions: 58500344 cycles: 27615951 heartbeat IPC: 0.5038 cumulative IPC: 0.4965 (Simulation time: 00 hr 05 min 04 sec)
Heartbeat CPU 0 instructions: 59000348 cycles: 28625762 heartbeat IPC: 0.4951 cumulative IPC: 0.4964 (Simulation time: 00 hr 05 min 12 sec)
Heartbeat CPU 0 instructions: 59500353 cycles: 29566536 heartbeat IPC: 0.5315 cumulative IPC: 0.4981 (Simulation time: 00 hr 05 min 19 sec)
Heartbeat CPU 0 instructions: 60000353 cycles: 30518000 heartbeat IPC: 0.5255 cumulative IPC: 0.4994 (Simulation time: 00 hr 05 min 26 sec)
Heartbeat CPU 0 instructions: 60500356 cycles: 31438031 heartbeat IPC: 0.5435 cumulative IPC: 0.5013 (Simulation time: 00 hr 05 min 33 sec)
Heartbeat CPU 0 instructions: 61000357 cycles: 32435195 heartbeat IPC: 0.5014 cumulative IPC: 0.5014 (Simulation time: 00 hr 05 min 41 sec)
Heartbeat CPU 0 instructions: 61500363 cycles: 33433726 heartbeat IPC: 0.5007 cumulative IPC: 0.5013 (Simulation time: 00 hr 05 min 48 sec)
Heartbeat CPU 0 instructions: 62000369 cycles: 34517935 heartbeat IPC: 0.4612 cumulative IPC: 0.4995 (Simulation time: 00 hr 05 min 56 sec)
Heartbeat CPU 0 instructions: 62500373 cycles: 35576727 heartbeat IPC: 0.4722 cumulative IPC: 0.4984 (Simulation time: 00 hr 06 min 03 sec)
Heartbeat CPU 0 instructions: 63000376 cycles: 36420893 heartbeat IPC: 0.5923 cumulative IPC: 0.5014 (Simulation time: 00 hr 06 min 10 sec)
Heartbeat CPU 0 instructions: 63500377 cycles: 37400877 heartbeat IPC: 0.5102 cumulative IPC: 0.5017 (Simulation time: 00 hr 06 min 18 sec)
Heartbeat CPU 0 instructions: 64000381 cycles: 38281482 heartbeat IPC: 0.5678 cumulative IPC: 0.5038 (Simulation time: 00 hr 06 min 24 sec)
Heartbeat CPU 0 instructions: 64500383 cycles: 39212237 heartbeat IPC: 0.5372 cumulative IPC: 0.5049 (Simulation time: 00 hr 06 min 32 sec)
Heartbeat CPU 0 instructions: 65000386 cycles: 40185610 heartbeat IPC: 0.5137 cumulative IPC: 0.5052 (Simulation time: 00 hr 06 min 40 sec)
Heartbeat CPU 0 instructions: 65500387 cycles: 41220456 heartbeat IPC: 0.4832 cumulative IPC: 0.5045 (Simulation time: 00 hr 06 min 48 sec)
Heartbeat CPU 0 instructions: 66000390 cycles: 42203992 heartbeat IPC: 0.5084 cumulative IPC: 0.5046 (Simulation time: 00 hr 06 min 55 sec)
Heartbeat CPU 0 instructions: 66500390 cycles: 43248074 heartbeat IPC: 0.4789 cumulative IPC: 0.5038 (Simulation time: 00 hr 07 min 03 sec)
Heartbeat CPU 0 instructions: 67000390 cycles: 44265315 heartbeat IPC: 0.4915 cumulative IPC: 0.5034 (Simulation time: 00 hr 07 min 10 sec)
Heartbeat CPU 0 instructions: 67500390 cycles: 45222076 heartbeat IPC: 0.5226 cumulative IPC: 0.5039 (Simulation time: 00 hr 07 min 17 sec)
Heartbeat CPU 0 instructions: 68000391 cycles: 46308449 heartbeat IPC: 0.4602 cumulative IPC: 0.5026 (Simulation time: 00 hr 07 min 25 sec)
Heartbeat CPU 0 instructions: 68500393 cycles: 47273174 heartbeat IPC: 0.5183 cumulative IPC: 0.503 (Simulation time: 00 hr 07 min 32 sec)
Heartbeat CPU 0 instructions: 69000396 cycles: 48178139 heartbeat IPC: 0.5525 cumulative IPC: 0.5042 (Simulation time: 00 hr 07 min 39 sec)
Heartbeat CPU 0 instructions: 69500398 cycles: 49026055 heartbeat IPC: 0.5897 cumulative IPC: 0.5061 (Simulation time: 00 hr 07 min 46 sec)
Heartbeat CPU 0 instructions: 70000399 cycles: 50000630 heartbeat IPC: 0.513 cumulative IPC: 0.5063 (Simulation time: 00 hr 07 min 54 sec)
Heartbeat CPU 0 instructions: 70500401 cycles: 50949282 heartbeat IPC: 0.5271 cumulative IPC: 0.5067 (Simulation time: 00 hr 08 min 01 sec)
Heartbeat CPU 0 instructions: 71000402 cycles: 51947002 heartbeat IPC: 0.5011 cumulative IPC: 0.5066 (Simulation time: 00 hr 08 min 08 sec)
Heartbeat CPU 0 instructions: 71500404 cycles: 52920945 heartbeat IPC: 0.5134 cumulative IPC: 0.5068 (Simulation time: 00 hr 08 min 16 sec)
Heartbeat CPU 0 instructions: 72000404 cycles: 53990614 heartbeat IPC: 0.4674 cumulative IPC: 0.5058 (Simulation time: 00 hr 08 min 24 sec)
Heartbeat CPU 0 instructions: 72500409 cycles: 55070996 heartbeat IPC: 0.4628 cumulative IPC: 0.5048 (Simulation time: 00 hr 08 min 31 sec)
Heartbeat CPU 0 instructions: 73000409 cycles: 56055402 heartbeat IPC: 0.5079 cumulative IPC: 0.5048 (Simulation time: 00 hr 08 min 39 sec)
Heartbeat CPU 0 instructions: 73500409 cycles: 56995685 heartbeat IPC: 0.5318 cumulative IPC: 0.5054 (Simulation time: 00 hr 08 min 46 sec)
Heartbeat CPU 0 instructions: 74000409 cycles: 57942663 heartbeat IPC: 0.528 cumulative IPC: 0.5058 (Simulation time: 00 hr 08 min 53 sec)
Heartbeat CPU 0 instructions: 74500415 cycles: 58981454 heartbeat IPC: 0.4813 cumulative IPC: 0.5053 (Simulation time: 00 hr 09 min 01 sec)
Heartbeat CPU 0 instructions: 75000418 cycles: 59978306 heartbeat IPC: 0.5016 cumulative IPC: 0.5052 (Simulation time: 00 hr 09 min 08 sec)
Heartbeat CPU 0 instructions: 75500421 cycles: 60878616 heartbeat IPC: 0.5554 cumulative IPC: 0.5061 (Simulation time: 00 hr 09 min 15 sec)
Heartbeat CPU 0 instructions: 76000422 cycles: 61819236 heartbeat IPC: 0.5316 cumulative IPC: 0.5066 (Simulation time: 00 hr 09 min 22 sec)
Heartbeat CPU 0 instructions: 76500422 cycles: 62868586 heartbeat IPC: 0.4765 cumulative IPC: 0.506 (Simulation time: 00 hr 09 min 30 sec)
Heartbeat CPU 0 instructions: 77000425 cycles: 63797438 heartbeat IPC: 0.5383 cumulative IPC: 0.5065 (Simulation time: 00 hr 09 min 37 sec)
Heartbeat CPU 0 instructions: 77500425 cycles: 64717286 heartbeat IPC: 0.5436 cumulative IPC: 0.5072 (Simulation time: 00 hr 09 min 44 sec)
Heartbeat CPU 0 instructions: 78000425 cycles: 65915778 heartbeat IPC: 0.4172 cumulative IPC: 0.5052 (Simulation time: 00 hr 09 min 53 sec)
Heartbeat CPU 0 instructions: 78500429 cycles: 66894053 heartbeat IPC: 0.5111 cumulative IPC: 0.5053 (Simulation time: 00 hr 10 min 01 sec)
Heartbeat CPU 0 instructions: 79000430 cycles: 67919109 heartbeat IPC: 0.4878 cumulative IPC: 0.505 (Simulation time: 00 hr 10 min 08 sec)
Heartbeat CPU 0 instructions: 79500432 cycles: 68847528 heartbeat IPC: 0.5386 cumulative IPC: 0.5055 (Simulation time: 00 hr 10 min 15 sec)
Heartbeat CPU 0 instructions: 80000432 cycles: 69812050 heartbeat IPC: 0.5184 cumulative IPC: 0.5058 (Simulation time: 00 hr 10 min 22 sec)
Heartbeat CPU 0 instructions: 80500432 cycles: 70679418 heartbeat IPC: 0.5765 cumulative IPC: 0.5068 (Simulation time: 00 hr 10 min 29 sec)
Heartbeat CPU 0 instructions: 81000436 cycles: 71821551 heartbeat IPC: 0.4378 cumulative IPC: 0.5055 (Simulation time: 00 hr 10 min 37 sec)
Heartbeat CPU 0 instructions: 81500436 cycles: 72848878 heartbeat IPC: 0.4867 cumulative IPC: 0.5052 (Simulation time: 00 hr 10 min 45 sec)
Heartbeat CPU 0 instructions: 82000436 cycles: 73858514 heartbeat IPC: 0.4952 cumulative IPC: 0.505 (Simulation time: 00 hr 10 min 52 sec)
Heartbeat CPU 0 instructions: 82500438 cycles: 74792972 heartbeat IPC: 0.5351 cumulative IPC: 0.5055 (Simulation time: 00 hr 11 min 00 sec)
Heartbeat CPU 0 instructions: 83000438 cycles: 75760738 heartbeat IPC: 0.5167 cumulative IPC: 0.5056 (Simulation time: 00 hr 11 min 07 sec)
Heartbeat CPU 0 instructions: 83500439 cycles: 76653065 heartbeat IPC: 0.5603 cumulative IPC: 0.5064 (Simulation time: 00 hr 11 min 14 sec)
Heartbeat CPU 0 instructions: 84000443 cycles: 77608369 heartbeat IPC: 0.5234 cumulative IPC: 0.5066 (Simulation time: 00 hr 11 min 21 sec)
Heartbeat CPU 0 instructions: 84500449 cycles: 78656367 heartbeat IPC: 0.4771 cumulative IPC: 0.5061 (Simulation time: 00 hr 11 min 29 sec)
Heartbeat CPU 0 instructions: 85000449 cycles: 79591908 heartbeat IPC: 0.5345 cumulative IPC: 0.5065 (Simulation time: 00 hr 11 min 36 sec)
Heartbeat CPU 0 instructions: 85500454 cycles: 80557080 heartbeat IPC: 0.518 cumulative IPC: 0.5067 (Simulation time: 00 hr 11 min 43 sec)
Heartbeat CPU 0 instructions: 86000455 cycles: 81594680 heartbeat IPC: 0.4819 cumulative IPC: 0.5063 (Simulation time: 00 hr 11 min 51 sec)
Heartbeat CPU 0 instructions: 86500455 cycles: 82510702 heartbeat IPC: 0.5458 cumulative IPC: 0.5068 (Simulation time: 00 hr 11 min 58 sec)
Heartbeat CPU 0 instructions: 87000455 cycles: 83412392 heartbeat IPC: 0.5545 cumulative IPC: 0.5074 (Simulation time: 00 hr 12 min 05 sec)
Heartbeat CPU 0 instructions: 87500459 cycles: 84353355 heartbeat IPC: 0.5314 cumulative IPC: 0.5077 (Simulation time: 00 hr 12 min 12 sec)
Heartbeat CPU 0 instructions: 88000464 cycles: 85400557 heartbeat IPC: 0.4775 cumulative IPC: 0.5073 (Simulation time: 00 hr 12 min 20 sec)
Heartbeat CPU 0 instructions: 88500464 cycles: 86376062 heartbeat IPC: 0.5126 cumulative IPC: 0.5074 (Simulation time: 00 hr 12 min 27 sec)
Heartbeat CPU 0 instructions: 89000464 cycles: 87302731 heartbeat IPC: 0.5396 cumulative IPC: 0.5078 (Simulation time: 00 hr 12 min 34 sec)
Heartbeat CPU 0 instructions: 89500464 cycles: 88450389 heartbeat IPC: 0.4357 cumulative IPC: 0.5067 (Simulation time: 00 hr 12 min 42 sec)
Heartbeat CPU 0 instructions: 90000467 cycles: 89445916 heartbeat IPC: 0.5022 cumulative IPC: 0.5066 (Simulation time: 00 hr 12 min 50 sec)
Heartbeat CPU 0 instructions: 90500468 cycles: 90406396 heartbeat IPC: 0.5206 cumulative IPC: 0.5068 (Simulation time: 00 hr 12 min 57 sec)
Heartbeat CPU 0 instructions: 91000468 cycles: 91366872 heartbeat IPC: 0.5206 cumulative IPC: 0.507 (Simulation time: 00 hr 13 min 04 sec)
Heartbeat CPU 0 instructions: 91500471 cycles: 92270346 heartbeat IPC: 0.5534 cumulative IPC: 0.5075 (Simulation time: 00 hr 13 min 11 sec)
Heartbeat CPU 0 instructions: 92000471 cycles: 93144558 heartbeat IPC: 0.5719 cumulative IPC: 0.5082 (Simulation time: 00 hr 13 min 19 sec)
Heartbeat CPU 0 instructions: 92500472 cycles: 93947658 heartbeat IPC: 0.6226 cumulative IPC: 0.5093 (Simulation time: 00 hr 13 min 26 sec)
Heartbeat CPU 0 instructions: 93000472 cycles: 94894133 heartbeat IPC: 0.5283 cumulative IPC: 0.5095 (Simulation time: 00 hr 13 min 33 sec)
Heartbeat CPU 0 instructions: 93500472 cycles: 95917276 heartbeat IPC: 0.4887 cumulative IPC: 0.5092 (Simulation time: 00 hr 13 min 40 sec)
Heartbeat CPU 0 instructions: 94000474 cycles: 96971687 heartbeat IPC: 0.4742 cumulative IPC: 0.5088 (Simulation time: 00 hr 13 min 48 sec)
Heartbeat CPU 0 instructions: 94500476 cycles: 97887799 heartbeat IPC: 0.5458 cumulative IPC: 0.5092 (Simulation time: 00 hr 13 min 55 sec)
Heartbeat CPU 0 instructions: 95000478 cycles: 98874326 heartbeat IPC: 0.5068 cumulative IPC: 0.5092 (Simulation time: 00 hr 14 min 03 sec)
Heartbeat CPU 0 instructions: 95500480 cycles: 99771813 heartbeat IPC: 0.5571 cumulative IPC: 0.5096 (Simulation time: 00 hr 14 min 10 sec)
Heartbeat CPU 0 instructions: 96000480 cycles: 100748642 heartbeat IPC: 0.5119 cumulative IPC: 0.5097 (Simulation time: 00 hr 14 min 17 sec)
Heartbeat CPU 0 instructions: 96500482 cycles: 101687920 heartbeat IPC: 0.5323 cumulative IPC: 0.5099 (Simulation time: 00 hr 14 min 24 sec)
Heartbeat CPU 0 instructions: 97000484 cycles: 102704456 heartbeat IPC: 0.4919 cumulative IPC: 0.5097 (Simulation time: 00 hr 14 min 32 sec)
Heartbeat CPU 0 instructions: 97500484 cycles: 103622269 heartbeat IPC: 0.5448 cumulative IPC: 0.5101 (Simulation time: 00 hr 14 min 39 sec)
Heartbeat CPU 0 instructions: 98000486 cycles: 104620395 heartbeat IPC: 0.5009 cumulative IPC: 0.51 (Simulation time: 00 hr 14 min 46 sec)
Heartbeat CPU 0 instructions: 98500492 cycles: 105575770 heartbeat IPC: 0.5234 cumulative IPC: 0.5101 (Simulation time: 00 hr 14 min 53 sec)
Heartbeat CPU 0 instructions: 99000493 cycles: 106542110 heartbeat IPC: 0.5174 cumulative IPC: 0.5102 (Simulation time: 00 hr 15 min 01 sec)
Heartbeat CPU 0 instructions: 99500497 cycles: 107517304 heartbeat IPC: 0.5127 cumulative IPC: 0.5102 (Simulation time: 00 hr 15 min 08 sec)
Heartbeat CPU 0 instructions: 100000500 cycles: 108498660 heartbeat IPC: 0.5095 cumulative IPC: 0.5102 (Simulation time: 00 hr 15 min 16 sec)
Heartbeat CPU 0 instructions: 100500500 cycles: 109585552 heartbeat IPC: 0.46 cumulative IPC: 0.5096 (Simulation time: 00 hr 15 min 23 sec)
Heartbeat CPU 0 instructions: 101000500 cycles: 110545878 heartbeat IPC: 0.5207 cumulative IPC: 0.5097 (Simulation time: 00 hr 15 min 31 sec)
Heartbeat CPU 0 instructions: 101500502 cycles: 111479107 heartbeat IPC: 0.5358 cumulative IPC: 0.51 (Simulation time: 00 hr 15 min 38 sec)
Heartbeat CPU 0 instructions: 102000505 cycles: 112394963 heartbeat IPC: 0.5459 cumulative IPC: 0.5103 (Simulation time: 00 hr 15 min 45 sec)
Heartbeat CPU 0 instructions: 102500509 cycles: 113370328 heartbeat IPC: 0.5126 cumulative IPC: 0.5103 (Simulation time: 00 hr 15 min 52 sec)
Heartbeat CPU 0 instructions: 103000513 cycles: 114423077 heartbeat IPC: 0.475 cumulative IPC: 0.51 (Simulation time: 00 hr 16 min 00 sec)
Heartbeat CPU 0 instructions: 103500514 cycles: 115400836 heartbeat IPC: 0.5114 cumulative IPC: 0.51 (Simulation time: 00 hr 16 min 07 sec)
Heartbeat CPU 0 instructions: 104000520 cycles: 116294440 heartbeat IPC: 0.5595 cumulative IPC: 0.5104 (Simulation time: 00 hr 16 min 14 sec)
Heartbeat CPU 0 instructions: 104500524 cycles: 117298514 heartbeat IPC: 0.498 cumulative IPC: 0.5103 (Simulation time: 00 hr 16 min 22 sec)
Heartbeat CPU 0 instructions: 105000526 cycles: 118254973 heartbeat IPC: 0.5228 cumulative IPC: 0.5104 (Simulation time: 00 hr 16 min 29 sec)
Heartbeat CPU 0 instructions: 105500526 cycles: 119184554 heartbeat IPC: 0.5379 cumulative IPC: 0.5106 (Simulation time: 00 hr 16 min 36 sec)
Heartbeat CPU 0 instructions: 106000530 cycles: 120135402 heartbeat IPC: 0.5259 cumulative IPC: 0.5108 (Simulation time: 00 hr 16 min 44 sec)
Heartbeat CPU 0 instructions: 106500530 cycles: 121157350 heartbeat IPC: 0.4893 cumulative IPC: 0.5106 (Simulation time: 00 hr 16 min 51 sec)
Heartbeat CPU 0 instructions: 107000533 cycles: 122121038 heartbeat IPC: 0.5188 cumulative IPC: 0.5106 (Simulation time: 00 hr 16 min 58 sec)
Heartbeat CPU 0 instructions: 107500534 cycles: 123042646 heartbeat IPC: 0.5425 cumulative IPC: 0.5109 (Simulation time: 00 hr 17 min 05 sec)
Heartbeat CPU 0 instructions: 108000536 cycles: 123939414 heartbeat IPC: 0.5576 cumulative IPC: 0.5113 (Simulation time: 00 hr 17 min 12 sec)
Heartbeat CPU 0 instructions: 108500537 cycles: 124910745 heartbeat IPC: 0.5148 cumulative IPC: 0.5113 (Simulation time: 00 hr 17 min 20 sec)
Heartbeat CPU 0 instructions: 109000537 cycles: 125775800 heartbeat IPC: 0.578 cumulative IPC: 0.5118 (Simulation time: 00 hr 17 min 27 sec)
Heartbeat CPU 0 instructions: 109500538 cycles: 126780211 heartbeat IPC: 0.4978 cumulative IPC: 0.5117 (Simulation time: 00 hr 17 min 34 sec)
Heartbeat CPU 0 instructions: 110000541 cycles: 127670735 heartbeat IPC: 0.5615 cumulative IPC: 0.5121 (Simulation time: 00 hr 17 min 41 sec)
Heartbeat CPU 0 instructions: 110500545 cycles: 128623736 heartbeat IPC: 0.5247 cumulative IPC: 0.5122 (Simulation time: 00 hr 17 min 48 sec)
Heartbeat CPU 0 instructions: 111000546 cycles: 129562343 heartbeat IPC: 0.5327 cumulative IPC: 0.5123 (Simulation time: 00 hr 17 min 56 sec)
Heartbeat CPU 0 instructions: 111500552 cycles: 130551372 heartbeat IPC: 0.5056 cumulative IPC: 0.5123 (Simulation time: 00 hr 18 min 03 sec)
Heartbeat CPU 0 instructions: 112000552 cycles: 131594763 heartbeat IPC: 0.4792 cumulative IPC: 0.512 (Simulation time: 00 hr 18 min 11 sec)
Heartbeat CPU 0 instructions: 112500554 cycles: 132628021 heartbeat IPC: 0.4839 cumulative IPC: 0.5117 (Simulation time: 00 hr 18 min 18 sec)
Heartbeat CPU 0 instructions: 113000555 cycles: 133556781 heartbeat IPC: 0.5384 cumulative IPC: 0.5119 (Simulation time: 00 hr 18 min 25 sec)
Heartbeat CPU 0 instructions: 113500555 cycles: 134579136 heartbeat IPC: 0.4891 cumulative IPC: 0.5117 (Simulation time: 00 hr 18 min 33 sec)
Heartbeat CPU 0 instructions: 114000555 cycles: 135490979 heartbeat IPC: 0.5483 cumulative IPC: 0.512 (Simulation time: 00 hr 18 min 40 sec)
Heartbeat CPU 0 instructions: 114500556 cycles: 136485958 heartbeat IPC: 0.5025 cumulative IPC: 0.5119 (Simulation time: 00 hr 18 min 47 sec)
Heartbeat CPU 0 instructions: 115000556 cycles: 137499154 heartbeat IPC: 0.4935 cumulative IPC: 0.5118 (Simulation time: 00 hr 18 min 55 sec)
Heartbeat CPU 0 instructions: 115500559 cycles: 138427279 heartbeat IPC: 0.5387 cumulative IPC: 0.512 (Simulation time: 00 hr 19 min 02 sec)
Heartbeat CPU 0 instructions: 116000563 cycles: 139319456 heartbeat IPC: 0.5604 cumulative IPC: 0.5123 (Simulation time: 00 hr 19 min 08 sec)
Heartbeat CPU 0 instructions: 116500563 cycles: 140214277 heartbeat IPC: 0.5588 cumulative IPC: 0.5126 (Simulation time: 00 hr 19 min 15 sec)
Heartbeat CPU 0 instructions: 117000563 cycles: 141196662 heartbeat IPC: 0.509 cumulative IPC: 0.5126 (Simulation time: 00 hr 19 min 23 sec)
Heartbeat CPU 0 instructions: 117500563 cycles: 142109981 heartbeat IPC: 0.5475 cumulative IPC: 0.5129 (Simulation time: 00 hr 19 min 30 sec)
Heartbeat CPU 0 instructions: 118000566 cycles: 143048440 heartbeat IPC: 0.5328 cumulative IPC: 0.513 (Simulation time: 00 hr 19 min 37 sec)
Heartbeat CPU 0 instructions: 118500566 cycles: 143987357 heartbeat IPC: 0.5325 cumulative IPC: 0.5131 (Simulation time: 00 hr 19 min 44 sec)
Heartbeat CPU 0 instructions: 119000570 cycles: 144851875 heartbeat IPC: 0.5784 cumulative IPC: 0.5136 (Simulation time: 00 hr 19 min 50 sec)
Heartbeat CPU 0 instructions: 119500570 cycles: 145812536 heartbeat IPC: 0.5205 cumulative IPC: 0.5136 (Simulation time: 00 hr 19 min 58 sec)
Heartbeat CPU 0 instructions: 120000570 cycles: 146776914 heartbeat IPC: 0.5185 cumulative IPC: 0.5136 (Simulation time: 00 hr 20 min 05 sec)
Heartbeat CPU 0 instructions: 120500574 cycles: 147621066 heartbeat IPC: 0.5923 cumulative IPC: 0.5141 (Simulation time: 00 hr 20 min 12 sec)
Heartbeat CPU 0 instructions: 121000576 cycles: 148544944 heartbeat IPC: 0.5412 cumulative IPC: 0.5143 (Simulation time: 00 hr 20 min 19 sec)
Heartbeat CPU 0 instructions: 121500576 cycles: 149438999 heartbeat IPC: 0.5592 cumulative IPC: 0.5146 (Simulation time: 00 hr 20 min 26 sec)
Heartbeat CPU 0 instructions: 122000578 cycles: 150073811 heartbeat IPC: 0.7876 cumulative IPC: 0.5158 (Simulation time: 00 hr 20 min 31 sec)
Heartbeat CPU 0 instructions: 122500580 cycles: 150719377 heartbeat IPC: 0.7745 cumulative IPC: 0.517 (Simulation time: 00 hr 20 min 37 sec)
Heartbeat CPU 0 instructions: 123000584 cycles: 151660345 heartbeat IPC: 0.5314 cumulative IPC: 0.5171 (Simulation time: 00 hr 20 min 44 sec)
Heartbeat CPU 0 instructions: 123500584 cycles: 152651263 heartbeat IPC: 0.5046 cumulative IPC: 0.517 (Simulation time: 00 hr 20 min 51 sec)
Heartbeat CPU 0 instructions: 124000584 cycles: 153563987 heartbeat IPC: 0.5478 cumulative IPC: 0.5172 (Simulation time: 00 hr 20 min 58 sec)
Heartbeat CPU 0 instructions: 124500587 cycles: 154458955 heartbeat IPC: 0.5587 cumulative IPC: 0.5175 (Simulation time: 00 hr 21 min 05 sec)
Heartbeat CPU 0 instructions: 125000590 cycles: 155360895 heartbeat IPC: 0.5544 cumulative IPC: 0.5177 (Simulation time: 00 hr 21 min 12 sec)
Heartbeat CPU 0 instructions: 125500590 cycles: 156222417 heartbeat IPC: 0.5804 cumulative IPC: 0.5181 (Simulation time: 00 hr 21 min 19 sec)
Heartbeat CPU 0 instructions: 126000592 cycles: 157183726 heartbeat IPC: 0.5201 cumulative IPC: 0.5181 (Simulation time: 00 hr 21 min 26 sec)
Heartbeat CPU 0 instructions: 126500598 cycles: 158239844 heartbeat IPC: 0.4734 cumulative IPC: 0.5178 (Simulation time: 00 hr 21 min 34 sec)
Heartbeat CPU 0 instructions: 127000599 cycles: 159189507 heartbeat IPC: 0.5265 cumulative IPC: 0.5178 (Simulation time: 00 hr 21 min 41 sec)
Heartbeat CPU 0 instructions: 127500603 cycles: 160107393 heartbeat IPC: 0.5447 cumulative IPC: 0.518 (Simulation time: 00 hr 21 min 48 sec)
Heartbeat CPU 0 instructions: 128000607 cycles: 161029914 heartbeat IPC: 0.542 cumulative IPC: 0.5182 (Simulation time: 00 hr 21 min 54 sec)
Heartbeat CPU 0 instructions: 128500609 cycles: 161968894 heartbeat IPC: 0.5325 cumulative IPC: 0.5182 (Simulation time: 00 hr 22 min 01 sec)
Heartbeat CPU 0 instructions: 129000611 cycles: 162986651 heartbeat IPC: 0.4913 cumulative IPC: 0.5181 (Simulation time: 00 hr 22 min 09 sec)
Heartbeat CPU 0 instructions: 129500611 cycles: 163929612 heartbeat IPC: 0.5302 cumulative IPC: 0.5181 (Simulation time: 00 hr 22 min 16 sec)
Heartbeat CPU 0 instructions: 130000617 cycles: 164815646 heartbeat IPC: 0.5643 cumulative IPC: 0.5184 (Simulation time: 00 hr 22 min 22 sec)
Heartbeat CPU 0 instructions: 130500618 cycles: 165798559 heartbeat IPC: 0.5087 cumulative IPC: 0.5183 (Simulation time: 00 hr 22 min 29 sec)
Heartbeat CPU 0 instructions: 131000618 cycles: 166681351 heartbeat IPC: 0.5664 cumulative IPC: 0.5186 (Simulation time: 00 hr 22 min 36 sec)
Heartbeat CPU 0 instructions: 131500620 cycles: 167656263 heartbeat IPC: 0.5129 cumulative IPC: 0.5186 (Simulation time: 00 hr 22 min 43 sec)
Heartbeat CPU 0 instructions: 132000620 cycles: 168578467 heartbeat IPC: 0.5422 cumulative IPC: 0.5187 (Simulation time: 00 hr 22 min 50 sec)
Heartbeat CPU 0 instructions: 132500624 cycles: 169572777 heartbeat IPC: 0.5029 cumulative IPC: 0.5186 (Simulation time: 00 hr 22 min 57 sec)
Heartbeat CPU 0 instructions: 133000624 cycles: 170417532 heartbeat IPC: 0.5919 cumulative IPC: 0.519 (Simulation time: 00 hr 23 min 04 sec)
Heartbeat CPU 0 instructions: 133500624 cycles: 171382671 heartbeat IPC: 0.5181 cumulative IPC: 0.519 (Simulation time: 00 hr 23 min 11 sec)
Heartbeat CPU 0 instructions: 134000624 cycles: 172435327 heartbeat IPC: 0.475 cumulative IPC: 0.5187 (Simulation time: 00 hr 23 min 18 sec)
Heartbeat CPU 0 instructions: 134500625 cycles: 173442056 heartbeat IPC: 0.4967 cumulative IPC: 0.5186 (Simulation time: 00 hr 23 min 26 sec)
Heartbeat CPU 0 instructions: 135000631 cycles: 174473155 heartbeat IPC: 0.4849 cumulative IPC: 0.5184 (Simulation time: 00 hr 23 min 33 sec)
Heartbeat CPU 0 instructions: 135500632 cycles: 175345722 heartbeat IPC: 0.573 cumulative IPC: 0.5187 (Simulation time: 00 hr 23 min 39 sec)
Heartbeat CPU 0 instructions: 136000632 cycles: 176162075 heartbeat IPC: 0.6125 cumulative IPC: 0.5191 (Simulation time: 00 hr 23 min 46 sec)
Heartbeat CPU 0 instructions: 136500637 cycles: 177141265 heartbeat IPC: 0.5106 cumulative IPC: 0.5191 (Simulation time: 00 hr 23 min 53 sec)
Heartbeat CPU 0 instructions: 137000640 cycles: 178085944 heartbeat IPC: 0.5293 cumulative IPC: 0.5191 (Simulation time: 00 hr 23 min 59 sec)
Heartbeat CPU 0 instructions: 137500641 cycles: 179035139 heartbeat IPC: 0.5268 cumulative IPC: 0.5192 (Simulation time: 00 hr 24 min 06 sec)
Heartbeat CPU 0 instructions: 138000645 cycles: 179960544 heartbeat IPC: 0.5403 cumulative IPC: 0.5193 (Simulation time: 00 hr 24 min 13 sec)
Heartbeat CPU 0 instructions: 138500645 cycles: 180990739 heartbeat IPC: 0.4853 cumulative IPC: 0.5191 (Simulation time: 00 hr 24 min 20 sec)
Heartbeat CPU 0 instructions: 139000645 cycles: 181928613 heartbeat IPC: 0.5331 cumulative IPC: 0.5192 (Simulation time: 00 hr 24 min 27 sec)
Heartbeat CPU 0 instructions: 139500647 cycles: 182848816 heartbeat IPC: 0.5434 cumulative IPC: 0.5193 (Simulation time: 00 hr 24 min 34 sec)
Heartbeat CPU 0 instructions: 140000651 cycles: 183689146 heartbeat IPC: 0.595 cumulative IPC: 0.5196 (Simulation time: 00 hr 24 min 40 sec)
Heartbeat CPU 0 instructions: 140500651 cycles: 184703172 heartbeat IPC: 0.4931 cumulative IPC: 0.5195 (Simulation time: 00 hr 24 min 47 sec)
Heartbeat CPU 0 instructions: 141000651 cycles: 185591187 heartbeat IPC: 0.5631 cumulative IPC: 0.5197 (Simulation time: 00 hr 24 min 54 sec)
Heartbeat CPU 0 instructions: 141500651 cycles: 186512274 heartbeat IPC: 0.5428 cumulative IPC: 0.5198 (Simulation time: 00 hr 25 min 01 sec)
Heartbeat CPU 0 instructions: 142000651 cycles: 187394444 heartbeat IPC: 0.5668 cumulative IPC: 0.5201 (Simulation time: 00 hr 25 min 07 sec)
Heartbeat CPU 0 instructions: 142500657 cycles: 188260332 heartbeat IPC: 0.5774 cumulative IPC: 0.5203 (Simulation time: 00 hr 25 min 14 sec)
Heartbeat CPU 0 instructions: 143000657 cycles: 189184404 heartbeat IPC: 0.5411 cumulative IPC: 0.5205 (Simulation time: 00 hr 25 min 21 sec)
Heartbeat CPU 0 instructions: 143500660 cycles: 190076644 heartbeat IPC: 0.5604 cumulative IPC: 0.5207 (Simulation time: 00 hr 25 min 27 sec)
Heartbeat CPU 0 instructions: 144000664 cycles: 191008484 heartbeat IPC: 0.5366 cumulative IPC: 0.5207 (Simulation time: 00 hr 25 min 34 sec)
Heartbeat CPU 0 instructions: 144500664 cycles: 191961767 heartbeat IPC: 0.5245 cumulative IPC: 0.5208 (Simulation time: 00 hr 25 min 41 sec)
Heartbeat CPU 0 instructions: 145000670 cycles: 192843767 heartbeat IPC: 0.5669 cumulative IPC: 0.521 (Simulation time: 00 hr 25 min 47 sec)
Heartbeat CPU 0 instructions: 145500674 cycles: 193770245 heartbeat IPC: 0.5397 cumulative IPC: 0.5211 (Simulation time: 00 hr 25 min 54 sec)
Heartbeat CPU 0 instructions: 146000675 cycles: 194691894 heartbeat IPC: 0.5425 cumulative IPC: 0.5212 (Simulation time: 00 hr 26 min 01 sec)
Heartbeat CPU 0 instructions: 146500675 cycles: 195580984 heartbeat IPC: 0.5624 cumulative IPC: 0.5214 (Simulation time: 00 hr 26 min 07 sec)
Heartbeat CPU 0 instructions: 147000676 cycles: 196461562 heartbeat IPC: 0.5678 cumulative IPC: 0.5216 (Simulation time: 00 hr 26 min 14 sec)
Heartbeat CPU 0 instructions: 147500676 cycles: 197437796 heartbeat IPC: 0.5122 cumulative IPC: 0.5216 (Simulation time: 00 hr 26 min 21 sec)
Heartbeat CPU 0 instructions: 148000680 cycles: 198320650 heartbeat IPC: 0.5663 cumulative IPC: 0.5218 (Simulation time: 00 hr 26 min 27 sec)
Heartbeat CPU 0 instructions: 148500685 cycles: 199274287 heartbeat IPC: 0.5243 cumulative IPC: 0.5218 (Simulation time: 00 hr 26 min 34 sec)
Heartbeat CPU 0 instructions: 149000685 cycles: 200277330 heartbeat IPC: 0.4985 cumulative IPC: 0.5217 (Simulation time: 00 hr 26 min 41 sec)
Heartbeat CPU 0 instructions: 149500689 cycles: 201245866 heartbeat IPC: 0.5162 cumulative IPC: 0.5216 (Simulation time: 00 hr 26 min 48 sec)
Heartbeat CPU 0 instructions: 150000694 cycles: 202226595 heartbeat IPC: 0.5098 cumulative IPC: 0.5216 (Simulation time: 00 hr 26 min 55 sec)
Heartbeat CPU 0 instructions: 150500697 cycles: 203172830 heartbeat IPC: 0.5284 cumulative IPC: 0.5216 (Simulation time: 00 hr 27 min 01 sec)
Heartbeat CPU 0 instructions: 151000697 cycles: 204232375 heartbeat IPC: 0.4719 cumulative IPC: 0.5213 (Simulation time: 00 hr 27 min 09 sec)
Heartbeat CPU 0 instructions: 151500697 cycles: 205153065 heartbeat IPC: 0.5431 cumulative IPC: 0.5214 (Simulation time: 00 hr 27 min 15 sec)
Heartbeat CPU 0 instructions: 152000699 cycles: 206031112 heartbeat IPC: 0.5694 cumulative IPC: 0.5216 (Simulation time: 00 hr 27 min 21 sec)
Heartbeat CPU 0 instructions: 152500701 cycles: 207035079 heartbeat IPC: 0.498 cumulative IPC: 0.5215 (Simulation time: 00 hr 27 min 29 sec)
Heartbeat CPU 0 instructions: 153000701 cycles: 207922151 heartbeat IPC: 0.5637 cumulative IPC: 0.5217 (Simulation time: 00 hr 27 min 35 sec)
Heartbeat CPU 0 instructions: 153500701 cycles: 208971606 heartbeat IPC: 0.4764 cumulative IPC: 0.5215 (Simulation time: 00 hr 27 min 42 sec)
Heartbeat CPU 0 instructions: 154000704 cycles: 209965559 heartbeat IPC: 0.503 cumulative IPC: 0.5214 (Simulation time: 00 hr 27 min 49 sec)
Heartbeat CPU 0 instructions: 154500708 cycles: 210918463 heartbeat IPC: 0.5247 cumulative IPC: 0.5214 (Simulation time: 00 hr 27 min 55 sec)
Heartbeat CPU 0 instructions: 155000709 cycles: 211868311 heartbeat IPC: 0.5264 cumulative IPC: 0.5214 (Simulation time: 00 hr 28 min 02 sec)
Heartbeat CPU 0 instructions: 155500710 cycles: 212865608 heartbeat IPC: 0.5014 cumulative IPC: 0.5213 (Simulation time: 00 hr 28 min 09 sec)
Heartbeat CPU 0 instructions: 156000712 cycles: 213776604 heartbeat IPC: 0.5489 cumulative IPC: 0.5214 (Simulation time: 00 hr 28 min 15 sec)
Heartbeat CPU 0 instructions: 156500712 cycles: 214755395 heartbeat IPC: 0.5108 cumulative IPC: 0.5214 (Simulation time: 00 hr 28 min 22 sec)
Heartbeat CPU 0 instructions: 157000714 cycles: 215659355 heartbeat IPC: 0.5531 cumulative IPC: 0.5215 (Simulation time: 00 hr 28 min 28 sec)
Heartbeat CPU 0 instructions: 157500714 cycles: 216629305 heartbeat IPC: 0.5155 cumulative IPC: 0.5215 (Simulation time: 00 hr 28 min 35 sec)
Heartbeat CPU 0 instructions: 158000715 cycles: 217459178 heartbeat IPC: 0.6025 cumulative IPC: 0.5218 (Simulation time: 00 hr 28 min 41 sec)
Heartbeat CPU 0 instructions: 158500718 cycles: 218373449 heartbeat IPC: 0.5469 cumulative IPC: 0.5219 (Simulation time: 00 hr 28 min 48 sec)
Heartbeat CPU 0 instructions: 159000721 cycles: 219210396 heartbeat IPC: 0.5974 cumulative IPC: 0.5222 (Simulation time: 00 hr 28 min 54 sec)
Heartbeat CPU 0 instructions: 159500721 cycles: 220207138 heartbeat IPC: 0.5016 cumulative IPC: 0.5221 (Simulation time: 00 hr 29 min 01 sec)
Heartbeat CPU 0 instructions: 160000721 cycles: 221144866 heartbeat IPC: 0.5332 cumulative IPC: 0.5222 (Simulation time: 00 hr 29 min 07 sec)
Heartbeat CPU 0 instructions: 160500721 cycles: 222201920 heartbeat IPC: 0.473 cumulative IPC: 0.5219 (Simulation time: 00 hr 29 min 14 sec)
Heartbeat CPU 0 instructions: 161000721 cycles: 223164933 heartbeat IPC: 0.5192 cumulative IPC: 0.5219 (Simulation time: 00 hr 29 min 21 sec)
Heartbeat CPU 0 instructions: 161500721 cycles: 224188750 heartbeat IPC: 0.4884 cumulative IPC: 0.5218 (Simulation time: 00 hr 29 min 28 sec)
Heartbeat CPU 0 instructions: 162000723 cycles: 225156838 heartbeat IPC: 0.5165 cumulative IPC: 0.5218 (Simulation time: 00 hr 29 min 34 sec)
Heartbeat CPU 0 instructions: 162500723 cycles: 226098087 heartbeat IPC: 0.5312 cumulative IPC: 0.5218 (Simulation time: 00 hr 29 min 41 sec)
Heartbeat CPU 0 instructions: 163000723 cycles: 227014255 heartbeat IPC: 0.5458 cumulative IPC: 0.5219 (Simulation time: 00 hr 29 min 47 sec)
Heartbeat CPU 0 instructions: 163500724 cycles: 228006301 heartbeat IPC: 0.504 cumulative IPC: 0.5218 (Simulation time: 00 hr 29 min 54 sec)
Heartbeat CPU 0 instructions: 164000729 cycles: 229002210 heartbeat IPC: 0.5021 cumulative IPC: 0.5217 (Simulation time: 00 hr 30 min 01 sec)
Heartbeat CPU 0 instructions: 164500729 cycles: 229937674 heartbeat IPC: 0.5345 cumulative IPC: 0.5218 (Simulation time: 00 hr 30 min 07 sec)
Heartbeat CPU 0 instructions: 165000735 cycles: 230878199 heartbeat IPC: 0.5316 cumulative IPC: 0.5218 (Simulation time: 00 hr 30 min 14 sec)
Heartbeat CPU 0 instructions: 165500735 cycles: 231745062 heartbeat IPC: 0.5768 cumulative IPC: 0.522 (Simulation time: 00 hr 30 min 20 sec)
Heartbeat CPU 0 instructions: 166000737 cycles: 232594051 heartbeat IPC: 0.5889 cumulative IPC: 0.5223 (Simulation time: 00 hr 30 min 26 sec)
Heartbeat CPU 0 instructions: 166500737 cycles: 233591625 heartbeat IPC: 0.5012 cumulative IPC: 0.5222 (Simulation time: 00 hr 30 min 33 sec)
Heartbeat CPU 0 instructions: 167000737 cycles: 234522491 heartbeat IPC: 0.5371 cumulative IPC: 0.5223 (Simulation time: 00 hr 30 min 39 sec)
Heartbeat CPU 0 instructions: 167500739 cycles: 235472728 heartbeat IPC: 0.5262 cumulative IPC: 0.5223 (Simulation time: 00 hr 30 min 45 sec)
Heartbeat CPU 0 instructions: 168000739 cycles: 236334980 heartbeat IPC: 0.5799 cumulative IPC: 0.5225 (Simulation time: 00 hr 30 min 51 sec)
Heartbeat CPU 0 instructions: 168500741 cycles: 237236520 heartbeat IPC: 0.5546 cumulative IPC: 0.5226 (Simulation time: 00 hr 30 min 58 sec)
Heartbeat CPU 0 instructions: 169000744 cycles: 238150966 heartbeat IPC: 0.5468 cumulative IPC: 0.5227 (Simulation time: 00 hr 31 min 04 sec)
Heartbeat CPU 0 instructions: 169500746 cycles: 239137990 heartbeat IPC: 0.5066 cumulative IPC: 0.5226 (Simulation time: 00 hr 31 min 11 sec)
Heartbeat CPU 0 instructions: 170000749 cycles: 240057161 heartbeat IPC: 0.544 cumulative IPC: 0.5227 (Simulation time: 00 hr 31 min 17 sec)
Heartbeat CPU 0 instructions: 170500749 cycles: 241082344 heartbeat IPC: 0.4877 cumulative IPC: 0.5226 (Simulation time: 00 hr 31 min 24 sec)
Heartbeat CPU 0 instructions: 171000751 cycles: 241963883 heartbeat IPC: 0.5672 cumulative IPC: 0.5227 (Simulation time: 00 hr 31 min 30 sec)
Heartbeat CPU 0 instructions: 171500753 cycles: 242842061 heartbeat IPC: 0.5694 cumulative IPC: 0.5229 (Simulation time: 00 hr 31 min 36 sec)
Heartbeat CPU 0 instructions: 172000758 cycles: 243665850 heartbeat IPC: 0.607 cumulative IPC: 0.5232 (Simulation time: 00 hr 31 min 42 sec)
Heartbeat CPU 0 instructions: 172500762 cycles: 244733911 heartbeat IPC: 0.4681 cumulative IPC: 0.523 (Simulation time: 00 hr 31 min 49 sec)
Heartbeat CPU 0 instructions: 173000764 cycles: 245695108 heartbeat IPC: 0.5202 cumulative IPC: 0.523 (Simulation time: 00 hr 31 min 55 sec)
Heartbeat CPU 0 instructions: 173500764 cycles: 246542122 heartbeat IPC: 0.5903 cumulative IPC: 0.5232 (Simulation time: 00 hr 32 min 01 sec)
Heartbeat CPU 0 instructions: 174000764 cycles: 247535852 heartbeat IPC: 0.5032 cumulative IPC: 0.5231 (Simulation time: 00 hr 32 min 08 sec)
Heartbeat CPU 0 instructions: 174500764 cycles: 248523296 heartbeat IPC: 0.5064 cumulative IPC: 0.523 (Simulation time: 00 hr 32 min 14 sec)
Heartbeat CPU 0 instructions: 175000769 cycles: 249443684 heartbeat IPC: 0.5433 cumulative IPC: 0.5231 (Simulation time: 00 hr 32 min 20 sec)
Heartbeat CPU 0 instructions: 175500774 cycles: 250377940 heartbeat IPC: 0.5352 cumulative IPC: 0.5232 (Simulation time: 00 hr 32 min 27 sec)
Heartbeat CPU 0 instructions: 176000780 cycles: 251337455 heartbeat IPC: 0.5211 cumulative IPC: 0.5232 (Simulation time: 00 hr 32 min 33 sec)
Heartbeat CPU 0 instructions: 176500783 cycles: 252343422 heartbeat IPC: 0.497 cumulative IPC: 0.5231 (Simulation time: 00 hr 32 min 39 sec)
Heartbeat CPU 0 instructions: 177000783 cycles: 253317518 heartbeat IPC: 0.5133 cumulative IPC: 0.523 (Simulation time: 00 hr 32 min 46 sec)
Heartbeat CPU 0 instructions: 177500787 cycles: 254349506 heartbeat IPC: 0.4845 cumulative IPC: 0.5229 (Simulation time: 00 hr 32 min 53 sec)
Heartbeat CPU 0 instructions: 178000789 cycles: 255290346 heartbeat IPC: 0.5314 cumulative IPC: 0.5229 (Simulation time: 00 hr 32 min 59 sec)
Heartbeat CPU 0 instructions: 178500789 cycles: 256217828 heartbeat IPC: 0.5391 cumulative IPC: 0.5229 (Simulation time: 00 hr 33 min 05 sec)
Heartbeat CPU 0 instructions: 179000791 cycles: 257223089 heartbeat IPC: 0.4974 cumulative IPC: 0.5228 (Simulation time: 00 hr 33 min 12 sec)
Heartbeat CPU 0 instructions: 179500791 cycles: 258148632 heartbeat IPC: 0.5402 cumulative IPC: 0.5229 (Simulation time: 00 hr 33 min 18 sec)
Heartbeat CPU 0 instructions: 180000793 cycles: 259047120 heartbeat IPC: 0.5565 cumulative IPC: 0.523 (Simulation time: 00 hr 33 min 24 sec)
Heartbeat CPU 0 instructions: 180500798 cycles: 259964435 heartbeat IPC: 0.5451 cumulative IPC: 0.5231 (Simulation time: 00 hr 33 min 30 sec)
Heartbeat CPU 0 instructions: 181000799 cycles: 260895031 heartbeat IPC: 0.5373 cumulative IPC: 0.5232 (Simulation time: 00 hr 33 min 37 sec)
Heartbeat CPU 0 instructions: 181500802 cycles: 261771117 heartbeat IPC: 0.5707 cumulative IPC: 0.5233 (Simulation time: 00 hr 33 min 43 sec)
Heartbeat CPU 0 instructions: 182000804 cycles: 262711731 heartbeat IPC: 0.5316 cumulative IPC: 0.5234 (Simulation time: 00 hr 33 min 49 sec)
Heartbeat CPU 0 instructions: 182500806 cycles: 263647004 heartbeat IPC: 0.5346 cumulative IPC: 0.5234 (Simulation time: 00 hr 33 min 55 sec)
Heartbeat CPU 0 instructions: 183000807 cycles: 264627795 heartbeat IPC: 0.5098 cumulative IPC: 0.5233 (Simulation time: 00 hr 34 min 02 sec)
Heartbeat CPU 0 instructions: 183500810 cycles: 265645261 heartbeat IPC: 0.4914 cumulative IPC: 0.5232 (Simulation time: 00 hr 34 min 09 sec)
Heartbeat CPU 0 instructions: 184000816 cycles: 266623282 heartbeat IPC: 0.5112 cumulative IPC: 0.5232 (Simulation time: 00 hr 34 min 15 sec)
Heartbeat CPU 0 instructions: 184500816 cycles: 267488844 heartbeat IPC: 0.5777 cumulative IPC: 0.5234 (Simulation time: 00 hr 34 min 21 sec)
Heartbeat CPU 0 instructions: 185000817 cycles: 268533315 heartbeat IPC: 0.4787 cumulative IPC: 0.5232 (Simulation time: 00 hr 34 min 28 sec)
Heartbeat CPU 0 instructions: 185500817 cycles: 269785576 heartbeat IPC: 0.3993 cumulative IPC: 0.5226 (Simulation time: 00 hr 34 min 35 sec)
Heartbeat CPU 0 instructions: 186000818 cycles: 270518540 heartbeat IPC: 0.6822 cumulative IPC: 0.523 (Simulation time: 00 hr 34 min 41 sec)
Heartbeat CPU 0 instructions: 186500820 cycles: 271491176 heartbeat IPC: 0.5141 cumulative IPC: 0.523 (Simulation time: 00 hr 34 min 48 sec)
Heartbeat CPU 0 instructions: 187000823 cycles: 272467812 heartbeat IPC: 0.512 cumulative IPC: 0.523 (Simulation time: 00 hr 34 min 54 sec)
Heartbeat CPU 0 instructions: 187500828 cycles: 273417664 heartbeat IPC: 0.5264 cumulative IPC: 0.523 (Simulation time: 00 hr 35 min 00 sec)
Heartbeat CPU 0 instructions: 188000828 cycles: 274359717 heartbeat IPC: 0.5308 cumulative IPC: 0.523 (Simulation time: 00 hr 35 min 07 sec)
Heartbeat CPU 0 instructions: 188500828 cycles: 275293446 heartbeat IPC: 0.5355 cumulative IPC: 0.523 (Simulation time: 00 hr 35 min 13 sec)
Heartbeat CPU 0 instructions: 189000829 cycles: 276267615 heartbeat IPC: 0.5133 cumulative IPC: 0.523 (Simulation time: 00 hr 35 min 20 sec)
Heartbeat CPU 0 instructions: 189500829 cycles: 277217528 heartbeat IPC: 0.5264 cumulative IPC: 0.523 (Simulation time: 00 hr 35 min 26 sec)
Heartbeat CPU 0 instructions: 190000829 cycles: 278146343 heartbeat IPC: 0.5383 cumulative IPC: 0.5231 (Simulation time: 00 hr 35 min 32 sec)
Heartbeat CPU 0 instructions: 190500830 cycles: 279153690 heartbeat IPC: 0.4964 cumulative IPC: 0.523 (Simulation time: 00 hr 35 min 39 sec)
Heartbeat CPU 0 instructions: 191000831 cycles: 280262895 heartbeat IPC: 0.4508 cumulative IPC: 0.5227 (Simulation time: 00 hr 35 min 46 sec)
Heartbeat CPU 0 instructions: 191500836 cycles: 281217737 heartbeat IPC: 0.5237 cumulative IPC: 0.5227 (Simulation time: 00 hr 35 min 52 sec)
Heartbeat CPU 0 instructions: 192000837 cycles: 282157996 heartbeat IPC: 0.5318 cumulative IPC: 0.5227 (Simulation time: 00 hr 35 min 59 sec)
Heartbeat CPU 0 instructions: 192500838 cycles: 283220342 heartbeat IPC: 0.4707 cumulative IPC: 0.5225 (Simulation time: 00 hr 36 min 05 sec)
Heartbeat CPU 0 instructions: 193000838 cycles: 284184549 heartbeat IPC: 0.5186 cumulative IPC: 0.5225 (Simulation time: 00 hr 36 min 12 sec)
Heartbeat CPU 0 instructions: 193500840 cycles: 285056379 heartbeat IPC: 0.5735 cumulative IPC: 0.5227 (Simulation time: 00 hr 36 min 18 sec)
Heartbeat CPU 0 instructions: 194000842 cycles: 285832007 heartbeat IPC: 0.6446 cumulative IPC: 0.523 (Simulation time: 00 hr 36 min 24 sec)
Heartbeat CPU 0 instructions: 194500844 cycles: 286749764 heartbeat IPC: 0.5448 cumulative IPC: 0.5231 (Simulation time: 00 hr 36 min 30 sec)
Heartbeat CPU 0 instructions: 195000846 cycles: 287628888 heartbeat IPC: 0.5688 cumulative IPC: 0.5232 (Simulation time: 00 hr 36 min 36 sec)
Heartbeat CPU 0 instructions: 195500848 cycles: 288559978 heartbeat IPC: 0.537 cumulative IPC: 0.5233 (Simulation time: 00 hr 36 min 42 sec)
Heartbeat CPU 0 instructions: 196000853 cycles: 289433618 heartbeat IPC: 0.5723 cumulative IPC: 0.5234 (Simulation time: 00 hr 36 min 48 sec)
Heartbeat CPU 0 instructions: 196500857 cycles: 290325704 heartbeat IPC: 0.5605 cumulative IPC: 0.5235 (Simulation time: 00 hr 36 min 54 sec)
Heartbeat CPU 0 instructions: 197000859 cycles: 291277318 heartbeat IPC: 0.5254 cumulative IPC: 0.5235 (Simulation time: 00 hr 37 min 00 sec)
Heartbeat CPU 0 instructions: 197500860 cycles: 292164181 heartbeat IPC: 0.5638 cumulative IPC: 0.5237 (Simulation time: 00 hr 37 min 07 sec)
Heartbeat CPU 0 instructions: 198000861 cycles: 293115929 heartbeat IPC: 0.5254 cumulative IPC: 0.5237 (Simulation time: 00 hr 37 min 13 sec)
Heartbeat CPU 0 instructions: 198500862 cycles: 294069230 heartbeat IPC: 0.5245 cumulative IPC: 0.5237 (Simulation time: 00 hr 37 min 19 sec)
Heartbeat CPU 0 instructions: 199000862 cycles: 294985058 heartbeat IPC: 0.546 cumulative IPC: 0.5237 (Simulation time: 00 hr 37 min 26 sec)
Heartbeat CPU 0 instructions: 199500867 cycles: 295870885 heartbeat IPC: 0.5644 cumulative IPC: 0.5239 (Simulation time: 00 hr 37 min 32 sec)
Heartbeat CPU 0 instructions: 200000869 cycles: 296754388 heartbeat IPC: 0.5659 cumulative IPC: 0.524 (Simulation time: 00 hr 37 min 38 sec)
Heartbeat CPU 0 instructions: 200500874 cycles: 297773845 heartbeat IPC: 0.4905 cumulative IPC: 0.5239 (Simulation time: 00 hr 37 min 44 sec)
Heartbeat CPU 0 instructions: 201000875 cycles: 298660090 heartbeat IPC: 0.5642 cumulative IPC: 0.524 (Simulation time: 00 hr 37 min 51 sec)
Heartbeat CPU 0 instructions: 201500875 cycles: 299529058 heartbeat IPC: 0.5754 cumulative IPC: 0.5242 (Simulation time: 00 hr 37 min 57 sec)
Heartbeat CPU 0 instructions: 202000877 cycles: 300401366 heartbeat IPC: 0.5732 cumulative IPC: 0.5243 (Simulation time: 00 hr 38 min 03 sec)
Heartbeat CPU 0 instructions: 202500878 cycles: 301299437 heartbeat IPC: 0.5567 cumulative IPC: 0.5244 (Simulation time: 00 hr 38 min 09 sec)
Heartbeat CPU 0 instructions: 203000878 cycles: 302172756 heartbeat IPC: 0.5725 cumulative IPC: 0.5246 (Simulation time: 00 hr 38 min 15 sec)
Heartbeat CPU 0 instructions: 203500883 cycles: 303421985 heartbeat IPC: 0.4003 cumulative IPC: 0.524 (Simulation time: 00 hr 38 min 23 sec)
Heartbeat CPU 0 instructions: 204000883 cycles: 304371889 heartbeat IPC: 0.5264 cumulative IPC: 0.524 (Simulation time: 00 hr 38 min 29 sec)
Heartbeat CPU 0 instructions: 204500883 cycles: 305235100 heartbeat IPC: 0.5792 cumulative IPC: 0.5242 (Simulation time: 00 hr 38 min 35 sec)
Heartbeat CPU 0 instructions: 205000883 cycles: 306001460 heartbeat IPC: 0.6524 cumulative IPC: 0.5245 (Simulation time: 00 hr 38 min 41 sec)
Heartbeat CPU 0 instructions: 205500888 cycles: 306970280 heartbeat IPC: 0.5161 cumulative IPC: 0.5245 (Simulation time: 00 hr 38 min 47 sec)
Heartbeat CPU 0 instructions: 206000892 cycles: 307909869 heartbeat IPC: 0.5322 cumulative IPC: 0.5245 (Simulation time: 00 hr 38 min 54 sec)
Heartbeat CPU 0 instructions: 206500892 cycles: 308915309 heartbeat IPC: 0.4973 cumulative IPC: 0.5244 (Simulation time: 00 hr 39 min 00 sec)
Heartbeat CPU 0 instructions: 207000893 cycles: 309864556 heartbeat IPC: 0.5267 cumulative IPC: 0.5244 (Simulation time: 00 hr 39 min 07 sec)
Heartbeat CPU 0 instructions: 207500899 cycles: 310732473 heartbeat IPC: 0.5761 cumulative IPC: 0.5246 (Simulation time: 00 hr 39 min 13 sec)
Heartbeat CPU 0 instructions: 208000899 cycles: 311797246 heartbeat IPC: 0.4696 cumulative IPC: 0.5244 (Simulation time: 00 hr 39 min 20 sec)
Heartbeat CPU 0 instructions: 208500899 cycles: 312730950 heartbeat IPC: 0.5355 cumulative IPC: 0.5244 (Simulation time: 00 hr 39 min 26 sec)
Heartbeat CPU 0 instructions: 209000902 cycles: 313724131 heartbeat IPC: 0.5034 cumulative IPC: 0.5244 (Simulation time: 00 hr 39 min 32 sec)
Heartbeat CPU 0 instructions: 209500903 cycles: 314545299 heartbeat IPC: 0.6089 cumulative IPC: 0.5246 (Simulation time: 00 hr 39 min 38 sec)
Heartbeat CPU 0 instructions: 210000907 cycles: 315534026 heartbeat IPC: 0.5057 cumulative IPC: 0.5245 (Simulation time: 00 hr 39 min 45 sec)
Heartbeat CPU 0 instructions: 210500910 cycles: 316524063 heartbeat IPC: 0.505 cumulative IPC: 0.5245 (Simulation time: 00 hr 39 min 51 sec)
Heartbeat CPU 0 instructions: 211000912 cycles: 317384492 heartbeat IPC: 0.5811 cumulative IPC: 0.5246 (Simulation time: 00 hr 39 min 57 sec)
Heartbeat CPU 0 instructions: 211500914 cycles: 318294277 heartbeat IPC: 0.5496 cumulative IPC: 0.5247 (Simulation time: 00 hr 40 min 04 sec)
Heartbeat CPU 0 instructions: 212000914 cycles: 319230055 heartbeat IPC: 0.5343 cumulative IPC: 0.5247 (Simulation time: 00 hr 40 min 10 sec)
Heartbeat CPU 0 instructions: 212500916 cycles: 320194139 heartbeat IPC: 0.5186 cumulative IPC: 0.5247 (Simulation time: 00 hr 40 min 16 sec)
Heartbeat CPU 0 instructions: 213000917 cycles: 321068941 heartbeat IPC: 0.5716 cumulative IPC: 0.5248 (Simulation time: 00 hr 40 min 22 sec)
Heartbeat CPU 0 instructions: 213500917 cycles: 321958453 heartbeat IPC: 0.5621 cumulative IPC: 0.5249 (Simulation time: 00 hr 40 min 28 sec)
Heartbeat CPU 0 instructions: 214000919 cycles: 322999613 heartbeat IPC: 0.4802 cumulative IPC: 0.5248 (Simulation time: 00 hr 40 min 35 sec)
Heartbeat CPU 0 instructions: 214500920 cycles: 323890869 heartbeat IPC: 0.561 cumulative IPC: 0.5249 (Simulation time: 00 hr 40 min 42 sec)
Heartbeat CPU 0 instructions: 215000920 cycles: 324862252 heartbeat IPC: 0.5147 cumulative IPC: 0.5249 (Simulation time: 00 hr 40 min 48 sec)
Heartbeat CPU 0 instructions: 215500923 cycles: 325728629 heartbeat IPC: 0.5771 cumulative IPC: 0.525 (Simulation time: 00 hr 40 min 54 sec)
Heartbeat CPU 0 instructions: 216000926 cycles: 326636873 heartbeat IPC: 0.5505 cumulative IPC: 0.5251 (Simulation time: 00 hr 41 min 00 sec)
Heartbeat CPU 0 instructions: 216500928 cycles: 327548697 heartbeat IPC: 0.5484 cumulative IPC: 0.5251 (Simulation time: 00 hr 41 min 06 sec)
Heartbeat CPU 0 instructions: 217000928 cycles: 328603331 heartbeat IPC: 0.4741 cumulative IPC: 0.525 (Simulation time: 00 hr 41 min 13 sec)
Heartbeat CPU 0 instructions: 217500933 cycles: 329437351 heartbeat IPC: 0.5995 cumulative IPC: 0.5252 (Simulation time: 00 hr 41 min 19 sec)
Heartbeat CPU 0 instructions: 218000936 cycles: 330355449 heartbeat IPC: 0.5446 cumulative IPC: 0.5252 (Simulation time: 00 hr 41 min 25 sec)
Heartbeat CPU 0 instructions: 218500936 cycles: 331179030 heartbeat IPC: 0.6071 cumulative IPC: 0.5254 (Simulation time: 00 hr 41 min 31 sec)
Heartbeat CPU 0 instructions: 219000939 cycles: 332106052 heartbeat IPC: 0.5394 cumulative IPC: 0.5255 (Simulation time: 00 hr 41 min 37 sec)
Heartbeat CPU 0 instructions: 219500943 cycles: 333000115 heartbeat IPC: 0.5592 cumulative IPC: 0.5256 (Simulation time: 00 hr 41 min 43 sec)
Heartbeat CPU 0 instructions: 220000946 cycles: 333902159 heartbeat IPC: 0.5543 cumulative IPC: 0.5257 (Simulation time: 00 hr 41 min 50 sec)
Heartbeat CPU 0 instructions: 220500950 cycles: 334786889 heartbeat IPC: 0.5651 cumulative IPC: 0.5258 (Simulation time: 00 hr 41 min 56 sec)
Heartbeat CPU 0 instructions: 221000950 cycles: 335719701 heartbeat IPC: 0.536 cumulative IPC: 0.5258 (Simulation time: 00 hr 42 min 02 sec)
Heartbeat CPU 0 instructions: 221500951 cycles: 336749556 heartbeat IPC: 0.4855 cumulative IPC: 0.5257 (Simulation time: 00 hr 42 min 09 sec)
Heartbeat CPU 0 instructions: 222000957 cycles: 337595950 heartbeat IPC: 0.5907 cumulative IPC: 0.5258 (Simulation time: 00 hr 42 min 14 sec)
Heartbeat CPU 0 instructions: 222500959 cycles: 338547233 heartbeat IPC: 0.5256 cumulative IPC: 0.5258 (Simulation time: 00 hr 42 min 21 sec)
Heartbeat CPU 0 instructions: 223000960 cycles: 339431278 heartbeat IPC: 0.5656 cumulative IPC: 0.5259 (Simulation time: 00 hr 42 min 27 sec)
Heartbeat CPU 0 instructions: 223500960 cycles: 340285820 heartbeat IPC: 0.5851 cumulative IPC: 0.5261 (Simulation time: 00 hr 42 min 33 sec)
Heartbeat CPU 0 instructions: 224000960 cycles: 341146050 heartbeat IPC: 0.5812 cumulative IPC: 0.5262 (Simulation time: 00 hr 42 min 39 sec)
Heartbeat CPU 0 instructions: 224500964 cycles: 341939793 heartbeat IPC: 0.6299 cumulative IPC: 0.5265 (Simulation time: 00 hr 42 min 45 sec)
Heartbeat CPU 0 instructions: 225000968 cycles: 342900456 heartbeat IPC: 0.5205 cumulative IPC: 0.5265 (Simulation time: 00 hr 42 min 51 sec)
Heartbeat CPU 0 instructions: 225500968 cycles: 343838196 heartbeat IPC: 0.5332 cumulative IPC: 0.5265 (Simulation time: 00 hr 42 min 57 sec)
Heartbeat CPU 0 instructions: 226000970 cycles: 344871123 heartbeat IPC: 0.4841 cumulative IPC: 0.5264 (Simulation time: 00 hr 43 min 04 sec)
Heartbeat CPU 0 instructions: 226500970 cycles: 345773796 heartbeat IPC: 0.5539 cumulative IPC: 0.5264 (Simulation time: 00 hr 43 min 10 sec)
Heartbeat CPU 0 instructions: 227000971 cycles: 346817076 heartbeat IPC: 0.4793 cumulative IPC: 0.5263 (Simulation time: 00 hr 43 min 17 sec)
Heartbeat CPU 0 instructions: 227500975 cycles: 347704735 heartbeat IPC: 0.5633 cumulative IPC: 0.5264 (Simulation time: 00 hr 43 min 23 sec)
Heartbeat CPU 0 instructions: 228000977 cycles: 348625180 heartbeat IPC: 0.5432 cumulative IPC: 0.5264 (Simulation time: 00 hr 43 min 29 sec)
Heartbeat CPU 0 instructions: 228500979 cycles: 349482049 heartbeat IPC: 0.5835 cumulative IPC: 0.5266 (Simulation time: 00 hr 43 min 35 sec)
Heartbeat CPU 0 instructions: 229000979 cycles: 350456941 heartbeat IPC: 0.5129 cumulative IPC: 0.5265 (Simulation time: 00 hr 43 min 41 sec)
Heartbeat CPU 0 instructions: 229500982 cycles: 351331580 heartbeat IPC: 0.5717 cumulative IPC: 0.5266 (Simulation time: 00 hr 43 min 47 sec)
Heartbeat CPU 0 instructions: 230000982 cycles: 352087494 heartbeat IPC: 0.6615 cumulative IPC: 0.5269 (Simulation time: 00 hr 43 min 53 sec)
Heartbeat CPU 0 instructions: 230500986 cycles: 352965515 heartbeat IPC: 0.5695 cumulative IPC: 0.5271 (Simulation time: 00 hr 44 min 00 sec)
Heartbeat CPU 0 instructions: 231000991 cycles: 353897219 heartbeat IPC: 0.5367 cumulative IPC: 0.5271 (Simulation time: 00 hr 44 min 06 sec)
Heartbeat CPU 0 instructions: 231500996 cycles: 354835750 heartbeat IPC: 0.5328 cumulative IPC: 0.5271 (Simulation time: 00 hr 44 min 12 sec)
Heartbeat CPU 0 instructions: 232000998 cycles: 355732348 heartbeat IPC: 0.5577 cumulative IPC: 0.5272 (Simulation time: 00 hr 44 min 18 sec)
Heartbeat CPU 0 instructions: 232500998 cycles: 356564036 heartbeat IPC: 0.6012 cumulative IPC: 0.5274 (Simulation time: 00 hr 44 min 24 sec)
Heartbeat CPU 0 instructions: 233001001 cycles: 357645323 heartbeat IPC: 0.4624 cumulative IPC: 0.5272 (Simulation time: 00 hr 44 min 31 sec)
Heartbeat CPU 0 instructions: 233501005 cycles: 358561946 heartbeat IPC: 0.5455 cumulative IPC: 0.5272 (Simulation time: 00 hr 44 min 37 sec)
Heartbeat CPU 0 instructions: 234001006 cycles: 359697608 heartbeat IPC: 0.4403 cumulative IPC: 0.5269 (Simulation time: 00 hr 44 min 44 sec)
Heartbeat CPU 0 instructions: 234501008 cycles: 360571946 heartbeat IPC: 0.5719 cumulative IPC: 0.527 (Simulation time: 00 hr 44 min 50 sec)
Heartbeat CPU 0 instructions: 235001010 cycles: 361414709 heartbeat IPC: 0.5933 cumulative IPC: 0.5272 (Simulation time: 00 hr 44 min 56 sec)
Heartbeat CPU 0 instructions: 235501011 cycles: 362331586 heartbeat IPC: 0.5453 cumulative IPC: 0.5272 (Simulation time: 00 hr 45 min 03 sec)
Heartbeat CPU 0 instructions: 236001013 cycles: 363210900 heartbeat IPC: 0.5686 cumulative IPC: 0.5273 (Simulation time: 00 hr 45 min 09 sec)
Heartbeat CPU 0 instructions: 236501014 cycles: 364096653 heartbeat IPC: 0.5645 cumulative IPC: 0.5274 (Simulation time: 00 hr 45 min 15 sec)
Heartbeat CPU 0 instructions: 237001016 cycles: 364996540 heartbeat IPC: 0.5556 cumulative IPC: 0.5275 (Simulation time: 00 hr 45 min 21 sec)
Heartbeat CPU 0 instructions: 237501016 cycles: 365855588 heartbeat IPC: 0.582 cumulative IPC: 0.5276 (Simulation time: 00 hr 45 min 27 sec)
Heartbeat CPU 0 instructions: 238001017 cycles: 366743553 heartbeat IPC: 0.5631 cumulative IPC: 0.5277 (Simulation time: 00 hr 45 min 33 sec)
Heartbeat CPU 0 instructions: 238501020 cycles: 367690109 heartbeat IPC: 0.5282 cumulative IPC: 0.5277 (Simulation time: 00 hr 45 min 40 sec)
Heartbeat CPU 0 instructions: 239001020 cycles: 368623404 heartbeat IPC: 0.5357 cumulative IPC: 0.5277 (Simulation time: 00 hr 45 min 46 sec)
Heartbeat CPU 0 instructions: 239501024 cycles: 369477548 heartbeat IPC: 0.5854 cumulative IPC: 0.5279 (Simulation time: 00 hr 45 min 52 sec)
Heartbeat CPU 0 instructions: 240001024 cycles: 370402517 heartbeat IPC: 0.5406 cumulative IPC: 0.5279 (Simulation time: 00 hr 45 min 58 sec)
Heartbeat CPU 0 instructions: 240501025 cycles: 371312400 heartbeat IPC: 0.5495 cumulative IPC: 0.528 (Simulation time: 00 hr 46 min 04 sec)
Heartbeat CPU 0 instructions: 241001025 cycles: 372240321 heartbeat IPC: 0.5388 cumulative IPC: 0.528 (Simulation time: 00 hr 46 min 11 sec)
Heartbeat CPU 0 instructions: 241501027 cycles: 373249541 heartbeat IPC: 0.4954 cumulative IPC: 0.5279 (Simulation time: 00 hr 46 min 17 sec)
Heartbeat CPU 0 instructions: 242001027 cycles: 374149955 heartbeat IPC: 0.5553 cumulative IPC: 0.528 (Simulation time: 00 hr 46 min 23 sec)
Heartbeat CPU 0 instructions: 242501030 cycles: 375153635 heartbeat IPC: 0.4982 cumulative IPC: 0.5279 (Simulation time: 00 hr 46 min 30 sec)
Heartbeat CPU 0 instructions: 243001036 cycles: 376015358 heartbeat IPC: 0.5802 cumulative IPC: 0.528 (Simulation time: 00 hr 46 min 36 sec)
Heartbeat CPU 0 instructions: 243501036 cycles: 376946289 heartbeat IPC: 0.5371 cumulative IPC: 0.528 (Simulation time: 00 hr 46 min 42 sec)
Heartbeat CPU 0 instructions: 244001037 cycles: 377787504 heartbeat IPC: 0.5944 cumulative IPC: 0.5282 (Simulation time: 00 hr 46 min 48 sec)
Heartbeat CPU 0 instructions: 244501040 cycles: 378677756 heartbeat IPC: 0.5616 cumulative IPC: 0.5283 (Simulation time: 00 hr 46 min 54 sec)
Heartbeat CPU 0 instructions: 245001041 cycles: 379645549 heartbeat IPC: 0.5166 cumulative IPC: 0.5282 (Simulation time: 00 hr 47 min 01 sec)
Heartbeat CPU 0 instructions: 245501045 cycles: 380492438 heartbeat IPC: 0.5904 cumulative IPC: 0.5284 (Simulation time: 00 hr 47 min 07 sec)
Heartbeat CPU 0 instructions: 246001045 cycles: 381395179 heartbeat IPC: 0.5539 cumulative IPC: 0.5284 (Simulation time: 00 hr 47 min 13 sec)
Heartbeat CPU 0 instructions: 246501047 cycles: 382291652 heartbeat IPC: 0.5577 cumulative IPC: 0.5285 (Simulation time: 00 hr 47 min 19 sec)
Heartbeat CPU 0 instructions: 247001051 cycles: 383095754 heartbeat IPC: 0.6218 cumulative IPC: 0.5287 (Simulation time: 00 hr 47 min 25 sec)
Heartbeat CPU 0 instructions: 247501055 cycles: 383878259 heartbeat IPC: 0.639 cumulative IPC: 0.5289 (Simulation time: 00 hr 47 min 31 sec)
Heartbeat CPU 0 instructions: 248001060 cycles: 384818096 heartbeat IPC: 0.532 cumulative IPC: 0.529 (Simulation time: 00 hr 47 min 37 sec)
Heartbeat CPU 0 instructions: 248501060 cycles: 385746094 heartbeat IPC: 0.5388 cumulative IPC: 0.529 (Simulation time: 00 hr 47 min 43 sec)
Heartbeat CPU 0 instructions: 249001061 cycles: 386672546 heartbeat IPC: 0.5397 cumulative IPC: 0.529 (Simulation time: 00 hr 47 min 49 sec)
Heartbeat CPU 0 instructions: 249501063 cycles: 387594201 heartbeat IPC: 0.5425 cumulative IPC: 0.529 (Simulation time: 00 hr 47 min 56 sec)
Simulation finished CPU 0 instructions: 200000000 cycles: 377967055 cumulative IPC: 0.5291 (Simulation time: 00 hr 48 min 02 sec)
Simulation complete CPU 0 instructions: 200000000 cycles: 377967055 cumulative IPC: 0.5291 (Simulation time: 00 hr 48 min 02 sec)

ChampSim completed all CPUs

=== Simulation ===
CPU 0 runs /local-ssd/ben/dpc4-traces/Graph/GAP/cc-5.trace.gz

Region of Interest Statistics

CPU 0 cumulative IPC: 0.5291 instructions: 200000000 cycles: 377967055
CPU 0 Branch Prediction Accuracy: 94.17% MPKI: 11.72 Average ROB Occupancy at Mispredict: 53.9
Branch type MPKI
BRANCH_DIRECT_JUMP: 0
BRANCH_INDIRECT: 0
BRANCH_CONDITIONAL: 11.72
BRANCH_DIRECT_CALL: 0
BRANCH_INDIRECT_CALL: 0
BRANCH_RETURN: 0

cpu0->cpu0_STLB TOTAL        ACCESS:   12793760 HIT:   12779489 MISS:      14271 MSHR_MERGE:          0
cpu0->cpu0_STLB LOAD         ACCESS:   12793760 HIT:   12779489 MISS:      14271 MSHR_MERGE:          0
cpu0->cpu0_STLB RFO          ACCESS:          0 HIT:          0 MISS:          0 MSHR_MERGE:          0
cpu0->cpu0_STLB PREFETCH     ACCESS:          0 HIT:          0 MISS:          0 MSHR_MERGE:          0
cpu0->cpu0_STLB WRITE        ACCESS:          0 HIT:          0 MISS:          0 MSHR_MERGE:          0
cpu0->cpu0_STLB TRANSLATION  ACCESS:          0 HIT:          0 MISS:          0 MSHR_MERGE:          0
cpu0->cpu0_STLB PREFETCH REQUESTED:          0 ISSUED:          0 USEFUL:          0 USELESS:          0
cpu0->cpu0_STLB AVERAGE MISS LATENCY: 256.2 cycles
cpu0->cpu0_L2C TOTAL        ACCESS:   45888259 HIT:   33037418 MISS:   12850841 MSHR_MERGE:     827138
cpu0->cpu0_L2C LOAD         ACCESS:   14576501 HIT:   10054635 MISS:    4521866 MSHR_MERGE:      39066
cpu0->cpu0_L2C RFO          ACCESS:          0 HIT:          0 MISS:          0 MSHR_MERGE:          0
cpu0->cpu0_L2C PREFETCH     ACCESS:   31099627 HIT:   22772695 MISS:    8326932 MSHR_MERGE:     788072
cpu0->cpu0_L2C WRITE        ACCESS:     197873 HIT:     197842 MISS:         31 MSHR_MERGE:          0
cpu0->cpu0_L2C TRANSLATION  ACCESS:      14258 HIT:      12246 MISS:       2012 MSHR_MERGE:          0
cpu0->cpu0_L2C PREFETCH REQUESTED:   27151985 ISSUED:   26231275 USEFUL:    2138249 USELESS:    4889913
cpu0->cpu0_L2C AVERAGE MISS LATENCY: 96.67 cycles
cpu0->cpu0_L1I TOTAL        ACCESS:    2296550 HIT:    2296550 MISS:          0 MSHR_MERGE:          0
cpu0->cpu0_L1I LOAD         ACCESS:    2296550 HIT:    2296550 MISS:          0 MSHR_MERGE:          0
cpu0->cpu0_L1I RFO          ACCESS:          0 HIT:          0 MISS:          0 MSHR_MERGE:          0
cpu0->cpu0_L1I PREFETCH     ACCESS:          0 HIT:          0 MISS:          0 MSHR_MERGE:          0
cpu0->cpu0_L1I WRITE        ACCESS:          0 HIT:          0 MISS:          0 MSHR_MERGE:          0
cpu0->cpu0_L1I TRANSLATION  ACCESS:          0 HIT:          0 MISS:          0 MSHR_MERGE:          0
cpu0->cpu0_L1I PREFETCH REQUESTED:          0 ISSUED:          0 USEFUL:          0 USELESS:          0
cpu0->cpu0_L1I AVERAGE MISS LATENCY: - cycles
cpu0->cpu0_L1D TOTAL        ACCESS:   55573019 HIT:   34623171 MISS:   20949848 MSHR_MERGE:    1490752
cpu0->cpu0_L1D LOAD         ACCESS:   50111027 HIT:   34048582 MISS:   16062445 MSHR_MERGE:    1485944
cpu0->cpu0_L1D RFO          ACCESS:          0 HIT:          0 MISS:          0 MSHR_MERGE:          0
cpu0->cpu0_L1D PREFETCH     ACCESS:    5185141 HIT:     311996 MISS:    4873145 MSHR_MERGE:       4808
cpu0->cpu0_L1D WRITE        ACCESS:     248282 HIT:     248282 MISS:          0 MSHR_MERGE:          0
cpu0->cpu0_L1D TRANSLATION  ACCESS:      28569 HIT:      14311 MISS:      14258 MSHR_MERGE:          0
cpu0->cpu0_L1D PREFETCH REQUESTED:   11251559 ISSUED:    5185141 USEFUL:     287240 USELESS:    4581068
cpu0->cpu0_L1D AVERAGE MISS LATENCY: 38.45 cycles
cpu0->cpu0_ITLB TOTAL        ACCESS:    2194748 HIT:    2194748 MISS:          0 MSHR_MERGE:          0
cpu0->cpu0_ITLB LOAD         ACCESS:    2194748 HIT:    2194748 MISS:          0 MSHR_MERGE:          0
cpu0->cpu0_ITLB RFO          ACCESS:          0 HIT:          0 MISS:          0 MSHR_MERGE:          0
cpu0->cpu0_ITLB PREFETCH     ACCESS:          0 HIT:          0 MISS:          0 MSHR_MERGE:          0
cpu0->cpu0_ITLB WRITE        ACCESS:          0 HIT:          0 MISS:          0 MSHR_MERGE:          0
cpu0->cpu0_ITLB TRANSLATION  ACCESS:          0 HIT:          0 MISS:          0 MSHR_MERGE:          0
cpu0->cpu0_ITLB PREFETCH REQUESTED:          0 ISSUED:          0 USEFUL:          0 USELESS:          0
cpu0->cpu0_ITLB AVERAGE MISS LATENCY: - cycles
cpu0->cpu0_DTLB TOTAL        ACCESS:   55050748 HIT:   40345963 MISS:   14704785 MSHR_MERGE:    1911025
cpu0->cpu0_DTLB LOAD         ACCESS:   55050748 HIT:   40345963 MISS:   14704785 MSHR_MERGE:    1911025
cpu0->cpu0_DTLB RFO          ACCESS:          0 HIT:          0 MISS:          0 MSHR_MERGE:          0
cpu0->cpu0_DTLB PREFETCH     ACCESS:          0 HIT:          0 MISS:          0 MSHR_MERGE:          0
cpu0->cpu0_DTLB WRITE        ACCESS:          0 HIT:          0 MISS:          0 MSHR_MERGE:          0
cpu0->cpu0_DTLB TRANSLATION  ACCESS:          0 HIT:          0 MISS:          0 MSHR_MERGE:          0
cpu0->cpu0_DTLB PREFETCH REQUESTED:          0 ISSUED:          0 USEFUL:          0 USELESS:          0
cpu0->cpu0_DTLB AVERAGE MISS LATENCY: 5.371 cycles
cpu0->LLC TOTAL        ACCESS:   17917242 HIT:   11505372 MISS:    6411870 MSHR_MERGE:     105038
cpu0->LLC LOAD         ACCESS:    4482800 HIT:    3094351 MISS:    1388449 MSHR_MERGE:       2940
cpu0->LLC RFO          ACCESS:          0 HIT:          0 MISS:          0 MSHR_MERGE:          0
cpu0->LLC PREFETCH     ACCESS:   13235806 HIT:    8274047 MISS:    4961759 MSHR_MERGE:     102098
cpu0->LLC WRITE        ACCESS:     196624 HIT:     136941 MISS:      59683 MSHR_MERGE:          0
cpu0->LLC TRANSLATION  ACCESS:       2012 HIT:         33 MISS:       1979 MSHR_MERGE:          0
cpu0->LLC PREFETCH REQUESTED:    5705330 ISSUED:    5696947 USEFUL:     263221 USELESS:    1571991
cpu0->LLC AVERAGE MISS LATENCY: 230.2 cycles

DRAM Statistics

Channel 0 RQ ROW_BUFFER_HIT:      69009
  ROW_BUFFER_MISS:    6176362
  AVG DBUS CONGESTED CYCLE: 17.54
Channel 0 WQ ROW_BUFFER_HIT:      42032
  ROW_BUFFER_MISS:      93657
  FULL:          0
Channel 0 REFRESHES ISSUED:      31495
