[VMEM] WARNING: physical memory size is smaller than virtual memory size.

*** ChampSim Multicore Out-of-Order Simulator ***
Warmup Instructions: 50000000
Simulation Instructions: 200000000
Number of CPUs: 1
Page size: 4096
Core 0: /local-ssd/ben/dpc4-traces/Graph/GAP/cc-13.trace.gz
CMC Prefetcher Initialized
Off-chip DRAM Size: 64 GiB Channels: 1 Width: 64-bit Data Rate: 4807 MT/s
Heartbeat CPU 0 instructions: 500004 cycles: 151542 heartbeat IPC: 3.299 cumulative IPC: 3.299 (Simulation time: 00 hr 00 min 02 sec)
Heartbeat CPU 0 instructions: 1000005 cycles: 299254 heartbeat IPC: 3.385 cumulative IPC: 3.342 (Simulation time: 00 hr 00 min 03 sec)
Heartbeat CPU 0 instructions: 1500005 cycles: 446818 heartbeat IPC: 3.388 cumulative IPC: 3.357 (Simulation time: 00 hr 00 min 04 sec)
Heartbeat CPU 0 instructions: 2000010 cycles: 556846 heartbeat IPC: 4.544 cumulative IPC: 3.592 (Simulation time: 00 hr 00 min 06 sec)
Heartbeat CPU 0 instructions: 2500012 cycles: 659981 heartbeat IPC: 4.848 cumulative IPC: 3.788 (Simulation time: 00 hr 00 min 07 sec)
Heartbeat CPU 0 instructions: 3000019 cycles: 763068 heartbeat IPC: 4.85 cumulative IPC: 3.932 (Simulation time: 00 hr 00 min 09 sec)
Heartbeat CPU 0 instructions: 3500026 cycles: 866392 heartbeat IPC: 4.839 cumulative IPC: 4.04 (Simulation time: 00 hr 00 min 11 sec)
Heartbeat CPU 0 instructions: 4000028 cycles: 970013 heartbeat IPC: 4.825 cumulative IPC: 4.124 (Simulation time: 00 hr 00 min 12 sec)
Heartbeat CPU 0 instructions: 4500032 cycles: 1073456 heartbeat IPC: 4.834 cumulative IPC: 4.192 (Simulation time: 00 hr 00 min 14 sec)
Heartbeat CPU 0 instructions: 5000032 cycles: 1176710 heartbeat IPC: 4.842 cumulative IPC: 4.249 (Simulation time: 00 hr 00 min 16 sec)
Heartbeat CPU 0 instructions: 5500033 cycles: 1280180 heartbeat IPC: 4.832 cumulative IPC: 4.296 (Simulation time: 00 hr 00 min 18 sec)
Heartbeat CPU 0 instructions: 6000035 cycles: 1383602 heartbeat IPC: 4.835 cumulative IPC: 4.337 (Simulation time: 00 hr 00 min 19 sec)
Heartbeat CPU 0 instructions: 6500037 cycles: 1487035 heartbeat IPC: 4.834 cumulative IPC: 4.371 (Simulation time: 00 hr 00 min 21 sec)
Heartbeat CPU 0 instructions: 7000042 cycles: 1590478 heartbeat IPC: 4.834 cumulative IPC: 4.401 (Simulation time: 00 hr 00 min 23 sec)
Heartbeat CPU 0 instructions: 7500043 cycles: 1694145 heartbeat IPC: 4.823 cumulative IPC: 4.427 (Simulation time: 00 hr 00 min 25 sec)
Heartbeat CPU 0 instructions: 8000044 cycles: 1797480 heartbeat IPC: 4.839 cumulative IPC: 4.451 (Simulation time: 00 hr 00 min 26 sec)
Heartbeat CPU 0 instructions: 8500047 cycles: 1901162 heartbeat IPC: 4.822 cumulative IPC: 4.471 (Simulation time: 00 hr 00 min 28 sec)
Heartbeat CPU 0 instructions: 9000050 cycles: 2004739 heartbeat IPC: 4.827 cumulative IPC: 4.489 (Simulation time: 00 hr 00 min 30 sec)
Heartbeat CPU 0 instructions: 9500057 cycles: 2108217 heartbeat IPC: 4.832 cumulative IPC: 4.506 (Simulation time: 00 hr 00 min 32 sec)
Heartbeat CPU 0 instructions: 10000061 cycles: 2211917 heartbeat IPC: 4.822 cumulative IPC: 4.521 (Simulation time: 00 hr 00 min 33 sec)
Heartbeat CPU 0 instructions: 10500063 cycles: 2315465 heartbeat IPC: 4.829 cumulative IPC: 4.535 (Simulation time: 00 hr 00 min 35 sec)
Heartbeat CPU 0 instructions: 11000063 cycles: 2419056 heartbeat IPC: 4.827 cumulative IPC: 4.547 (Simulation time: 00 hr 00 min 37 sec)
Heartbeat CPU 0 instructions: 11500070 cycles: 2522715 heartbeat IPC: 4.824 cumulative IPC: 4.559 (Simulation time: 00 hr 00 min 39 sec)
Heartbeat CPU 0 instructions: 12000076 cycles: 2626186 heartbeat IPC: 4.832 cumulative IPC: 4.569 (Simulation time: 00 hr 00 min 41 sec)
Heartbeat CPU 0 instructions: 12500077 cycles: 2729953 heartbeat IPC: 4.818 cumulative IPC: 4.579 (Simulation time: 00 hr 00 min 42 sec)
Heartbeat CPU 0 instructions: 13000081 cycles: 2833496 heartbeat IPC: 4.829 cumulative IPC: 4.588 (Simulation time: 00 hr 00 min 44 sec)
Heartbeat CPU 0 instructions: 13500088 cycles: 2937295 heartbeat IPC: 4.817 cumulative IPC: 4.596 (Simulation time: 00 hr 00 min 46 sec)
Heartbeat CPU 0 instructions: 14000090 cycles: 3040961 heartbeat IPC: 4.823 cumulative IPC: 4.604 (Simulation time: 00 hr 00 min 48 sec)
Heartbeat CPU 0 instructions: 14500095 cycles: 3144563 heartbeat IPC: 4.826 cumulative IPC: 4.611 (Simulation time: 00 hr 00 min 50 sec)
Heartbeat CPU 0 instructions: 15000101 cycles: 3248525 heartbeat IPC: 4.81 cumulative IPC: 4.618 (Simulation time: 00 hr 00 min 51 sec)
Heartbeat CPU 0 instructions: 15500101 cycles: 3352225 heartbeat IPC: 4.822 cumulative IPC: 4.624 (Simulation time: 00 hr 00 min 53 sec)
Heartbeat CPU 0 instructions: 16000106 cycles: 3456098 heartbeat IPC: 4.814 cumulative IPC: 4.63 (Simulation time: 00 hr 00 min 55 sec)
Heartbeat CPU 0 instructions: 16500111 cycles: 3559493 heartbeat IPC: 4.836 cumulative IPC: 4.636 (Simulation time: 00 hr 00 min 57 sec)
Heartbeat CPU 0 instructions: 17000113 cycles: 3663078 heartbeat IPC: 4.827 cumulative IPC: 4.641 (Simulation time: 00 hr 00 min 59 sec)
Heartbeat CPU 0 instructions: 17500116 cycles: 3766886 heartbeat IPC: 4.817 cumulative IPC: 4.646 (Simulation time: 00 hr 01 min 01 sec)
Heartbeat CPU 0 instructions: 18000117 cycles: 3870566 heartbeat IPC: 4.823 cumulative IPC: 4.651 (Simulation time: 00 hr 01 min 02 sec)
Heartbeat CPU 0 instructions: 18500119 cycles: 3974346 heartbeat IPC: 4.818 cumulative IPC: 4.655 (Simulation time: 00 hr 01 min 04 sec)
Heartbeat CPU 0 instructions: 19000122 cycles: 4078084 heartbeat IPC: 4.82 cumulative IPC: 4.659 (Simulation time: 00 hr 01 min 06 sec)
Heartbeat CPU 0 instructions: 19500127 cycles: 4181698 heartbeat IPC: 4.826 cumulative IPC: 4.663 (Simulation time: 00 hr 01 min 08 sec)
Heartbeat CPU 0 instructions: 20000127 cycles: 4285492 heartbeat IPC: 4.817 cumulative IPC: 4.667 (Simulation time: 00 hr 01 min 10 sec)
Heartbeat CPU 0 instructions: 20500132 cycles: 4389178 heartbeat IPC: 4.822 cumulative IPC: 4.671 (Simulation time: 00 hr 01 min 12 sec)
Heartbeat CPU 0 instructions: 21000133 cycles: 4492965 heartbeat IPC: 4.818 cumulative IPC: 4.674 (Simulation time: 00 hr 01 min 13 sec)
Heartbeat CPU 0 instructions: 21500138 cycles: 4596668 heartbeat IPC: 4.822 cumulative IPC: 4.677 (Simulation time: 00 hr 01 min 15 sec)
Heartbeat CPU 0 instructions: 22000145 cycles: 4700447 heartbeat IPC: 4.818 cumulative IPC: 4.68 (Simulation time: 00 hr 01 min 17 sec)
Heartbeat CPU 0 instructions: 22500149 cycles: 4804452 heartbeat IPC: 4.807 cumulative IPC: 4.683 (Simulation time: 00 hr 01 min 19 sec)
Heartbeat CPU 0 instructions: 23000150 cycles: 4908103 heartbeat IPC: 4.824 cumulative IPC: 4.686 (Simulation time: 00 hr 01 min 21 sec)
Heartbeat CPU 0 instructions: 23500151 cycles: 5011888 heartbeat IPC: 4.818 cumulative IPC: 4.689 (Simulation time: 00 hr 01 min 23 sec)
Heartbeat CPU 0 instructions: 24000151 cycles: 5115352 heartbeat IPC: 4.833 cumulative IPC: 4.692 (Simulation time: 00 hr 01 min 24 sec)
Heartbeat CPU 0 instructions: 24500156 cycles: 5219130 heartbeat IPC: 4.818 cumulative IPC: 4.694 (Simulation time: 00 hr 01 min 26 sec)
Heartbeat CPU 0 instructions: 25000159 cycles: 5322824 heartbeat IPC: 4.822 cumulative IPC: 4.697 (Simulation time: 00 hr 01 min 28 sec)
Heartbeat CPU 0 instructions: 25500164 cycles: 5426526 heartbeat IPC: 4.822 cumulative IPC: 4.699 (Simulation time: 00 hr 01 min 30 sec)
Heartbeat CPU 0 instructions: 26000165 cycles: 5530342 heartbeat IPC: 4.816 cumulative IPC: 4.701 (Simulation time: 00 hr 01 min 32 sec)
Heartbeat CPU 0 instructions: 26500167 cycles: 5634018 heartbeat IPC: 4.823 cumulative IPC: 4.704 (Simulation time: 00 hr 01 min 34 sec)
Heartbeat CPU 0 instructions: 27000172 cycles: 5737564 heartbeat IPC: 4.829 cumulative IPC: 4.706 (Simulation time: 00 hr 01 min 35 sec)
Heartbeat CPU 0 instructions: 27500177 cycles: 5841276 heartbeat IPC: 4.821 cumulative IPC: 4.708 (Simulation time: 00 hr 01 min 37 sec)
Heartbeat CPU 0 instructions: 28000183 cycles: 5944957 heartbeat IPC: 4.823 cumulative IPC: 4.71 (Simulation time: 00 hr 01 min 39 sec)
Heartbeat CPU 0 instructions: 28500189 cycles: 6048618 heartbeat IPC: 4.823 cumulative IPC: 4.712 (Simulation time: 00 hr 01 min 41 sec)
Heartbeat CPU 0 instructions: 29000193 cycles: 6152400 heartbeat IPC: 4.818 cumulative IPC: 4.714 (Simulation time: 00 hr 01 min 43 sec)
Heartbeat CPU 0 instructions: 29500198 cycles: 6256105 heartbeat IPC: 4.821 cumulative IPC: 4.715 (Simulation time: 00 hr 01 min 45 sec)
Heartbeat CPU 0 instructions: 30000200 cycles: 6360247 heartbeat IPC: 4.801 cumulative IPC: 4.717 (Simulation time: 00 hr 01 min 47 sec)
Heartbeat CPU 0 instructions: 30500206 cycles: 6463784 heartbeat IPC: 4.829 cumulative IPC: 4.719 (Simulation time: 00 hr 01 min 48 sec)
Heartbeat CPU 0 instructions: 31000208 cycles: 6567613 heartbeat IPC: 4.816 cumulative IPC: 4.72 (Simulation time: 00 hr 01 min 50 sec)
Heartbeat CPU 0 instructions: 31500212 cycles: 6671275 heartbeat IPC: 4.823 cumulative IPC: 4.722 (Simulation time: 00 hr 01 min 52 sec)
Heartbeat CPU 0 instructions: 32000218 cycles: 6774969 heartbeat IPC: 4.822 cumulative IPC: 4.723 (Simulation time: 00 hr 01 min 54 sec)
Heartbeat CPU 0 instructions: 32500222 cycles: 6878812 heartbeat IPC: 4.815 cumulative IPC: 4.725 (Simulation time: 00 hr 01 min 56 sec)
Heartbeat CPU 0 instructions: 33000228 cycles: 6982515 heartbeat IPC: 4.822 cumulative IPC: 4.726 (Simulation time: 00 hr 01 min 58 sec)
Heartbeat CPU 0 instructions: 33500230 cycles: 7086172 heartbeat IPC: 4.824 cumulative IPC: 4.728 (Simulation time: 00 hr 02 min 00 sec)
Heartbeat CPU 0 instructions: 34000236 cycles: 7189965 heartbeat IPC: 4.817 cumulative IPC: 4.729 (Simulation time: 00 hr 02 min 02 sec)
Heartbeat CPU 0 instructions: 34500237 cycles: 7293885 heartbeat IPC: 4.811 cumulative IPC: 4.73 (Simulation time: 00 hr 02 min 03 sec)
Heartbeat CPU 0 instructions: 35000240 cycles: 7397214 heartbeat IPC: 4.839 cumulative IPC: 4.732 (Simulation time: 00 hr 02 min 05 sec)
Heartbeat CPU 0 instructions: 35500241 cycles: 7500980 heartbeat IPC: 4.819 cumulative IPC: 4.733 (Simulation time: 00 hr 02 min 07 sec)
Heartbeat CPU 0 instructions: 36000242 cycles: 7604687 heartbeat IPC: 4.821 cumulative IPC: 4.734 (Simulation time: 00 hr 02 min 09 sec)
Heartbeat CPU 0 instructions: 36500249 cycles: 7708617 heartbeat IPC: 4.811 cumulative IPC: 4.735 (Simulation time: 00 hr 02 min 11 sec)
Heartbeat CPU 0 instructions: 37000254 cycles: 7812319 heartbeat IPC: 4.822 cumulative IPC: 4.736 (Simulation time: 00 hr 02 min 13 sec)
Heartbeat CPU 0 instructions: 37500257 cycles: 7916170 heartbeat IPC: 4.815 cumulative IPC: 4.737 (Simulation time: 00 hr 02 min 14 sec)
Heartbeat CPU 0 instructions: 38000258 cycles: 8019704 heartbeat IPC: 4.829 cumulative IPC: 4.738 (Simulation time: 00 hr 02 min 16 sec)
Heartbeat CPU 0 instructions: 38500264 cycles: 8123513 heartbeat IPC: 4.817 cumulative IPC: 4.739 (Simulation time: 00 hr 02 min 18 sec)
Heartbeat CPU 0 instructions: 39000266 cycles: 8227099 heartbeat IPC: 4.827 cumulative IPC: 4.74 (Simulation time: 00 hr 02 min 20 sec)
Heartbeat CPU 0 instructions: 39500268 cycles: 8330921 heartbeat IPC: 4.816 cumulative IPC: 4.741 (Simulation time: 00 hr 02 min 22 sec)
Heartbeat CPU 0 instructions: 40000275 cycles: 8434717 heartbeat IPC: 4.817 cumulative IPC: 4.742 (Simulation time: 00 hr 02 min 24 sec)
Heartbeat CPU 0 instructions: 40500280 cycles: 8538400 heartbeat IPC: 4.822 cumulative IPC: 4.743 (Simulation time: 00 hr 02 min 26 sec)
Heartbeat CPU 0 instructions: 41000281 cycles: 8642181 heartbeat IPC: 4.818 cumulative IPC: 4.744 (Simulation time: 00 hr 02 min 27 sec)
Heartbeat CPU 0 instructions: 41500283 cycles: 8745983 heartbeat IPC: 4.817 cumulative IPC: 4.745 (Simulation time: 00 hr 02 min 29 sec)
Heartbeat CPU 0 instructions: 42000283 cycles: 8849675 heartbeat IPC: 4.822 cumulative IPC: 4.746 (Simulation time: 00 hr 02 min 31 sec)
Heartbeat CPU 0 instructions: 42500289 cycles: 8953597 heartbeat IPC: 4.811 cumulative IPC: 4.747 (Simulation time: 00 hr 02 min 33 sec)
Heartbeat CPU 0 instructions: 43000289 cycles: 9057383 heartbeat IPC: 4.818 cumulative IPC: 4.748 (Simulation time: 00 hr 02 min 35 sec)
Heartbeat CPU 0 instructions: 43500296 cycles: 9161068 heartbeat IPC: 4.822 cumulative IPC: 4.748 (Simulation time: 00 hr 02 min 37 sec)
Heartbeat CPU 0 instructions: 44000301 cycles: 9264849 heartbeat IPC: 4.818 cumulative IPC: 4.749 (Simulation time: 00 hr 02 min 39 sec)
Heartbeat CPU 0 instructions: 44500307 cycles: 9368764 heartbeat IPC: 4.812 cumulative IPC: 4.75 (Simulation time: 00 hr 02 min 41 sec)
Heartbeat CPU 0 instructions: 45000310 cycles: 9472778 heartbeat IPC: 4.807 cumulative IPC: 4.75 (Simulation time: 00 hr 02 min 43 sec)
Heartbeat CPU 0 instructions: 45500314 cycles: 9576623 heartbeat IPC: 4.815 cumulative IPC: 4.751 (Simulation time: 00 hr 02 min 44 sec)
Heartbeat CPU 0 instructions: 46000319 cycles: 9680302 heartbeat IPC: 4.823 cumulative IPC: 4.752 (Simulation time: 00 hr 02 min 46 sec)
Heartbeat CPU 0 instructions: 46500320 cycles: 9783965 heartbeat IPC: 4.823 cumulative IPC: 4.753 (Simulation time: 00 hr 02 min 48 sec)
Heartbeat CPU 0 instructions: 47000323 cycles: 9887760 heartbeat IPC: 4.817 cumulative IPC: 4.753 (Simulation time: 00 hr 02 min 50 sec)
Heartbeat CPU 0 instructions: 47500323 cycles: 9991591 heartbeat IPC: 4.816 cumulative IPC: 4.754 (Simulation time: 00 hr 02 min 52 sec)
Heartbeat CPU 0 instructions: 48000326 cycles: 10095277 heartbeat IPC: 4.822 cumulative IPC: 4.755 (Simulation time: 00 hr 02 min 54 sec)
Heartbeat CPU 0 instructions: 48500333 cycles: 10199000 heartbeat IPC: 4.821 cumulative IPC: 4.755 (Simulation time: 00 hr 02 min 56 sec)
Heartbeat CPU 0 instructions: 49000333 cycles: 10302690 heartbeat IPC: 4.822 cumulative IPC: 4.756 (Simulation time: 00 hr 02 min 57 sec)
Heartbeat CPU 0 instructions: 49500339 cycles: 10406520 heartbeat IPC: 4.816 cumulative IPC: 4.757 (Simulation time: 00 hr 02 min 59 sec)
Warmup halting CPU 0 at instruction 50000005 cycle 10510411 for remainder of phase
Warmup finished CPU 0 instructions: 50000005 cycles: 10510411 cumulative IPC: 4.757 (Simulation time: 00 hr 03 min 01 sec)
Warmup complete CPU 0 instructions: 50000005 cycles: 10510411 cumulative IPC: 4.757 (Simulation time: 00 hr 03 min 01 sec)
Heartbeat CPU 0 instructions: 50000341 cycles: 10510603 heartbeat IPC: 4.804 cumulative IPC: 1.75 (Simulation time: 00 hr 03 min 01 sec)
Heartbeat CPU 0 instructions: 50500341 cycles: 11876684 heartbeat IPC: 0.366 cumulative IPC: 0.3662 (Simulation time: 00 hr 03 min 11 sec)
Heartbeat CPU 0 instructions: 51000345 cycles: 13237092 heartbeat IPC: 0.3675 cumulative IPC: 0.3669 (Simulation time: 00 hr 03 min 20 sec)
Heartbeat CPU 0 instructions: 51500351 cycles: 14558566 heartbeat IPC: 0.3784 cumulative IPC: 0.3706 (Simulation time: 00 hr 03 min 29 sec)
Heartbeat CPU 0 instructions: 52000352 cycles: 15787064 heartbeat IPC: 0.407 cumulative IPC: 0.3791 (Simulation time: 00 hr 03 min 38 sec)
Heartbeat CPU 0 instructions: 52500354 cycles: 17034987 heartbeat IPC: 0.4007 cumulative IPC: 0.3832 (Simulation time: 00 hr 03 min 46 sec)
Heartbeat CPU 0 instructions: 53000354 cycles: 18279476 heartbeat IPC: 0.4018 cumulative IPC: 0.3862 (Simulation time: 00 hr 03 min 55 sec)
Heartbeat CPU 0 instructions: 53500358 cycles: 19568093 heartbeat IPC: 0.388 cumulative IPC: 0.3865 (Simulation time: 00 hr 04 min 04 sec)
Heartbeat CPU 0 instructions: 54000364 cycles: 20980975 heartbeat IPC: 0.3539 cumulative IPC: 0.3821 (Simulation time: 00 hr 04 min 13 sec)
Heartbeat CPU 0 instructions: 54500364 cycles: 22193769 heartbeat IPC: 0.4123 cumulative IPC: 0.3852 (Simulation time: 00 hr 04 min 22 sec)
Heartbeat CPU 0 instructions: 55000364 cycles: 23539885 heartbeat IPC: 0.3714 cumulative IPC: 0.3838 (Simulation time: 00 hr 04 min 31 sec)
Heartbeat CPU 0 instructions: 55500364 cycles: 24853599 heartbeat IPC: 0.3806 cumulative IPC: 0.3835 (Simulation time: 00 hr 04 min 40 sec)
Heartbeat CPU 0 instructions: 56000370 cycles: 26273592 heartbeat IPC: 0.3521 cumulative IPC: 0.3807 (Simulation time: 00 hr 04 min 49 sec)
Heartbeat CPU 0 instructions: 56500370 cycles: 27557804 heartbeat IPC: 0.3893 cumulative IPC: 0.3813 (Simulation time: 00 hr 04 min 58 sec)
Heartbeat CPU 0 instructions: 57000370 cycles: 28887680 heartbeat IPC: 0.376 cumulative IPC: 0.3809 (Simulation time: 00 hr 05 min 07 sec)
Heartbeat CPU 0 instructions: 57500370 cycles: 30263736 heartbeat IPC: 0.3634 cumulative IPC: 0.3797 (Simulation time: 00 hr 05 min 16 sec)
Heartbeat CPU 0 instructions: 58000371 cycles: 31670936 heartbeat IPC: 0.3553 cumulative IPC: 0.3781 (Simulation time: 00 hr 05 min 25 sec)
Heartbeat CPU 0 instructions: 58500373 cycles: 33062300 heartbeat IPC: 0.3594 cumulative IPC: 0.3769 (Simulation time: 00 hr 05 min 35 sec)
Heartbeat CPU 0 instructions: 59000378 cycles: 34351238 heartbeat IPC: 0.3879 cumulative IPC: 0.3775 (Simulation time: 00 hr 05 min 43 sec)
Heartbeat CPU 0 instructions: 59500379 cycles: 35646217 heartbeat IPC: 0.3861 cumulative IPC: 0.378 (Simulation time: 00 hr 05 min 52 sec)
Heartbeat CPU 0 instructions: 60000379 cycles: 37095616 heartbeat IPC: 0.345 cumulative IPC: 0.3762 (Simulation time: 00 hr 06 min 02 sec)
Heartbeat CPU 0 instructions: 60500379 cycles: 38404817 heartbeat IPC: 0.3819 cumulative IPC: 0.3764 (Simulation time: 00 hr 06 min 11 sec)
Heartbeat CPU 0 instructions: 61000381 cycles: 39708174 heartbeat IPC: 0.3836 cumulative IPC: 0.3768 (Simulation time: 00 hr 06 min 20 sec)
Heartbeat CPU 0 instructions: 61500383 cycles: 40999405 heartbeat IPC: 0.3872 cumulative IPC: 0.3772 (Simulation time: 00 hr 06 min 28 sec)
Heartbeat CPU 0 instructions: 62000386 cycles: 42227590 heartbeat IPC: 0.4071 cumulative IPC: 0.3784 (Simulation time: 00 hr 06 min 37 sec)
Heartbeat CPU 0 instructions: 62500386 cycles: 43557523 heartbeat IPC: 0.376 cumulative IPC: 0.3783 (Simulation time: 00 hr 06 min 46 sec)
Heartbeat CPU 0 instructions: 63000390 cycles: 44993928 heartbeat IPC: 0.3481 cumulative IPC: 0.377 (Simulation time: 00 hr 06 min 55 sec)
Heartbeat CPU 0 instructions: 63500392 cycles: 46201938 heartbeat IPC: 0.4139 cumulative IPC: 0.3783 (Simulation time: 00 hr 07 min 04 sec)
Heartbeat CPU 0 instructions: 64000393 cycles: 47416604 heartbeat IPC: 0.4116 cumulative IPC: 0.3794 (Simulation time: 00 hr 07 min 12 sec)
Heartbeat CPU 0 instructions: 64500393 cycles: 48721361 heartbeat IPC: 0.3832 cumulative IPC: 0.3795 (Simulation time: 00 hr 07 min 21 sec)
Heartbeat CPU 0 instructions: 65000396 cycles: 50009497 heartbeat IPC: 0.3882 cumulative IPC: 0.3798 (Simulation time: 00 hr 07 min 30 sec)
Heartbeat CPU 0 instructions: 65500398 cycles: 51266590 heartbeat IPC: 0.3977 cumulative IPC: 0.3803 (Simulation time: 00 hr 07 min 38 sec)
Heartbeat CPU 0 instructions: 66000398 cycles: 52590162 heartbeat IPC: 0.3778 cumulative IPC: 0.3802 (Simulation time: 00 hr 07 min 47 sec)
Heartbeat CPU 0 instructions: 66500398 cycles: 53799444 heartbeat IPC: 0.4135 cumulative IPC: 0.3812 (Simulation time: 00 hr 07 min 56 sec)
Heartbeat CPU 0 instructions: 67000398 cycles: 55107736 heartbeat IPC: 0.3822 cumulative IPC: 0.3812 (Simulation time: 00 hr 08 min 04 sec)
Heartbeat CPU 0 instructions: 67500398 cycles: 56425502 heartbeat IPC: 0.3794 cumulative IPC: 0.3811 (Simulation time: 00 hr 08 min 13 sec)
Heartbeat CPU 0 instructions: 68000398 cycles: 57839783 heartbeat IPC: 0.3535 cumulative IPC: 0.3803 (Simulation time: 00 hr 08 min 23 sec)
Heartbeat CPU 0 instructions: 68500402 cycles: 59114283 heartbeat IPC: 0.3923 cumulative IPC: 0.3806 (Simulation time: 00 hr 08 min 31 sec)
Heartbeat CPU 0 instructions: 69000406 cycles: 60307575 heartbeat IPC: 0.419 cumulative IPC: 0.3816 (Simulation time: 00 hr 08 min 40 sec)
Heartbeat CPU 0 instructions: 69500411 cycles: 61594992 heartbeat IPC: 0.3884 cumulative IPC: 0.3817 (Simulation time: 00 hr 08 min 48 sec)
Heartbeat CPU 0 instructions: 70000411 cycles: 62832672 heartbeat IPC: 0.404 cumulative IPC: 0.3823 (Simulation time: 00 hr 08 min 57 sec)
Heartbeat CPU 0 instructions: 70500413 cycles: 63965655 heartbeat IPC: 0.4413 cumulative IPC: 0.3835 (Simulation time: 00 hr 09 min 05 sec)
Heartbeat CPU 0 instructions: 71000419 cycles: 65332181 heartbeat IPC: 0.3659 cumulative IPC: 0.3831 (Simulation time: 00 hr 09 min 14 sec)
Heartbeat CPU 0 instructions: 71500420 cycles: 66696420 heartbeat IPC: 0.3665 cumulative IPC: 0.3827 (Simulation time: 00 hr 09 min 23 sec)
Heartbeat CPU 0 instructions: 72000420 cycles: 67964408 heartbeat IPC: 0.3943 cumulative IPC: 0.3829 (Simulation time: 00 hr 09 min 31 sec)
Heartbeat CPU 0 instructions: 72500421 cycles: 69226893 heartbeat IPC: 0.396 cumulative IPC: 0.3832 (Simulation time: 00 hr 09 min 40 sec)
Heartbeat CPU 0 instructions: 73000421 cycles: 70412952 heartbeat IPC: 0.4216 cumulative IPC: 0.384 (Simulation time: 00 hr 09 min 48 sec)
Heartbeat CPU 0 instructions: 73500423 cycles: 71593724 heartbeat IPC: 0.4235 cumulative IPC: 0.3847 (Simulation time: 00 hr 09 min 56 sec)
Heartbeat CPU 0 instructions: 74000424 cycles: 72902164 heartbeat IPC: 0.3821 cumulative IPC: 0.3847 (Simulation time: 00 hr 10 min 05 sec)
Heartbeat CPU 0 instructions: 74500424 cycles: 74184668 heartbeat IPC: 0.3899 cumulative IPC: 0.3848 (Simulation time: 00 hr 10 min 14 sec)
Heartbeat CPU 0 instructions: 75000424 cycles: 75535471 heartbeat IPC: 0.3702 cumulative IPC: 0.3845 (Simulation time: 00 hr 10 min 23 sec)
Heartbeat CPU 0 instructions: 75500427 cycles: 76780320 heartbeat IPC: 0.4017 cumulative IPC: 0.3848 (Simulation time: 00 hr 10 min 31 sec)
Heartbeat CPU 0 instructions: 76000428 cycles: 78087354 heartbeat IPC: 0.3825 cumulative IPC: 0.3848 (Simulation time: 00 hr 10 min 40 sec)
Heartbeat CPU 0 instructions: 76500430 cycles: 79476543 heartbeat IPC: 0.3599 cumulative IPC: 0.3843 (Simulation time: 00 hr 10 min 49 sec)
Heartbeat CPU 0 instructions: 77000431 cycles: 80752999 heartbeat IPC: 0.3917 cumulative IPC: 0.3844 (Simulation time: 00 hr 10 min 58 sec)
Heartbeat CPU 0 instructions: 77500433 cycles: 82033570 heartbeat IPC: 0.3905 cumulative IPC: 0.3845 (Simulation time: 00 hr 11 min 07 sec)
Heartbeat CPU 0 instructions: 78000436 cycles: 83193848 heartbeat IPC: 0.4309 cumulative IPC: 0.3852 (Simulation time: 00 hr 11 min 15 sec)
Heartbeat CPU 0 instructions: 78500438 cycles: 84339179 heartbeat IPC: 0.4366 cumulative IPC: 0.386 (Simulation time: 00 hr 11 min 23 sec)
Heartbeat CPU 0 instructions: 79000438 cycles: 85603154 heartbeat IPC: 0.3956 cumulative IPC: 0.3862 (Simulation time: 00 hr 11 min 32 sec)
Heartbeat CPU 0 instructions: 79500442 cycles: 86861304 heartbeat IPC: 0.3974 cumulative IPC: 0.3864 (Simulation time: 00 hr 11 min 40 sec)
Heartbeat CPU 0 instructions: 80000442 cycles: 88106110 heartbeat IPC: 0.4017 cumulative IPC: 0.3866 (Simulation time: 00 hr 11 min 49 sec)
Heartbeat CPU 0 instructions: 80500442 cycles: 89315583 heartbeat IPC: 0.4134 cumulative IPC: 0.387 (Simulation time: 00 hr 11 min 57 sec)
Heartbeat CPU 0 instructions: 81000442 cycles: 90727849 heartbeat IPC: 0.354 cumulative IPC: 0.3865 (Simulation time: 00 hr 12 min 06 sec)
Heartbeat CPU 0 instructions: 81500445 cycles: 91994580 heartbeat IPC: 0.3947 cumulative IPC: 0.3866 (Simulation time: 00 hr 12 min 15 sec)
Heartbeat CPU 0 instructions: 82000445 cycles: 93299275 heartbeat IPC: 0.3832 cumulative IPC: 0.3865 (Simulation time: 00 hr 12 min 24 sec)
Heartbeat CPU 0 instructions: 82500449 cycles: 94646193 heartbeat IPC: 0.3712 cumulative IPC: 0.3863 (Simulation time: 00 hr 12 min 33 sec)
Heartbeat CPU 0 instructions: 83000451 cycles: 95989975 heartbeat IPC: 0.3721 cumulative IPC: 0.3861 (Simulation time: 00 hr 12 min 42 sec)
Heartbeat CPU 0 instructions: 83500455 cycles: 97335969 heartbeat IPC: 0.3715 cumulative IPC: 0.3858 (Simulation time: 00 hr 12 min 51 sec)
Heartbeat CPU 0 instructions: 84000456 cycles: 98777818 heartbeat IPC: 0.3468 cumulative IPC: 0.3852 (Simulation time: 00 hr 13 min 00 sec)
Heartbeat CPU 0 instructions: 84500458 cycles: 100052208 heartbeat IPC: 0.3923 cumulative IPC: 0.3853 (Simulation time: 00 hr 13 min 09 sec)
Heartbeat CPU 0 instructions: 85000462 cycles: 101374847 heartbeat IPC: 0.378 cumulative IPC: 0.3852 (Simulation time: 00 hr 13 min 18 sec)
Heartbeat CPU 0 instructions: 85500463 cycles: 102660212 heartbeat IPC: 0.389 cumulative IPC: 0.3852 (Simulation time: 00 hr 13 min 26 sec)
Heartbeat CPU 0 instructions: 86000464 cycles: 103982558 heartbeat IPC: 0.3781 cumulative IPC: 0.3851 (Simulation time: 00 hr 13 min 35 sec)
Heartbeat CPU 0 instructions: 86500464 cycles: 105337671 heartbeat IPC: 0.369 cumulative IPC: 0.3849 (Simulation time: 00 hr 13 min 44 sec)
Heartbeat CPU 0 instructions: 87000466 cycles: 106588938 heartbeat IPC: 0.3996 cumulative IPC: 0.3851 (Simulation time: 00 hr 13 min 53 sec)
Heartbeat CPU 0 instructions: 87500467 cycles: 107735574 heartbeat IPC: 0.4361 cumulative IPC: 0.3857 (Simulation time: 00 hr 14 min 01 sec)
Heartbeat CPU 0 instructions: 88000468 cycles: 109042935 heartbeat IPC: 0.3825 cumulative IPC: 0.3857 (Simulation time: 00 hr 14 min 10 sec)
Heartbeat CPU 0 instructions: 88500468 cycles: 110164896 heartbeat IPC: 0.4456 cumulative IPC: 0.3863 (Simulation time: 00 hr 14 min 18 sec)
Heartbeat CPU 0 instructions: 89000468 cycles: 111282021 heartbeat IPC: 0.4476 cumulative IPC: 0.387 (Simulation time: 00 hr 14 min 26 sec)
Heartbeat CPU 0 instructions: 89500468 cycles: 112624980 heartbeat IPC: 0.3723 cumulative IPC: 0.3868 (Simulation time: 00 hr 14 min 35 sec)
Heartbeat CPU 0 instructions: 90000470 cycles: 113868663 heartbeat IPC: 0.402 cumulative IPC: 0.387 (Simulation time: 00 hr 14 min 43 sec)
Heartbeat CPU 0 instructions: 90500471 cycles: 114703579 heartbeat IPC: 0.5989 cumulative IPC: 0.3887 (Simulation time: 00 hr 14 min 50 sec)
Heartbeat CPU 0 instructions: 91000471 cycles: 115661660 heartbeat IPC: 0.5219 cumulative IPC: 0.3899 (Simulation time: 00 hr 14 min 58 sec)
Heartbeat CPU 0 instructions: 91500473 cycles: 117058836 heartbeat IPC: 0.3579 cumulative IPC: 0.3895 (Simulation time: 00 hr 15 min 07 sec)
Heartbeat CPU 0 instructions: 92000475 cycles: 118312990 heartbeat IPC: 0.3987 cumulative IPC: 0.3896 (Simulation time: 00 hr 15 min 16 sec)
Heartbeat CPU 0 instructions: 92500475 cycles: 119707431 heartbeat IPC: 0.3586 cumulative IPC: 0.3892 (Simulation time: 00 hr 15 min 25 sec)
Heartbeat CPU 0 instructions: 93000475 cycles: 120909383 heartbeat IPC: 0.416 cumulative IPC: 0.3895 (Simulation time: 00 hr 15 min 33 sec)
Heartbeat CPU 0 instructions: 93500479 cycles: 122087634 heartbeat IPC: 0.4244 cumulative IPC: 0.3899 (Simulation time: 00 hr 15 min 42 sec)
Heartbeat CPU 0 instructions: 94000480 cycles: 123257150 heartbeat IPC: 0.4275 cumulative IPC: 0.3903 (Simulation time: 00 hr 15 min 50 sec)
Heartbeat CPU 0 instructions: 94500481 cycles: 124651544 heartbeat IPC: 0.3586 cumulative IPC: 0.3899 (Simulation time: 00 hr 15 min 59 sec)
Heartbeat CPU 0 instructions: 95000484 cycles: 125915811 heartbeat IPC: 0.3955 cumulative IPC: 0.3899 (Simulation time: 00 hr 16 min 08 sec)
Heartbeat CPU 0 instructions: 95500487 cycles: 127096045 heartbeat IPC: 0.4236 cumulative IPC: 0.3903 (Simulation time: 00 hr 16 min 16 sec)
Heartbeat CPU 0 instructions: 96000489 cycles: 128393870 heartbeat IPC: 0.3853 cumulative IPC: 0.3902 (Simulation time: 00 hr 16 min 25 sec)
Heartbeat CPU 0 instructions: 96500489 cycles: 129649673 heartbeat IPC: 0.3982 cumulative IPC: 0.3903 (Simulation time: 00 hr 16 min 34 sec)
Heartbeat CPU 0 instructions: 97000491 cycles: 130936462 heartbeat IPC: 0.3886 cumulative IPC: 0.3903 (Simulation time: 00 hr 16 min 42 sec)
Heartbeat CPU 0 instructions: 97500491 cycles: 132338089 heartbeat IPC: 0.3567 cumulative IPC: 0.3899 (Simulation time: 00 hr 16 min 52 sec)
Heartbeat CPU 0 instructions: 98000496 cycles: 133663684 heartbeat IPC: 0.3772 cumulative IPC: 0.3898 (Simulation time: 00 hr 17 min 00 sec)
Heartbeat CPU 0 instructions: 98500502 cycles: 134971612 heartbeat IPC: 0.3823 cumulative IPC: 0.3897 (Simulation time: 00 hr 17 min 09 sec)
Heartbeat CPU 0 instructions: 99000503 cycles: 136179638 heartbeat IPC: 0.4139 cumulative IPC: 0.3899 (Simulation time: 00 hr 17 min 18 sec)
Heartbeat CPU 0 instructions: 99500505 cycles: 137462518 heartbeat IPC: 0.3897 cumulative IPC: 0.3899 (Simulation time: 00 hr 17 min 26 sec)
Heartbeat CPU 0 instructions: 100000509 cycles: 138738814 heartbeat IPC: 0.3918 cumulative IPC: 0.3899 (Simulation time: 00 hr 17 min 35 sec)
Heartbeat CPU 0 instructions: 100500510 cycles: 140008738 heartbeat IPC: 0.3937 cumulative IPC: 0.39 (Simulation time: 00 hr 17 min 44 sec)
Heartbeat CPU 0 instructions: 101000512 cycles: 141237694 heartbeat IPC: 0.4069 cumulative IPC: 0.3901 (Simulation time: 00 hr 17 min 52 sec)
Heartbeat CPU 0 instructions: 101500512 cycles: 142391971 heartbeat IPC: 0.4332 cumulative IPC: 0.3905 (Simulation time: 00 hr 18 min 00 sec)
Heartbeat CPU 0 instructions: 102000517 cycles: 143743608 heartbeat IPC: 0.3699 cumulative IPC: 0.3903 (Simulation time: 00 hr 18 min 09 sec)
Heartbeat CPU 0 instructions: 102500517 cycles: 144973482 heartbeat IPC: 0.4065 cumulative IPC: 0.3904 (Simulation time: 00 hr 18 min 18 sec)
Heartbeat CPU 0 instructions: 103000517 cycles: 146247567 heartbeat IPC: 0.3924 cumulative IPC: 0.3905 (Simulation time: 00 hr 18 min 26 sec)
Heartbeat CPU 0 instructions: 103500517 cycles: 147554315 heartbeat IPC: 0.3826 cumulative IPC: 0.3904 (Simulation time: 00 hr 18 min 35 sec)
Heartbeat CPU 0 instructions: 104000521 cycles: 148695927 heartbeat IPC: 0.438 cumulative IPC: 0.3908 (Simulation time: 00 hr 18 min 43 sec)
Heartbeat CPU 0 instructions: 104500523 cycles: 149921998 heartbeat IPC: 0.4078 cumulative IPC: 0.3909 (Simulation time: 00 hr 18 min 51 sec)
Heartbeat CPU 0 instructions: 105000525 cycles: 151197911 heartbeat IPC: 0.3919 cumulative IPC: 0.3909 (Simulation time: 00 hr 19 min 00 sec)
Heartbeat CPU 0 instructions: 105500526 cycles: 152402975 heartbeat IPC: 0.4149 cumulative IPC: 0.3911 (Simulation time: 00 hr 19 min 08 sec)
Heartbeat CPU 0 instructions: 106000527 cycles: 153770588 heartbeat IPC: 0.3656 cumulative IPC: 0.3909 (Simulation time: 00 hr 19 min 17 sec)
Heartbeat CPU 0 instructions: 106500528 cycles: 154967898 heartbeat IPC: 0.4176 cumulative IPC: 0.3911 (Simulation time: 00 hr 19 min 25 sec)
Heartbeat CPU 0 instructions: 107000528 cycles: 155851359 heartbeat IPC: 0.566 cumulative IPC: 0.3922 (Simulation time: 00 hr 19 min 33 sec)
Heartbeat CPU 0 instructions: 107500532 cycles: 157132711 heartbeat IPC: 0.3902 cumulative IPC: 0.3922 (Simulation time: 00 hr 19 min 41 sec)
Heartbeat CPU 0 instructions: 108000532 cycles: 158504157 heartbeat IPC: 0.3646 cumulative IPC: 0.3919 (Simulation time: 00 hr 19 min 50 sec)
Heartbeat CPU 0 instructions: 108500534 cycles: 159680098 heartbeat IPC: 0.4252 cumulative IPC: 0.3922 (Simulation time: 00 hr 19 min 58 sec)
Heartbeat CPU 0 instructions: 109000536 cycles: 160867234 heartbeat IPC: 0.4212 cumulative IPC: 0.3924 (Simulation time: 00 hr 20 min 07 sec)
Heartbeat CPU 0 instructions: 109500538 cycles: 162170359 heartbeat IPC: 0.3837 cumulative IPC: 0.3923 (Simulation time: 00 hr 20 min 15 sec)
Heartbeat CPU 0 instructions: 110000542 cycles: 163388047 heartbeat IPC: 0.4106 cumulative IPC: 0.3925 (Simulation time: 00 hr 20 min 24 sec)
Heartbeat CPU 0 instructions: 110500543 cycles: 164643903 heartbeat IPC: 0.3981 cumulative IPC: 0.3925 (Simulation time: 00 hr 20 min 32 sec)
Heartbeat CPU 0 instructions: 111000548 cycles: 165794304 heartbeat IPC: 0.4346 cumulative IPC: 0.3928 (Simulation time: 00 hr 20 min 40 sec)
Heartbeat CPU 0 instructions: 111500549 cycles: 167042663 heartbeat IPC: 0.4005 cumulative IPC: 0.3929 (Simulation time: 00 hr 20 min 49 sec)
Heartbeat CPU 0 instructions: 112000549 cycles: 168392706 heartbeat IPC: 0.3704 cumulative IPC: 0.3927 (Simulation time: 00 hr 20 min 57 sec)
Heartbeat CPU 0 instructions: 112500550 cycles: 169481821 heartbeat IPC: 0.4591 cumulative IPC: 0.3932 (Simulation time: 00 hr 21 min 05 sec)
Heartbeat CPU 0 instructions: 113000551 cycles: 170553584 heartbeat IPC: 0.4665 cumulative IPC: 0.3936 (Simulation time: 00 hr 21 min 13 sec)
Heartbeat CPU 0 instructions: 113500552 cycles: 171639383 heartbeat IPC: 0.4605 cumulative IPC: 0.3941 (Simulation time: 00 hr 21 min 21 sec)
Heartbeat CPU 0 instructions: 114000552 cycles: 172933270 heartbeat IPC: 0.3864 cumulative IPC: 0.394 (Simulation time: 00 hr 21 min 29 sec)
Heartbeat CPU 0 instructions: 114500552 cycles: 174094608 heartbeat IPC: 0.4305 cumulative IPC: 0.3943 (Simulation time: 00 hr 21 min 37 sec)
Heartbeat CPU 0 instructions: 115000552 cycles: 175355409 heartbeat IPC: 0.3966 cumulative IPC: 0.3943 (Simulation time: 00 hr 21 min 46 sec)
Heartbeat CPU 0 instructions: 115500553 cycles: 176616698 heartbeat IPC: 0.3964 cumulative IPC: 0.3943 (Simulation time: 00 hr 21 min 54 sec)
Heartbeat CPU 0 instructions: 116000553 cycles: 177812365 heartbeat IPC: 0.4182 cumulative IPC: 0.3945 (Simulation time: 00 hr 22 min 02 sec)
Heartbeat CPU 0 instructions: 116500555 cycles: 179081356 heartbeat IPC: 0.394 cumulative IPC: 0.3945 (Simulation time: 00 hr 22 min 10 sec)
Heartbeat CPU 0 instructions: 117000555 cycles: 180335554 heartbeat IPC: 0.3987 cumulative IPC: 0.3945 (Simulation time: 00 hr 22 min 19 sec)
Heartbeat CPU 0 instructions: 117500555 cycles: 181590728 heartbeat IPC: 0.3984 cumulative IPC: 0.3946 (Simulation time: 00 hr 22 min 27 sec)
Heartbeat CPU 0 instructions: 118000556 cycles: 182870867 heartbeat IPC: 0.3906 cumulative IPC: 0.3945 (Simulation time: 00 hr 22 min 35 sec)
Heartbeat CPU 0 instructions: 118500557 cycles: 184121570 heartbeat IPC: 0.3998 cumulative IPC: 0.3946 (Simulation time: 00 hr 22 min 44 sec)
Heartbeat CPU 0 instructions: 119000557 cycles: 185224772 heartbeat IPC: 0.4532 cumulative IPC: 0.3949 (Simulation time: 00 hr 22 min 51 sec)
Heartbeat CPU 0 instructions: 119500559 cycles: 186457151 heartbeat IPC: 0.4057 cumulative IPC: 0.395 (Simulation time: 00 hr 22 min 59 sec)
Heartbeat CPU 0 instructions: 120000559 cycles: 187763285 heartbeat IPC: 0.3828 cumulative IPC: 0.3949 (Simulation time: 00 hr 23 min 08 sec)
Heartbeat CPU 0 instructions: 120500562 cycles: 189031210 heartbeat IPC: 0.3943 cumulative IPC: 0.3949 (Simulation time: 00 hr 23 min 16 sec)
Heartbeat CPU 0 instructions: 121000566 cycles: 190316355 heartbeat IPC: 0.3891 cumulative IPC: 0.3949 (Simulation time: 00 hr 23 min 24 sec)
Heartbeat CPU 0 instructions: 121500568 cycles: 191566374 heartbeat IPC: 0.4 cumulative IPC: 0.3949 (Simulation time: 00 hr 23 min 33 sec)
Heartbeat CPU 0 instructions: 122000570 cycles: 192910882 heartbeat IPC: 0.3719 cumulative IPC: 0.3947 (Simulation time: 00 hr 23 min 41 sec)
Heartbeat CPU 0 instructions: 122500571 cycles: 194102042 heartbeat IPC: 0.4198 cumulative IPC: 0.3949 (Simulation time: 00 hr 23 min 49 sec)
Heartbeat CPU 0 instructions: 123000575 cycles: 195345141 heartbeat IPC: 0.4022 cumulative IPC: 0.395 (Simulation time: 00 hr 23 min 57 sec)
Heartbeat CPU 0 instructions: 123500575 cycles: 196670816 heartbeat IPC: 0.3772 cumulative IPC: 0.3948 (Simulation time: 00 hr 24 min 06 sec)
Heartbeat CPU 0 instructions: 124000578 cycles: 197935328 heartbeat IPC: 0.3954 cumulative IPC: 0.3948 (Simulation time: 00 hr 24 min 14 sec)
Heartbeat CPU 0 instructions: 124500578 cycles: 199208151 heartbeat IPC: 0.3928 cumulative IPC: 0.3948 (Simulation time: 00 hr 24 min 22 sec)
Heartbeat CPU 0 instructions: 125000578 cycles: 200445877 heartbeat IPC: 0.404 cumulative IPC: 0.3949 (Simulation time: 00 hr 24 min 30 sec)
Heartbeat CPU 0 instructions: 125500578 cycles: 201774471 heartbeat IPC: 0.3763 cumulative IPC: 0.3947 (Simulation time: 00 hr 24 min 39 sec)
Heartbeat CPU 0 instructions: 126000578 cycles: 203001307 heartbeat IPC: 0.4076 cumulative IPC: 0.3948 (Simulation time: 00 hr 24 min 47 sec)
Heartbeat CPU 0 instructions: 126500578 cycles: 204278950 heartbeat IPC: 0.3913 cumulative IPC: 0.3948 (Simulation time: 00 hr 24 min 55 sec)
Heartbeat CPU 0 instructions: 127000578 cycles: 205474455 heartbeat IPC: 0.4182 cumulative IPC: 0.3949 (Simulation time: 00 hr 25 min 03 sec)
Heartbeat CPU 0 instructions: 127500578 cycles: 206820220 heartbeat IPC: 0.3715 cumulative IPC: 0.3948 (Simulation time: 00 hr 25 min 11 sec)
Heartbeat CPU 0 instructions: 128000578 cycles: 208007454 heartbeat IPC: 0.4211 cumulative IPC: 0.3949 (Simulation time: 00 hr 25 min 19 sec)
Heartbeat CPU 0 instructions: 128500579 cycles: 209323258 heartbeat IPC: 0.38 cumulative IPC: 0.3948 (Simulation time: 00 hr 25 min 28 sec)
Heartbeat CPU 0 instructions: 129000582 cycles: 210793915 heartbeat IPC: 0.34 cumulative IPC: 0.3944 (Simulation time: 00 hr 25 min 37 sec)
Heartbeat CPU 0 instructions: 129500582 cycles: 212021184 heartbeat IPC: 0.4074 cumulative IPC: 0.3945 (Simulation time: 00 hr 25 min 45 sec)
Heartbeat CPU 0 instructions: 130000586 cycles: 213229045 heartbeat IPC: 0.414 cumulative IPC: 0.3946 (Simulation time: 00 hr 25 min 53 sec)
Heartbeat CPU 0 instructions: 130500586 cycles: 214647877 heartbeat IPC: 0.3524 cumulative IPC: 0.3943 (Simulation time: 00 hr 26 min 02 sec)
Heartbeat CPU 0 instructions: 131000586 cycles: 215863599 heartbeat IPC: 0.4113 cumulative IPC: 0.3944 (Simulation time: 00 hr 26 min 09 sec)
Heartbeat CPU 0 instructions: 131500587 cycles: 217150175 heartbeat IPC: 0.3886 cumulative IPC: 0.3944 (Simulation time: 00 hr 26 min 18 sec)
Heartbeat CPU 0 instructions: 132000588 cycles: 218455155 heartbeat IPC: 0.3831 cumulative IPC: 0.3943 (Simulation time: 00 hr 26 min 26 sec)
Heartbeat CPU 0 instructions: 132500588 cycles: 219675836 heartbeat IPC: 0.4096 cumulative IPC: 0.3944 (Simulation time: 00 hr 26 min 34 sec)
Heartbeat CPU 0 instructions: 133000588 cycles: 220885766 heartbeat IPC: 0.4132 cumulative IPC: 0.3945 (Simulation time: 00 hr 26 min 42 sec)
Heartbeat CPU 0 instructions: 133500588 cycles: 222219959 heartbeat IPC: 0.3748 cumulative IPC: 0.3944 (Simulation time: 00 hr 26 min 50 sec)
Heartbeat CPU 0 instructions: 134000594 cycles: 223372879 heartbeat IPC: 0.4337 cumulative IPC: 0.3946 (Simulation time: 00 hr 26 min 58 sec)
Heartbeat CPU 0 instructions: 134500594 cycles: 224655905 heartbeat IPC: 0.3897 cumulative IPC: 0.3946 (Simulation time: 00 hr 27 min 06 sec)
Heartbeat CPU 0 instructions: 135000594 cycles: 225924977 heartbeat IPC: 0.394 cumulative IPC: 0.3946 (Simulation time: 00 hr 27 min 14 sec)
Heartbeat CPU 0 instructions: 135500596 cycles: 227182461 heartbeat IPC: 0.3976 cumulative IPC: 0.3946 (Simulation time: 00 hr 27 min 22 sec)
Heartbeat CPU 0 instructions: 136000597 cycles: 228604946 heartbeat IPC: 0.3515 cumulative IPC: 0.3943 (Simulation time: 00 hr 27 min 30 sec)
Heartbeat CPU 0 instructions: 136500597 cycles: 229976581 heartbeat IPC: 0.3645 cumulative IPC: 0.3941 (Simulation time: 00 hr 27 min 38 sec)
Heartbeat CPU 0 instructions: 137000597 cycles: 231056739 heartbeat IPC: 0.4629 cumulative IPC: 0.3945 (Simulation time: 00 hr 27 min 46 sec)
Heartbeat CPU 0 instructions: 137500597 cycles: 232340758 heartbeat IPC: 0.3894 cumulative IPC: 0.3944 (Simulation time: 00 hr 27 min 54 sec)
Heartbeat CPU 0 instructions: 138000603 cycles: 233761411 heartbeat IPC: 0.352 cumulative IPC: 0.3942 (Simulation time: 00 hr 28 min 02 sec)
Heartbeat CPU 0 instructions: 138500604 cycles: 234983921 heartbeat IPC: 0.409 cumulative IPC: 0.3943 (Simulation time: 00 hr 28 min 10 sec)
Heartbeat CPU 0 instructions: 139000605 cycles: 236330755 heartbeat IPC: 0.3712 cumulative IPC: 0.3941 (Simulation time: 00 hr 28 min 18 sec)
Heartbeat CPU 0 instructions: 139500605 cycles: 237530190 heartbeat IPC: 0.4169 cumulative IPC: 0.3942 (Simulation time: 00 hr 28 min 26 sec)
Heartbeat CPU 0 instructions: 140000607 cycles: 238619496 heartbeat IPC: 0.459 cumulative IPC: 0.3946 (Simulation time: 00 hr 28 min 33 sec)
Heartbeat CPU 0 instructions: 140500607 cycles: 239850159 heartbeat IPC: 0.4063 cumulative IPC: 0.3946 (Simulation time: 00 hr 28 min 41 sec)
Heartbeat CPU 0 instructions: 141000607 cycles: 241171682 heartbeat IPC: 0.3784 cumulative IPC: 0.3945 (Simulation time: 00 hr 28 min 49 sec)
Heartbeat CPU 0 instructions: 141500607 cycles: 242423729 heartbeat IPC: 0.3993 cumulative IPC: 0.3945 (Simulation time: 00 hr 28 min 57 sec)
Heartbeat CPU 0 instructions: 142000607 cycles: 243597717 heartbeat IPC: 0.4259 cumulative IPC: 0.3947 (Simulation time: 00 hr 29 min 05 sec)
Heartbeat CPU 0 instructions: 142500609 cycles: 244950108 heartbeat IPC: 0.3697 cumulative IPC: 0.3946 (Simulation time: 00 hr 29 min 13 sec)
Heartbeat CPU 0 instructions: 143000609 cycles: 246068840 heartbeat IPC: 0.4469 cumulative IPC: 0.3948 (Simulation time: 00 hr 29 min 20 sec)
Heartbeat CPU 0 instructions: 143500609 cycles: 247414002 heartbeat IPC: 0.3717 cumulative IPC: 0.3947 (Simulation time: 00 hr 29 min 29 sec)
Heartbeat CPU 0 instructions: 144000610 cycles: 248606351 heartbeat IPC: 0.4193 cumulative IPC: 0.3948 (Simulation time: 00 hr 29 min 36 sec)
Heartbeat CPU 0 instructions: 144500611 cycles: 249874968 heartbeat IPC: 0.3941 cumulative IPC: 0.3948 (Simulation time: 00 hr 29 min 44 sec)
Heartbeat CPU 0 instructions: 145000612 cycles: 251156792 heartbeat IPC: 0.3901 cumulative IPC: 0.3948 (Simulation time: 00 hr 29 min 52 sec)
Heartbeat CPU 0 instructions: 145500614 cycles: 252324336 heartbeat IPC: 0.4283 cumulative IPC: 0.3949 (Simulation time: 00 hr 29 min 59 sec)
Heartbeat CPU 0 instructions: 146000616 cycles: 253585329 heartbeat IPC: 0.3965 cumulative IPC: 0.3949 (Simulation time: 00 hr 30 min 07 sec)
Heartbeat CPU 0 instructions: 146500620 cycles: 254930407 heartbeat IPC: 0.3717 cumulative IPC: 0.3948 (Simulation time: 00 hr 30 min 15 sec)
Heartbeat CPU 0 instructions: 147000621 cycles: 256147412 heartbeat IPC: 0.4108 cumulative IPC: 0.3949 (Simulation time: 00 hr 30 min 23 sec)
Heartbeat CPU 0 instructions: 147500622 cycles: 257285684 heartbeat IPC: 0.4393 cumulative IPC: 0.3951 (Simulation time: 00 hr 30 min 30 sec)
Heartbeat CPU 0 instructions: 148000623 cycles: 258249497 heartbeat IPC: 0.5188 cumulative IPC: 0.3956 (Simulation time: 00 hr 30 min 36 sec)
Heartbeat CPU 0 instructions: 148500626 cycles: 258794639 heartbeat IPC: 0.9172 cumulative IPC: 0.3967 (Simulation time: 00 hr 30 min 41 sec)
Heartbeat CPU 0 instructions: 149000626 cycles: 259872898 heartbeat IPC: 0.4637 cumulative IPC: 0.397 (Simulation time: 00 hr 30 min 48 sec)
Heartbeat CPU 0 instructions: 149500626 cycles: 260863628 heartbeat IPC: 0.5047 cumulative IPC: 0.3974 (Simulation time: 00 hr 30 min 55 sec)
Heartbeat CPU 0 instructions: 150000628 cycles: 262158590 heartbeat IPC: 0.3861 cumulative IPC: 0.3974 (Simulation time: 00 hr 31 min 02 sec)
Heartbeat CPU 0 instructions: 150500628 cycles: 263408522 heartbeat IPC: 0.4 cumulative IPC: 0.3974 (Simulation time: 00 hr 31 min 10 sec)
Heartbeat CPU 0 instructions: 151000633 cycles: 264657244 heartbeat IPC: 0.4004 cumulative IPC: 0.3974 (Simulation time: 00 hr 31 min 18 sec)
Heartbeat CPU 0 instructions: 151500633 cycles: 265872742 heartbeat IPC: 0.4114 cumulative IPC: 0.3975 (Simulation time: 00 hr 31 min 25 sec)
Heartbeat CPU 0 instructions: 152000637 cycles: 267070768 heartbeat IPC: 0.4174 cumulative IPC: 0.3976 (Simulation time: 00 hr 31 min 32 sec)
Heartbeat CPU 0 instructions: 152500642 cycles: 268188800 heartbeat IPC: 0.4472 cumulative IPC: 0.3978 (Simulation time: 00 hr 31 min 39 sec)
Heartbeat CPU 0 instructions: 153000643 cycles: 269487807 heartbeat IPC: 0.3849 cumulative IPC: 0.3977 (Simulation time: 00 hr 31 min 47 sec)
Heartbeat CPU 0 instructions: 153500646 cycles: 270743229 heartbeat IPC: 0.3983 cumulative IPC: 0.3977 (Simulation time: 00 hr 31 min 55 sec)
Heartbeat CPU 0 instructions: 154000646 cycles: 271925757 heartbeat IPC: 0.4228 cumulative IPC: 0.3978 (Simulation time: 00 hr 32 min 02 sec)
Heartbeat CPU 0 instructions: 154500650 cycles: 273160289 heartbeat IPC: 0.405 cumulative IPC: 0.3979 (Simulation time: 00 hr 32 min 09 sec)
Heartbeat CPU 0 instructions: 155000650 cycles: 274402424 heartbeat IPC: 0.4025 cumulative IPC: 0.3979 (Simulation time: 00 hr 32 min 17 sec)
Heartbeat CPU 0 instructions: 155500651 cycles: 275839817 heartbeat IPC: 0.3479 cumulative IPC: 0.3976 (Simulation time: 00 hr 32 min 25 sec)
Heartbeat CPU 0 instructions: 156000653 cycles: 277075998 heartbeat IPC: 0.4045 cumulative IPC: 0.3977 (Simulation time: 00 hr 32 min 32 sec)
Heartbeat CPU 0 instructions: 156500656 cycles: 278309118 heartbeat IPC: 0.4055 cumulative IPC: 0.3977 (Simulation time: 00 hr 32 min 40 sec)
Heartbeat CPU 0 instructions: 157000656 cycles: 279517362 heartbeat IPC: 0.4138 cumulative IPC: 0.3978 (Simulation time: 00 hr 32 min 47 sec)
Heartbeat CPU 0 instructions: 157500661 cycles: 280899452 heartbeat IPC: 0.3618 cumulative IPC: 0.3976 (Simulation time: 00 hr 32 min 55 sec)
Heartbeat CPU 0 instructions: 158000661 cycles: 282137600 heartbeat IPC: 0.4038 cumulative IPC: 0.3976 (Simulation time: 00 hr 33 min 03 sec)
Heartbeat CPU 0 instructions: 158500661 cycles: 283420747 heartbeat IPC: 0.3897 cumulative IPC: 0.3976 (Simulation time: 00 hr 33 min 10 sec)
Heartbeat CPU 0 instructions: 159000662 cycles: 284804348 heartbeat IPC: 0.3614 cumulative IPC: 0.3974 (Simulation time: 00 hr 33 min 18 sec)
Heartbeat CPU 0 instructions: 159500664 cycles: 285782006 heartbeat IPC: 0.5114 cumulative IPC: 0.3978 (Simulation time: 00 hr 33 min 25 sec)
Heartbeat CPU 0 instructions: 160000665 cycles: 286751580 heartbeat IPC: 0.5157 cumulative IPC: 0.3982 (Simulation time: 00 hr 33 min 32 sec)
Heartbeat CPU 0 instructions: 160500669 cycles: 288006546 heartbeat IPC: 0.3984 cumulative IPC: 0.3982 (Simulation time: 00 hr 33 min 39 sec)
Heartbeat CPU 0 instructions: 161000670 cycles: 289242034 heartbeat IPC: 0.4047 cumulative IPC: 0.3982 (Simulation time: 00 hr 33 min 47 sec)
Heartbeat CPU 0 instructions: 161500670 cycles: 290465464 heartbeat IPC: 0.4087 cumulative IPC: 0.3983 (Simulation time: 00 hr 33 min 54 sec)
Heartbeat CPU 0 instructions: 162000670 cycles: 291731495 heartbeat IPC: 0.3949 cumulative IPC: 0.3983 (Simulation time: 00 hr 34 min 02 sec)
Heartbeat CPU 0 instructions: 162500670 cycles: 293038505 heartbeat IPC: 0.3826 cumulative IPC: 0.3982 (Simulation time: 00 hr 34 min 09 sec)
Heartbeat CPU 0 instructions: 163000673 cycles: 294264751 heartbeat IPC: 0.4078 cumulative IPC: 0.3982 (Simulation time: 00 hr 34 min 17 sec)
Heartbeat CPU 0 instructions: 163500674 cycles: 295677729 heartbeat IPC: 0.3539 cumulative IPC: 0.398 (Simulation time: 00 hr 34 min 25 sec)
Heartbeat CPU 0 instructions: 164000678 cycles: 296980596 heartbeat IPC: 0.3838 cumulative IPC: 0.3979 (Simulation time: 00 hr 34 min 33 sec)
Heartbeat CPU 0 instructions: 164500682 cycles: 298098261 heartbeat IPC: 0.4474 cumulative IPC: 0.3981 (Simulation time: 00 hr 34 min 40 sec)
Heartbeat CPU 0 instructions: 165000682 cycles: 299369255 heartbeat IPC: 0.3934 cumulative IPC: 0.3981 (Simulation time: 00 hr 34 min 47 sec)
Heartbeat CPU 0 instructions: 165500682 cycles: 300617520 heartbeat IPC: 0.4006 cumulative IPC: 0.3981 (Simulation time: 00 hr 34 min 55 sec)
Heartbeat CPU 0 instructions: 166000682 cycles: 301974275 heartbeat IPC: 0.3685 cumulative IPC: 0.398 (Simulation time: 00 hr 35 min 03 sec)
Heartbeat CPU 0 instructions: 166500686 cycles: 303286407 heartbeat IPC: 0.3811 cumulative IPC: 0.3979 (Simulation time: 00 hr 35 min 11 sec)
Heartbeat CPU 0 instructions: 167000687 cycles: 304378306 heartbeat IPC: 0.4579 cumulative IPC: 0.3981 (Simulation time: 00 hr 35 min 18 sec)
Heartbeat CPU 0 instructions: 167500687 cycles: 305699294 heartbeat IPC: 0.3785 cumulative IPC: 0.3981 (Simulation time: 00 hr 35 min 25 sec)
Heartbeat CPU 0 instructions: 168000687 cycles: 306791760 heartbeat IPC: 0.4577 cumulative IPC: 0.3983 (Simulation time: 00 hr 35 min 32 sec)
Heartbeat CPU 0 instructions: 168500688 cycles: 308042573 heartbeat IPC: 0.3997 cumulative IPC: 0.3983 (Simulation time: 00 hr 35 min 40 sec)
Heartbeat CPU 0 instructions: 169000693 cycles: 309282609 heartbeat IPC: 0.4032 cumulative IPC: 0.3983 (Simulation time: 00 hr 35 min 47 sec)
Heartbeat CPU 0 instructions: 169500693 cycles: 310335654 heartbeat IPC: 0.4748 cumulative IPC: 0.3986 (Simulation time: 00 hr 35 min 54 sec)
Heartbeat CPU 0 instructions: 170000693 cycles: 311591349 heartbeat IPC: 0.3982 cumulative IPC: 0.3986 (Simulation time: 00 hr 36 min 02 sec)
Heartbeat CPU 0 instructions: 170500695 cycles: 312832763 heartbeat IPC: 0.4028 cumulative IPC: 0.3986 (Simulation time: 00 hr 36 min 09 sec)
Heartbeat CPU 0 instructions: 171000698 cycles: 314089754 heartbeat IPC: 0.3978 cumulative IPC: 0.3986 (Simulation time: 00 hr 36 min 17 sec)
Heartbeat CPU 0 instructions: 171500698 cycles: 315444550 heartbeat IPC: 0.3691 cumulative IPC: 0.3984 (Simulation time: 00 hr 36 min 25 sec)
Heartbeat CPU 0 instructions: 172000700 cycles: 316666260 heartbeat IPC: 0.4093 cumulative IPC: 0.3985 (Simulation time: 00 hr 36 min 32 sec)
Heartbeat CPU 0 instructions: 172500700 cycles: 318064783 heartbeat IPC: 0.3575 cumulative IPC: 0.3983 (Simulation time: 00 hr 36 min 40 sec)
Heartbeat CPU 0 instructions: 173000700 cycles: 319271729 heartbeat IPC: 0.4143 cumulative IPC: 0.3984 (Simulation time: 00 hr 36 min 47 sec)
Heartbeat CPU 0 instructions: 173500701 cycles: 320330044 heartbeat IPC: 0.4725 cumulative IPC: 0.3986 (Simulation time: 00 hr 36 min 54 sec)
Heartbeat CPU 0 instructions: 174000701 cycles: 321539287 heartbeat IPC: 0.4135 cumulative IPC: 0.3987 (Simulation time: 00 hr 37 min 02 sec)
Heartbeat CPU 0 instructions: 174500701 cycles: 322664382 heartbeat IPC: 0.4444 cumulative IPC: 0.3988 (Simulation time: 00 hr 37 min 09 sec)
Heartbeat CPU 0 instructions: 175000701 cycles: 323992853 heartbeat IPC: 0.3764 cumulative IPC: 0.3987 (Simulation time: 00 hr 37 min 17 sec)
Heartbeat CPU 0 instructions: 175500705 cycles: 325201132 heartbeat IPC: 0.4138 cumulative IPC: 0.3988 (Simulation time: 00 hr 37 min 24 sec)
Heartbeat CPU 0 instructions: 176000707 cycles: 326470589 heartbeat IPC: 0.3939 cumulative IPC: 0.3988 (Simulation time: 00 hr 37 min 32 sec)
Heartbeat CPU 0 instructions: 176500708 cycles: 327668869 heartbeat IPC: 0.4173 cumulative IPC: 0.3989 (Simulation time: 00 hr 37 min 39 sec)
Heartbeat CPU 0 instructions: 177000712 cycles: 328877367 heartbeat IPC: 0.4137 cumulative IPC: 0.3989 (Simulation time: 00 hr 37 min 46 sec)
Heartbeat CPU 0 instructions: 177500716 cycles: 330322877 heartbeat IPC: 0.3459 cumulative IPC: 0.3987 (Simulation time: 00 hr 37 min 55 sec)
Heartbeat CPU 0 instructions: 178000717 cycles: 331572958 heartbeat IPC: 0.4 cumulative IPC: 0.3987 (Simulation time: 00 hr 38 min 02 sec)
Heartbeat CPU 0 instructions: 178500717 cycles: 332757353 heartbeat IPC: 0.4222 cumulative IPC: 0.3988 (Simulation time: 00 hr 38 min 09 sec)
Heartbeat CPU 0 instructions: 179000717 cycles: 333969525 heartbeat IPC: 0.4125 cumulative IPC: 0.3988 (Simulation time: 00 hr 38 min 17 sec)
Heartbeat CPU 0 instructions: 179500721 cycles: 335259806 heartbeat IPC: 0.3875 cumulative IPC: 0.3988 (Simulation time: 00 hr 38 min 24 sec)
Heartbeat CPU 0 instructions: 180000722 cycles: 336369653 heartbeat IPC: 0.4505 cumulative IPC: 0.3989 (Simulation time: 00 hr 38 min 31 sec)
Heartbeat CPU 0 instructions: 180500722 cycles: 337361540 heartbeat IPC: 0.5041 cumulative IPC: 0.3993 (Simulation time: 00 hr 38 min 38 sec)
Heartbeat CPU 0 instructions: 181000722 cycles: 338716021 heartbeat IPC: 0.3691 cumulative IPC: 0.3991 (Simulation time: 00 hr 38 min 46 sec)
Heartbeat CPU 0 instructions: 181500725 cycles: 339968445 heartbeat IPC: 0.3992 cumulative IPC: 0.3991 (Simulation time: 00 hr 38 min 54 sec)
Heartbeat CPU 0 instructions: 182000728 cycles: 341317201 heartbeat IPC: 0.3707 cumulative IPC: 0.399 (Simulation time: 00 hr 39 min 02 sec)
Heartbeat CPU 0 instructions: 182500728 cycles: 342515686 heartbeat IPC: 0.4172 cumulative IPC: 0.3991 (Simulation time: 00 hr 39 min 09 sec)
Heartbeat CPU 0 instructions: 183000728 cycles: 343792929 heartbeat IPC: 0.3915 cumulative IPC: 0.3991 (Simulation time: 00 hr 39 min 17 sec)
Heartbeat CPU 0 instructions: 183500728 cycles: 345062599 heartbeat IPC: 0.3938 cumulative IPC: 0.399 (Simulation time: 00 hr 39 min 24 sec)
Heartbeat CPU 0 instructions: 184000732 cycles: 346142387 heartbeat IPC: 0.4631 cumulative IPC: 0.3992 (Simulation time: 00 hr 39 min 31 sec)
Heartbeat CPU 0 instructions: 184500732 cycles: 347309538 heartbeat IPC: 0.4284 cumulative IPC: 0.3993 (Simulation time: 00 hr 39 min 38 sec)
Heartbeat CPU 0 instructions: 185000732 cycles: 348597114 heartbeat IPC: 0.3883 cumulative IPC: 0.3993 (Simulation time: 00 hr 39 min 46 sec)
Heartbeat CPU 0 instructions: 185500734 cycles: 349880981 heartbeat IPC: 0.3894 cumulative IPC: 0.3993 (Simulation time: 00 hr 39 min 53 sec)
Heartbeat CPU 0 instructions: 186000734 cycles: 351060583 heartbeat IPC: 0.4239 cumulative IPC: 0.3994 (Simulation time: 00 hr 40 min 01 sec)
Heartbeat CPU 0 instructions: 186500735 cycles: 352323178 heartbeat IPC: 0.396 cumulative IPC: 0.3993 (Simulation time: 00 hr 40 min 08 sec)
Heartbeat CPU 0 instructions: 187000735 cycles: 353568628 heartbeat IPC: 0.4015 cumulative IPC: 0.3994 (Simulation time: 00 hr 40 min 16 sec)
Heartbeat CPU 0 instructions: 187500736 cycles: 354801680 heartbeat IPC: 0.4055 cumulative IPC: 0.3994 (Simulation time: 00 hr 40 min 23 sec)
Heartbeat CPU 0 instructions: 188000736 cycles: 356011932 heartbeat IPC: 0.4131 cumulative IPC: 0.3994 (Simulation time: 00 hr 40 min 31 sec)
Heartbeat CPU 0 instructions: 188500740 cycles: 357153511 heartbeat IPC: 0.438 cumulative IPC: 0.3995 (Simulation time: 00 hr 40 min 38 sec)
Heartbeat CPU 0 instructions: 189000742 cycles: 358301308 heartbeat IPC: 0.4356 cumulative IPC: 0.3997 (Simulation time: 00 hr 40 min 45 sec)
Heartbeat CPU 0 instructions: 189500742 cycles: 359644366 heartbeat IPC: 0.3723 cumulative IPC: 0.3996 (Simulation time: 00 hr 40 min 53 sec)
Heartbeat CPU 0 instructions: 190000744 cycles: 360982789 heartbeat IPC: 0.3736 cumulative IPC: 0.3995 (Simulation time: 00 hr 41 min 00 sec)
Heartbeat CPU 0 instructions: 190500744 cycles: 362202180 heartbeat IPC: 0.41 cumulative IPC: 0.3995 (Simulation time: 00 hr 41 min 08 sec)
Heartbeat CPU 0 instructions: 191000746 cycles: 363185338 heartbeat IPC: 0.5086 cumulative IPC: 0.3998 (Simulation time: 00 hr 41 min 14 sec)
Heartbeat CPU 0 instructions: 191500750 cycles: 364359912 heartbeat IPC: 0.4257 cumulative IPC: 0.3999 (Simulation time: 00 hr 41 min 22 sec)
Heartbeat CPU 0 instructions: 192000750 cycles: 365601347 heartbeat IPC: 0.4028 cumulative IPC: 0.3999 (Simulation time: 00 hr 41 min 29 sec)
Heartbeat CPU 0 instructions: 192500755 cycles: 366971525 heartbeat IPC: 0.3649 cumulative IPC: 0.3998 (Simulation time: 00 hr 41 min 37 sec)
Heartbeat CPU 0 instructions: 193000757 cycles: 368261927 heartbeat IPC: 0.3875 cumulative IPC: 0.3997 (Simulation time: 00 hr 41 min 45 sec)
Heartbeat CPU 0 instructions: 193500759 cycles: 369455599 heartbeat IPC: 0.4189 cumulative IPC: 0.3998 (Simulation time: 00 hr 41 min 52 sec)
Heartbeat CPU 0 instructions: 194000764 cycles: 370653845 heartbeat IPC: 0.4173 cumulative IPC: 0.3998 (Simulation time: 00 hr 41 min 59 sec)
Heartbeat CPU 0 instructions: 194500766 cycles: 371842794 heartbeat IPC: 0.4205 cumulative IPC: 0.3999 (Simulation time: 00 hr 42 min 07 sec)
Heartbeat CPU 0 instructions: 195000770 cycles: 373155877 heartbeat IPC: 0.3808 cumulative IPC: 0.3998 (Simulation time: 00 hr 42 min 14 sec)
Heartbeat CPU 0 instructions: 195500771 cycles: 374349295 heartbeat IPC: 0.419 cumulative IPC: 0.3999 (Simulation time: 00 hr 42 min 22 sec)
Heartbeat CPU 0 instructions: 196000772 cycles: 375611358 heartbeat IPC: 0.3962 cumulative IPC: 0.3999 (Simulation time: 00 hr 42 min 29 sec)
Heartbeat CPU 0 instructions: 196500772 cycles: 376751816 heartbeat IPC: 0.4384 cumulative IPC: 0.4 (Simulation time: 00 hr 42 min 36 sec)
Heartbeat CPU 0 instructions: 197000774 cycles: 378018400 heartbeat IPC: 0.3948 cumulative IPC: 0.4 (Simulation time: 00 hr 42 min 44 sec)
Heartbeat CPU 0 instructions: 197500774 cycles: 379307538 heartbeat IPC: 0.3879 cumulative IPC: 0.4 (Simulation time: 00 hr 42 min 52 sec)
Heartbeat CPU 0 instructions: 198000776 cycles: 380612433 heartbeat IPC: 0.3832 cumulative IPC: 0.3999 (Simulation time: 00 hr 42 min 59 sec)
Heartbeat CPU 0 instructions: 198500778 cycles: 381778460 heartbeat IPC: 0.4288 cumulative IPC: 0.4 (Simulation time: 00 hr 43 min 07 sec)
Heartbeat CPU 0 instructions: 199000779 cycles: 383023831 heartbeat IPC: 0.4015 cumulative IPC: 0.4 (Simulation time: 00 hr 43 min 14 sec)
Heartbeat CPU 0 instructions: 199500780 cycles: 384336318 heartbeat IPC: 0.381 cumulative IPC: 0.3999 (Simulation time: 00 hr 43 min 22 sec)
Heartbeat CPU 0 instructions: 200000780 cycles: 385644209 heartbeat IPC: 0.3823 cumulative IPC: 0.3999 (Simulation time: 00 hr 43 min 29 sec)
Heartbeat CPU 0 instructions: 200500784 cycles: 386679082 heartbeat IPC: 0.4832 cumulative IPC: 0.4001 (Simulation time: 00 hr 43 min 36 sec)
Heartbeat CPU 0 instructions: 201000784 cycles: 387607139 heartbeat IPC: 0.5388 cumulative IPC: 0.4004 (Simulation time: 00 hr 43 min 43 sec)
Heartbeat CPU 0 instructions: 201500785 cycles: 388836171 heartbeat IPC: 0.4068 cumulative IPC: 0.4005 (Simulation time: 00 hr 43 min 50 sec)
Heartbeat CPU 0 instructions: 202000787 cycles: 389892308 heartbeat IPC: 0.4734 cumulative IPC: 0.4007 (Simulation time: 00 hr 43 min 57 sec)
Heartbeat CPU 0 instructions: 202500788 cycles: 391326344 heartbeat IPC: 0.3487 cumulative IPC: 0.4005 (Simulation time: 00 hr 44 min 05 sec)
Heartbeat CPU 0 instructions: 203000789 cycles: 392457102 heartbeat IPC: 0.4422 cumulative IPC: 0.4006 (Simulation time: 00 hr 44 min 12 sec)
Heartbeat CPU 0 instructions: 203500789 cycles: 393749351 heartbeat IPC: 0.3869 cumulative IPC: 0.4005 (Simulation time: 00 hr 44 min 20 sec)
Heartbeat CPU 0 instructions: 204000790 cycles: 394771195 heartbeat IPC: 0.4893 cumulative IPC: 0.4008 (Simulation time: 00 hr 44 min 27 sec)
Heartbeat CPU 0 instructions: 204500790 cycles: 396052509 heartbeat IPC: 0.3902 cumulative IPC: 0.4007 (Simulation time: 00 hr 44 min 34 sec)
Heartbeat CPU 0 instructions: 205000796 cycles: 397325609 heartbeat IPC: 0.3927 cumulative IPC: 0.4007 (Simulation time: 00 hr 44 min 42 sec)
Heartbeat CPU 0 instructions: 205500798 cycles: 398604278 heartbeat IPC: 0.391 cumulative IPC: 0.4007 (Simulation time: 00 hr 44 min 49 sec)
Heartbeat CPU 0 instructions: 206000798 cycles: 399869107 heartbeat IPC: 0.3953 cumulative IPC: 0.4007 (Simulation time: 00 hr 44 min 57 sec)
Heartbeat CPU 0 instructions: 206500803 cycles: 400966458 heartbeat IPC: 0.4556 cumulative IPC: 0.4008 (Simulation time: 00 hr 45 min 04 sec)
Heartbeat CPU 0 instructions: 207000803 cycles: 402129254 heartbeat IPC: 0.43 cumulative IPC: 0.4009 (Simulation time: 00 hr 45 min 11 sec)
Heartbeat CPU 0 instructions: 207500803 cycles: 403450530 heartbeat IPC: 0.3784 cumulative IPC: 0.4008 (Simulation time: 00 hr 45 min 19 sec)
Heartbeat CPU 0 instructions: 208000805 cycles: 404600477 heartbeat IPC: 0.4348 cumulative IPC: 0.4009 (Simulation time: 00 hr 45 min 26 sec)
Heartbeat CPU 0 instructions: 208500811 cycles: 405942853 heartbeat IPC: 0.3725 cumulative IPC: 0.4008 (Simulation time: 00 hr 45 min 34 sec)
Heartbeat CPU 0 instructions: 209000812 cycles: 407152041 heartbeat IPC: 0.4135 cumulative IPC: 0.4009 (Simulation time: 00 hr 45 min 41 sec)
Heartbeat CPU 0 instructions: 209500815 cycles: 408333049 heartbeat IPC: 0.4234 cumulative IPC: 0.4009 (Simulation time: 00 hr 45 min 49 sec)
Heartbeat CPU 0 instructions: 210000817 cycles: 409520875 heartbeat IPC: 0.4209 cumulative IPC: 0.401 (Simulation time: 00 hr 45 min 56 sec)
Heartbeat CPU 0 instructions: 210500821 cycles: 410557239 heartbeat IPC: 0.4825 cumulative IPC: 0.4012 (Simulation time: 00 hr 46 min 03 sec)
Heartbeat CPU 0 instructions: 211000824 cycles: 411971297 heartbeat IPC: 0.3536 cumulative IPC: 0.401 (Simulation time: 00 hr 46 min 11 sec)
Heartbeat CPU 0 instructions: 211500824 cycles: 413233979 heartbeat IPC: 0.396 cumulative IPC: 0.401 (Simulation time: 00 hr 46 min 19 sec)
Heartbeat CPU 0 instructions: 212000827 cycles: 414599266 heartbeat IPC: 0.3662 cumulative IPC: 0.4009 (Simulation time: 00 hr 46 min 26 sec)
Heartbeat CPU 0 instructions: 212500828 cycles: 415792997 heartbeat IPC: 0.4189 cumulative IPC: 0.401 (Simulation time: 00 hr 46 min 34 sec)
Heartbeat CPU 0 instructions: 213000828 cycles: 417084143 heartbeat IPC: 0.3873 cumulative IPC: 0.4009 (Simulation time: 00 hr 46 min 41 sec)
Heartbeat CPU 0 instructions: 213500828 cycles: 418132731 heartbeat IPC: 0.4768 cumulative IPC: 0.4011 (Simulation time: 00 hr 46 min 48 sec)
Heartbeat CPU 0 instructions: 214000829 cycles: 419384799 heartbeat IPC: 0.3993 cumulative IPC: 0.4011 (Simulation time: 00 hr 46 min 56 sec)
Heartbeat CPU 0 instructions: 214500830 cycles: 420633109 heartbeat IPC: 0.4005 cumulative IPC: 0.4011 (Simulation time: 00 hr 47 min 03 sec)
Heartbeat CPU 0 instructions: 215000830 cycles: 421917437 heartbeat IPC: 0.3893 cumulative IPC: 0.4011 (Simulation time: 00 hr 47 min 11 sec)
Heartbeat CPU 0 instructions: 215500831 cycles: 423156294 heartbeat IPC: 0.4036 cumulative IPC: 0.4011 (Simulation time: 00 hr 47 min 18 sec)
Heartbeat CPU 0 instructions: 216000832 cycles: 424464680 heartbeat IPC: 0.3822 cumulative IPC: 0.401 (Simulation time: 00 hr 47 min 26 sec)
Heartbeat CPU 0 instructions: 216500835 cycles: 425690408 heartbeat IPC: 0.4079 cumulative IPC: 0.401 (Simulation time: 00 hr 47 min 33 sec)
Heartbeat CPU 0 instructions: 217000835 cycles: 426930325 heartbeat IPC: 0.4033 cumulative IPC: 0.401 (Simulation time: 00 hr 47 min 41 sec)
Heartbeat CPU 0 instructions: 217500835 cycles: 428259502 heartbeat IPC: 0.3762 cumulative IPC: 0.401 (Simulation time: 00 hr 47 min 49 sec)
Heartbeat CPU 0 instructions: 218000836 cycles: 429576441 heartbeat IPC: 0.3797 cumulative IPC: 0.4009 (Simulation time: 00 hr 47 min 56 sec)
Heartbeat CPU 0 instructions: 218500836 cycles: 430910863 heartbeat IPC: 0.3747 cumulative IPC: 0.4008 (Simulation time: 00 hr 48 min 04 sec)
Heartbeat CPU 0 instructions: 219000840 cycles: 432247184 heartbeat IPC: 0.3742 cumulative IPC: 0.4007 (Simulation time: 00 hr 48 min 12 sec)
Heartbeat CPU 0 instructions: 219500843 cycles: 433614906 heartbeat IPC: 0.3656 cumulative IPC: 0.4006 (Simulation time: 00 hr 48 min 20 sec)
Heartbeat CPU 0 instructions: 220000845 cycles: 434907535 heartbeat IPC: 0.3868 cumulative IPC: 0.4006 (Simulation time: 00 hr 48 min 28 sec)
Heartbeat CPU 0 instructions: 220500847 cycles: 436303753 heartbeat IPC: 0.3581 cumulative IPC: 0.4004 (Simulation time: 00 hr 48 min 36 sec)
Heartbeat CPU 0 instructions: 221000848 cycles: 437653641 heartbeat IPC: 0.3704 cumulative IPC: 0.4003 (Simulation time: 00 hr 48 min 44 sec)
Heartbeat CPU 0 instructions: 221500848 cycles: 438761321 heartbeat IPC: 0.4514 cumulative IPC: 0.4005 (Simulation time: 00 hr 48 min 51 sec)
Heartbeat CPU 0 instructions: 222000848 cycles: 439951575 heartbeat IPC: 0.4201 cumulative IPC: 0.4005 (Simulation time: 00 hr 48 min 58 sec)
Heartbeat CPU 0 instructions: 222500848 cycles: 441256258 heartbeat IPC: 0.3832 cumulative IPC: 0.4005 (Simulation time: 00 hr 49 min 06 sec)
Heartbeat CPU 0 instructions: 223000848 cycles: 442234370 heartbeat IPC: 0.5112 cumulative IPC: 0.4007 (Simulation time: 00 hr 49 min 12 sec)
Heartbeat CPU 0 instructions: 223500850 cycles: 443444295 heartbeat IPC: 0.4133 cumulative IPC: 0.4008 (Simulation time: 00 hr 49 min 19 sec)
Heartbeat CPU 0 instructions: 224000851 cycles: 444549105 heartbeat IPC: 0.4526 cumulative IPC: 0.4009 (Simulation time: 00 hr 49 min 26 sec)
Heartbeat CPU 0 instructions: 224500853 cycles: 445861529 heartbeat IPC: 0.381 cumulative IPC: 0.4008 (Simulation time: 00 hr 49 min 34 sec)
Heartbeat CPU 0 instructions: 225000853 cycles: 447103170 heartbeat IPC: 0.4027 cumulative IPC: 0.4008 (Simulation time: 00 hr 49 min 42 sec)
Heartbeat CPU 0 instructions: 225500853 cycles: 448271556 heartbeat IPC: 0.4279 cumulative IPC: 0.4009 (Simulation time: 00 hr 49 min 49 sec)
Heartbeat CPU 0 instructions: 226000853 cycles: 449614191 heartbeat IPC: 0.3724 cumulative IPC: 0.4008 (Simulation time: 00 hr 49 min 57 sec)
Heartbeat CPU 0 instructions: 226500854 cycles: 450626938 heartbeat IPC: 0.4937 cumulative IPC: 0.401 (Simulation time: 00 hr 50 min 03 sec)
Heartbeat CPU 0 instructions: 227000858 cycles: 451780967 heartbeat IPC: 0.4333 cumulative IPC: 0.4011 (Simulation time: 00 hr 50 min 11 sec)
Heartbeat CPU 0 instructions: 227500859 cycles: 453100291 heartbeat IPC: 0.379 cumulative IPC: 0.4011 (Simulation time: 00 hr 50 min 19 sec)
Heartbeat CPU 0 instructions: 228000860 cycles: 454304019 heartbeat IPC: 0.4154 cumulative IPC: 0.4011 (Simulation time: 00 hr 50 min 26 sec)
Heartbeat CPU 0 instructions: 228500865 cycles: 455549218 heartbeat IPC: 0.4015 cumulative IPC: 0.4011 (Simulation time: 00 hr 50 min 33 sec)
Heartbeat CPU 0 instructions: 229000867 cycles: 456820751 heartbeat IPC: 0.3932 cumulative IPC: 0.4011 (Simulation time: 00 hr 50 min 41 sec)
Heartbeat CPU 0 instructions: 229500867 cycles: 457822746 heartbeat IPC: 0.499 cumulative IPC: 0.4013 (Simulation time: 00 hr 50 min 48 sec)
Heartbeat CPU 0 instructions: 230000872 cycles: 459200314 heartbeat IPC: 0.363 cumulative IPC: 0.4012 (Simulation time: 00 hr 50 min 56 sec)
Heartbeat CPU 0 instructions: 230500875 cycles: 460516322 heartbeat IPC: 0.3799 cumulative IPC: 0.4011 (Simulation time: 00 hr 51 min 03 sec)
Heartbeat CPU 0 instructions: 231000875 cycles: 461846790 heartbeat IPC: 0.3758 cumulative IPC: 0.401 (Simulation time: 00 hr 51 min 11 sec)
Heartbeat CPU 0 instructions: 231500877 cycles: 462957740 heartbeat IPC: 0.4501 cumulative IPC: 0.4012 (Simulation time: 00 hr 51 min 18 sec)
Heartbeat CPU 0 instructions: 232000878 cycles: 464151018 heartbeat IPC: 0.419 cumulative IPC: 0.4012 (Simulation time: 00 hr 51 min 25 sec)
Heartbeat CPU 0 instructions: 232500881 cycles: 465477662 heartbeat IPC: 0.3769 cumulative IPC: 0.4011 (Simulation time: 00 hr 51 min 33 sec)
Heartbeat CPU 0 instructions: 233000884 cycles: 466736964 heartbeat IPC: 0.397 cumulative IPC: 0.4011 (Simulation time: 00 hr 51 min 41 sec)
Heartbeat CPU 0 instructions: 233500888 cycles: 467849579 heartbeat IPC: 0.4494 cumulative IPC: 0.4012 (Simulation time: 00 hr 51 min 48 sec)
Heartbeat CPU 0 instructions: 234000888 cycles: 469093894 heartbeat IPC: 0.4018 cumulative IPC: 0.4012 (Simulation time: 00 hr 51 min 56 sec)
Heartbeat CPU 0 instructions: 234500888 cycles: 470272282 heartbeat IPC: 0.4243 cumulative IPC: 0.4013 (Simulation time: 00 hr 52 min 03 sec)
Heartbeat CPU 0 instructions: 235000891 cycles: 471541557 heartbeat IPC: 0.3939 cumulative IPC: 0.4013 (Simulation time: 00 hr 52 min 10 sec)
Heartbeat CPU 0 instructions: 235500891 cycles: 472528170 heartbeat IPC: 0.5068 cumulative IPC: 0.4015 (Simulation time: 00 hr 52 min 17 sec)
Heartbeat CPU 0 instructions: 236000893 cycles: 473787679 heartbeat IPC: 0.397 cumulative IPC: 0.4015 (Simulation time: 00 hr 52 min 25 sec)
Heartbeat CPU 0 instructions: 236500897 cycles: 475037731 heartbeat IPC: 0.4 cumulative IPC: 0.4015 (Simulation time: 00 hr 52 min 32 sec)
Heartbeat CPU 0 instructions: 237000899 cycles: 476387050 heartbeat IPC: 0.3706 cumulative IPC: 0.4014 (Simulation time: 00 hr 52 min 40 sec)
Heartbeat CPU 0 instructions: 237500899 cycles: 477794752 heartbeat IPC: 0.3552 cumulative IPC: 0.4013 (Simulation time: 00 hr 52 min 48 sec)
Heartbeat CPU 0 instructions: 238000900 cycles: 479204027 heartbeat IPC: 0.3548 cumulative IPC: 0.4011 (Simulation time: 00 hr 52 min 56 sec)
Heartbeat CPU 0 instructions: 238500900 cycles: 480429679 heartbeat IPC: 0.4079 cumulative IPC: 0.4011 (Simulation time: 00 hr 53 min 03 sec)
Heartbeat CPU 0 instructions: 239000900 cycles: 481592634 heartbeat IPC: 0.4299 cumulative IPC: 0.4012 (Simulation time: 00 hr 53 min 11 sec)
Heartbeat CPU 0 instructions: 239500900 cycles: 482824489 heartbeat IPC: 0.4059 cumulative IPC: 0.4012 (Simulation time: 00 hr 53 min 18 sec)
Heartbeat CPU 0 instructions: 240000900 cycles: 484119367 heartbeat IPC: 0.3861 cumulative IPC: 0.4012 (Simulation time: 00 hr 53 min 26 sec)
Heartbeat CPU 0 instructions: 240500900 cycles: 485412432 heartbeat IPC: 0.3867 cumulative IPC: 0.4011 (Simulation time: 00 hr 53 min 33 sec)
Heartbeat CPU 0 instructions: 241000902 cycles: 486719238 heartbeat IPC: 0.3826 cumulative IPC: 0.4011 (Simulation time: 00 hr 53 min 41 sec)
Heartbeat CPU 0 instructions: 241500904 cycles: 488011067 heartbeat IPC: 0.387 cumulative IPC: 0.401 (Simulation time: 00 hr 53 min 49 sec)
Heartbeat CPU 0 instructions: 242000904 cycles: 489233345 heartbeat IPC: 0.4091 cumulative IPC: 0.4011 (Simulation time: 00 hr 53 min 56 sec)
Heartbeat CPU 0 instructions: 242500904 cycles: 490309069 heartbeat IPC: 0.4648 cumulative IPC: 0.4012 (Simulation time: 00 hr 54 min 03 sec)
Heartbeat CPU 0 instructions: 243000904 cycles: 491498740 heartbeat IPC: 0.4203 cumulative IPC: 0.4013 (Simulation time: 00 hr 54 min 10 sec)
Heartbeat CPU 0 instructions: 243500904 cycles: 492885302 heartbeat IPC: 0.3606 cumulative IPC: 0.4011 (Simulation time: 00 hr 54 min 18 sec)
Heartbeat CPU 0 instructions: 244000907 cycles: 494144835 heartbeat IPC: 0.397 cumulative IPC: 0.4011 (Simulation time: 00 hr 54 min 26 sec)
Heartbeat CPU 0 instructions: 244500907 cycles: 495499216 heartbeat IPC: 0.3692 cumulative IPC: 0.401 (Simulation time: 00 hr 54 min 34 sec)
Heartbeat CPU 0 instructions: 245000911 cycles: 496757953 heartbeat IPC: 0.3972 cumulative IPC: 0.401 (Simulation time: 00 hr 54 min 41 sec)
Heartbeat CPU 0 instructions: 245500911 cycles: 497994268 heartbeat IPC: 0.4044 cumulative IPC: 0.401 (Simulation time: 00 hr 54 min 49 sec)
Heartbeat CPU 0 instructions: 246000914 cycles: 499139507 heartbeat IPC: 0.4366 cumulative IPC: 0.4011 (Simulation time: 00 hr 54 min 56 sec)
Heartbeat CPU 0 instructions: 246500915 cycles: 500315058 heartbeat IPC: 0.4253 cumulative IPC: 0.4012 (Simulation time: 00 hr 55 min 03 sec)
Heartbeat CPU 0 instructions: 247000917 cycles: 501525832 heartbeat IPC: 0.413 cumulative IPC: 0.4012 (Simulation time: 00 hr 55 min 11 sec)
Heartbeat CPU 0 instructions: 247500917 cycles: 502611577 heartbeat IPC: 0.4605 cumulative IPC: 0.4013 (Simulation time: 00 hr 55 min 18 sec)
Heartbeat CPU 0 instructions: 248000917 cycles: 503700007 heartbeat IPC: 0.4594 cumulative IPC: 0.4015 (Simulation time: 00 hr 55 min 24 sec)
Heartbeat CPU 0 instructions: 248500918 cycles: 504975226 heartbeat IPC: 0.3921 cumulative IPC: 0.4014 (Simulation time: 00 hr 55 min 32 sec)
Heartbeat CPU 0 instructions: 249000921 cycles: 506377040 heartbeat IPC: 0.3567 cumulative IPC: 0.4013 (Simulation time: 00 hr 55 min 40 sec)
Heartbeat CPU 0 instructions: 249500921 cycles: 507683952 heartbeat IPC: 0.3826 cumulative IPC: 0.4013 (Simulation time: 00 hr 55 min 48 sec)
Simulation finished CPU 0 instructions: 200000001 cycles: 498455930 cumulative IPC: 0.4012 (Simulation time: 00 hr 55 min 56 sec)
Simulation complete CPU 0 instructions: 200000001 cycles: 498455930 cumulative IPC: 0.4012 (Simulation time: 00 hr 55 min 56 sec)

ChampSim completed all CPUs

=== Simulation ===
CPU 0 runs /local-ssd/ben/dpc4-traces/Graph/GAP/cc-13.trace.gz

Region of Interest Statistics

CPU 0 cumulative IPC: 0.4012 instructions: 200000001 cycles: 498455930
CPU 0 Branch Prediction Accuracy: 90.04% MPKI: 20.34 Average ROB Occupancy at Mispredict: 26.77
Branch type MPKI
BRANCH_DIRECT_JUMP: 0
BRANCH_INDIRECT: 0
BRANCH_CONDITIONAL: 20.34
BRANCH_DIRECT_CALL: 0
BRANCH_INDIRECT_CALL: 0
BRANCH_RETURN: 0

cpu0->cpu0_STLB TOTAL        ACCESS:   13533040 HIT:   13518020 MISS:      15020 MSHR_MERGE:          0
cpu0->cpu0_STLB LOAD         ACCESS:   13533040 HIT:   13518020 MISS:      15020 MSHR_MERGE:          0
cpu0->cpu0_STLB RFO          ACCESS:          0 HIT:          0 MISS:          0 MSHR_MERGE:          0
cpu0->cpu0_STLB PREFETCH     ACCESS:          0 HIT:          0 MISS:          0 MSHR_MERGE:          0
cpu0->cpu0_STLB WRITE        ACCESS:          0 HIT:          0 MISS:          0 MSHR_MERGE:          0
cpu0->cpu0_STLB TRANSLATION  ACCESS:          0 HIT:          0 MISS:          0 MSHR_MERGE:          0
cpu0->cpu0_STLB PREFETCH REQUESTED:          0 ISSUED:          0 USEFUL:          0 USELESS:          0
cpu0->cpu0_STLB AVERAGE MISS LATENCY: 256.7 cycles
cpu0->cpu0_L2C TOTAL        ACCESS:   46594832 HIT:   33440738 MISS:   13154094 MSHR_MERGE:     569798
cpu0->cpu0_L2C LOAD         ACCESS:   15195607 HIT:   10442732 MISS:    4752875 MSHR_MERGE:      36978
cpu0->cpu0_L2C RFO          ACCESS:          0 HIT:          0 MISS:          0 MSHR_MERGE:          0
cpu0->cpu0_L2C PREFETCH     ACCESS:   31188362 HIT:   22789380 MISS:    8398982 MSHR_MERGE:     532820
cpu0->cpu0_L2C WRITE        ACCESS:     195873 HIT:     195843 MISS:         30 MSHR_MERGE:          0
cpu0->cpu0_L2C TRANSLATION  ACCESS:      14990 HIT:      12783 MISS:       2207 MSHR_MERGE:          0
cpu0->cpu0_L2C PREFETCH REQUESTED:   26691895 ISSUED:   26051510 USEFUL:    2209773 USELESS:    5109738
cpu0->cpu0_L2C AVERAGE MISS LATENCY: 95.17 cycles
cpu0->cpu0_L1I TOTAL        ACCESS:    1863365 HIT:    1863365 MISS:          0 MSHR_MERGE:          0
cpu0->cpu0_L1I LOAD         ACCESS:    1863365 HIT:    1863365 MISS:          0 MSHR_MERGE:          0
cpu0->cpu0_L1I RFO          ACCESS:          0 HIT:          0 MISS:          0 MSHR_MERGE:          0
cpu0->cpu0_L1I PREFETCH     ACCESS:          0 HIT:          0 MISS:          0 MSHR_MERGE:          0
cpu0->cpu0_L1I WRITE        ACCESS:          0 HIT:          0 MISS:          0 MSHR_MERGE:          0
cpu0->cpu0_L1I TRANSLATION  ACCESS:          0 HIT:          0 MISS:          0 MSHR_MERGE:          0
cpu0->cpu0_L1I PREFETCH REQUESTED:          0 ISSUED:          0 USEFUL:          0 USELESS:          0
cpu0->cpu0_L1I AVERAGE MISS LATENCY: - cycles
cpu0->cpu0_L1D TOTAL        ACCESS:   58572769 HIT:   36823716 MISS:   21749053 MSHR_MERGE:    1401610
cpu0->cpu0_L1D LOAD         ACCESS:   52855040 HIT:   36261560 MISS:   16593480 MSHR_MERGE:    1397873
cpu0->cpu0_L1D RFO          ACCESS:          0 HIT:          0 MISS:          0 MSHR_MERGE:          0
cpu0->cpu0_L1D PREFETCH     ACCESS:    5440614 HIT:     300031 MISS:    5140583 MSHR_MERGE:       3737
cpu0->cpu0_L1D WRITE        ACCESS:     247045 HIT:     247045 MISS:          0 MSHR_MERGE:          0
cpu0->cpu0_L1D TRANSLATION  ACCESS:      30070 HIT:      15080 MISS:      14990 MSHR_MERGE:          0
cpu0->cpu0_L1D PREFETCH REQUESTED:   11424096 ISSUED:    5440608 USEFUL:     296853 USELESS:    4839993
cpu0->cpu0_L1D AVERAGE MISS LATENCY: 38.19 cycles
cpu0->cpu0_ITLB TOTAL        ACCESS:    1780184 HIT:    1780184 MISS:          0 MSHR_MERGE:          0
cpu0->cpu0_ITLB LOAD         ACCESS:    1780184 HIT:    1780184 MISS:          0 MSHR_MERGE:          0
cpu0->cpu0_ITLB RFO          ACCESS:          0 HIT:          0 MISS:          0 MSHR_MERGE:          0
cpu0->cpu0_ITLB PREFETCH     ACCESS:          0 HIT:          0 MISS:          0 MSHR_MERGE:          0
cpu0->cpu0_ITLB WRITE        ACCESS:          0 HIT:          0 MISS:          0 MSHR_MERGE:          0
cpu0->cpu0_ITLB TRANSLATION  ACCESS:          0 HIT:          0 MISS:          0 MSHR_MERGE:          0
cpu0->cpu0_ITLB PREFETCH REQUESTED:          0 ISSUED:          0 USEFUL:          0 USELESS:          0
cpu0->cpu0_ITLB AVERAGE MISS LATENCY: - cycles
cpu0->cpu0_DTLB TOTAL        ACCESS:   57995431 HIT:   42629855 MISS:   15365576 MSHR_MERGE:    1832538
cpu0->cpu0_DTLB LOAD         ACCESS:   57995431 HIT:   42629855 MISS:   15365576 MSHR_MERGE:    1832538
cpu0->cpu0_DTLB RFO          ACCESS:          0 HIT:          0 MISS:          0 MSHR_MERGE:          0
cpu0->cpu0_DTLB PREFETCH     ACCESS:          0 HIT:          0 MISS:          0 MSHR_MERGE:          0
cpu0->cpu0_DTLB WRITE        ACCESS:          0 HIT:          0 MISS:          0 MSHR_MERGE:          0
cpu0->cpu0_DTLB TRANSLATION  ACCESS:          0 HIT:          0 MISS:          0 MSHR_MERGE:          0
cpu0->cpu0_DTLB PREFETCH REQUESTED:          0 ISSUED:          0 USEFUL:          0 USELESS:          0
cpu0->cpu0_DTLB AVERAGE MISS LATENCY: 5.394 cycles
cpu0->LLC TOTAL        ACCESS:   18697782 HIT:   11970138 MISS:    6727644 MSHR_MERGE:     100960
cpu0->LLC LOAD         ACCESS:    4715896 HIT:    3254340 MISS:    1461556 MSHR_MERGE:       3624
cpu0->LLC RFO          ACCESS:          0 HIT:          0 MISS:          0 MSHR_MERGE:          0
cpu0->LLC PREFETCH     ACCESS:   13785000 HIT:    8581336 MISS:    5203664 MSHR_MERGE:      97336
cpu0->LLC WRITE        ACCESS:     194679 HIT:     134422 MISS:      60257 MSHR_MERGE:          0
cpu0->LLC TRANSLATION  ACCESS:       2207 HIT:         40 MISS:       2167 MSHR_MERGE:          0
cpu0->LLC PREFETCH REQUESTED:    5923933 ISSUED:    5918838 USEFUL:     315061 USELESS:    1632998
cpu0->LLC AVERAGE MISS LATENCY: 225.9 cycles

DRAM Statistics

Channel 0 RQ ROW_BUFFER_HIT:      91930
  ROW_BUFFER_MISS:    6473267
  AVG DBUS CONGESTED CYCLE: 16.97
Channel 0 WQ ROW_BUFFER_HIT:      39696
  ROW_BUFFER_MISS:      96460
  FULL:          0
Channel 0 REFRESHES ISSUED:      41536
