[VMEM] WARNING: physical memory size is smaller than virtual memory size.

*** ChampSim Multicore Out-of-Order Simulator ***
Warmup Instructions: 50000000
Simulation Instructions: 200000000
Number of CPUs: 1
Page size: 4096
Core 0: /local-ssd/ben/dpc4-traces/gtraces_v2/yankee_0002.champsim.gz
CMC Prefetcher Initialized
Off-chip DRAM Size: 64 GiB Channels: 1 Width: 64-bit Data Rate: 4807 MT/s
[BTB] WARNING: target of return is a lower address than the corresponding call. This is usually a problem with your trace.
[BTB] WARNING: target of return is a lower address than the corresponding call. This is usually a problem with your trace.
[BTB] WARNING: target of return is a lower address than the corresponding call. This is usually a problem with your trace.
Heartbeat CPU 0 instructions: 500001 cycles: 203519 heartbeat IPC: 2.457 cumulative IPC: 2.457 (Simulation time: 00 hr 00 min 03 sec)
[BTB] WARNING: target of return is a lower address than the corresponding call. This is usually a problem with your trace.
Heartbeat CPU 0 instructions: 1000008 cycles: 452190 heartbeat IPC: 2.011 cumulative IPC: 2.211 (Simulation time: 00 hr 00 min 06 sec)
[BTB] WARNING: target of return is a lower address than the corresponding call. This is usually a problem with your trace.
[BTB] WARNING: target of return is a lower address than the corresponding call. This is usually a problem with your trace.
Heartbeat CPU 0 instructions: 1500014 cycles: 632888 heartbeat IPC: 2.767 cumulative IPC: 2.37 (Simulation time: 00 hr 00 min 09 sec)
Heartbeat CPU 0 instructions: 2000019 cycles: 795529 heartbeat IPC: 3.074 cumulative IPC: 2.514 (Simulation time: 00 hr 00 min 12 sec)
[BTB] WARNING: target of return is a lower address than the corresponding call. This is usually a problem with your trace.
[BTB] WARNING: target of return is a lower address than the corresponding call. This is usually a problem with your trace.
[BTB] WARNING: target of return is a lower address than the corresponding call. This is usually a problem with your trace.
[BTB] WARNING: target of return is a lower address than the corresponding call. This is usually a problem with your trace.
Heartbeat CPU 0 instructions: 2500021 cycles: 924155 heartbeat IPC: 3.887 cumulative IPC: 2.705 (Simulation time: 00 hr 00 min 14 sec)
Heartbeat CPU 0 instructions: 3000023 cycles: 1101154 heartbeat IPC: 2.825 cumulative IPC: 2.724 (Simulation time: 00 hr 00 min 16 sec)
Heartbeat CPU 0 instructions: 3500025 cycles: 1232178 heartbeat IPC: 3.816 cumulative IPC: 2.841 (Simulation time: 00 hr 00 min 19 sec)
Heartbeat CPU 0 instructions: 4000025 cycles: 1361460 heartbeat IPC: 3.868 cumulative IPC: 2.938 (Simulation time: 00 hr 00 min 21 sec)
Heartbeat CPU 0 instructions: 4500032 cycles: 1543482 heartbeat IPC: 2.747 cumulative IPC: 2.916 (Simulation time: 00 hr 00 min 23 sec)
Heartbeat CPU 0 instructions: 5000033 cycles: 1660374 heartbeat IPC: 4.277 cumulative IPC: 3.011 (Simulation time: 00 hr 00 min 25 sec)
Heartbeat CPU 0 instructions: 5500037 cycles: 1777592 heartbeat IPC: 4.266 cumulative IPC: 3.094 (Simulation time: 00 hr 00 min 27 sec)
Heartbeat CPU 0 instructions: 6000038 cycles: 1934198 heartbeat IPC: 3.193 cumulative IPC: 3.102 (Simulation time: 00 hr 00 min 30 sec)
Heartbeat CPU 0 instructions: 6500038 cycles: 2104544 heartbeat IPC: 2.935 cumulative IPC: 3.089 (Simulation time: 00 hr 00 min 33 sec)
Heartbeat CPU 0 instructions: 7000044 cycles: 2220207 heartbeat IPC: 4.323 cumulative IPC: 3.153 (Simulation time: 00 hr 00 min 35 sec)
Heartbeat CPU 0 instructions: 7500047 cycles: 2337279 heartbeat IPC: 4.271 cumulative IPC: 3.209 (Simulation time: 00 hr 00 min 37 sec)
Heartbeat CPU 0 instructions: 8000050 cycles: 2500916 heartbeat IPC: 3.056 cumulative IPC: 3.199 (Simulation time: 00 hr 00 min 39 sec)
Heartbeat CPU 0 instructions: 8500053 cycles: 2619525 heartbeat IPC: 4.216 cumulative IPC: 3.245 (Simulation time: 00 hr 00 min 41 sec)
Heartbeat CPU 0 instructions: 9000060 cycles: 2742699 heartbeat IPC: 4.059 cumulative IPC: 3.281 (Simulation time: 00 hr 00 min 43 sec)
Heartbeat CPU 0 instructions: 9500060 cycles: 2883784 heartbeat IPC: 3.544 cumulative IPC: 3.294 (Simulation time: 00 hr 00 min 46 sec)
Heartbeat CPU 0 instructions: 10000067 cycles: 3044450 heartbeat IPC: 3.112 cumulative IPC: 3.285 (Simulation time: 00 hr 00 min 48 sec)
Heartbeat CPU 0 instructions: 10500073 cycles: 3205385 heartbeat IPC: 3.107 cumulative IPC: 3.276 (Simulation time: 00 hr 00 min 51 sec)
Heartbeat CPU 0 instructions: 11000079 cycles: 3319496 heartbeat IPC: 4.382 cumulative IPC: 3.314 (Simulation time: 00 hr 00 min 53 sec)
Heartbeat CPU 0 instructions: 11500081 cycles: 3454321 heartbeat IPC: 3.709 cumulative IPC: 3.329 (Simulation time: 00 hr 00 min 55 sec)
Heartbeat CPU 0 instructions: 12000081 cycles: 3614438 heartbeat IPC: 3.123 cumulative IPC: 3.32 (Simulation time: 00 hr 00 min 58 sec)
Heartbeat CPU 0 instructions: 12500086 cycles: 3759005 heartbeat IPC: 3.459 cumulative IPC: 3.325 (Simulation time: 00 hr 01 min 00 sec)
Heartbeat CPU 0 instructions: 13000090 cycles: 3884877 heartbeat IPC: 3.972 cumulative IPC: 3.346 (Simulation time: 00 hr 01 min 02 sec)
Heartbeat CPU 0 instructions: 13500095 cycles: 4010970 heartbeat IPC: 3.965 cumulative IPC: 3.366 (Simulation time: 00 hr 01 min 04 sec)
Heartbeat CPU 0 instructions: 14000097 cycles: 4130618 heartbeat IPC: 4.179 cumulative IPC: 3.389 (Simulation time: 00 hr 01 min 06 sec)
Heartbeat CPU 0 instructions: 14500102 cycles: 4237711 heartbeat IPC: 4.669 cumulative IPC: 3.422 (Simulation time: 00 hr 01 min 07 sec)
Heartbeat CPU 0 instructions: 15000108 cycles: 4363485 heartbeat IPC: 3.975 cumulative IPC: 3.438 (Simulation time: 00 hr 01 min 09 sec)
Heartbeat CPU 0 instructions: 15500109 cycles: 4511868 heartbeat IPC: 3.37 cumulative IPC: 3.435 (Simulation time: 00 hr 01 min 12 sec)
Heartbeat CPU 0 instructions: 16000109 cycles: 4648485 heartbeat IPC: 3.66 cumulative IPC: 3.442 (Simulation time: 00 hr 01 min 14 sec)
Heartbeat CPU 0 instructions: 16500109 cycles: 4787704 heartbeat IPC: 3.591 cumulative IPC: 3.446 (Simulation time: 00 hr 01 min 16 sec)
Heartbeat CPU 0 instructions: 17000114 cycles: 4909314 heartbeat IPC: 4.112 cumulative IPC: 3.463 (Simulation time: 00 hr 01 min 18 sec)
Heartbeat CPU 0 instructions: 17500115 cycles: 5026158 heartbeat IPC: 4.279 cumulative IPC: 3.482 (Simulation time: 00 hr 01 min 20 sec)
Heartbeat CPU 0 instructions: 18000118 cycles: 5132643 heartbeat IPC: 4.696 cumulative IPC: 3.507 (Simulation time: 00 hr 01 min 22 sec)
Heartbeat CPU 0 instructions: 18500119 cycles: 5248492 heartbeat IPC: 4.316 cumulative IPC: 3.525 (Simulation time: 00 hr 01 min 24 sec)
Heartbeat CPU 0 instructions: 19000121 cycles: 5368494 heartbeat IPC: 4.167 cumulative IPC: 3.539 (Simulation time: 00 hr 01 min 26 sec)
Heartbeat CPU 0 instructions: 19500123 cycles: 5488350 heartbeat IPC: 4.172 cumulative IPC: 3.553 (Simulation time: 00 hr 01 min 28 sec)
Heartbeat CPU 0 instructions: 20000128 cycles: 5641206 heartbeat IPC: 3.271 cumulative IPC: 3.545 (Simulation time: 00 hr 01 min 30 sec)
Heartbeat CPU 0 instructions: 20500133 cycles: 5771210 heartbeat IPC: 3.846 cumulative IPC: 3.552 (Simulation time: 00 hr 01 min 32 sec)
Heartbeat CPU 0 instructions: 21000137 cycles: 5889650 heartbeat IPC: 4.222 cumulative IPC: 3.566 (Simulation time: 00 hr 01 min 34 sec)
Heartbeat CPU 0 instructions: 21500141 cycles: 6023747 heartbeat IPC: 3.729 cumulative IPC: 3.569 (Simulation time: 00 hr 01 min 37 sec)
Heartbeat CPU 0 instructions: 22000146 cycles: 6177743 heartbeat IPC: 3.247 cumulative IPC: 3.561 (Simulation time: 00 hr 01 min 39 sec)
Heartbeat CPU 0 instructions: 22500152 cycles: 6300138 heartbeat IPC: 4.085 cumulative IPC: 3.571 (Simulation time: 00 hr 01 min 41 sec)
Heartbeat CPU 0 instructions: 23000159 cycles: 6421041 heartbeat IPC: 4.136 cumulative IPC: 3.582 (Simulation time: 00 hr 01 min 43 sec)
Heartbeat CPU 0 instructions: 23500161 cycles: 6546128 heartbeat IPC: 3.997 cumulative IPC: 3.59 (Simulation time: 00 hr 01 min 45 sec)
Heartbeat CPU 0 instructions: 24000166 cycles: 6697311 heartbeat IPC: 3.307 cumulative IPC: 3.584 (Simulation time: 00 hr 01 min 47 sec)
Heartbeat CPU 0 instructions: 24500168 cycles: 6820001 heartbeat IPC: 4.075 cumulative IPC: 3.592 (Simulation time: 00 hr 01 min 49 sec)
Heartbeat CPU 0 instructions: 25000171 cycles: 6937905 heartbeat IPC: 4.241 cumulative IPC: 3.603 (Simulation time: 00 hr 01 min 51 sec)
Heartbeat CPU 0 instructions: 25500176 cycles: 7082544 heartbeat IPC: 3.457 cumulative IPC: 3.6 (Simulation time: 00 hr 01 min 54 sec)
Heartbeat CPU 0 instructions: 26000177 cycles: 7231931 heartbeat IPC: 3.347 cumulative IPC: 3.595 (Simulation time: 00 hr 01 min 56 sec)
Heartbeat CPU 0 instructions: 26500182 cycles: 7353528 heartbeat IPC: 4.112 cumulative IPC: 3.604 (Simulation time: 00 hr 01 min 58 sec)
Heartbeat CPU 0 instructions: 27000185 cycles: 7477314 heartbeat IPC: 4.039 cumulative IPC: 3.611 (Simulation time: 00 hr 02 min 00 sec)
Heartbeat CPU 0 instructions: 27500188 cycles: 7593857 heartbeat IPC: 4.29 cumulative IPC: 3.621 (Simulation time: 00 hr 02 min 02 sec)
Heartbeat CPU 0 instructions: 28000188 cycles: 7720135 heartbeat IPC: 3.96 cumulative IPC: 3.627 (Simulation time: 00 hr 02 min 04 sec)
Heartbeat CPU 0 instructions: 28500193 cycles: 7856284 heartbeat IPC: 3.672 cumulative IPC: 3.628 (Simulation time: 00 hr 02 min 06 sec)
Heartbeat CPU 0 instructions: 29000199 cycles: 7972237 heartbeat IPC: 4.312 cumulative IPC: 3.638 (Simulation time: 00 hr 02 min 08 sec)
Heartbeat CPU 0 instructions: 29500205 cycles: 8090864 heartbeat IPC: 4.215 cumulative IPC: 3.646 (Simulation time: 00 hr 02 min 10 sec)
Heartbeat CPU 0 instructions: 30000208 cycles: 8218372 heartbeat IPC: 3.921 cumulative IPC: 3.65 (Simulation time: 00 hr 02 min 12 sec)
Heartbeat CPU 0 instructions: 30500209 cycles: 8354529 heartbeat IPC: 3.672 cumulative IPC: 3.651 (Simulation time: 00 hr 02 min 15 sec)
Heartbeat CPU 0 instructions: 31000216 cycles: 8482695 heartbeat IPC: 3.901 cumulative IPC: 3.655 (Simulation time: 00 hr 02 min 17 sec)
Heartbeat CPU 0 instructions: 31500217 cycles: 8608040 heartbeat IPC: 3.989 cumulative IPC: 3.659 (Simulation time: 00 hr 02 min 18 sec)
Heartbeat CPU 0 instructions: 32000221 cycles: 8714445 heartbeat IPC: 4.699 cumulative IPC: 3.672 (Simulation time: 00 hr 02 min 20 sec)
Heartbeat CPU 0 instructions: 32500222 cycles: 8815086 heartbeat IPC: 4.968 cumulative IPC: 3.687 (Simulation time: 00 hr 02 min 21 sec)
Heartbeat CPU 0 instructions: 33000226 cycles: 8915212 heartbeat IPC: 4.994 cumulative IPC: 3.702 (Simulation time: 00 hr 02 min 23 sec)
Heartbeat CPU 0 instructions: 33500227 cycles: 9022970 heartbeat IPC: 4.64 cumulative IPC: 3.713 (Simulation time: 00 hr 02 min 24 sec)
Heartbeat CPU 0 instructions: 34000228 cycles: 9133705 heartbeat IPC: 4.515 cumulative IPC: 3.723 (Simulation time: 00 hr 02 min 26 sec)
Heartbeat CPU 0 instructions: 34500234 cycles: 9238633 heartbeat IPC: 4.765 cumulative IPC: 3.734 (Simulation time: 00 hr 02 min 28 sec)
Heartbeat CPU 0 instructions: 35000234 cycles: 9370209 heartbeat IPC: 3.8 cumulative IPC: 3.735 (Simulation time: 00 hr 02 min 30 sec)
Heartbeat CPU 0 instructions: 35500236 cycles: 9483694 heartbeat IPC: 4.406 cumulative IPC: 3.743 (Simulation time: 00 hr 02 min 32 sec)
Heartbeat CPU 0 instructions: 36000238 cycles: 9622464 heartbeat IPC: 3.603 cumulative IPC: 3.741 (Simulation time: 00 hr 02 min 34 sec)
Heartbeat CPU 0 instructions: 36500242 cycles: 9768087 heartbeat IPC: 3.434 cumulative IPC: 3.737 (Simulation time: 00 hr 02 min 36 sec)
Heartbeat CPU 0 instructions: 37000243 cycles: 9882289 heartbeat IPC: 4.378 cumulative IPC: 3.744 (Simulation time: 00 hr 02 min 38 sec)
Heartbeat CPU 0 instructions: 37500249 cycles: 10002904 heartbeat IPC: 4.145 cumulative IPC: 3.749 (Simulation time: 00 hr 02 min 40 sec)
Heartbeat CPU 0 instructions: 38000255 cycles: 10114432 heartbeat IPC: 4.483 cumulative IPC: 3.757 (Simulation time: 00 hr 02 min 42 sec)
Heartbeat CPU 0 instructions: 38500261 cycles: 10224462 heartbeat IPC: 4.544 cumulative IPC: 3.766 (Simulation time: 00 hr 02 min 43 sec)
Heartbeat CPU 0 instructions: 39000268 cycles: 10344389 heartbeat IPC: 4.169 cumulative IPC: 3.77 (Simulation time: 00 hr 02 min 45 sec)
Heartbeat CPU 0 instructions: 39500270 cycles: 10459447 heartbeat IPC: 4.346 cumulative IPC: 3.777 (Simulation time: 00 hr 02 min 47 sec)
Heartbeat CPU 0 instructions: 40000271 cycles: 10618052 heartbeat IPC: 3.152 cumulative IPC: 3.767 (Simulation time: 00 hr 02 min 50 sec)
Heartbeat CPU 0 instructions: 40500272 cycles: 10749711 heartbeat IPC: 3.798 cumulative IPC: 3.768 (Simulation time: 00 hr 02 min 52 sec)
Heartbeat CPU 0 instructions: 41000275 cycles: 10861577 heartbeat IPC: 4.47 cumulative IPC: 3.775 (Simulation time: 00 hr 02 min 54 sec)
Heartbeat CPU 0 instructions: 41500277 cycles: 10962335 heartbeat IPC: 4.962 cumulative IPC: 3.786 (Simulation time: 00 hr 02 min 55 sec)
Heartbeat CPU 0 instructions: 42000277 cycles: 11062523 heartbeat IPC: 4.991 cumulative IPC: 3.797 (Simulation time: 00 hr 02 min 57 sec)
Heartbeat CPU 0 instructions: 42500283 cycles: 11168966 heartbeat IPC: 4.697 cumulative IPC: 3.805 (Simulation time: 00 hr 02 min 59 sec)
Heartbeat CPU 0 instructions: 43000284 cycles: 11294038 heartbeat IPC: 3.998 cumulative IPC: 3.807 (Simulation time: 00 hr 03 min 01 sec)
Heartbeat CPU 0 instructions: 43500286 cycles: 11437182 heartbeat IPC: 3.493 cumulative IPC: 3.803 (Simulation time: 00 hr 03 min 03 sec)
Heartbeat CPU 0 instructions: 44000286 cycles: 11552775 heartbeat IPC: 4.326 cumulative IPC: 3.809 (Simulation time: 00 hr 03 min 05 sec)
Heartbeat CPU 0 instructions: 44500286 cycles: 11670214 heartbeat IPC: 4.258 cumulative IPC: 3.813 (Simulation time: 00 hr 03 min 07 sec)
Heartbeat CPU 0 instructions: 45000292 cycles: 11773220 heartbeat IPC: 4.854 cumulative IPC: 3.822 (Simulation time: 00 hr 03 min 08 sec)
Heartbeat CPU 0 instructions: 45500295 cycles: 11878993 heartbeat IPC: 4.727 cumulative IPC: 3.83 (Simulation time: 00 hr 03 min 10 sec)
Heartbeat CPU 0 instructions: 46000297 cycles: 11988934 heartbeat IPC: 4.548 cumulative IPC: 3.837 (Simulation time: 00 hr 03 min 12 sec)
Heartbeat CPU 0 instructions: 46500304 cycles: 12107116 heartbeat IPC: 4.231 cumulative IPC: 3.841 (Simulation time: 00 hr 03 min 14 sec)
Heartbeat CPU 0 instructions: 47000309 cycles: 12233362 heartbeat IPC: 3.961 cumulative IPC: 3.842 (Simulation time: 00 hr 03 min 16 sec)
Heartbeat CPU 0 instructions: 47500314 cycles: 12351902 heartbeat IPC: 4.218 cumulative IPC: 3.846 (Simulation time: 00 hr 03 min 18 sec)
Heartbeat CPU 0 instructions: 48000316 cycles: 12467378 heartbeat IPC: 4.33 cumulative IPC: 3.85 (Simulation time: 00 hr 03 min 19 sec)
Heartbeat CPU 0 instructions: 48500323 cycles: 12585345 heartbeat IPC: 4.239 cumulative IPC: 3.854 (Simulation time: 00 hr 03 min 21 sec)
Heartbeat CPU 0 instructions: 49000323 cycles: 12702461 heartbeat IPC: 4.269 cumulative IPC: 3.858 (Simulation time: 00 hr 03 min 23 sec)
Heartbeat CPU 0 instructions: 49500327 cycles: 12810822 heartbeat IPC: 4.614 cumulative IPC: 3.864 (Simulation time: 00 hr 03 min 25 sec)
Warmup halting CPU 0 at instruction 50000007 cycle 12910758 for remainder of phase
Warmup finished CPU 0 instructions: 50000007 cycles: 12910758 cumulative IPC: 3.873 (Simulation time: 00 hr 03 min 26 sec)
Warmup complete CPU 0 instructions: 50000007 cycles: 12910758 cumulative IPC: 3.873 (Simulation time: 00 hr 03 min 26 sec)
Heartbeat CPU 0 instructions: 50000327 cycles: 12910983 heartbeat IPC: 4.992 cumulative IPC: 1.422 (Simulation time: 00 hr 03 min 26 sec)
Heartbeat CPU 0 instructions: 50500328 cycles: 13383018 heartbeat IPC: 1.059 cumulative IPC: 1.059 (Simulation time: 00 hr 03 min 29 sec)
Heartbeat CPU 0 instructions: 51000328 cycles: 13678060 heartbeat IPC: 1.695 cumulative IPC: 1.304 (Simulation time: 00 hr 03 min 32 sec)
Heartbeat CPU 0 instructions: 51500334 cycles: 14011353 heartbeat IPC: 1.5 cumulative IPC: 1.363 (Simulation time: 00 hr 03 min 35 sec)
Heartbeat CPU 0 instructions: 52000336 cycles: 14425139 heartbeat IPC: 1.208 cumulative IPC: 1.321 (Simulation time: 00 hr 03 min 39 sec)
Heartbeat CPU 0 instructions: 52500343 cycles: 14921202 heartbeat IPC: 1.008 cumulative IPC: 1.244 (Simulation time: 00 hr 03 min 43 sec)
Heartbeat CPU 0 instructions: 53000343 cycles: 15283912 heartbeat IPC: 1.379 cumulative IPC: 1.264 (Simulation time: 00 hr 03 min 47 sec)
Heartbeat CPU 0 instructions: 53500343 cycles: 15614121 heartbeat IPC: 1.514 cumulative IPC: 1.295 (Simulation time: 00 hr 03 min 50 sec)
Heartbeat CPU 0 instructions: 54000343 cycles: 15910537 heartbeat IPC: 1.687 cumulative IPC: 1.334 (Simulation time: 00 hr 03 min 53 sec)
Heartbeat CPU 0 instructions: 54500343 cycles: 16202453 heartbeat IPC: 1.713 cumulative IPC: 1.367 (Simulation time: 00 hr 03 min 56 sec)
Heartbeat CPU 0 instructions: 55000343 cycles: 16491044 heartbeat IPC: 1.733 cumulative IPC: 1.397 (Simulation time: 00 hr 03 min 59 sec)
Heartbeat CPU 0 instructions: 55500343 cycles: 16845144 heartbeat IPC: 1.412 cumulative IPC: 1.398 (Simulation time: 00 hr 04 min 02 sec)
Heartbeat CPU 0 instructions: 56000347 cycles: 18064006 heartbeat IPC: 0.4102 cumulative IPC: 1.164 (Simulation time: 00 hr 04 min 10 sec)
Heartbeat CPU 0 instructions: 56500349 cycles: 19415648 heartbeat IPC: 0.3699 cumulative IPC: 0.9993 (Simulation time: 00 hr 04 min 19 sec)
Heartbeat CPU 0 instructions: 57000350 cycles: 19965553 heartbeat IPC: 0.9092 cumulative IPC: 0.9923 (Simulation time: 00 hr 04 min 23 sec)
Heartbeat CPU 0 instructions: 57500353 cycles: 20865296 heartbeat IPC: 0.5557 cumulative IPC: 0.9429 (Simulation time: 00 hr 04 min 29 sec)
Heartbeat CPU 0 instructions: 58000353 cycles: 21333556 heartbeat IPC: 1.068 cumulative IPC: 0.9498 (Simulation time: 00 hr 04 min 33 sec)
Heartbeat CPU 0 instructions: 58500356 cycles: 21774035 heartbeat IPC: 1.135 cumulative IPC: 0.9591 (Simulation time: 00 hr 04 min 37 sec)
Heartbeat CPU 0 instructions: 59000356 cycles: 22497483 heartbeat IPC: 0.6911 cumulative IPC: 0.9388 (Simulation time: 00 hr 04 min 42 sec)
Heartbeat CPU 0 instructions: 59500361 cycles: 24073158 heartbeat IPC: 0.3173 cumulative IPC: 0.8511 (Simulation time: 00 hr 04 min 52 sec)
Heartbeat CPU 0 instructions: 60000364 cycles: 25820499 heartbeat IPC: 0.2862 cumulative IPC: 0.7746 (Simulation time: 00 hr 05 min 04 sec)
Heartbeat CPU 0 instructions: 60500369 cycles: 27467684 heartbeat IPC: 0.3036 cumulative IPC: 0.7213 (Simulation time: 00 hr 05 min 14 sec)
Heartbeat CPU 0 instructions: 61000369 cycles: 28548343 heartbeat IPC: 0.4627 cumulative IPC: 0.7035 (Simulation time: 00 hr 05 min 22 sec)
Heartbeat CPU 0 instructions: 61500369 cycles: 29676481 heartbeat IPC: 0.4432 cumulative IPC: 0.6859 (Simulation time: 00 hr 05 min 30 sec)
Heartbeat CPU 0 instructions: 62000370 cycles: 30733132 heartbeat IPC: 0.4732 cumulative IPC: 0.6733 (Simulation time: 00 hr 05 min 37 sec)
Heartbeat CPU 0 instructions: 62500372 cycles: 31580050 heartbeat IPC: 0.5904 cumulative IPC: 0.6696 (Simulation time: 00 hr 05 min 43 sec)
Heartbeat CPU 0 instructions: 63000376 cycles: 32104484 heartbeat IPC: 0.9534 cumulative IPC: 0.6773 (Simulation time: 00 hr 05 min 47 sec)
Heartbeat CPU 0 instructions: 63500378 cycles: 33067839 heartbeat IPC: 0.519 cumulative IPC: 0.6698 (Simulation time: 00 hr 05 min 53 sec)
Heartbeat CPU 0 instructions: 64000378 cycles: 35028515 heartbeat IPC: 0.255 cumulative IPC: 0.633 (Simulation time: 00 hr 06 min 05 sec)
Heartbeat CPU 0 instructions: 64500378 cycles: 36198089 heartbeat IPC: 0.4275 cumulative IPC: 0.6227 (Simulation time: 00 hr 06 min 13 sec)
Heartbeat CPU 0 instructions: 65000378 cycles: 36707120 heartbeat IPC: 0.9823 cumulative IPC: 0.6304 (Simulation time: 00 hr 06 min 17 sec)
Heartbeat CPU 0 instructions: 65500381 cycles: 37077431 heartbeat IPC: 1.35 cumulative IPC: 0.6414 (Simulation time: 00 hr 06 min 20 sec)
Heartbeat CPU 0 instructions: 66000387 cycles: 37515041 heartbeat IPC: 1.143 cumulative IPC: 0.6503 (Simulation time: 00 hr 06 min 24 sec)
Heartbeat CPU 0 instructions: 66500393 cycles: 37727421 heartbeat IPC: 2.354 cumulative IPC: 0.6649 (Simulation time: 00 hr 06 min 26 sec)
Heartbeat CPU 0 instructions: 67000393 cycles: 38446410 heartbeat IPC: 0.6954 cumulative IPC: 0.6658 (Simulation time: 00 hr 06 min 31 sec)
Heartbeat CPU 0 instructions: 67500393 cycles: 39943695 heartbeat IPC: 0.3339 cumulative IPC: 0.6474 (Simulation time: 00 hr 06 min 41 sec)
Heartbeat CPU 0 instructions: 68000397 cycles: 40962171 heartbeat IPC: 0.4909 cumulative IPC: 0.6417 (Simulation time: 00 hr 06 min 48 sec)
Heartbeat CPU 0 instructions: 68500397 cycles: 41895712 heartbeat IPC: 0.5356 cumulative IPC: 0.6383 (Simulation time: 00 hr 06 min 54 sec)
Heartbeat CPU 0 instructions: 69000401 cycles: 42757092 heartbeat IPC: 0.5805 cumulative IPC: 0.6366 (Simulation time: 00 hr 07 min 00 sec)
Heartbeat CPU 0 instructions: 69500402 cycles: 44537256 heartbeat IPC: 0.2809 cumulative IPC: 0.6166 (Simulation time: 00 hr 07 min 11 sec)
Heartbeat CPU 0 instructions: 70000403 cycles: 45383660 heartbeat IPC: 0.5907 cumulative IPC: 0.6159 (Simulation time: 00 hr 07 min 17 sec)
Heartbeat CPU 0 instructions: 70500403 cycles: 45604609 heartbeat IPC: 2.263 cumulative IPC: 0.627 (Simulation time: 00 hr 07 min 20 sec)
Heartbeat CPU 0 instructions: 71000403 cycles: 46420644 heartbeat IPC: 0.6127 cumulative IPC: 0.6267 (Simulation time: 00 hr 07 min 25 sec)
Heartbeat CPU 0 instructions: 71500407 cycles: 47689941 heartbeat IPC: 0.3939 cumulative IPC: 0.6182 (Simulation time: 00 hr 07 min 33 sec)
Heartbeat CPU 0 instructions: 72000414 cycles: 48689665 heartbeat IPC: 0.5001 cumulative IPC: 0.6149 (Simulation time: 00 hr 07 min 40 sec)
Heartbeat CPU 0 instructions: 72500415 cycles: 49623319 heartbeat IPC: 0.5355 cumulative IPC: 0.6129 (Simulation time: 00 hr 07 min 47 sec)
Heartbeat CPU 0 instructions: 73000418 cycles: 50618557 heartbeat IPC: 0.5024 cumulative IPC: 0.61 (Simulation time: 00 hr 07 min 53 sec)
Heartbeat CPU 0 instructions: 73500418 cycles: 52581014 heartbeat IPC: 0.2548 cumulative IPC: 0.5924 (Simulation time: 00 hr 08 min 05 sec)
Heartbeat CPU 0 instructions: 74000419 cycles: 53483124 heartbeat IPC: 0.5543 cumulative IPC: 0.5915 (Simulation time: 00 hr 08 min 11 sec)
Heartbeat CPU 0 instructions: 74500422 cycles: 54304708 heartbeat IPC: 0.6086 cumulative IPC: 0.5919 (Simulation time: 00 hr 08 min 17 sec)
Heartbeat CPU 0 instructions: 75000423 cycles: 56082821 heartbeat IPC: 0.2812 cumulative IPC: 0.5791 (Simulation time: 00 hr 08 min 28 sec)
Heartbeat CPU 0 instructions: 75500425 cycles: 57801139 heartbeat IPC: 0.291 cumulative IPC: 0.5681 (Simulation time: 00 hr 08 min 39 sec)
Heartbeat CPU 0 instructions: 76000428 cycles: 58716833 heartbeat IPC: 0.546 cumulative IPC: 0.5676 (Simulation time: 00 hr 08 min 46 sec)
Heartbeat CPU 0 instructions: 76500428 cycles: 59983482 heartbeat IPC: 0.3947 cumulative IPC: 0.563 (Simulation time: 00 hr 08 min 54 sec)
Heartbeat CPU 0 instructions: 77000431 cycles: 61186475 heartbeat IPC: 0.4156 cumulative IPC: 0.5593 (Simulation time: 00 hr 09 min 02 sec)
Heartbeat CPU 0 instructions: 77500435 cycles: 62699910 heartbeat IPC: 0.3304 cumulative IPC: 0.5523 (Simulation time: 00 hr 09 min 12 sec)
Heartbeat CPU 0 instructions: 78000435 cycles: 64622556 heartbeat IPC: 0.2601 cumulative IPC: 0.5415 (Simulation time: 00 hr 09 min 24 sec)
Heartbeat CPU 0 instructions: 78500437 cycles: 65651012 heartbeat IPC: 0.4862 cumulative IPC: 0.5404 (Simulation time: 00 hr 09 min 31 sec)
Heartbeat CPU 0 instructions: 79000438 cycles: 66449705 heartbeat IPC: 0.626 cumulative IPC: 0.5417 (Simulation time: 00 hr 09 min 36 sec)
Heartbeat CPU 0 instructions: 79500438 cycles: 67248717 heartbeat IPC: 0.6258 cumulative IPC: 0.5429 (Simulation time: 00 hr 09 min 41 sec)
Heartbeat CPU 0 instructions: 80000439 cycles: 68264780 heartbeat IPC: 0.4921 cumulative IPC: 0.542 (Simulation time: 00 hr 09 min 48 sec)
Heartbeat CPU 0 instructions: 80500441 cycles: 69607827 heartbeat IPC: 0.3723 cumulative IPC: 0.538 (Simulation time: 00 hr 09 min 57 sec)
Heartbeat CPU 0 instructions: 81000447 cycles: 70502985 heartbeat IPC: 0.5586 cumulative IPC: 0.5383 (Simulation time: 00 hr 10 min 03 sec)
Heartbeat CPU 0 instructions: 81500452 cycles: 71372340 heartbeat IPC: 0.5751 cumulative IPC: 0.5388 (Simulation time: 00 hr 10 min 09 sec)
Heartbeat CPU 0 instructions: 82000452 cycles: 73136593 heartbeat IPC: 0.2834 cumulative IPC: 0.5313 (Simulation time: 00 hr 10 min 20 sec)
Heartbeat CPU 0 instructions: 82500454 cycles: 74908562 heartbeat IPC: 0.2822 cumulative IPC: 0.5242 (Simulation time: 00 hr 10 min 31 sec)
Heartbeat CPU 0 instructions: 83000456 cycles: 76287602 heartbeat IPC: 0.3626 cumulative IPC: 0.5207 (Simulation time: 00 hr 10 min 40 sec)
Heartbeat CPU 0 instructions: 83500458 cycles: 77276599 heartbeat IPC: 0.5056 cumulative IPC: 0.5205 (Simulation time: 00 hr 10 min 47 sec)
Heartbeat CPU 0 instructions: 84000463 cycles: 78541756 heartbeat IPC: 0.3952 cumulative IPC: 0.5181 (Simulation time: 00 hr 10 min 55 sec)
Heartbeat CPU 0 instructions: 84500467 cycles: 79372002 heartbeat IPC: 0.6022 cumulative IPC: 0.5191 (Simulation time: 00 hr 11 min 01 sec)
Heartbeat CPU 0 instructions: 85000470 cycles: 79996403 heartbeat IPC: 0.8008 cumulative IPC: 0.5217 (Simulation time: 00 hr 11 min 05 sec)
Heartbeat CPU 0 instructions: 85500471 cycles: 80645920 heartbeat IPC: 0.7698 cumulative IPC: 0.5241 (Simulation time: 00 hr 11 min 10 sec)
Heartbeat CPU 0 instructions: 86000471 cycles: 81371755 heartbeat IPC: 0.6889 cumulative IPC: 0.5259 (Simulation time: 00 hr 11 min 15 sec)
Heartbeat CPU 0 instructions: 86500473 cycles: 82803780 heartbeat IPC: 0.3492 cumulative IPC: 0.5222 (Simulation time: 00 hr 11 min 24 sec)
Heartbeat CPU 0 instructions: 87000479 cycles: 83572824 heartbeat IPC: 0.6502 cumulative IPC: 0.5236 (Simulation time: 00 hr 11 min 30 sec)
Heartbeat CPU 0 instructions: 87500479 cycles: 84027908 heartbeat IPC: 1.099 cumulative IPC: 0.5273 (Simulation time: 00 hr 11 min 34 sec)
Heartbeat CPU 0 instructions: 88000481 cycles: 84580878 heartbeat IPC: 0.9042 cumulative IPC: 0.5302 (Simulation time: 00 hr 11 min 38 sec)
Heartbeat CPU 0 instructions: 88500485 cycles: 85140060 heartbeat IPC: 0.8942 cumulative IPC: 0.533 (Simulation time: 00 hr 11 min 42 sec)
Heartbeat CPU 0 instructions: 89000488 cycles: 85949533 heartbeat IPC: 0.6177 cumulative IPC: 0.534 (Simulation time: 00 hr 11 min 48 sec)
Heartbeat CPU 0 instructions: 89500494 cycles: 87252718 heartbeat IPC: 0.3837 cumulative IPC: 0.5313 (Simulation time: 00 hr 11 min 56 sec)
Heartbeat CPU 0 instructions: 90000499 cycles: 88132307 heartbeat IPC: 0.5685 cumulative IPC: 0.5318 (Simulation time: 00 hr 12 min 02 sec)
Heartbeat CPU 0 instructions: 90500504 cycles: 88682575 heartbeat IPC: 0.9087 cumulative IPC: 0.5345 (Simulation time: 00 hr 12 min 07 sec)
Heartbeat CPU 0 instructions: 91000505 cycles: 89106778 heartbeat IPC: 1.179 cumulative IPC: 0.5381 (Simulation time: 00 hr 12 min 10 sec)
Heartbeat CPU 0 instructions: 91500506 cycles: 89499947 heartbeat IPC: 1.272 cumulative IPC: 0.5419 (Simulation time: 00 hr 12 min 14 sec)
Heartbeat CPU 0 instructions: 92000512 cycles: 90154629 heartbeat IPC: 0.7637 cumulative IPC: 0.5437 (Simulation time: 00 hr 12 min 18 sec)
Heartbeat CPU 0 instructions: 92500512 cycles: 90452210 heartbeat IPC: 1.68 cumulative IPC: 0.5481 (Simulation time: 00 hr 12 min 21 sec)
Heartbeat CPU 0 instructions: 93000518 cycles: 90683558 heartbeat IPC: 2.161 cumulative IPC: 0.5529 (Simulation time: 00 hr 12 min 23 sec)
Heartbeat CPU 0 instructions: 93500519 cycles: 91055182 heartbeat IPC: 1.345 cumulative IPC: 0.5567 (Simulation time: 00 hr 12 min 26 sec)
Heartbeat CPU 0 instructions: 94000519 cycles: 91700216 heartbeat IPC: 0.7752 cumulative IPC: 0.5585 (Simulation time: 00 hr 12 min 31 sec)
Heartbeat CPU 0 instructions: 94500520 cycles: 94083486 heartbeat IPC: 0.2098 cumulative IPC: 0.5482 (Simulation time: 00 hr 12 min 46 sec)
Heartbeat CPU 0 instructions: 95000524 cycles: 95225574 heartbeat IPC: 0.4378 cumulative IPC: 0.5467 (Simulation time: 00 hr 12 min 54 sec)
Heartbeat CPU 0 instructions: 95500525 cycles: 96797498 heartbeat IPC: 0.3181 cumulative IPC: 0.5424 (Simulation time: 00 hr 13 min 04 sec)
Heartbeat CPU 0 instructions: 96000530 cycles: 98332630 heartbeat IPC: 0.3257 cumulative IPC: 0.5385 (Simulation time: 00 hr 13 min 14 sec)
Heartbeat CPU 0 instructions: 96500530 cycles: 100336634 heartbeat IPC: 0.2495 cumulative IPC: 0.5319 (Simulation time: 00 hr 13 min 26 sec)
Heartbeat CPU 0 instructions: 97000531 cycles: 101372101 heartbeat IPC: 0.4829 cumulative IPC: 0.5313 (Simulation time: 00 hr 13 min 34 sec)
Heartbeat CPU 0 instructions: 97500536 cycles: 102795257 heartbeat IPC: 0.3513 cumulative IPC: 0.5285 (Simulation time: 00 hr 13 min 43 sec)
Heartbeat CPU 0 instructions: 98000542 cycles: 104241400 heartbeat IPC: 0.3458 cumulative IPC: 0.5256 (Simulation time: 00 hr 13 min 52 sec)
Heartbeat CPU 0 instructions: 98500542 cycles: 105563227 heartbeat IPC: 0.3783 cumulative IPC: 0.5235 (Simulation time: 00 hr 14 min 01 sec)
Heartbeat CPU 0 instructions: 99000542 cycles: 106394478 heartbeat IPC: 0.6015 cumulative IPC: 0.5242 (Simulation time: 00 hr 14 min 06 sec)
Heartbeat CPU 0 instructions: 99500542 cycles: 106931482 heartbeat IPC: 0.9311 cumulative IPC: 0.5265 (Simulation time: 00 hr 14 min 10 sec)
Heartbeat CPU 0 instructions: 100000542 cycles: 107684650 heartbeat IPC: 0.6639 cumulative IPC: 0.5276 (Simulation time: 00 hr 14 min 16 sec)
Heartbeat CPU 0 instructions: 100500545 cycles: 108152113 heartbeat IPC: 1.07 cumulative IPC: 0.5302 (Simulation time: 00 hr 14 min 19 sec)
Heartbeat CPU 0 instructions: 101000545 cycles: 109039732 heartbeat IPC: 0.5633 cumulative IPC: 0.5305 (Simulation time: 00 hr 14 min 26 sec)
Heartbeat CPU 0 instructions: 101500552 cycles: 111330971 heartbeat IPC: 0.2182 cumulative IPC: 0.5233 (Simulation time: 00 hr 14 min 40 sec)
Heartbeat CPU 0 instructions: 102000552 cycles: 112557852 heartbeat IPC: 0.4075 cumulative IPC: 0.5218 (Simulation time: 00 hr 14 min 48 sec)
Heartbeat CPU 0 instructions: 102500553 cycles: 113386327 heartbeat IPC: 0.6035 cumulative IPC: 0.5225 (Simulation time: 00 hr 14 min 53 sec)
Heartbeat CPU 0 instructions: 103000556 cycles: 114648325 heartbeat IPC: 0.3962 cumulative IPC: 0.521 (Simulation time: 00 hr 15 min 01 sec)
Heartbeat CPU 0 instructions: 103500559 cycles: 115716283 heartbeat IPC: 0.4682 cumulative IPC: 0.5204 (Simulation time: 00 hr 15 min 09 sec)
Heartbeat CPU 0 instructions: 104000562 cycles: 116611546 heartbeat IPC: 0.5585 cumulative IPC: 0.5207 (Simulation time: 00 hr 15 min 15 sec)
Heartbeat CPU 0 instructions: 104500565 cycles: 119013715 heartbeat IPC: 0.2081 cumulative IPC: 0.5137 (Simulation time: 00 hr 15 min 30 sec)
Heartbeat CPU 0 instructions: 105000569 cycles: 120289994 heartbeat IPC: 0.3918 cumulative IPC: 0.5122 (Simulation time: 00 hr 15 min 38 sec)
Heartbeat CPU 0 instructions: 105500571 cycles: 121134175 heartbeat IPC: 0.5923 cumulative IPC: 0.5128 (Simulation time: 00 hr 15 min 44 sec)
Heartbeat CPU 0 instructions: 106000572 cycles: 121817318 heartbeat IPC: 0.7319 cumulative IPC: 0.5142 (Simulation time: 00 hr 15 min 49 sec)
Heartbeat CPU 0 instructions: 106500574 cycles: 122326212 heartbeat IPC: 0.9825 cumulative IPC: 0.5164 (Simulation time: 00 hr 15 min 53 sec)
Heartbeat CPU 0 instructions: 107000581 cycles: 123014998 heartbeat IPC: 0.7259 cumulative IPC: 0.5177 (Simulation time: 00 hr 15 min 58 sec)
Heartbeat CPU 0 instructions: 107500587 cycles: 123246806 heartbeat IPC: 2.157 cumulative IPC: 0.5211 (Simulation time: 00 hr 16 min 00 sec)
Heartbeat CPU 0 instructions: 108000590 cycles: 123458345 heartbeat IPC: 2.364 cumulative IPC: 0.5247 (Simulation time: 00 hr 16 min 02 sec)
Heartbeat CPU 0 instructions: 108500590 cycles: 123696676 heartbeat IPC: 2.098 cumulative IPC: 0.5281 (Simulation time: 00 hr 16 min 04 sec)
Heartbeat CPU 0 instructions: 109000592 cycles: 123852933 heartbeat IPC: 3.2 cumulative IPC: 0.5318 (Simulation time: 00 hr 16 min 06 sec)
Heartbeat CPU 0 instructions: 109500594 cycles: 124045304 heartbeat IPC: 2.599 cumulative IPC: 0.5354 (Simulation time: 00 hr 16 min 08 sec)
Heartbeat CPU 0 instructions: 110000600 cycles: 124205438 heartbeat IPC: 3.122 cumulative IPC: 0.5391 (Simulation time: 00 hr 16 min 10 sec)
Heartbeat CPU 0 instructions: 110500604 cycles: 124370785 heartbeat IPC: 3.024 cumulative IPC: 0.5428 (Simulation time: 00 hr 16 min 12 sec)
Heartbeat CPU 0 instructions: 111000607 cycles: 124510212 heartbeat IPC: 3.586 cumulative IPC: 0.5466 (Simulation time: 00 hr 16 min 13 sec)
Heartbeat CPU 0 instructions: 111500612 cycles: 124662843 heartbeat IPC: 3.276 cumulative IPC: 0.5503 (Simulation time: 00 hr 16 min 15 sec)
Heartbeat CPU 0 instructions: 112000615 cycles: 124803912 heartbeat IPC: 3.544 cumulative IPC: 0.5541 (Simulation time: 00 hr 16 min 17 sec)
Heartbeat CPU 0 instructions: 112500615 cycles: 124965168 heartbeat IPC: 3.101 cumulative IPC: 0.5578 (Simulation time: 00 hr 16 min 18 sec)
Heartbeat CPU 0 instructions: 113000615 cycles: 125104172 heartbeat IPC: 3.597 cumulative IPC: 0.5615 (Simulation time: 00 hr 16 min 20 sec)
Heartbeat CPU 0 instructions: 113500616 cycles: 125440013 heartbeat IPC: 1.489 cumulative IPC: 0.5643 (Simulation time: 00 hr 16 min 23 sec)
Heartbeat CPU 0 instructions: 114000617 cycles: 126724905 heartbeat IPC: 0.3891 cumulative IPC: 0.5623 (Simulation time: 00 hr 16 min 31 sec)
Heartbeat CPU 0 instructions: 114500620 cycles: 128134553 heartbeat IPC: 0.3547 cumulative IPC: 0.5598 (Simulation time: 00 hr 16 min 40 sec)
Heartbeat CPU 0 instructions: 115000622 cycles: 129550181 heartbeat IPC: 0.3532 cumulative IPC: 0.5573 (Simulation time: 00 hr 16 min 49 sec)
Heartbeat CPU 0 instructions: 115500623 cycles: 129933132 heartbeat IPC: 1.306 cumulative IPC: 0.5597 (Simulation time: 00 hr 16 min 52 sec)
Heartbeat CPU 0 instructions: 116000628 cycles: 130315153 heartbeat IPC: 1.309 cumulative IPC: 0.5622 (Simulation time: 00 hr 16 min 55 sec)
Heartbeat CPU 0 instructions: 116500630 cycles: 130725842 heartbeat IPC: 1.217 cumulative IPC: 0.5644 (Simulation time: 00 hr 16 min 58 sec)
Heartbeat CPU 0 instructions: 117000631 cycles: 130987342 heartbeat IPC: 1.912 cumulative IPC: 0.5674 (Simulation time: 00 hr 17 min 01 sec)
Heartbeat CPU 0 instructions: 117500637 cycles: 131562029 heartbeat IPC: 0.87 cumulative IPC: 0.5689 (Simulation time: 00 hr 17 min 05 sec)
Heartbeat CPU 0 instructions: 118000642 cycles: 131851905 heartbeat IPC: 1.725 cumulative IPC: 0.5717 (Simulation time: 00 hr 17 min 08 sec)
Heartbeat CPU 0 instructions: 118500649 cycles: 132149244 heartbeat IPC: 1.682 cumulative IPC: 0.5745 (Simulation time: 00 hr 17 min 10 sec)
Heartbeat CPU 0 instructions: 119000652 cycles: 132781864 heartbeat IPC: 0.7904 cumulative IPC: 0.5756 (Simulation time: 00 hr 17 min 15 sec)
Heartbeat CPU 0 instructions: 119500653 cycles: 133124477 heartbeat IPC: 1.459 cumulative IPC: 0.5781 (Simulation time: 00 hr 17 min 18 sec)
Heartbeat CPU 0 instructions: 120000654 cycles: 133798347 heartbeat IPC: 0.742 cumulative IPC: 0.5791 (Simulation time: 00 hr 17 min 23 sec)
Heartbeat CPU 0 instructions: 120500658 cycles: 134811642 heartbeat IPC: 0.4934 cumulative IPC: 0.5783 (Simulation time: 00 hr 17 min 30 sec)
Heartbeat CPU 0 instructions: 121000664 cycles: 136662148 heartbeat IPC: 0.2702 cumulative IPC: 0.5737 (Simulation time: 00 hr 17 min 42 sec)
Heartbeat CPU 0 instructions: 121500666 cycles: 137019845 heartbeat IPC: 1.398 cumulative IPC: 0.5761 (Simulation time: 00 hr 17 min 45 sec)
Heartbeat CPU 0 instructions: 122000670 cycles: 137176444 heartbeat IPC: 3.193 cumulative IPC: 0.5794 (Simulation time: 00 hr 17 min 46 sec)
Heartbeat CPU 0 instructions: 122500677 cycles: 137352531 heartbeat IPC: 2.84 cumulative IPC: 0.5826 (Simulation time: 00 hr 17 min 48 sec)
Heartbeat CPU 0 instructions: 123000677 cycles: 137489152 heartbeat IPC: 3.66 cumulative IPC: 0.586 (Simulation time: 00 hr 17 min 50 sec)
Heartbeat CPU 0 instructions: 123500680 cycles: 137648716 heartbeat IPC: 3.134 cumulative IPC: 0.5892 (Simulation time: 00 hr 17 min 52 sec)
Heartbeat CPU 0 instructions: 124000680 cycles: 137828870 heartbeat IPC: 2.775 cumulative IPC: 0.5924 (Simulation time: 00 hr 17 min 53 sec)
Heartbeat CPU 0 instructions: 124500680 cycles: 137968404 heartbeat IPC: 3.583 cumulative IPC: 0.5957 (Simulation time: 00 hr 17 min 55 sec)
Heartbeat CPU 0 instructions: 125000682 cycles: 138102747 heartbeat IPC: 3.722 cumulative IPC: 0.5991 (Simulation time: 00 hr 17 min 57 sec)
Heartbeat CPU 0 instructions: 125500687 cycles: 138238310 heartbeat IPC: 3.688 cumulative IPC: 0.6024 (Simulation time: 00 hr 17 min 58 sec)
Heartbeat CPU 0 instructions: 126000687 cycles: 138383737 heartbeat IPC: 3.438 cumulative IPC: 0.6057 (Simulation time: 00 hr 18 min 00 sec)
Heartbeat CPU 0 instructions: 126500691 cycles: 138550144 heartbeat IPC: 3.005 cumulative IPC: 0.6089 (Simulation time: 00 hr 18 min 02 sec)
Heartbeat CPU 0 instructions: 127000695 cycles: 138734006 heartbeat IPC: 2.719 cumulative IPC: 0.612 (Simulation time: 00 hr 18 min 04 sec)
Heartbeat CPU 0 instructions: 127500699 cycles: 138883021 heartbeat IPC: 3.355 cumulative IPC: 0.6152 (Simulation time: 00 hr 18 min 05 sec)
Heartbeat CPU 0 instructions: 128000699 cycles: 139047590 heartbeat IPC: 3.038 cumulative IPC: 0.6184 (Simulation time: 00 hr 18 min 07 sec)
Heartbeat CPU 0 instructions: 128500703 cycles: 139223273 heartbeat IPC: 2.846 cumulative IPC: 0.6215 (Simulation time: 00 hr 18 min 09 sec)
Heartbeat CPU 0 instructions: 129000705 cycles: 139384420 heartbeat IPC: 3.103 cumulative IPC: 0.6246 (Simulation time: 00 hr 18 min 11 sec)
Heartbeat CPU 0 instructions: 129500709 cycles: 139543562 heartbeat IPC: 3.142 cumulative IPC: 0.6278 (Simulation time: 00 hr 18 min 12 sec)
Heartbeat CPU 0 instructions: 130000711 cycles: 139713880 heartbeat IPC: 2.936 cumulative IPC: 0.6309 (Simulation time: 00 hr 18 min 14 sec)
Heartbeat CPU 0 instructions: 130500715 cycles: 139859442 heartbeat IPC: 3.435 cumulative IPC: 0.6341 (Simulation time: 00 hr 18 min 16 sec)
Heartbeat CPU 0 instructions: 131000716 cycles: 139990890 heartbeat IPC: 3.804 cumulative IPC: 0.6374 (Simulation time: 00 hr 18 min 17 sec)
Heartbeat CPU 0 instructions: 131500716 cycles: 140151937 heartbeat IPC: 3.105 cumulative IPC: 0.6405 (Simulation time: 00 hr 18 min 19 sec)
Heartbeat CPU 0 instructions: 132000718 cycles: 140322032 heartbeat IPC: 2.94 cumulative IPC: 0.6436 (Simulation time: 00 hr 18 min 21 sec)
Heartbeat CPU 0 instructions: 132500719 cycles: 140480558 heartbeat IPC: 3.154 cumulative IPC: 0.6467 (Simulation time: 00 hr 18 min 23 sec)
Heartbeat CPU 0 instructions: 133000719 cycles: 140632836 heartbeat IPC: 3.283 cumulative IPC: 0.6499 (Simulation time: 00 hr 18 min 25 sec)
Heartbeat CPU 0 instructions: 133500721 cycles: 140788732 heartbeat IPC: 3.207 cumulative IPC: 0.653 (Simulation time: 00 hr 18 min 26 sec)
Heartbeat CPU 0 instructions: 134000721 cycles: 140950541 heartbeat IPC: 3.09 cumulative IPC: 0.6561 (Simulation time: 00 hr 18 min 28 sec)
Heartbeat CPU 0 instructions: 134500725 cycles: 141105704 heartbeat IPC: 3.222 cumulative IPC: 0.6592 (Simulation time: 00 hr 18 min 30 sec)
Heartbeat CPU 0 instructions: 135000725 cycles: 141254542 heartbeat IPC: 3.359 cumulative IPC: 0.6623 (Simulation time: 00 hr 18 min 32 sec)
Heartbeat CPU 0 instructions: 135500731 cycles: 141412425 heartbeat IPC: 3.167 cumulative IPC: 0.6654 (Simulation time: 00 hr 18 min 33 sec)
Heartbeat CPU 0 instructions: 136000731 cycles: 141566319 heartbeat IPC: 3.249 cumulative IPC: 0.6685 (Simulation time: 00 hr 18 min 35 sec)
Heartbeat CPU 0 instructions: 136500732 cycles: 141722758 heartbeat IPC: 3.196 cumulative IPC: 0.6715 (Simulation time: 00 hr 18 min 37 sec)
Heartbeat CPU 0 instructions: 137000735 cycles: 141865976 heartbeat IPC: 3.491 cumulative IPC: 0.6747 (Simulation time: 00 hr 18 min 39 sec)
Heartbeat CPU 0 instructions: 137500737 cycles: 142006764 heartbeat IPC: 3.551 cumulative IPC: 0.6778 (Simulation time: 00 hr 18 min 40 sec)
Heartbeat CPU 0 instructions: 138000737 cycles: 142146879 heartbeat IPC: 3.568 cumulative IPC: 0.6809 (Simulation time: 00 hr 18 min 42 sec)
Heartbeat CPU 0 instructions: 138500737 cycles: 142294668 heartbeat IPC: 3.383 cumulative IPC: 0.684 (Simulation time: 00 hr 18 min 44 sec)
Heartbeat CPU 0 instructions: 139000744 cycles: 142460726 heartbeat IPC: 3.011 cumulative IPC: 0.687 (Simulation time: 00 hr 18 min 45 sec)
Heartbeat CPU 0 instructions: 139500747 cycles: 142636836 heartbeat IPC: 2.839 cumulative IPC: 0.6899 (Simulation time: 00 hr 18 min 47 sec)
Heartbeat CPU 0 instructions: 140000751 cycles: 142776713 heartbeat IPC: 3.575 cumulative IPC: 0.693 (Simulation time: 00 hr 18 min 49 sec)
Heartbeat CPU 0 instructions: 140500755 cycles: 142912512 heartbeat IPC: 3.682 cumulative IPC: 0.6962 (Simulation time: 00 hr 18 min 51 sec)
Heartbeat CPU 0 instructions: 141000755 cycles: 143049427 heartbeat IPC: 3.652 cumulative IPC: 0.6993 (Simulation time: 00 hr 18 min 52 sec)
Heartbeat CPU 0 instructions: 141500760 cycles: 143908514 heartbeat IPC: 0.582 cumulative IPC: 0.6985 (Simulation time: 00 hr 18 min 58 sec)
Heartbeat CPU 0 instructions: 142000762 cycles: 144569818 heartbeat IPC: 0.7561 cumulative IPC: 0.6988 (Simulation time: 00 hr 19 min 03 sec)
Heartbeat CPU 0 instructions: 142500762 cycles: 145074120 heartbeat IPC: 0.9915 cumulative IPC: 0.6999 (Simulation time: 00 hr 19 min 07 sec)
Heartbeat CPU 0 instructions: 143000765 cycles: 146337063 heartbeat IPC: 0.3959 cumulative IPC: 0.697 (Simulation time: 00 hr 19 min 15 sec)
Heartbeat CPU 0 instructions: 143500765 cycles: 147388730 heartbeat IPC: 0.4754 cumulative IPC: 0.6953 (Simulation time: 00 hr 19 min 22 sec)
Heartbeat CPU 0 instructions: 144000767 cycles: 147948733 heartbeat IPC: 0.8929 cumulative IPC: 0.6961 (Simulation time: 00 hr 19 min 26 sec)
Heartbeat CPU 0 instructions: 144500767 cycles: 148438315 heartbeat IPC: 1.021 cumulative IPC: 0.6973 (Simulation time: 00 hr 19 min 30 sec)
Heartbeat CPU 0 instructions: 145000768 cycles: 149026134 heartbeat IPC: 0.8506 cumulative IPC: 0.6979 (Simulation time: 00 hr 19 min 34 sec)
Heartbeat CPU 0 instructions: 145500768 cycles: 149404318 heartbeat IPC: 1.322 cumulative IPC: 0.6997 (Simulation time: 00 hr 19 min 37 sec)
Heartbeat CPU 0 instructions: 146000768 cycles: 149783434 heartbeat IPC: 1.319 cumulative IPC: 0.7014 (Simulation time: 00 hr 19 min 40 sec)
Heartbeat CPU 0 instructions: 146500768 cycles: 150163909 heartbeat IPC: 1.314 cumulative IPC: 0.7031 (Simulation time: 00 hr 19 min 43 sec)
Heartbeat CPU 0 instructions: 147000768 cycles: 150534838 heartbeat IPC: 1.348 cumulative IPC: 0.7048 (Simulation time: 00 hr 19 min 45 sec)
Heartbeat CPU 0 instructions: 147500769 cycles: 150919857 heartbeat IPC: 1.299 cumulative IPC: 0.7065 (Simulation time: 00 hr 19 min 48 sec)
Heartbeat CPU 0 instructions: 148000769 cycles: 151262626 heartbeat IPC: 1.459 cumulative IPC: 0.7083 (Simulation time: 00 hr 19 min 51 sec)
Heartbeat CPU 0 instructions: 148500771 cycles: 151450570 heartbeat IPC: 2.66 cumulative IPC: 0.711 (Simulation time: 00 hr 19 min 54 sec)
Heartbeat CPU 0 instructions: 149000771 cycles: 151678555 heartbeat IPC: 2.193 cumulative IPC: 0.7134 (Simulation time: 00 hr 19 min 56 sec)
Heartbeat CPU 0 instructions: 149500773 cycles: 151957752 heartbeat IPC: 1.791 cumulative IPC: 0.7156 (Simulation time: 00 hr 19 min 59 sec)
Heartbeat CPU 0 instructions: 150000777 cycles: 152227824 heartbeat IPC: 1.851 cumulative IPC: 0.7178 (Simulation time: 00 hr 20 min 02 sec)
Heartbeat CPU 0 instructions: 150500778 cycles: 152783658 heartbeat IPC: 0.8996 cumulative IPC: 0.7185 (Simulation time: 00 hr 20 min 06 sec)
Heartbeat CPU 0 instructions: 151000784 cycles: 153107327 heartbeat IPC: 1.545 cumulative IPC: 0.7204 (Simulation time: 00 hr 20 min 09 sec)
Heartbeat CPU 0 instructions: 151500791 cycles: 153414273 heartbeat IPC: 1.629 cumulative IPC: 0.7224 (Simulation time: 00 hr 20 min 11 sec)
Heartbeat CPU 0 instructions: 152000793 cycles: 153708401 heartbeat IPC: 1.7 cumulative IPC: 0.7244 (Simulation time: 00 hr 20 min 14 sec)
Heartbeat CPU 0 instructions: 152500793 cycles: 153982799 heartbeat IPC: 1.822 cumulative IPC: 0.7266 (Simulation time: 00 hr 20 min 16 sec)
Heartbeat CPU 0 instructions: 153000797 cycles: 154251632 heartbeat IPC: 1.86 cumulative IPC: 0.7287 (Simulation time: 00 hr 20 min 19 sec)
Heartbeat CPU 0 instructions: 153500798 cycles: 154522056 heartbeat IPC: 1.849 cumulative IPC: 0.7309 (Simulation time: 00 hr 20 min 21 sec)
Heartbeat CPU 0 instructions: 154000798 cycles: 154804618 heartbeat IPC: 1.77 cumulative IPC: 0.7329 (Simulation time: 00 hr 20 min 23 sec)
Heartbeat CPU 0 instructions: 154500803 cycles: 155402322 heartbeat IPC: 0.8365 cumulative IPC: 0.7334 (Simulation time: 00 hr 20 min 28 sec)
Heartbeat CPU 0 instructions: 155000803 cycles: 155641725 heartbeat IPC: 2.089 cumulative IPC: 0.7357 (Simulation time: 00 hr 20 min 30 sec)
Heartbeat CPU 0 instructions: 155500807 cycles: 155932198 heartbeat IPC: 1.721 cumulative IPC: 0.7377 (Simulation time: 00 hr 20 min 34 sec)
Heartbeat CPU 0 instructions: 156000807 cycles: 156484517 heartbeat IPC: 0.9053 cumulative IPC: 0.7383 (Simulation time: 00 hr 20 min 38 sec)
Heartbeat CPU 0 instructions: 156500814 cycles: 156917309 heartbeat IPC: 1.155 cumulative IPC: 0.7396 (Simulation time: 00 hr 20 min 42 sec)
Heartbeat CPU 0 instructions: 157000819 cycles: 158530341 heartbeat IPC: 0.31 cumulative IPC: 0.7348 (Simulation time: 00 hr 20 min 52 sec)
Heartbeat CPU 0 instructions: 157500826 cycles: 160404727 heartbeat IPC: 0.2668 cumulative IPC: 0.7288 (Simulation time: 00 hr 21 min 04 sec)
Heartbeat CPU 0 instructions: 158000827 cycles: 161553208 heartbeat IPC: 0.4354 cumulative IPC: 0.7266 (Simulation time: 00 hr 21 min 12 sec)
Heartbeat CPU 0 instructions: 158500831 cycles: 162283503 heartbeat IPC: 0.6847 cumulative IPC: 0.7264 (Simulation time: 00 hr 21 min 17 sec)
Heartbeat CPU 0 instructions: 159000833 cycles: 162927237 heartbeat IPC: 0.7767 cumulative IPC: 0.7266 (Simulation time: 00 hr 21 min 21 sec)
Heartbeat CPU 0 instructions: 159500836 cycles: 163665692 heartbeat IPC: 0.6771 cumulative IPC: 0.7263 (Simulation time: 00 hr 21 min 26 sec)
Heartbeat CPU 0 instructions: 160000840 cycles: 164573814 heartbeat IPC: 0.5506 cumulative IPC: 0.7253 (Simulation time: 00 hr 21 min 32 sec)
Heartbeat CPU 0 instructions: 160500840 cycles: 165339150 heartbeat IPC: 0.6533 cumulative IPC: 0.7249 (Simulation time: 00 hr 21 min 38 sec)
Heartbeat CPU 0 instructions: 161000844 cycles: 165892591 heartbeat IPC: 0.9034 cumulative IPC: 0.7256 (Simulation time: 00 hr 21 min 42 sec)
Heartbeat CPU 0 instructions: 161500846 cycles: 167297814 heartbeat IPC: 0.3558 cumulative IPC: 0.7222 (Simulation time: 00 hr 21 min 50 sec)
Heartbeat CPU 0 instructions: 162000848 cycles: 168218011 heartbeat IPC: 0.5434 cumulative IPC: 0.7212 (Simulation time: 00 hr 21 min 57 sec)
Heartbeat CPU 0 instructions: 162500848 cycles: 168918076 heartbeat IPC: 0.7142 cumulative IPC: 0.7211 (Simulation time: 00 hr 22 min 01 sec)
Heartbeat CPU 0 instructions: 163000849 cycles: 169695262 heartbeat IPC: 0.6433 cumulative IPC: 0.7207 (Simulation time: 00 hr 22 min 07 sec)
Heartbeat CPU 0 instructions: 163500852 cycles: 170208507 heartbeat IPC: 0.9742 cumulative IPC: 0.7216 (Simulation time: 00 hr 22 min 10 sec)
Heartbeat CPU 0 instructions: 164000852 cycles: 171199901 heartbeat IPC: 0.5043 cumulative IPC: 0.7202 (Simulation time: 00 hr 22 min 17 sec)
Heartbeat CPU 0 instructions: 164500852 cycles: 173586558 heartbeat IPC: 0.2095 cumulative IPC: 0.7126 (Simulation time: 00 hr 22 min 31 sec)
Heartbeat CPU 0 instructions: 165000853 cycles: 174849496 heartbeat IPC: 0.3959 cumulative IPC: 0.7102 (Simulation time: 00 hr 22 min 39 sec)
Heartbeat CPU 0 instructions: 165500853 cycles: 175535685 heartbeat IPC: 0.7287 cumulative IPC: 0.7102 (Simulation time: 00 hr 22 min 44 sec)
Heartbeat CPU 0 instructions: 166000857 cycles: 176146644 heartbeat IPC: 0.8184 cumulative IPC: 0.7106 (Simulation time: 00 hr 22 min 49 sec)
Heartbeat CPU 0 instructions: 166500863 cycles: 177452230 heartbeat IPC: 0.383 cumulative IPC: 0.708 (Simulation time: 00 hr 22 min 57 sec)
Heartbeat CPU 0 instructions: 167000863 cycles: 178330620 heartbeat IPC: 0.5692 cumulative IPC: 0.7073 (Simulation time: 00 hr 23 min 03 sec)
Heartbeat CPU 0 instructions: 167500870 cycles: 179033255 heartbeat IPC: 0.7116 cumulative IPC: 0.7073 (Simulation time: 00 hr 23 min 08 sec)
Heartbeat CPU 0 instructions: 168000874 cycles: 179308449 heartbeat IPC: 1.817 cumulative IPC: 0.7091 (Simulation time: 00 hr 23 min 10 sec)
Heartbeat CPU 0 instructions: 168500874 cycles: 180349311 heartbeat IPC: 0.4804 cumulative IPC: 0.7077 (Simulation time: 00 hr 23 min 17 sec)
Heartbeat CPU 0 instructions: 169000879 cycles: 181671869 heartbeat IPC: 0.3781 cumulative IPC: 0.7051 (Simulation time: 00 hr 23 min 25 sec)
Heartbeat CPU 0 instructions: 169500879 cycles: 182656848 heartbeat IPC: 0.5076 cumulative IPC: 0.704 (Simulation time: 00 hr 23 min 32 sec)
Heartbeat CPU 0 instructions: 170000880 cycles: 183428646 heartbeat IPC: 0.6478 cumulative IPC: 0.7037 (Simulation time: 00 hr 23 min 37 sec)
Heartbeat CPU 0 instructions: 170500887 cycles: 183815863 heartbeat IPC: 1.291 cumulative IPC: 0.7051 (Simulation time: 00 hr 23 min 40 sec)
Heartbeat CPU 0 instructions: 171000888 cycles: 184349443 heartbeat IPC: 0.9371 cumulative IPC: 0.7058 (Simulation time: 00 hr 23 min 44 sec)
Heartbeat CPU 0 instructions: 171500895 cycles: 185303399 heartbeat IPC: 0.5241 cumulative IPC: 0.7048 (Simulation time: 00 hr 23 min 50 sec)
Heartbeat CPU 0 instructions: 172000896 cycles: 186982241 heartbeat IPC: 0.2978 cumulative IPC: 0.7009 (Simulation time: 00 hr 24 min 00 sec)
Heartbeat CPU 0 instructions: 172500896 cycles: 187993240 heartbeat IPC: 0.4946 cumulative IPC: 0.6997 (Simulation time: 00 hr 24 min 07 sec)
Heartbeat CPU 0 instructions: 173000903 cycles: 189120413 heartbeat IPC: 0.4436 cumulative IPC: 0.698 (Simulation time: 00 hr 24 min 14 sec)
Heartbeat CPU 0 instructions: 173500905 cycles: 190546368 heartbeat IPC: 0.3506 cumulative IPC: 0.6952 (Simulation time: 00 hr 24 min 23 sec)
Heartbeat CPU 0 instructions: 174000905 cycles: 191356899 heartbeat IPC: 0.6169 cumulative IPC: 0.6949 (Simulation time: 00 hr 24 min 28 sec)
Heartbeat CPU 0 instructions: 174500909 cycles: 192069379 heartbeat IPC: 0.7018 cumulative IPC: 0.6949 (Simulation time: 00 hr 24 min 33 sec)
Heartbeat CPU 0 instructions: 175000909 cycles: 192901675 heartbeat IPC: 0.6007 cumulative IPC: 0.6945 (Simulation time: 00 hr 24 min 38 sec)
Heartbeat CPU 0 instructions: 175500914 cycles: 194345801 heartbeat IPC: 0.3462 cumulative IPC: 0.6917 (Simulation time: 00 hr 24 min 47 sec)
Heartbeat CPU 0 instructions: 176000914 cycles: 195328859 heartbeat IPC: 0.5086 cumulative IPC: 0.6907 (Simulation time: 00 hr 24 min 53 sec)
Heartbeat CPU 0 instructions: 176500916 cycles: 196199861 heartbeat IPC: 0.5741 cumulative IPC: 0.6902 (Simulation time: 00 hr 24 min 59 sec)
Heartbeat CPU 0 instructions: 177000916 cycles: 197156535 heartbeat IPC: 0.5226 cumulative IPC: 0.6893 (Simulation time: 00 hr 25 min 05 sec)
Heartbeat CPU 0 instructions: 177500921 cycles: 198610216 heartbeat IPC: 0.344 cumulative IPC: 0.6866 (Simulation time: 00 hr 25 min 15 sec)
Heartbeat CPU 0 instructions: 178000922 cycles: 200184348 heartbeat IPC: 0.3176 cumulative IPC: 0.6835 (Simulation time: 00 hr 25 min 25 sec)
Heartbeat CPU 0 instructions: 178500925 cycles: 201865278 heartbeat IPC: 0.2975 cumulative IPC: 0.6801 (Simulation time: 00 hr 25 min 35 sec)
Heartbeat CPU 0 instructions: 179000930 cycles: 202540266 heartbeat IPC: 0.7408 cumulative IPC: 0.6803 (Simulation time: 00 hr 25 min 40 sec)
Heartbeat CPU 0 instructions: 179500932 cycles: 203186508 heartbeat IPC: 0.7737 cumulative IPC: 0.6806 (Simulation time: 00 hr 25 min 45 sec)
Heartbeat CPU 0 instructions: 180000933 cycles: 204719628 heartbeat IPC: 0.3261 cumulative IPC: 0.6778 (Simulation time: 00 hr 25 min 54 sec)
Heartbeat CPU 0 instructions: 180500935 cycles: 205339809 heartbeat IPC: 0.8062 cumulative IPC: 0.6782 (Simulation time: 00 hr 25 min 59 sec)
Heartbeat CPU 0 instructions: 181000936 cycles: 205945145 heartbeat IPC: 0.826 cumulative IPC: 0.6786 (Simulation time: 00 hr 26 min 04 sec)
Heartbeat CPU 0 instructions: 181500936 cycles: 206855692 heartbeat IPC: 0.5491 cumulative IPC: 0.678 (Simulation time: 00 hr 26 min 10 sec)
Heartbeat CPU 0 instructions: 182000943 cycles: 208964142 heartbeat IPC: 0.2371 cumulative IPC: 0.6733 (Simulation time: 00 hr 26 min 22 sec)
Heartbeat CPU 0 instructions: 182500945 cycles: 210548480 heartbeat IPC: 0.3156 cumulative IPC: 0.6704 (Simulation time: 00 hr 26 min 32 sec)
Heartbeat CPU 0 instructions: 183000945 cycles: 211503340 heartbeat IPC: 0.5236 cumulative IPC: 0.6697 (Simulation time: 00 hr 26 min 38 sec)
Heartbeat CPU 0 instructions: 183500950 cycles: 212477145 heartbeat IPC: 0.5135 cumulative IPC: 0.669 (Simulation time: 00 hr 26 min 44 sec)
Heartbeat CPU 0 instructions: 184000954 cycles: 213927751 heartbeat IPC: 0.3447 cumulative IPC: 0.6666 (Simulation time: 00 hr 26 min 53 sec)
Heartbeat CPU 0 instructions: 184500954 cycles: 214402098 heartbeat IPC: 1.054 cumulative IPC: 0.6675 (Simulation time: 00 hr 26 min 56 sec)
Heartbeat CPU 0 instructions: 185000956 cycles: 215076132 heartbeat IPC: 0.7418 cumulative IPC: 0.6678 (Simulation time: 00 hr 27 min 01 sec)
Heartbeat CPU 0 instructions: 185500957 cycles: 216309445 heartbeat IPC: 0.4054 cumulative IPC: 0.6662 (Simulation time: 00 hr 27 min 08 sec)
Heartbeat CPU 0 instructions: 186000957 cycles: 217405564 heartbeat IPC: 0.4562 cumulative IPC: 0.6651 (Simulation time: 00 hr 27 min 15 sec)
Heartbeat CPU 0 instructions: 186500958 cycles: 218439980 heartbeat IPC: 0.4834 cumulative IPC: 0.6641 (Simulation time: 00 hr 27 min 21 sec)
Heartbeat CPU 0 instructions: 187000961 cycles: 219310110 heartbeat IPC: 0.5746 cumulative IPC: 0.6638 (Simulation time: 00 hr 27 min 27 sec)
Heartbeat CPU 0 instructions: 187500961 cycles: 221072158 heartbeat IPC: 0.2838 cumulative IPC: 0.6605 (Simulation time: 00 hr 27 min 37 sec)
Heartbeat CPU 0 instructions: 188000964 cycles: 222972772 heartbeat IPC: 0.2631 cumulative IPC: 0.657 (Simulation time: 00 hr 27 min 47 sec)
Heartbeat CPU 0 instructions: 188500970 cycles: 224109235 heartbeat IPC: 0.44 cumulative IPC: 0.6558 (Simulation time: 00 hr 27 min 54 sec)
Heartbeat CPU 0 instructions: 189000976 cycles: 225242304 heartbeat IPC: 0.4413 cumulative IPC: 0.6546 (Simulation time: 00 hr 28 min 01 sec)
Heartbeat CPU 0 instructions: 189500981 cycles: 226301928 heartbeat IPC: 0.4719 cumulative IPC: 0.6537 (Simulation time: 00 hr 28 min 07 sec)
Heartbeat CPU 0 instructions: 190000982 cycles: 228006539 heartbeat IPC: 0.2933 cumulative IPC: 0.6509 (Simulation time: 00 hr 28 min 17 sec)
Heartbeat CPU 0 instructions: 190500983 cycles: 229486155 heartbeat IPC: 0.3379 cumulative IPC: 0.6487 (Simulation time: 00 hr 28 min 26 sec)
Heartbeat CPU 0 instructions: 191000984 cycles: 230593042 heartbeat IPC: 0.4517 cumulative IPC: 0.6477 (Simulation time: 00 hr 28 min 32 sec)
Heartbeat CPU 0 instructions: 191500991 cycles: 231703167 heartbeat IPC: 0.4504 cumulative IPC: 0.6467 (Simulation time: 00 hr 28 min 39 sec)
Heartbeat CPU 0 instructions: 192000995 cycles: 232529628 heartbeat IPC: 0.605 cumulative IPC: 0.6466 (Simulation time: 00 hr 28 min 44 sec)
Heartbeat CPU 0 instructions: 192500996 cycles: 233560935 heartbeat IPC: 0.4848 cumulative IPC: 0.6458 (Simulation time: 00 hr 28 min 50 sec)
Heartbeat CPU 0 instructions: 193000996 cycles: 235908584 heartbeat IPC: 0.213 cumulative IPC: 0.6413 (Simulation time: 00 hr 29 min 03 sec)
Heartbeat CPU 0 instructions: 193500996 cycles: 237515420 heartbeat IPC: 0.3112 cumulative IPC: 0.6389 (Simulation time: 00 hr 29 min 12 sec)
Heartbeat CPU 0 instructions: 194001003 cycles: 238951288 heartbeat IPC: 0.3482 cumulative IPC: 0.6371 (Simulation time: 00 hr 29 min 20 sec)
Heartbeat CPU 0 instructions: 194501005 cycles: 239886668 heartbeat IPC: 0.5345 cumulative IPC: 0.6366 (Simulation time: 00 hr 29 min 26 sec)
Heartbeat CPU 0 instructions: 195001005 cycles: 240883575 heartbeat IPC: 0.5016 cumulative IPC: 0.636 (Simulation time: 00 hr 29 min 32 sec)
Heartbeat CPU 0 instructions: 195501006 cycles: 241621258 heartbeat IPC: 0.6778 cumulative IPC: 0.6362 (Simulation time: 00 hr 29 min 36 sec)
Heartbeat CPU 0 instructions: 196001007 cycles: 242366551 heartbeat IPC: 0.6709 cumulative IPC: 0.6363 (Simulation time: 00 hr 29 min 41 sec)
Heartbeat CPU 0 instructions: 196501008 cycles: 244709090 heartbeat IPC: 0.2134 cumulative IPC: 0.632 (Simulation time: 00 hr 29 min 54 sec)
Heartbeat CPU 0 instructions: 197001013 cycles: 246306162 heartbeat IPC: 0.3131 cumulative IPC: 0.6298 (Simulation time: 00 hr 30 min 03 sec)
Heartbeat CPU 0 instructions: 197501016 cycles: 247344231 heartbeat IPC: 0.4817 cumulative IPC: 0.6292 (Simulation time: 00 hr 30 min 09 sec)
Heartbeat CPU 0 instructions: 198001017 cycles: 249612464 heartbeat IPC: 0.2204 cumulative IPC: 0.6253 (Simulation time: 00 hr 30 min 22 sec)
Heartbeat CPU 0 instructions: 198501020 cycles: 250495421 heartbeat IPC: 0.5663 cumulative IPC: 0.625 (Simulation time: 00 hr 30 min 27 sec)
Heartbeat CPU 0 instructions: 199001026 cycles: 251129761 heartbeat IPC: 0.7882 cumulative IPC: 0.6255 (Simulation time: 00 hr 30 min 31 sec)
Heartbeat CPU 0 instructions: 199501029 cycles: 251871703 heartbeat IPC: 0.6739 cumulative IPC: 0.6256 (Simulation time: 00 hr 30 min 36 sec)
Heartbeat CPU 0 instructions: 200001030 cycles: 253987360 heartbeat IPC: 0.2363 cumulative IPC: 0.6222 (Simulation time: 00 hr 30 min 48 sec)
Heartbeat CPU 0 instructions: 200501030 cycles: 255952331 heartbeat IPC: 0.2545 cumulative IPC: 0.6192 (Simulation time: 00 hr 30 min 58 sec)
Heartbeat CPU 0 instructions: 201001030 cycles: 256711556 heartbeat IPC: 0.6586 cumulative IPC: 0.6194 (Simulation time: 00 hr 31 min 03 sec)
Heartbeat CPU 0 instructions: 201501030 cycles: 257842282 heartbeat IPC: 0.4422 cumulative IPC: 0.6185 (Simulation time: 00 hr 31 min 09 sec)
Heartbeat CPU 0 instructions: 202001032 cycles: 259236400 heartbeat IPC: 0.3587 cumulative IPC: 0.6171 (Simulation time: 00 hr 31 min 17 sec)
Heartbeat CPU 0 instructions: 202501034 cycles: 259995027 heartbeat IPC: 0.6591 cumulative IPC: 0.6172 (Simulation time: 00 hr 31 min 22 sec)
Heartbeat CPU 0 instructions: 203001036 cycles: 261367513 heartbeat IPC: 0.3643 cumulative IPC: 0.6158 (Simulation time: 00 hr 31 min 31 sec)
Heartbeat CPU 0 instructions: 203501040 cycles: 262104182 heartbeat IPC: 0.6787 cumulative IPC: 0.616 (Simulation time: 00 hr 31 min 35 sec)
Heartbeat CPU 0 instructions: 204001045 cycles: 262691096 heartbeat IPC: 0.8519 cumulative IPC: 0.6165 (Simulation time: 00 hr 31 min 39 sec)
Heartbeat CPU 0 instructions: 204501045 cycles: 263968548 heartbeat IPC: 0.3914 cumulative IPC: 0.6154 (Simulation time: 00 hr 31 min 47 sec)
Heartbeat CPU 0 instructions: 205001048 cycles: 266060470 heartbeat IPC: 0.239 cumulative IPC: 0.6123 (Simulation time: 00 hr 31 min 59 sec)
Heartbeat CPU 0 instructions: 205501053 cycles: 267179746 heartbeat IPC: 0.4467 cumulative IPC: 0.6116 (Simulation time: 00 hr 32 min 05 sec)
Heartbeat CPU 0 instructions: 206001054 cycles: 268197112 heartbeat IPC: 0.4915 cumulative IPC: 0.6111 (Simulation time: 00 hr 32 min 11 sec)
Heartbeat CPU 0 instructions: 206501056 cycles: 269548769 heartbeat IPC: 0.3699 cumulative IPC: 0.6098 (Simulation time: 00 hr 32 min 19 sec)
Heartbeat CPU 0 instructions: 207001057 cycles: 270182741 heartbeat IPC: 0.7887 cumulative IPC: 0.6103 (Simulation time: 00 hr 32 min 23 sec)
Heartbeat CPU 0 instructions: 207501059 cycles: 271273958 heartbeat IPC: 0.4582 cumulative IPC: 0.6096 (Simulation time: 00 hr 32 min 29 sec)
Heartbeat CPU 0 instructions: 208001059 cycles: 273649339 heartbeat IPC: 0.2105 cumulative IPC: 0.606 (Simulation time: 00 hr 32 min 42 sec)
Heartbeat CPU 0 instructions: 208501060 cycles: 274711019 heartbeat IPC: 0.471 cumulative IPC: 0.6054 (Simulation time: 00 hr 32 min 49 sec)
Heartbeat CPU 0 instructions: 209001065 cycles: 275207681 heartbeat IPC: 1.007 cumulative IPC: 0.6062 (Simulation time: 00 hr 32 min 52 sec)
Heartbeat CPU 0 instructions: 209501065 cycles: 276059712 heartbeat IPC: 0.5868 cumulative IPC: 0.6061 (Simulation time: 00 hr 32 min 57 sec)
Heartbeat CPU 0 instructions: 210001069 cycles: 276838128 heartbeat IPC: 0.6423 cumulative IPC: 0.6062 (Simulation time: 00 hr 33 min 02 sec)
Heartbeat CPU 0 instructions: 210501070 cycles: 278711508 heartbeat IPC: 0.2669 cumulative IPC: 0.6038 (Simulation time: 00 hr 33 min 12 sec)
Heartbeat CPU 0 instructions: 211001070 cycles: 280316188 heartbeat IPC: 0.3116 cumulative IPC: 0.6021 (Simulation time: 00 hr 33 min 21 sec)
Heartbeat CPU 0 instructions: 211501072 cycles: 281239442 heartbeat IPC: 0.5416 cumulative IPC: 0.6019 (Simulation time: 00 hr 33 min 27 sec)
Heartbeat CPU 0 instructions: 212001073 cycles: 282418084 heartbeat IPC: 0.4242 cumulative IPC: 0.6011 (Simulation time: 00 hr 33 min 34 sec)
Heartbeat CPU 0 instructions: 212501078 cycles: 283837775 heartbeat IPC: 0.3522 cumulative IPC: 0.5998 (Simulation time: 00 hr 33 min 42 sec)
Heartbeat CPU 0 instructions: 213001084 cycles: 285573112 heartbeat IPC: 0.2881 cumulative IPC: 0.5978 (Simulation time: 00 hr 33 min 51 sec)
Heartbeat CPU 0 instructions: 213501088 cycles: 287110954 heartbeat IPC: 0.3251 cumulative IPC: 0.5963 (Simulation time: 00 hr 34 min 00 sec)
Heartbeat CPU 0 instructions: 214001088 cycles: 288043908 heartbeat IPC: 0.5359 cumulative IPC: 0.5961 (Simulation time: 00 hr 34 min 05 sec)
Heartbeat CPU 0 instructions: 214501089 cycles: 289379120 heartbeat IPC: 0.3745 cumulative IPC: 0.595 (Simulation time: 00 hr 34 min 13 sec)
Heartbeat CPU 0 instructions: 215001094 cycles: 290162017 heartbeat IPC: 0.6387 cumulative IPC: 0.5951 (Simulation time: 00 hr 34 min 18 sec)
Heartbeat CPU 0 instructions: 215501095 cycles: 290911298 heartbeat IPC: 0.6673 cumulative IPC: 0.5953 (Simulation time: 00 hr 34 min 22 sec)
Heartbeat CPU 0 instructions: 216001102 cycles: 291925934 heartbeat IPC: 0.4928 cumulative IPC: 0.595 (Simulation time: 00 hr 34 min 28 sec)
Heartbeat CPU 0 instructions: 216501104 cycles: 293436194 heartbeat IPC: 0.3311 cumulative IPC: 0.5935 (Simulation time: 00 hr 34 min 36 sec)
Heartbeat CPU 0 instructions: 217001106 cycles: 294232972 heartbeat IPC: 0.6275 cumulative IPC: 0.5936 (Simulation time: 00 hr 34 min 41 sec)
Heartbeat CPU 0 instructions: 217501106 cycles: 294868829 heartbeat IPC: 0.7863 cumulative IPC: 0.5941 (Simulation time: 00 hr 34 min 45 sec)
Heartbeat CPU 0 instructions: 218001106 cycles: 296310621 heartbeat IPC: 0.3468 cumulative IPC: 0.5928 (Simulation time: 00 hr 34 min 54 sec)
Heartbeat CPU 0 instructions: 218501107 cycles: 297202624 heartbeat IPC: 0.5605 cumulative IPC: 0.5927 (Simulation time: 00 hr 35 min 00 sec)
Heartbeat CPU 0 instructions: 219001109 cycles: 297985137 heartbeat IPC: 0.639 cumulative IPC: 0.5928 (Simulation time: 00 hr 35 min 05 sec)
Heartbeat CPU 0 instructions: 219501109 cycles: 299357730 heartbeat IPC: 0.3643 cumulative IPC: 0.5917 (Simulation time: 00 hr 35 min 13 sec)
Heartbeat CPU 0 instructions: 220001114 cycles: 300255364 heartbeat IPC: 0.557 cumulative IPC: 0.5916 (Simulation time: 00 hr 35 min 18 sec)
Heartbeat CPU 0 instructions: 220501121 cycles: 301002704 heartbeat IPC: 0.669 cumulative IPC: 0.5918 (Simulation time: 00 hr 35 min 23 sec)
Heartbeat CPU 0 instructions: 221001121 cycles: 302179201 heartbeat IPC: 0.425 cumulative IPC: 0.5912 (Simulation time: 00 hr 35 min 30 sec)
Heartbeat CPU 0 instructions: 221501121 cycles: 302984798 heartbeat IPC: 0.6207 cumulative IPC: 0.5912 (Simulation time: 00 hr 35 min 35 sec)
Heartbeat CPU 0 instructions: 222001122 cycles: 303858877 heartbeat IPC: 0.572 cumulative IPC: 0.5912 (Simulation time: 00 hr 35 min 40 sec)
Heartbeat CPU 0 instructions: 222501124 cycles: 305911789 heartbeat IPC: 0.2436 cumulative IPC: 0.5887 (Simulation time: 00 hr 35 min 52 sec)
Heartbeat CPU 0 instructions: 223001124 cycles: 306855686 heartbeat IPC: 0.5297 cumulative IPC: 0.5885 (Simulation time: 00 hr 35 min 57 sec)
Heartbeat CPU 0 instructions: 223501126 cycles: 307410299 heartbeat IPC: 0.9015 cumulative IPC: 0.5891 (Simulation time: 00 hr 36 min 01 sec)
Heartbeat CPU 0 instructions: 224001127 cycles: 307976754 heartbeat IPC: 0.8827 cumulative IPC: 0.5897 (Simulation time: 00 hr 36 min 04 sec)
Heartbeat CPU 0 instructions: 224501127 cycles: 308393263 heartbeat IPC: 1.2 cumulative IPC: 0.5906 (Simulation time: 00 hr 36 min 08 sec)
Heartbeat CPU 0 instructions: 225001129 cycles: 309231867 heartbeat IPC: 0.5962 cumulative IPC: 0.5906 (Simulation time: 00 hr 36 min 13 sec)
Heartbeat CPU 0 instructions: 225501130 cycles: 310503396 heartbeat IPC: 0.3932 cumulative IPC: 0.5897 (Simulation time: 00 hr 36 min 20 sec)
Heartbeat CPU 0 instructions: 226001130 cycles: 311334851 heartbeat IPC: 0.6014 cumulative IPC: 0.5898 (Simulation time: 00 hr 36 min 25 sec)
Heartbeat CPU 0 instructions: 226501130 cycles: 312774599 heartbeat IPC: 0.3473 cumulative IPC: 0.5886 (Simulation time: 00 hr 36 min 33 sec)
Heartbeat CPU 0 instructions: 227001131 cycles: 314711793 heartbeat IPC: 0.2581 cumulative IPC: 0.5865 (Simulation time: 00 hr 36 min 44 sec)
Heartbeat CPU 0 instructions: 227501131 cycles: 315650511 heartbeat IPC: 0.5326 cumulative IPC: 0.5863 (Simulation time: 00 hr 36 min 50 sec)
Heartbeat CPU 0 instructions: 228001137 cycles: 316094697 heartbeat IPC: 1.126 cumulative IPC: 0.5871 (Simulation time: 00 hr 36 min 53 sec)
Heartbeat CPU 0 instructions: 228501143 cycles: 317436476 heartbeat IPC: 0.3726 cumulative IPC: 0.5862 (Simulation time: 00 hr 37 min 00 sec)
Heartbeat CPU 0 instructions: 229001145 cycles: 318615432 heartbeat IPC: 0.4241 cumulative IPC: 0.5855 (Simulation time: 00 hr 37 min 07 sec)
Heartbeat CPU 0 instructions: 229501147 cycles: 319390517 heartbeat IPC: 0.6451 cumulative IPC: 0.5857 (Simulation time: 00 hr 37 min 12 sec)
Heartbeat CPU 0 instructions: 230001153 cycles: 319847326 heartbeat IPC: 1.095 cumulative IPC: 0.5864 (Simulation time: 00 hr 37 min 15 sec)
Heartbeat CPU 0 instructions: 230501159 cycles: 320483226 heartbeat IPC: 0.7863 cumulative IPC: 0.5869 (Simulation time: 00 hr 37 min 19 sec)
Heartbeat CPU 0 instructions: 231001163 cycles: 320857503 heartbeat IPC: 1.336 cumulative IPC: 0.5878 (Simulation time: 00 hr 37 min 22 sec)
Heartbeat CPU 0 instructions: 231501163 cycles: 321148632 heartbeat IPC: 1.717 cumulative IPC: 0.5888 (Simulation time: 00 hr 37 min 24 sec)
Heartbeat CPU 0 instructions: 232001169 cycles: 321711309 heartbeat IPC: 0.8886 cumulative IPC: 0.5894 (Simulation time: 00 hr 37 min 28 sec)
Heartbeat CPU 0 instructions: 232501169 cycles: 323831612 heartbeat IPC: 0.2358 cumulative IPC: 0.587 (Simulation time: 00 hr 37 min 40 sec)
Heartbeat CPU 0 instructions: 233001174 cycles: 325171960 heartbeat IPC: 0.373 cumulative IPC: 0.5861 (Simulation time: 00 hr 37 min 48 sec)
Heartbeat CPU 0 instructions: 233501177 cycles: 326102766 heartbeat IPC: 0.5372 cumulative IPC: 0.5859 (Simulation time: 00 hr 37 min 54 sec)
Heartbeat CPU 0 instructions: 234001179 cycles: 327446327 heartbeat IPC: 0.3721 cumulative IPC: 0.585 (Simulation time: 00 hr 38 min 01 sec)
Heartbeat CPU 0 instructions: 234501179 cycles: 328421498 heartbeat IPC: 0.5127 cumulative IPC: 0.5848 (Simulation time: 00 hr 38 min 07 sec)
Heartbeat CPU 0 instructions: 235001179 cycles: 329389490 heartbeat IPC: 0.5165 cumulative IPC: 0.5846 (Simulation time: 00 hr 38 min 13 sec)
Heartbeat CPU 0 instructions: 235501183 cycles: 330013704 heartbeat IPC: 0.801 cumulative IPC: 0.585 (Simulation time: 00 hr 38 min 17 sec)
Heartbeat CPU 0 instructions: 236001183 cycles: 331491640 heartbeat IPC: 0.3383 cumulative IPC: 0.5838 (Simulation time: 00 hr 38 min 25 sec)
Heartbeat CPU 0 instructions: 236501184 cycles: 332528157 heartbeat IPC: 0.4824 cumulative IPC: 0.5835 (Simulation time: 00 hr 38 min 31 sec)
Heartbeat CPU 0 instructions: 237001190 cycles: 333114310 heartbeat IPC: 0.853 cumulative IPC: 0.584 (Simulation time: 00 hr 38 min 35 sec)
Heartbeat CPU 0 instructions: 237501190 cycles: 333486855 heartbeat IPC: 1.342 cumulative IPC: 0.5849 (Simulation time: 00 hr 38 min 38 sec)
Heartbeat CPU 0 instructions: 238001190 cycles: 333844075 heartbeat IPC: 1.4 cumulative IPC: 0.5858 (Simulation time: 00 hr 38 min 41 sec)
Heartbeat CPU 0 instructions: 238501191 cycles: 334498069 heartbeat IPC: 0.7645 cumulative IPC: 0.5862 (Simulation time: 00 hr 38 min 45 sec)
Heartbeat CPU 0 instructions: 239001191 cycles: 334768109 heartbeat IPC: 1.852 cumulative IPC: 0.5872 (Simulation time: 00 hr 38 min 47 sec)
Heartbeat CPU 0 instructions: 239501191 cycles: 334951301 heartbeat IPC: 2.729 cumulative IPC: 0.5884 (Simulation time: 00 hr 38 min 49 sec)
Heartbeat CPU 0 instructions: 240001191 cycles: 335154558 heartbeat IPC: 2.46 cumulative IPC: 0.5896 (Simulation time: 00 hr 38 min 51 sec)
Heartbeat CPU 0 instructions: 240501198 cycles: 335317655 heartbeat IPC: 3.066 cumulative IPC: 0.5909 (Simulation time: 00 hr 38 min 52 sec)
Heartbeat CPU 0 instructions: 241001198 cycles: 335503509 heartbeat IPC: 2.69 cumulative IPC: 0.5921 (Simulation time: 00 hr 38 min 54 sec)
Heartbeat CPU 0 instructions: 241501203 cycles: 335653787 heartbeat IPC: 3.327 cumulative IPC: 0.5934 (Simulation time: 00 hr 38 min 55 sec)
Heartbeat CPU 0 instructions: 242001203 cycles: 335811318 heartbeat IPC: 3.174 cumulative IPC: 0.5946 (Simulation time: 00 hr 38 min 57 sec)
Heartbeat CPU 0 instructions: 242501206 cycles: 335971470 heartbeat IPC: 3.122 cumulative IPC: 0.5959 (Simulation time: 00 hr 38 min 59 sec)
Heartbeat CPU 0 instructions: 243001208 cycles: 336159228 heartbeat IPC: 2.663 cumulative IPC: 0.5971 (Simulation time: 00 hr 39 min 00 sec)
Heartbeat CPU 0 instructions: 243501215 cycles: 336325617 heartbeat IPC: 3.005 cumulative IPC: 0.5983 (Simulation time: 00 hr 39 min 02 sec)
Heartbeat CPU 0 instructions: 244001219 cycles: 336500804 heartbeat IPC: 2.854 cumulative IPC: 0.5995 (Simulation time: 00 hr 39 min 04 sec)
Heartbeat CPU 0 instructions: 244501221 cycles: 336644897 heartbeat IPC: 3.47 cumulative IPC: 0.6008 (Simulation time: 00 hr 39 min 05 sec)
Heartbeat CPU 0 instructions: 245001228 cycles: 336789989 heartbeat IPC: 3.446 cumulative IPC: 0.6021 (Simulation time: 00 hr 39 min 07 sec)
Heartbeat CPU 0 instructions: 245501231 cycles: 336948521 heartbeat IPC: 3.154 cumulative IPC: 0.6033 (Simulation time: 00 hr 39 min 08 sec)
Heartbeat CPU 0 instructions: 246001232 cycles: 337126390 heartbeat IPC: 2.811 cumulative IPC: 0.6045 (Simulation time: 00 hr 39 min 10 sec)
Heartbeat CPU 0 instructions: 246501234 cycles: 337286893 heartbeat IPC: 3.115 cumulative IPC: 0.6058 (Simulation time: 00 hr 39 min 11 sec)
Heartbeat CPU 0 instructions: 247001234 cycles: 337470833 heartbeat IPC: 2.718 cumulative IPC: 0.607 (Simulation time: 00 hr 39 min 13 sec)
Heartbeat CPU 0 instructions: 247501240 cycles: 337606280 heartbeat IPC: 3.692 cumulative IPC: 0.6083 (Simulation time: 00 hr 39 min 14 sec)
Heartbeat CPU 0 instructions: 248001244 cycles: 337787405 heartbeat IPC: 2.761 cumulative IPC: 0.6095 (Simulation time: 00 hr 39 min 16 sec)
Heartbeat CPU 0 instructions: 248501244 cycles: 337936007 heartbeat IPC: 3.365 cumulative IPC: 0.6107 (Simulation time: 00 hr 39 min 18 sec)
Heartbeat CPU 0 instructions: 249001244 cycles: 338079039 heartbeat IPC: 3.496 cumulative IPC: 0.612 (Simulation time: 00 hr 39 min 19 sec)
Heartbeat CPU 0 instructions: 249501248 cycles: 338221715 heartbeat IPC: 3.504 cumulative IPC: 0.6133 (Simulation time: 00 hr 39 min 21 sec)
Simulation finished CPU 0 instructions: 200000000 cycles: 325484812 cumulative IPC: 0.6145 (Simulation time: 00 hr 39 min 22 sec)
Simulation complete CPU 0 instructions: 200000000 cycles: 325484812 cumulative IPC: 0.6145 (Simulation time: 00 hr 39 min 22 sec)

ChampSim completed all CPUs

=== Simulation ===
CPU 0 runs /local-ssd/ben/dpc4-traces/gtraces_v2/yankee_0002.champsim.gz

Region of Interest Statistics

CPU 0 cumulative IPC: 0.6145 instructions: 200000000 cycles: 325484812
CPU 0 Branch Prediction Accuracy: 90.22% MPKI: 17.79 Average ROB Occupancy at Mispredict: 23.7
Branch type MPKI
BRANCH_DIRECT_JUMP: 0.8106
BRANCH_INDIRECT: 0.3993
BRANCH_CONDITIONAL: 14.37
BRANCH_DIRECT_CALL: 1.18
BRANCH_INDIRECT_CALL: 0.3731
BRANCH_RETURN: 0.6668

cpu0->cpu0_STLB TOTAL        ACCESS:    1376952 HIT:     974581 MISS:     402371 MSHR_MERGE:          0
cpu0->cpu0_STLB LOAD         ACCESS:    1376952 HIT:     974581 MISS:     402371 MSHR_MERGE:          0
cpu0->cpu0_STLB RFO          ACCESS:          0 HIT:          0 MISS:          0 MSHR_MERGE:          0
cpu0->cpu0_STLB PREFETCH     ACCESS:          0 HIT:          0 MISS:          0 MSHR_MERGE:          0
cpu0->cpu0_STLB WRITE        ACCESS:          0 HIT:          0 MISS:          0 MSHR_MERGE:          0
cpu0->cpu0_STLB TRANSLATION  ACCESS:          0 HIT:          0 MISS:          0 MSHR_MERGE:          0
cpu0->cpu0_STLB PREFETCH REQUESTED:          0 ISSUED:          0 USEFUL:          0 USELESS:          0
cpu0->cpu0_STLB AVERAGE MISS LATENCY: 163.2 cycles
cpu0->cpu0_L2C TOTAL        ACCESS:    8852690 HIT:    5777889 MISS:    3074801 MSHR_MERGE:     224821
cpu0->cpu0_L2C LOAD         ACCESS:    3363164 HIT:    1885266 MISS:    1477898 MSHR_MERGE:      35809
cpu0->cpu0_L2C RFO          ACCESS:     632252 HIT:     166064 MISS:     466188 MSHR_MERGE:      10627
cpu0->cpu0_L2C PREFETCH     ACCESS:    3424042 HIT:    2493195 MISS:     930847 MSHR_MERGE:     178385
cpu0->cpu0_L2C WRITE        ACCESS:     973845 HIT:     973833 MISS:         12 MSHR_MERGE:          0
cpu0->cpu0_L2C TRANSLATION  ACCESS:     459387 HIT:     259531 MISS:     199856 MSHR_MERGE:          0
cpu0->cpu0_L2C PREFETCH REQUESTED:    3527605 ISSUED:    3306473 USEFUL:     283805 USELESS:     440055
cpu0->cpu0_L2C AVERAGE MISS LATENCY: 181.7 cycles
cpu0->cpu0_L1I TOTAL        ACCESS:   14847352 HIT:   12741562 MISS:    2105790 MSHR_MERGE:     463750
cpu0->cpu0_L1I LOAD         ACCESS:   14847352 HIT:   12741562 MISS:    2105790 MSHR_MERGE:     463750
cpu0->cpu0_L1I RFO          ACCESS:          0 HIT:          0 MISS:          0 MSHR_MERGE:          0
cpu0->cpu0_L1I PREFETCH     ACCESS:          0 HIT:          0 MISS:          0 MSHR_MERGE:          0
cpu0->cpu0_L1I WRITE        ACCESS:          0 HIT:          0 MISS:          0 MSHR_MERGE:          0
cpu0->cpu0_L1I TRANSLATION  ACCESS:          0 HIT:          0 MISS:          0 MSHR_MERGE:          0
cpu0->cpu0_L1I PREFETCH REQUESTED:          0 ISSUED:          0 USEFUL:          0 USELESS:          0
cpu0->cpu0_L1I AVERAGE MISS LATENCY: 103.7 cycles
cpu0->cpu0_L1D TOTAL        ACCESS:   54280459 HIT:   48863606 MISS:    5416853 MSHR_MERGE:    2486490
cpu0->cpu0_L1D LOAD         ACCESS:   32665551 HIT:   30339606 MISS:    2325945 MSHR_MERGE:     604812
cpu0->cpu0_L1D RFO          ACCESS:          0 HIT:          0 MISS:          0 MSHR_MERGE:          0
cpu0->cpu0_L1D PREFETCH     ACCESS:     139722 HIT:      19172 MISS:     120550 MSHR_MERGE:       2972
cpu0->cpu0_L1D WRITE        ACCESS:   20423776 HIT:   17916516 MISS:    2507260 MSHR_MERGE:    1874995
cpu0->cpu0_L1D TRANSLATION  ACCESS:    1051410 HIT:     588312 MISS:     463098 MSHR_MERGE:       3711
cpu0->cpu0_L1D PREFETCH REQUESTED:     243902 ISSUED:     139722 USEFUL:      56100 USELESS:      61501
cpu0->cpu0_L1D AVERAGE MISS LATENCY: 90.97 cycles
cpu0->cpu0_ITLB TOTAL        ACCESS:   12045356 HIT:   11860250 MISS:     185106 MSHR_MERGE:      89606
cpu0->cpu0_ITLB LOAD         ACCESS:   12045356 HIT:   11860250 MISS:     185106 MSHR_MERGE:      89606
cpu0->cpu0_ITLB RFO          ACCESS:          0 HIT:          0 MISS:          0 MSHR_MERGE:          0
cpu0->cpu0_ITLB PREFETCH     ACCESS:          0 HIT:          0 MISS:          0 MSHR_MERGE:          0
cpu0->cpu0_ITLB WRITE        ACCESS:          0 HIT:          0 MISS:          0 MSHR_MERGE:          0
cpu0->cpu0_ITLB TRANSLATION  ACCESS:          0 HIT:          0 MISS:          0 MSHR_MERGE:          0
cpu0->cpu0_ITLB PREFETCH REQUESTED:          0 ISSUED:          0 USEFUL:          0 USELESS:          0
cpu0->cpu0_ITLB AVERAGE MISS LATENCY: 33.51 cycles
cpu0->cpu0_DTLB TOTAL        ACCESS:   50860089 HIT:   48658205 MISS:    2201884 MSHR_MERGE:     920432
cpu0->cpu0_DTLB LOAD         ACCESS:   50860089 HIT:   48658205 MISS:    2201884 MSHR_MERGE:     920432
cpu0->cpu0_DTLB RFO          ACCESS:          0 HIT:          0 MISS:          0 MSHR_MERGE:          0
cpu0->cpu0_DTLB PREFETCH     ACCESS:          0 HIT:          0 MISS:          0 MSHR_MERGE:          0
cpu0->cpu0_DTLB WRITE        ACCESS:          0 HIT:          0 MISS:          0 MSHR_MERGE:          0
cpu0->cpu0_DTLB TRANSLATION  ACCESS:          0 HIT:          0 MISS:          0 MSHR_MERGE:          0
cpu0->cpu0_DTLB PREFETCH REQUESTED:          0 ISSUED:          0 USEFUL:          0 USELESS:          0
cpu0->cpu0_DTLB AVERAGE MISS LATENCY: 54.45 cycles
cpu0->LLC TOTAL        ACCESS:    3645350 HIT:     944607 MISS:    2700743 MSHR_MERGE:      15980
cpu0->LLC LOAD         ACCESS:    1442089 HIT:     514368 MISS:     927721 MSHR_MERGE:       1360
cpu0->LLC RFO          ACCESS:     455561 HIT:      13618 MISS:     441943 MSHR_MERGE:         33
cpu0->LLC PREFETCH     ACCESS:     895980 HIT:     217709 MISS:     678271 MSHR_MERGE:      14587
cpu0->LLC WRITE        ACCESS:     651864 HIT:     164936 MISS:     486928 MSHR_MERGE:          0
cpu0->LLC TRANSLATION  ACCESS:     199856 HIT:      33976 MISS:     165880 MSHR_MERGE:          0
cpu0->LLC PREFETCH REQUESTED:     143532 ISSUED:     143518 USEFUL:      21287 USELESS:      52648
cpu0->LLC AVERAGE MISS LATENCY: 169.5 cycles

DRAM Statistics

Channel 0 RQ ROW_BUFFER_HIT:      63835
  ROW_BUFFER_MISS:    2133975
  AVG DBUS CONGESTED CYCLE: 26.86
Channel 0 WQ ROW_BUFFER_HIT:     166321
  ROW_BUFFER_MISS:     456320
  FULL:         34
Channel 0 REFRESHES ISSUED:      27122
