[VMEM] WARNING: physical memory size is smaller than virtual memory size.

*** ChampSim Multicore Out-of-Order Simulator ***
Warmup Instructions: 50000000
Simulation Instructions: 200000000
Number of CPUs: 1
Page size: 4096
Core 0: /local-ssd/ben/dpc4-traces/SPEC17/654.roms_s-293B.champsimtrace.xz
CMC Prefetcher Initialized
Off-chip DRAM Size: 64 GiB Channels: 1 Width: 64-bit Data Rate: 4807 MT/s
Heartbeat CPU 0 instructions: 500002 cycles: 105173 heartbeat IPC: 4.754 cumulative IPC: 4.754 (Simulation time: 00 hr 00 min 02 sec)
Heartbeat CPU 0 instructions: 1000003 cycles: 208693 heartbeat IPC: 4.83 cumulative IPC: 4.792 (Simulation time: 00 hr 00 min 03 sec)
Heartbeat CPU 0 instructions: 1500003 cycles: 312219 heartbeat IPC: 4.83 cumulative IPC: 4.804 (Simulation time: 00 hr 00 min 05 sec)
Heartbeat CPU 0 instructions: 2000005 cycles: 415677 heartbeat IPC: 4.833 cumulative IPC: 4.811 (Simulation time: 00 hr 00 min 06 sec)
Heartbeat CPU 0 instructions: 2500008 cycles: 519014 heartbeat IPC: 4.839 cumulative IPC: 4.817 (Simulation time: 00 hr 00 min 08 sec)
Heartbeat CPU 0 instructions: 3000009 cycles: 621602 heartbeat IPC: 4.874 cumulative IPC: 4.826 (Simulation time: 00 hr 00 min 09 sec)
Heartbeat CPU 0 instructions: 3500015 cycles: 729013 heartbeat IPC: 4.655 cumulative IPC: 4.801 (Simulation time: 00 hr 00 min 10 sec)
Heartbeat CPU 0 instructions: 4000015 cycles: 859483 heartbeat IPC: 3.832 cumulative IPC: 4.654 (Simulation time: 00 hr 00 min 13 sec)
Heartbeat CPU 0 instructions: 4500019 cycles: 985319 heartbeat IPC: 3.973 cumulative IPC: 4.567 (Simulation time: 00 hr 00 min 15 sec)
Heartbeat CPU 0 instructions: 5000026 cycles: 1163309 heartbeat IPC: 2.809 cumulative IPC: 4.298 (Simulation time: 00 hr 00 min 17 sec)
Heartbeat CPU 0 instructions: 5500030 cycles: 1266490 heartbeat IPC: 4.846 cumulative IPC: 4.343 (Simulation time: 00 hr 00 min 19 sec)
Heartbeat CPU 0 instructions: 6000034 cycles: 1368854 heartbeat IPC: 4.885 cumulative IPC: 4.383 (Simulation time: 00 hr 00 min 20 sec)
Heartbeat CPU 0 instructions: 6500034 cycles: 1471512 heartbeat IPC: 4.871 cumulative IPC: 4.417 (Simulation time: 00 hr 00 min 21 sec)
Heartbeat CPU 0 instructions: 7000035 cycles: 1573673 heartbeat IPC: 4.894 cumulative IPC: 4.448 (Simulation time: 00 hr 00 min 23 sec)
Heartbeat CPU 0 instructions: 7500039 cycles: 1675249 heartbeat IPC: 4.922 cumulative IPC: 4.477 (Simulation time: 00 hr 00 min 24 sec)
Heartbeat CPU 0 instructions: 8000040 cycles: 1776975 heartbeat IPC: 4.915 cumulative IPC: 4.502 (Simulation time: 00 hr 00 min 26 sec)
Heartbeat CPU 0 instructions: 8500042 cycles: 1878457 heartbeat IPC: 4.927 cumulative IPC: 4.525 (Simulation time: 00 hr 00 min 27 sec)
Heartbeat CPU 0 instructions: 9000046 cycles: 1980246 heartbeat IPC: 4.912 cumulative IPC: 4.545 (Simulation time: 00 hr 00 min 28 sec)
Heartbeat CPU 0 instructions: 9500047 cycles: 2081931 heartbeat IPC: 4.917 cumulative IPC: 4.563 (Simulation time: 00 hr 00 min 30 sec)
Heartbeat CPU 0 instructions: 10000050 cycles: 2183583 heartbeat IPC: 4.919 cumulative IPC: 4.58 (Simulation time: 00 hr 00 min 31 sec)
Heartbeat CPU 0 instructions: 10500052 cycles: 2291154 heartbeat IPC: 4.648 cumulative IPC: 4.583 (Simulation time: 00 hr 00 min 33 sec)
Heartbeat CPU 0 instructions: 11000052 cycles: 2407303 heartbeat IPC: 4.305 cumulative IPC: 4.569 (Simulation time: 00 hr 00 min 35 sec)
Heartbeat CPU 0 instructions: 11500059 cycles: 2524042 heartbeat IPC: 4.283 cumulative IPC: 4.556 (Simulation time: 00 hr 00 min 37 sec)
Heartbeat CPU 0 instructions: 12000062 cycles: 2680817 heartbeat IPC: 3.189 cumulative IPC: 4.476 (Simulation time: 00 hr 00 min 39 sec)
Heartbeat CPU 0 instructions: 12500069 cycles: 2782290 heartbeat IPC: 4.927 cumulative IPC: 4.493 (Simulation time: 00 hr 00 min 40 sec)
Heartbeat CPU 0 instructions: 13000072 cycles: 2883991 heartbeat IPC: 4.916 cumulative IPC: 4.508 (Simulation time: 00 hr 00 min 42 sec)
Heartbeat CPU 0 instructions: 13500075 cycles: 2985775 heartbeat IPC: 4.912 cumulative IPC: 4.521 (Simulation time: 00 hr 00 min 43 sec)
Heartbeat CPU 0 instructions: 14000082 cycles: 3087436 heartbeat IPC: 4.918 cumulative IPC: 4.535 (Simulation time: 00 hr 00 min 45 sec)
Heartbeat CPU 0 instructions: 14500083 cycles: 3189225 heartbeat IPC: 4.912 cumulative IPC: 4.547 (Simulation time: 00 hr 00 min 46 sec)
Heartbeat CPU 0 instructions: 15000086 cycles: 3290671 heartbeat IPC: 4.929 cumulative IPC: 4.558 (Simulation time: 00 hr 00 min 47 sec)
Heartbeat CPU 0 instructions: 15500087 cycles: 3392456 heartbeat IPC: 4.912 cumulative IPC: 4.569 (Simulation time: 00 hr 00 min 49 sec)
Heartbeat CPU 0 instructions: 16000088 cycles: 3494247 heartbeat IPC: 4.912 cumulative IPC: 4.579 (Simulation time: 00 hr 00 min 50 sec)
Heartbeat CPU 0 instructions: 16500095 cycles: 3595981 heartbeat IPC: 4.915 cumulative IPC: 4.588 (Simulation time: 00 hr 00 min 52 sec)
Heartbeat CPU 0 instructions: 17000098 cycles: 3697646 heartbeat IPC: 4.918 cumulative IPC: 4.598 (Simulation time: 00 hr 00 min 53 sec)
Heartbeat CPU 0 instructions: 17500100 cycles: 3808996 heartbeat IPC: 4.49 cumulative IPC: 4.594 (Simulation time: 00 hr 00 min 55 sec)
Heartbeat CPU 0 instructions: 18000107 cycles: 3925748 heartbeat IPC: 4.283 cumulative IPC: 4.585 (Simulation time: 00 hr 00 min 57 sec)
Heartbeat CPU 0 instructions: 18500112 cycles: 4049216 heartbeat IPC: 4.05 cumulative IPC: 4.569 (Simulation time: 00 hr 00 min 59 sec)
Heartbeat CPU 0 instructions: 19000117 cycles: 4195807 heartbeat IPC: 3.411 cumulative IPC: 4.528 (Simulation time: 00 hr 01 min 01 sec)
Heartbeat CPU 0 instructions: 19500118 cycles: 4297494 heartbeat IPC: 4.917 cumulative IPC: 4.538 (Simulation time: 00 hr 01 min 02 sec)
Heartbeat CPU 0 instructions: 20000121 cycles: 4399143 heartbeat IPC: 4.919 cumulative IPC: 4.546 (Simulation time: 00 hr 01 min 04 sec)
Heartbeat CPU 0 instructions: 20500122 cycles: 4500816 heartbeat IPC: 4.918 cumulative IPC: 4.555 (Simulation time: 00 hr 01 min 05 sec)
Heartbeat CPU 0 instructions: 21000123 cycles: 4602585 heartbeat IPC: 4.913 cumulative IPC: 4.563 (Simulation time: 00 hr 01 min 06 sec)
Heartbeat CPU 0 instructions: 21500128 cycles: 4704386 heartbeat IPC: 4.912 cumulative IPC: 4.57 (Simulation time: 00 hr 01 min 08 sec)
Heartbeat CPU 0 instructions: 22000133 cycles: 4806071 heartbeat IPC: 4.917 cumulative IPC: 4.578 (Simulation time: 00 hr 01 min 09 sec)
Heartbeat CPU 0 instructions: 22500136 cycles: 4907735 heartbeat IPC: 4.918 cumulative IPC: 4.585 (Simulation time: 00 hr 01 min 11 sec)
Heartbeat CPU 0 instructions: 23000140 cycles: 5009511 heartbeat IPC: 4.913 cumulative IPC: 4.591 (Simulation time: 00 hr 01 min 12 sec)
Heartbeat CPU 0 instructions: 23500146 cycles: 5111325 heartbeat IPC: 4.911 cumulative IPC: 4.598 (Simulation time: 00 hr 01 min 13 sec)
Heartbeat CPU 0 instructions: 24000151 cycles: 5214826 heartbeat IPC: 4.831 cumulative IPC: 4.602 (Simulation time: 00 hr 01 min 15 sec)
Heartbeat CPU 0 instructions: 24500152 cycles: 5328994 heartbeat IPC: 4.38 cumulative IPC: 4.598 (Simulation time: 00 hr 01 min 17 sec)
Heartbeat CPU 0 instructions: 25000158 cycles: 5445884 heartbeat IPC: 4.278 cumulative IPC: 4.591 (Simulation time: 00 hr 01 min 19 sec)
Heartbeat CPU 0 instructions: 25500158 cycles: 5598281 heartbeat IPC: 3.281 cumulative IPC: 4.555 (Simulation time: 00 hr 01 min 21 sec)
Heartbeat CPU 0 instructions: 26000165 cycles: 5711109 heartbeat IPC: 4.432 cumulative IPC: 4.553 (Simulation time: 00 hr 01 min 22 sec)
Heartbeat CPU 0 instructions: 26500165 cycles: 5812549 heartbeat IPC: 4.929 cumulative IPC: 4.559 (Simulation time: 00 hr 01 min 24 sec)
Heartbeat CPU 0 instructions: 27000171 cycles: 5914322 heartbeat IPC: 4.913 cumulative IPC: 4.565 (Simulation time: 00 hr 01 min 25 sec)
Heartbeat CPU 0 instructions: 27500172 cycles: 6015983 heartbeat IPC: 4.918 cumulative IPC: 4.571 (Simulation time: 00 hr 01 min 27 sec)
Heartbeat CPU 0 instructions: 28000176 cycles: 6117859 heartbeat IPC: 4.908 cumulative IPC: 4.577 (Simulation time: 00 hr 01 min 28 sec)
Heartbeat CPU 0 instructions: 28500176 cycles: 6219404 heartbeat IPC: 4.924 cumulative IPC: 4.582 (Simulation time: 00 hr 01 min 30 sec)
Heartbeat CPU 0 instructions: 29000182 cycles: 6321083 heartbeat IPC: 4.917 cumulative IPC: 4.588 (Simulation time: 00 hr 01 min 31 sec)
Heartbeat CPU 0 instructions: 29500183 cycles: 6422886 heartbeat IPC: 4.911 cumulative IPC: 4.593 (Simulation time: 00 hr 01 min 32 sec)
Heartbeat CPU 0 instructions: 30000183 cycles: 6524434 heartbeat IPC: 4.924 cumulative IPC: 4.598 (Simulation time: 00 hr 01 min 34 sec)
Heartbeat CPU 0 instructions: 30500187 cycles: 6626231 heartbeat IPC: 4.912 cumulative IPC: 4.603 (Simulation time: 00 hr 01 min 35 sec)
Heartbeat CPU 0 instructions: 31000187 cycles: 6732595 heartbeat IPC: 4.701 cumulative IPC: 4.604 (Simulation time: 00 hr 01 min 37 sec)
Heartbeat CPU 0 instructions: 31500194 cycles: 6848335 heartbeat IPC: 4.32 cumulative IPC: 4.6 (Simulation time: 00 hr 01 min 39 sec)
Heartbeat CPU 0 instructions: 32000201 cycles: 6965073 heartbeat IPC: 4.283 cumulative IPC: 4.594 (Simulation time: 00 hr 01 min 41 sec)
Heartbeat CPU 0 instructions: 32500205 cycles: 7123107 heartbeat IPC: 3.164 cumulative IPC: 4.563 (Simulation time: 00 hr 01 min 43 sec)
Heartbeat CPU 0 instructions: 33000208 cycles: 7224683 heartbeat IPC: 4.922 cumulative IPC: 4.568 (Simulation time: 00 hr 01 min 44 sec)
Heartbeat CPU 0 instructions: 33500215 cycles: 7326484 heartbeat IPC: 4.912 cumulative IPC: 4.572 (Simulation time: 00 hr 01 min 46 sec)
Heartbeat CPU 0 instructions: 34000218 cycles: 7428272 heartbeat IPC: 4.912 cumulative IPC: 4.577 (Simulation time: 00 hr 01 min 47 sec)
Heartbeat CPU 0 instructions: 34500219 cycles: 7529716 heartbeat IPC: 4.929 cumulative IPC: 4.582 (Simulation time: 00 hr 01 min 48 sec)
Heartbeat CPU 0 instructions: 35000220 cycles: 7631507 heartbeat IPC: 4.912 cumulative IPC: 4.586 (Simulation time: 00 hr 01 min 50 sec)
Heartbeat CPU 0 instructions: 35500225 cycles: 7733189 heartbeat IPC: 4.917 cumulative IPC: 4.591 (Simulation time: 00 hr 01 min 51 sec)
Heartbeat CPU 0 instructions: 36000230 cycles: 7834979 heartbeat IPC: 4.912 cumulative IPC: 4.595 (Simulation time: 00 hr 01 min 53 sec)
Heartbeat CPU 0 instructions: 36500231 cycles: 7936766 heartbeat IPC: 4.912 cumulative IPC: 4.599 (Simulation time: 00 hr 01 min 54 sec)
Heartbeat CPU 0 instructions: 37000236 cycles: 8038371 heartbeat IPC: 4.921 cumulative IPC: 4.603 (Simulation time: 00 hr 01 min 55 sec)
Heartbeat CPU 0 instructions: 37500237 cycles: 8140063 heartbeat IPC: 4.917 cumulative IPC: 4.607 (Simulation time: 00 hr 01 min 57 sec)
Heartbeat CPU 0 instructions: 38000239 cycles: 8249862 heartbeat IPC: 4.554 cumulative IPC: 4.606 (Simulation time: 00 hr 01 min 58 sec)
Heartbeat CPU 0 instructions: 38500245 cycles: 8366910 heartbeat IPC: 4.272 cumulative IPC: 4.601 (Simulation time: 00 hr 02 min 01 sec)
Heartbeat CPU 0 instructions: 39000249 cycles: 8483742 heartbeat IPC: 4.28 cumulative IPC: 4.597 (Simulation time: 00 hr 02 min 03 sec)
Heartbeat CPU 0 instructions: 39500256 cycles: 8638180 heartbeat IPC: 3.238 cumulative IPC: 4.573 (Simulation time: 00 hr 02 min 05 sec)
Heartbeat CPU 0 instructions: 40000257 cycles: 8739857 heartbeat IPC: 4.918 cumulative IPC: 4.577 (Simulation time: 00 hr 02 min 06 sec)
Heartbeat CPU 0 instructions: 40500258 cycles: 8841833 heartbeat IPC: 4.903 cumulative IPC: 4.581 (Simulation time: 00 hr 02 min 07 sec)
Heartbeat CPU 0 instructions: 41000259 cycles: 8943604 heartbeat IPC: 4.913 cumulative IPC: 4.584 (Simulation time: 00 hr 02 min 09 sec)
Heartbeat CPU 0 instructions: 41500260 cycles: 9045075 heartbeat IPC: 4.928 cumulative IPC: 4.588 (Simulation time: 00 hr 02 min 10 sec)
Heartbeat CPU 0 instructions: 42000263 cycles: 9146739 heartbeat IPC: 4.918 cumulative IPC: 4.592 (Simulation time: 00 hr 02 min 12 sec)
Heartbeat CPU 0 instructions: 42500264 cycles: 9248429 heartbeat IPC: 4.917 cumulative IPC: 4.595 (Simulation time: 00 hr 02 min 13 sec)
Heartbeat CPU 0 instructions: 43000265 cycles: 9350122 heartbeat IPC: 4.917 cumulative IPC: 4.599 (Simulation time: 00 hr 02 min 14 sec)
Heartbeat CPU 0 instructions: 43500266 cycles: 9451796 heartbeat IPC: 4.918 cumulative IPC: 4.602 (Simulation time: 00 hr 02 min 16 sec)
Heartbeat CPU 0 instructions: 44000267 cycles: 9553620 heartbeat IPC: 4.91 cumulative IPC: 4.606 (Simulation time: 00 hr 02 min 17 sec)
Heartbeat CPU 0 instructions: 44500270 cycles: 9655285 heartbeat IPC: 4.918 cumulative IPC: 4.609 (Simulation time: 00 hr 02 min 19 sec)
Heartbeat CPU 0 instructions: 45000272 cycles: 9769719 heartbeat IPC: 4.369 cumulative IPC: 4.606 (Simulation time: 00 hr 02 min 21 sec)
Heartbeat CPU 0 instructions: 45500273 cycles: 9886537 heartbeat IPC: 4.28 cumulative IPC: 4.602 (Simulation time: 00 hr 02 min 23 sec)
Heartbeat CPU 0 instructions: 46000273 cycles: 10029274 heartbeat IPC: 3.503 cumulative IPC: 4.587 (Simulation time: 00 hr 02 min 25 sec)
Heartbeat CPU 0 instructions: 46500273 cycles: 10153130 heartbeat IPC: 4.037 cumulative IPC: 4.58 (Simulation time: 00 hr 02 min 26 sec)
Heartbeat CPU 0 instructions: 47000275 cycles: 10254570 heartbeat IPC: 4.929 cumulative IPC: 4.583 (Simulation time: 00 hr 02 min 28 sec)
Heartbeat CPU 0 instructions: 47500279 cycles: 10356349 heartbeat IPC: 4.913 cumulative IPC: 4.587 (Simulation time: 00 hr 02 min 29 sec)
Heartbeat CPU 0 instructions: 48000279 cycles: 10458030 heartbeat IPC: 4.917 cumulative IPC: 4.59 (Simulation time: 00 hr 02 min 31 sec)
Heartbeat CPU 0 instructions: 48500285 cycles: 10559842 heartbeat IPC: 4.911 cumulative IPC: 4.593 (Simulation time: 00 hr 02 min 32 sec)
Heartbeat CPU 0 instructions: 49000286 cycles: 10661392 heartbeat IPC: 4.924 cumulative IPC: 4.596 (Simulation time: 00 hr 02 min 34 sec)
Heartbeat CPU 0 instructions: 49500286 cycles: 10763053 heartbeat IPC: 4.918 cumulative IPC: 4.599 (Simulation time: 00 hr 02 min 35 sec)
Warmup halting CPU 0 at instruction 50000001 cycle 10864665 for remainder of phase
Warmup finished CPU 0 instructions: 50000001 cycles: 10864665 cumulative IPC: 4.602 (Simulation time: 00 hr 02 min 36 sec)
Warmup complete CPU 0 instructions: 50000001 cycles: 10864665 cumulative IPC: 4.602 (Simulation time: 00 hr 02 min 36 sec)
Heartbeat CPU 0 instructions: 50000287 cycles: 10864737 heartbeat IPC: 4.917 cumulative IPC: 3.972 (Simulation time: 00 hr 02 min 36 sec)
Heartbeat CPU 0 instructions: 50500289 cycles: 11000729 heartbeat IPC: 3.677 cumulative IPC: 3.677 (Simulation time: 00 hr 02 min 39 sec)
Heartbeat CPU 0 instructions: 51000290 cycles: 11138951 heartbeat IPC: 3.617 cumulative IPC: 3.647 (Simulation time: 00 hr 02 min 41 sec)
Heartbeat CPU 0 instructions: 51500296 cycles: 11314180 heartbeat IPC: 2.853 cumulative IPC: 3.338 (Simulation time: 00 hr 02 min 44 sec)
Heartbeat CPU 0 instructions: 52000296 cycles: 11540139 heartbeat IPC: 2.213 cumulative IPC: 2.961 (Simulation time: 00 hr 02 min 47 sec)
Heartbeat CPU 0 instructions: 52500297 cycles: 11738184 heartbeat IPC: 2.525 cumulative IPC: 2.862 (Simulation time: 00 hr 02 min 50 sec)
Heartbeat CPU 0 instructions: 53000297 cycles: 11979751 heartbeat IPC: 2.07 cumulative IPC: 2.691 (Simulation time: 00 hr 02 min 54 sec)
Heartbeat CPU 0 instructions: 53500302 cycles: 12117079 heartbeat IPC: 3.641 cumulative IPC: 2.795 (Simulation time: 00 hr 02 min 56 sec)
Heartbeat CPU 0 instructions: 54000305 cycles: 12253230 heartbeat IPC: 3.672 cumulative IPC: 2.881 (Simulation time: 00 hr 02 min 58 sec)
Heartbeat CPU 0 instructions: 54500306 cycles: 12390725 heartbeat IPC: 3.637 cumulative IPC: 2.949 (Simulation time: 00 hr 03 min 01 sec)
Heartbeat CPU 0 instructions: 55000307 cycles: 12527066 heartbeat IPC: 3.667 cumulative IPC: 3.008 (Simulation time: 00 hr 03 min 03 sec)
Heartbeat CPU 0 instructions: 55500308 cycles: 12663949 heartbeat IPC: 3.653 cumulative IPC: 3.057 (Simulation time: 00 hr 03 min 05 sec)
Heartbeat CPU 0 instructions: 56000309 cycles: 12800856 heartbeat IPC: 3.652 cumulative IPC: 3.099 (Simulation time: 00 hr 03 min 08 sec)
Heartbeat CPU 0 instructions: 56500312 cycles: 12940893 heartbeat IPC: 3.571 cumulative IPC: 3.131 (Simulation time: 00 hr 03 min 10 sec)
Heartbeat CPU 0 instructions: 57000313 cycles: 13077522 heartbeat IPC: 3.66 cumulative IPC: 3.163 (Simulation time: 00 hr 03 min 12 sec)
Heartbeat CPU 0 instructions: 57500313 cycles: 13213307 heartbeat IPC: 3.682 cumulative IPC: 3.193 (Simulation time: 00 hr 03 min 15 sec)
Heartbeat CPU 0 instructions: 58000315 cycles: 13351120 heartbeat IPC: 3.628 cumulative IPC: 3.218 (Simulation time: 00 hr 03 min 17 sec)
Heartbeat CPU 0 instructions: 58500320 cycles: 13566699 heartbeat IPC: 2.319 cumulative IPC: 3.146 (Simulation time: 00 hr 03 min 20 sec)
Heartbeat CPU 0 instructions: 59000322 cycles: 13773415 heartbeat IPC: 2.419 cumulative IPC: 3.094 (Simulation time: 00 hr 03 min 23 sec)
Heartbeat CPU 0 instructions: 59500329 cycles: 13971136 heartbeat IPC: 2.529 cumulative IPC: 3.058 (Simulation time: 00 hr 03 min 27 sec)
Heartbeat CPU 0 instructions: 60000335 cycles: 14196075 heartbeat IPC: 2.223 cumulative IPC: 3.002 (Simulation time: 00 hr 03 min 30 sec)
Heartbeat CPU 0 instructions: 60500340 cycles: 14331903 heartbeat IPC: 3.681 cumulative IPC: 3.028 (Simulation time: 00 hr 03 min 32 sec)
Heartbeat CPU 0 instructions: 61000344 cycles: 14467967 heartbeat IPC: 3.675 cumulative IPC: 3.053 (Simulation time: 00 hr 03 min 34 sec)
Heartbeat CPU 0 instructions: 61500348 cycles: 14604187 heartbeat IPC: 3.671 cumulative IPC: 3.075 (Simulation time: 00 hr 03 min 37 sec)
Heartbeat CPU 0 instructions: 62000348 cycles: 14740361 heartbeat IPC: 3.672 cumulative IPC: 3.096 (Simulation time: 00 hr 03 min 39 sec)
Heartbeat CPU 0 instructions: 62500353 cycles: 14876896 heartbeat IPC: 3.662 cumulative IPC: 3.116 (Simulation time: 00 hr 03 min 41 sec)
Heartbeat CPU 0 instructions: 63000358 cycles: 15015608 heartbeat IPC: 3.605 cumulative IPC: 3.132 (Simulation time: 00 hr 03 min 44 sec)
Heartbeat CPU 0 instructions: 63500364 cycles: 15152815 heartbeat IPC: 3.644 cumulative IPC: 3.148 (Simulation time: 00 hr 03 min 46 sec)
Heartbeat CPU 0 instructions: 64000370 cycles: 15287713 heartbeat IPC: 3.707 cumulative IPC: 3.165 (Simulation time: 00 hr 03 min 49 sec)
Heartbeat CPU 0 instructions: 64500371 cycles: 15426232 heartbeat IPC: 3.61 cumulative IPC: 3.179 (Simulation time: 00 hr 03 min 51 sec)
Heartbeat CPU 0 instructions: 65000372 cycles: 15561958 heartbeat IPC: 3.684 cumulative IPC: 3.193 (Simulation time: 00 hr 03 min 53 sec)
Heartbeat CPU 0 instructions: 65500375 cycles: 15800553 heartbeat IPC: 2.096 cumulative IPC: 3.14 (Simulation time: 00 hr 03 min 57 sec)
Heartbeat CPU 0 instructions: 66000379 cycles: 16002310 heartbeat IPC: 2.478 cumulative IPC: 3.114 (Simulation time: 00 hr 04 min 00 sec)
Heartbeat CPU 0 instructions: 66500382 cycles: 16217111 heartbeat IPC: 2.328 cumulative IPC: 3.083 (Simulation time: 00 hr 04 min 03 sec)
Heartbeat CPU 0 instructions: 67000384 cycles: 16408108 heartbeat IPC: 2.618 cumulative IPC: 3.067 (Simulation time: 00 hr 04 min 06 sec)
Heartbeat CPU 0 instructions: 67500385 cycles: 16545424 heartbeat IPC: 3.641 cumulative IPC: 3.081 (Simulation time: 00 hr 04 min 08 sec)
Heartbeat CPU 0 instructions: 68000386 cycles: 16680898 heartbeat IPC: 3.691 cumulative IPC: 3.095 (Simulation time: 00 hr 04 min 11 sec)
Heartbeat CPU 0 instructions: 68500387 cycles: 16818217 heartbeat IPC: 3.641 cumulative IPC: 3.107 (Simulation time: 00 hr 04 min 13 sec)
Heartbeat CPU 0 instructions: 69000390 cycles: 16953618 heartbeat IPC: 3.693 cumulative IPC: 3.12 (Simulation time: 00 hr 04 min 15 sec)
Heartbeat CPU 0 instructions: 69500391 cycles: 17089850 heartbeat IPC: 3.67 cumulative IPC: 3.132 (Simulation time: 00 hr 04 min 18 sec)
Heartbeat CPU 0 instructions: 70000392 cycles: 17227631 heartbeat IPC: 3.629 cumulative IPC: 3.143 (Simulation time: 00 hr 04 min 20 sec)
Heartbeat CPU 0 instructions: 70500393 cycles: 17364445 heartbeat IPC: 3.655 cumulative IPC: 3.154 (Simulation time: 00 hr 04 min 22 sec)
Heartbeat CPU 0 instructions: 71000394 cycles: 17502113 heartbeat IPC: 3.632 cumulative IPC: 3.164 (Simulation time: 00 hr 04 min 25 sec)
Heartbeat CPU 0 instructions: 71500397 cycles: 17638853 heartbeat IPC: 3.657 cumulative IPC: 3.174 (Simulation time: 00 hr 04 min 27 sec)
Heartbeat CPU 0 instructions: 72000402 cycles: 17798822 heartbeat IPC: 3.126 cumulative IPC: 3.173 (Simulation time: 00 hr 04 min 30 sec)
Heartbeat CPU 0 instructions: 72500405 cycles: 18035729 heartbeat IPC: 2.111 cumulative IPC: 3.138 (Simulation time: 00 hr 04 min 33 sec)
Heartbeat CPU 0 instructions: 73000412 cycles: 18232683 heartbeat IPC: 2.539 cumulative IPC: 3.122 (Simulation time: 00 hr 04 min 36 sec)
Heartbeat CPU 0 instructions: 73500414 cycles: 18478057 heartbeat IPC: 2.038 cumulative IPC: 3.087 (Simulation time: 00 hr 04 min 39 sec)
Heartbeat CPU 0 instructions: 74000421 cycles: 18612678 heartbeat IPC: 3.714 cumulative IPC: 3.098 (Simulation time: 00 hr 04 min 42 sec)
Heartbeat CPU 0 instructions: 74500422 cycles: 18749994 heartbeat IPC: 3.641 cumulative IPC: 3.107 (Simulation time: 00 hr 04 min 44 sec)
Heartbeat CPU 0 instructions: 75000427 cycles: 18889253 heartbeat IPC: 3.59 cumulative IPC: 3.115 (Simulation time: 00 hr 04 min 47 sec)
Heartbeat CPU 0 instructions: 75500428 cycles: 19023836 heartbeat IPC: 3.715 cumulative IPC: 3.125 (Simulation time: 00 hr 04 min 49 sec)
Heartbeat CPU 0 instructions: 76000429 cycles: 19160307 heartbeat IPC: 3.664 cumulative IPC: 3.134 (Simulation time: 00 hr 04 min 51 sec)
Heartbeat CPU 0 instructions: 76500432 cycles: 19294795 heartbeat IPC: 3.718 cumulative IPC: 3.144 (Simulation time: 00 hr 04 min 54 sec)
Heartbeat CPU 0 instructions: 77000433 cycles: 19433673 heartbeat IPC: 3.6 cumulative IPC: 3.151 (Simulation time: 00 hr 04 min 56 sec)
Heartbeat CPU 0 instructions: 77500433 cycles: 19572462 heartbeat IPC: 3.603 cumulative IPC: 3.158 (Simulation time: 00 hr 04 min 58 sec)
Heartbeat CPU 0 instructions: 78000435 cycles: 19708304 heartbeat IPC: 3.681 cumulative IPC: 3.166 (Simulation time: 00 hr 05 min 01 sec)
Heartbeat CPU 0 instructions: 78500436 cycles: 19846290 heartbeat IPC: 3.624 cumulative IPC: 3.173 (Simulation time: 00 hr 05 min 03 sec)
Heartbeat CPU 0 instructions: 79000440 cycles: 20049410 heartbeat IPC: 2.462 cumulative IPC: 3.157 (Simulation time: 00 hr 05 min 06 sec)
Heartbeat CPU 0 instructions: 79500445 cycles: 20264157 heartbeat IPC: 2.328 cumulative IPC: 3.139 (Simulation time: 00 hr 05 min 09 sec)
Heartbeat CPU 0 instructions: 80000445 cycles: 20460231 heartbeat IPC: 2.55 cumulative IPC: 3.126 (Simulation time: 00 hr 05 min 12 sec)
Heartbeat CPU 0 instructions: 80500451 cycles: 20692044 heartbeat IPC: 2.157 cumulative IPC: 3.104 (Simulation time: 00 hr 05 min 16 sec)
Heartbeat CPU 0 instructions: 81000455 cycles: 20826917 heartbeat IPC: 3.707 cumulative IPC: 3.112 (Simulation time: 00 hr 05 min 18 sec)
Heartbeat CPU 0 instructions: 81500458 cycles: 20963855 heartbeat IPC: 3.651 cumulative IPC: 3.119 (Simulation time: 00 hr 05 min 20 sec)
Heartbeat CPU 0 instructions: 82000460 cycles: 21100688 heartbeat IPC: 3.654 cumulative IPC: 3.126 (Simulation time: 00 hr 05 min 23 sec)
Heartbeat CPU 0 instructions: 82500465 cycles: 21236433 heartbeat IPC: 3.683 cumulative IPC: 3.134 (Simulation time: 00 hr 05 min 25 sec)
Heartbeat CPU 0 instructions: 83000470 cycles: 21374489 heartbeat IPC: 3.622 cumulative IPC: 3.14 (Simulation time: 00 hr 05 min 27 sec)
Heartbeat CPU 0 instructions: 83500473 cycles: 21509813 heartbeat IPC: 3.695 cumulative IPC: 3.147 (Simulation time: 00 hr 05 min 30 sec)
Heartbeat CPU 0 instructions: 84000474 cycles: 21647802 heartbeat IPC: 3.623 cumulative IPC: 3.153 (Simulation time: 00 hr 05 min 32 sec)
Heartbeat CPU 0 instructions: 84500480 cycles: 21784358 heartbeat IPC: 3.662 cumulative IPC: 3.159 (Simulation time: 00 hr 05 min 34 sec)
Heartbeat CPU 0 instructions: 85000484 cycles: 21920903 heartbeat IPC: 3.662 cumulative IPC: 3.166 (Simulation time: 00 hr 05 min 37 sec)
Heartbeat CPU 0 instructions: 85500485 cycles: 22060004 heartbeat IPC: 3.595 cumulative IPC: 3.171 (Simulation time: 00 hr 05 min 39 sec)
Heartbeat CPU 0 instructions: 86000487 cycles: 22301838 heartbeat IPC: 2.068 cumulative IPC: 3.148 (Simulation time: 00 hr 05 min 43 sec)
Heartbeat CPU 0 instructions: 86500494 cycles: 22498447 heartbeat IPC: 2.543 cumulative IPC: 3.137 (Simulation time: 00 hr 05 min 46 sec)
Heartbeat CPU 0 instructions: 87000500 cycles: 22704713 heartbeat IPC: 2.424 cumulative IPC: 3.125 (Simulation time: 00 hr 05 min 49 sec)
Heartbeat CPU 0 instructions: 87500505 cycles: 22908163 heartbeat IPC: 2.458 cumulative IPC: 3.114 (Simulation time: 00 hr 05 min 52 sec)
Heartbeat CPU 0 instructions: 88000506 cycles: 23046003 heartbeat IPC: 3.627 cumulative IPC: 3.12 (Simulation time: 00 hr 05 min 54 sec)
Heartbeat CPU 0 instructions: 88500509 cycles: 23182983 heartbeat IPC: 3.65 cumulative IPC: 3.125 (Simulation time: 00 hr 05 min 56 sec)
Heartbeat CPU 0 instructions: 89000510 cycles: 23320891 heartbeat IPC: 3.626 cumulative IPC: 3.131 (Simulation time: 00 hr 05 min 59 sec)
Heartbeat CPU 0 instructions: 89500511 cycles: 23457250 heartbeat IPC: 3.667 cumulative IPC: 3.137 (Simulation time: 00 hr 06 min 01 sec)
Heartbeat CPU 0 instructions: 90000512 cycles: 23594943 heartbeat IPC: 3.631 cumulative IPC: 3.142 (Simulation time: 00 hr 06 min 04 sec)
Heartbeat CPU 0 instructions: 90500513 cycles: 23732989 heartbeat IPC: 3.622 cumulative IPC: 3.147 (Simulation time: 00 hr 06 min 06 sec)
Heartbeat CPU 0 instructions: 91000516 cycles: 23868900 heartbeat IPC: 3.679 cumulative IPC: 3.153 (Simulation time: 00 hr 06 min 08 sec)
Heartbeat CPU 0 instructions: 91500517 cycles: 24005709 heartbeat IPC: 3.655 cumulative IPC: 3.158 (Simulation time: 00 hr 06 min 11 sec)
Heartbeat CPU 0 instructions: 92000518 cycles: 24144160 heartbeat IPC: 3.611 cumulative IPC: 3.163 (Simulation time: 00 hr 06 min 13 sec)
Heartbeat CPU 0 instructions: 92500522 cycles: 24293164 heartbeat IPC: 3.356 cumulative IPC: 3.165 (Simulation time: 00 hr 06 min 16 sec)
Heartbeat CPU 0 instructions: 93000528 cycles: 24535462 heartbeat IPC: 2.064 cumulative IPC: 3.145 (Simulation time: 00 hr 06 min 19 sec)
Heartbeat CPU 0 instructions: 93500535 cycles: 24734966 heartbeat IPC: 2.506 cumulative IPC: 3.136 (Simulation time: 00 hr 06 min 22 sec)
Heartbeat CPU 0 instructions: 94000542 cycles: 24969950 heartbeat IPC: 2.128 cumulative IPC: 3.119 (Simulation time: 00 hr 06 min 25 sec)
Heartbeat CPU 0 instructions: 94500546 cycles: 25124182 heartbeat IPC: 3.242 cumulative IPC: 3.121 (Simulation time: 00 hr 06 min 28 sec)
Heartbeat CPU 0 instructions: 95000547 cycles: 25260892 heartbeat IPC: 3.657 cumulative IPC: 3.126 (Simulation time: 00 hr 06 min 30 sec)
Heartbeat CPU 0 instructions: 95500548 cycles: 25397541 heartbeat IPC: 3.659 cumulative IPC: 3.131 (Simulation time: 00 hr 06 min 33 sec)
Heartbeat CPU 0 instructions: 96000551 cycles: 25535571 heartbeat IPC: 3.622 cumulative IPC: 3.135 (Simulation time: 00 hr 06 min 35 sec)
Heartbeat CPU 0 instructions: 96500552 cycles: 25673036 heartbeat IPC: 3.637 cumulative IPC: 3.14 (Simulation time: 00 hr 06 min 37 sec)
Heartbeat CPU 0 instructions: 97000553 cycles: 25808384 heartbeat IPC: 3.694 cumulative IPC: 3.145 (Simulation time: 00 hr 06 min 40 sec)
Heartbeat CPU 0 instructions: 97500554 cycles: 25944157 heartbeat IPC: 3.683 cumulative IPC: 3.15 (Simulation time: 00 hr 06 min 42 sec)
Heartbeat CPU 0 instructions: 98000555 cycles: 26081173 heartbeat IPC: 3.649 cumulative IPC: 3.155 (Simulation time: 00 hr 06 min 44 sec)
Heartbeat CPU 0 instructions: 98500558 cycles: 26219547 heartbeat IPC: 3.613 cumulative IPC: 3.159 (Simulation time: 00 hr 06 min 47 sec)
Heartbeat CPU 0 instructions: 99000559 cycles: 26357946 heartbeat IPC: 3.613 cumulative IPC: 3.163 (Simulation time: 00 hr 06 min 49 sec)
Heartbeat CPU 0 instructions: 99500563 cycles: 26547334 heartbeat IPC: 2.64 cumulative IPC: 3.156 (Simulation time: 00 hr 06 min 52 sec)
Heartbeat CPU 0 instructions: 100000567 cycles: 26769740 heartbeat IPC: 2.248 cumulative IPC: 3.144 (Simulation time: 00 hr 06 min 55 sec)
Heartbeat CPU 0 instructions: 100500569 cycles: 26965587 heartbeat IPC: 2.553 cumulative IPC: 3.137 (Simulation time: 00 hr 06 min 58 sec)
Heartbeat CPU 0 instructions: 101000571 cycles: 27204370 heartbeat IPC: 2.094 cumulative IPC: 3.121 (Simulation time: 00 hr 07 min 02 sec)
Heartbeat CPU 0 instructions: 101500576 cycles: 27340067 heartbeat IPC: 3.685 cumulative IPC: 3.126 (Simulation time: 00 hr 07 min 04 sec)
Heartbeat CPU 0 instructions: 102000580 cycles: 27481085 heartbeat IPC: 3.546 cumulative IPC: 3.129 (Simulation time: 00 hr 07 min 06 sec)
Heartbeat CPU 0 instructions: 102500586 cycles: 27617364 heartbeat IPC: 3.669 cumulative IPC: 3.134 (Simulation time: 00 hr 07 min 09 sec)
Heartbeat CPU 0 instructions: 103000591 cycles: 27752615 heartbeat IPC: 3.697 cumulative IPC: 3.138 (Simulation time: 00 hr 07 min 11 sec)
Heartbeat CPU 0 instructions: 103500597 cycles: 27888792 heartbeat IPC: 3.672 cumulative IPC: 3.143 (Simulation time: 00 hr 07 min 13 sec)
Heartbeat CPU 0 instructions: 104000602 cycles: 28025009 heartbeat IPC: 3.671 cumulative IPC: 3.147 (Simulation time: 00 hr 07 min 16 sec)
Heartbeat CPU 0 instructions: 104500608 cycles: 28163836 heartbeat IPC: 3.602 cumulative IPC: 3.15 (Simulation time: 00 hr 07 min 18 sec)
Heartbeat CPU 0 instructions: 105000612 cycles: 28301734 heartbeat IPC: 3.626 cumulative IPC: 3.154 (Simulation time: 00 hr 07 min 20 sec)
Heartbeat CPU 0 instructions: 105500615 cycles: 28438720 heartbeat IPC: 3.65 cumulative IPC: 3.158 (Simulation time: 00 hr 07 min 23 sec)
Heartbeat CPU 0 instructions: 106000616 cycles: 28576620 heartbeat IPC: 3.626 cumulative IPC: 3.162 (Simulation time: 00 hr 07 min 25 sec)
Heartbeat CPU 0 instructions: 106500616 cycles: 28811170 heartbeat IPC: 2.132 cumulative IPC: 3.148 (Simulation time: 00 hr 07 min 28 sec)
Heartbeat CPU 0 instructions: 107000619 cycles: 29013408 heartbeat IPC: 2.472 cumulative IPC: 3.141 (Simulation time: 00 hr 07 min 32 sec)
Heartbeat CPU 0 instructions: 107500622 cycles: 29212245 heartbeat IPC: 2.515 cumulative IPC: 3.134 (Simulation time: 00 hr 07 min 35 sec)
Heartbeat CPU 0 instructions: 108000628 cycles: 29428115 heartbeat IPC: 2.316 cumulative IPC: 3.124 (Simulation time: 00 hr 07 min 38 sec)
Heartbeat CPU 0 instructions: 108500629 cycles: 29564272 heartbeat IPC: 3.672 cumulative IPC: 3.128 (Simulation time: 00 hr 07 min 40 sec)
Heartbeat CPU 0 instructions: 109000630 cycles: 29699879 heartbeat IPC: 3.687 cumulative IPC: 3.132 (Simulation time: 00 hr 07 min 42 sec)
Heartbeat CPU 0 instructions: 109500631 cycles: 29835918 heartbeat IPC: 3.675 cumulative IPC: 3.136 (Simulation time: 00 hr 07 min 45 sec)
Heartbeat CPU 0 instructions: 110000635 cycles: 29972399 heartbeat IPC: 3.664 cumulative IPC: 3.14 (Simulation time: 00 hr 07 min 47 sec)
Heartbeat CPU 0 instructions: 110500639 cycles: 30108406 heartbeat IPC: 3.676 cumulative IPC: 3.144 (Simulation time: 00 hr 07 min 50 sec)
Heartbeat CPU 0 instructions: 111000640 cycles: 30246470 heartbeat IPC: 3.622 cumulative IPC: 3.147 (Simulation time: 00 hr 07 min 52 sec)
Heartbeat CPU 0 instructions: 111500645 cycles: 30383080 heartbeat IPC: 3.66 cumulative IPC: 3.151 (Simulation time: 00 hr 07 min 54 sec)
Heartbeat CPU 0 instructions: 112000646 cycles: 30521989 heartbeat IPC: 3.599 cumulative IPC: 3.154 (Simulation time: 00 hr 07 min 57 sec)
Heartbeat CPU 0 instructions: 112500647 cycles: 30659511 heartbeat IPC: 3.636 cumulative IPC: 3.157 (Simulation time: 00 hr 07 min 59 sec)
Heartbeat CPU 0 instructions: 113000650 cycles: 30794187 heartbeat IPC: 3.713 cumulative IPC: 3.161 (Simulation time: 00 hr 08 min 01 sec)
Heartbeat CPU 0 instructions: 113500651 cycles: 31048535 heartbeat IPC: 1.966 cumulative IPC: 3.146 (Simulation time: 00 hr 08 min 05 sec)
Heartbeat CPU 0 instructions: 114000652 cycles: 31245015 heartbeat IPC: 2.545 cumulative IPC: 3.14 (Simulation time: 00 hr 08 min 08 sec)
Heartbeat CPU 0 instructions: 114500654 cycles: 31472768 heartbeat IPC: 2.195 cumulative IPC: 3.13 (Simulation time: 00 hr 08 min 11 sec)
Heartbeat CPU 0 instructions: 115000654 cycles: 31644870 heartbeat IPC: 2.905 cumulative IPC: 3.128 (Simulation time: 00 hr 08 min 14 sec)
Heartbeat CPU 0 instructions: 115500658 cycles: 31781208 heartbeat IPC: 3.667 cumulative IPC: 3.132 (Simulation time: 00 hr 08 min 16 sec)
Heartbeat CPU 0 instructions: 116000663 cycles: 31917919 heartbeat IPC: 3.657 cumulative IPC: 3.135 (Simulation time: 00 hr 08 min 19 sec)
Heartbeat CPU 0 instructions: 116500664 cycles: 32053228 heartbeat IPC: 3.695 cumulative IPC: 3.139 (Simulation time: 00 hr 08 min 21 sec)
Heartbeat CPU 0 instructions: 117000665 cycles: 32190738 heartbeat IPC: 3.636 cumulative IPC: 3.142 (Simulation time: 00 hr 08 min 23 sec)
Heartbeat CPU 0 instructions: 117500669 cycles: 32326746 heartbeat IPC: 3.676 cumulative IPC: 3.145 (Simulation time: 00 hr 08 min 26 sec)
Heartbeat CPU 0 instructions: 118000669 cycles: 32463984 heartbeat IPC: 3.643 cumulative IPC: 3.148 (Simulation time: 00 hr 08 min 28 sec)
Heartbeat CPU 0 instructions: 118500669 cycles: 32600279 heartbeat IPC: 3.669 cumulative IPC: 3.152 (Simulation time: 00 hr 08 min 30 sec)
Heartbeat CPU 0 instructions: 119000671 cycles: 32737642 heartbeat IPC: 3.64 cumulative IPC: 3.155 (Simulation time: 00 hr 08 min 33 sec)
Heartbeat CPU 0 instructions: 119500676 cycles: 32874029 heartbeat IPC: 3.666 cumulative IPC: 3.158 (Simulation time: 00 hr 08 min 35 sec)
Heartbeat CPU 0 instructions: 120000682 cycles: 33051870 heartbeat IPC: 2.812 cumulative IPC: 3.155 (Simulation time: 00 hr 08 min 38 sec)
Heartbeat CPU 0 instructions: 120500685 cycles: 33283905 heartbeat IPC: 2.155 cumulative IPC: 3.145 (Simulation time: 00 hr 08 min 41 sec)
Heartbeat CPU 0 instructions: 121000685 cycles: 33479376 heartbeat IPC: 2.558 cumulative IPC: 3.14 (Simulation time: 00 hr 08 min 44 sec)
Heartbeat CPU 0 instructions: 121500691 cycles: 33728729 heartbeat IPC: 2.005 cumulative IPC: 3.127 (Simulation time: 00 hr 08 min 48 sec)
Heartbeat CPU 0 instructions: 122000692 cycles: 33865095 heartbeat IPC: 3.667 cumulative IPC: 3.13 (Simulation time: 00 hr 08 min 50 sec)
Heartbeat CPU 0 instructions: 122500698 cycles: 34001088 heartbeat IPC: 3.677 cumulative IPC: 3.134 (Simulation time: 00 hr 08 min 52 sec)
Heartbeat CPU 0 instructions: 123000704 cycles: 34137161 heartbeat IPC: 3.675 cumulative IPC: 3.137 (Simulation time: 00 hr 08 min 55 sec)
Heartbeat CPU 0 instructions: 123500710 cycles: 34273695 heartbeat IPC: 3.662 cumulative IPC: 3.14 (Simulation time: 00 hr 08 min 57 sec)
Heartbeat CPU 0 instructions: 124000714 cycles: 34411211 heartbeat IPC: 3.636 cumulative IPC: 3.143 (Simulation time: 00 hr 08 min 59 sec)
Heartbeat CPU 0 instructions: 124500715 cycles: 34549267 heartbeat IPC: 3.622 cumulative IPC: 3.146 (Simulation time: 00 hr 09 min 02 sec)
Heartbeat CPU 0 instructions: 125000720 cycles: 34684986 heartbeat IPC: 3.684 cumulative IPC: 3.149 (Simulation time: 00 hr 09 min 04 sec)
Heartbeat CPU 0 instructions: 125500724 cycles: 34821382 heartbeat IPC: 3.666 cumulative IPC: 3.152 (Simulation time: 00 hr 09 min 06 sec)
Heartbeat CPU 0 instructions: 126000728 cycles: 34959478 heartbeat IPC: 3.621 cumulative IPC: 3.154 (Simulation time: 00 hr 09 min 09 sec)
Heartbeat CPU 0 instructions: 126500729 cycles: 35096004 heartbeat IPC: 3.662 cumulative IPC: 3.157 (Simulation time: 00 hr 09 min 11 sec)
Heartbeat CPU 0 instructions: 127000736 cycles: 35311081 heartbeat IPC: 2.325 cumulative IPC: 3.15 (Simulation time: 00 hr 09 min 14 sec)
Heartbeat CPU 0 instructions: 127500742 cycles: 35521345 heartbeat IPC: 2.378 cumulative IPC: 3.143 (Simulation time: 00 hr 09 min 17 sec)
Heartbeat CPU 0 instructions: 128000743 cycles: 35718088 heartbeat IPC: 2.541 cumulative IPC: 3.138 (Simulation time: 00 hr 09 min 21 sec)
Heartbeat CPU 0 instructions: 128500744 cycles: 36031423 heartbeat IPC: 1.596 cumulative IPC: 3.119 (Simulation time: 00 hr 09 min 24 sec)
Heartbeat CPU 0 instructions: 129000751 cycles: 36268437 heartbeat IPC: 2.11 cumulative IPC: 3.11 (Simulation time: 00 hr 09 min 28 sec)
Heartbeat CPU 0 instructions: 129500755 cycles: 36514863 heartbeat IPC: 2.029 cumulative IPC: 3.099 (Simulation time: 00 hr 09 min 31 sec)
Heartbeat CPU 0 instructions: 130000755 cycles: 36755117 heartbeat IPC: 2.081 cumulative IPC: 3.09 (Simulation time: 00 hr 09 min 35 sec)
Heartbeat CPU 0 instructions: 130500755 cycles: 36995904 heartbeat IPC: 2.077 cumulative IPC: 3.081 (Simulation time: 00 hr 09 min 38 sec)
Heartbeat CPU 0 instructions: 131000756 cycles: 37235797 heartbeat IPC: 2.084 cumulative IPC: 3.072 (Simulation time: 00 hr 09 min 42 sec)
Heartbeat CPU 0 instructions: 131500760 cycles: 37463023 heartbeat IPC: 2.2 cumulative IPC: 3.064 (Simulation time: 00 hr 09 min 45 sec)
Heartbeat CPU 0 instructions: 132000765 cycles: 37686899 heartbeat IPC: 2.233 cumulative IPC: 3.057 (Simulation time: 00 hr 09 min 48 sec)
Heartbeat CPU 0 instructions: 132500769 cycles: 37910643 heartbeat IPC: 2.235 cumulative IPC: 3.05 (Simulation time: 00 hr 09 min 52 sec)
Heartbeat CPU 0 instructions: 133000775 cycles: 38127800 heartbeat IPC: 2.303 cumulative IPC: 3.044 (Simulation time: 00 hr 09 min 55 sec)
Heartbeat CPU 0 instructions: 133500776 cycles: 38352527 heartbeat IPC: 2.225 cumulative IPC: 3.038 (Simulation time: 00 hr 09 min 58 sec)
Heartbeat CPU 0 instructions: 134000783 cycles: 38569567 heartbeat IPC: 2.304 cumulative IPC: 3.032 (Simulation time: 00 hr 10 min 01 sec)
Heartbeat CPU 0 instructions: 134500785 cycles: 38788480 heartbeat IPC: 2.284 cumulative IPC: 3.026 (Simulation time: 00 hr 10 min 04 sec)
Heartbeat CPU 0 instructions: 135000788 cycles: 39003884 heartbeat IPC: 2.321 cumulative IPC: 3.021 (Simulation time: 00 hr 10 min 07 sec)
Heartbeat CPU 0 instructions: 135500794 cycles: 39223643 heartbeat IPC: 2.275 cumulative IPC: 3.015 (Simulation time: 00 hr 10 min 11 sec)
Heartbeat CPU 0 instructions: 136000799 cycles: 39444853 heartbeat IPC: 2.26 cumulative IPC: 3.009 (Simulation time: 00 hr 10 min 14 sec)
Heartbeat CPU 0 instructions: 136500799 cycles: 39661136 heartbeat IPC: 2.312 cumulative IPC: 3.004 (Simulation time: 00 hr 10 min 17 sec)
Heartbeat CPU 0 instructions: 137000803 cycles: 39880445 heartbeat IPC: 2.28 cumulative IPC: 2.998 (Simulation time: 00 hr 10 min 20 sec)
Heartbeat CPU 0 instructions: 137500804 cycles: 40094503 heartbeat IPC: 2.336 cumulative IPC: 2.994 (Simulation time: 00 hr 10 min 23 sec)
Heartbeat CPU 0 instructions: 138000805 cycles: 40312190 heartbeat IPC: 2.297 cumulative IPC: 2.988 (Simulation time: 00 hr 10 min 26 sec)
Heartbeat CPU 0 instructions: 138500806 cycles: 40536416 heartbeat IPC: 2.23 cumulative IPC: 2.983 (Simulation time: 00 hr 10 min 29 sec)
Heartbeat CPU 0 instructions: 139000809 cycles: 40754362 heartbeat IPC: 2.294 cumulative IPC: 2.978 (Simulation time: 00 hr 10 min 32 sec)
Heartbeat CPU 0 instructions: 139500811 cycles: 40975144 heartbeat IPC: 2.265 cumulative IPC: 2.972 (Simulation time: 00 hr 10 min 35 sec)
Heartbeat CPU 0 instructions: 140000811 cycles: 41194524 heartbeat IPC: 2.279 cumulative IPC: 2.967 (Simulation time: 00 hr 10 min 39 sec)
Heartbeat CPU 0 instructions: 140500815 cycles: 41413008 heartbeat IPC: 2.289 cumulative IPC: 2.963 (Simulation time: 00 hr 10 min 42 sec)
Heartbeat CPU 0 instructions: 141000820 cycles: 41634671 heartbeat IPC: 2.256 cumulative IPC: 2.957 (Simulation time: 00 hr 10 min 45 sec)
Heartbeat CPU 0 instructions: 141500825 cycles: 41849770 heartbeat IPC: 2.325 cumulative IPC: 2.953 (Simulation time: 00 hr 10 min 48 sec)
Heartbeat CPU 0 instructions: 142000826 cycles: 42069614 heartbeat IPC: 2.274 cumulative IPC: 2.948 (Simulation time: 00 hr 10 min 51 sec)
Heartbeat CPU 0 instructions: 142500833 cycles: 42286871 heartbeat IPC: 2.301 cumulative IPC: 2.944 (Simulation time: 00 hr 10 min 54 sec)
Heartbeat CPU 0 instructions: 143000837 cycles: 42503276 heartbeat IPC: 2.311 cumulative IPC: 2.939 (Simulation time: 00 hr 10 min 57 sec)
Heartbeat CPU 0 instructions: 143500839 cycles: 42726103 heartbeat IPC: 2.244 cumulative IPC: 2.935 (Simulation time: 00 hr 11 min 00 sec)
Heartbeat CPU 0 instructions: 144000844 cycles: 42945685 heartbeat IPC: 2.277 cumulative IPC: 2.93 (Simulation time: 00 hr 11 min 03 sec)
Heartbeat CPU 0 instructions: 144500848 cycles: 43164499 heartbeat IPC: 2.285 cumulative IPC: 2.926 (Simulation time: 00 hr 11 min 06 sec)
Heartbeat CPU 0 instructions: 145000853 cycles: 43387434 heartbeat IPC: 2.243 cumulative IPC: 2.921 (Simulation time: 00 hr 11 min 09 sec)
Heartbeat CPU 0 instructions: 145500853 cycles: 43602957 heartbeat IPC: 2.32 cumulative IPC: 2.917 (Simulation time: 00 hr 11 min 13 sec)
Heartbeat CPU 0 instructions: 146000853 cycles: 43823807 heartbeat IPC: 2.264 cumulative IPC: 2.913 (Simulation time: 00 hr 11 min 16 sec)
Heartbeat CPU 0 instructions: 146500853 cycles: 44041565 heartbeat IPC: 2.296 cumulative IPC: 2.909 (Simulation time: 00 hr 11 min 19 sec)
Heartbeat CPU 0 instructions: 147000855 cycles: 44260804 heartbeat IPC: 2.281 cumulative IPC: 2.905 (Simulation time: 00 hr 11 min 22 sec)
Heartbeat CPU 0 instructions: 147500860 cycles: 44477099 heartbeat IPC: 2.312 cumulative IPC: 2.901 (Simulation time: 00 hr 11 min 25 sec)
Heartbeat CPU 0 instructions: 148000863 cycles: 44694884 heartbeat IPC: 2.296 cumulative IPC: 2.897 (Simulation time: 00 hr 11 min 28 sec)
Heartbeat CPU 0 instructions: 148500868 cycles: 44913924 heartbeat IPC: 2.283 cumulative IPC: 2.893 (Simulation time: 00 hr 11 min 31 sec)
Heartbeat CPU 0 instructions: 149000874 cycles: 45136512 heartbeat IPC: 2.246 cumulative IPC: 2.889 (Simulation time: 00 hr 11 min 34 sec)
Heartbeat CPU 0 instructions: 149500875 cycles: 45352233 heartbeat IPC: 2.318 cumulative IPC: 2.885 (Simulation time: 00 hr 11 min 37 sec)
Heartbeat CPU 0 instructions: 150000875 cycles: 45569953 heartbeat IPC: 2.297 cumulative IPC: 2.881 (Simulation time: 00 hr 11 min 40 sec)
Heartbeat CPU 0 instructions: 150500879 cycles: 45785462 heartbeat IPC: 2.32 cumulative IPC: 2.878 (Simulation time: 00 hr 11 min 43 sec)
Heartbeat CPU 0 instructions: 151000879 cycles: 46002675 heartbeat IPC: 2.302 cumulative IPC: 2.874 (Simulation time: 00 hr 11 min 46 sec)
Heartbeat CPU 0 instructions: 151500881 cycles: 46218313 heartbeat IPC: 2.319 cumulative IPC: 2.871 (Simulation time: 00 hr 11 min 49 sec)
Heartbeat CPU 0 instructions: 152000882 cycles: 46436696 heartbeat IPC: 2.29 cumulative IPC: 2.867 (Simulation time: 00 hr 11 min 53 sec)
Heartbeat CPU 0 instructions: 152500885 cycles: 46655089 heartbeat IPC: 2.289 cumulative IPC: 2.864 (Simulation time: 00 hr 11 min 56 sec)
Heartbeat CPU 0 instructions: 153000886 cycles: 46867805 heartbeat IPC: 2.351 cumulative IPC: 2.861 (Simulation time: 00 hr 11 min 59 sec)
Heartbeat CPU 0 instructions: 153500887 cycles: 47088898 heartbeat IPC: 2.261 cumulative IPC: 2.857 (Simulation time: 00 hr 12 min 02 sec)
Heartbeat CPU 0 instructions: 154000890 cycles: 47302904 heartbeat IPC: 2.336 cumulative IPC: 2.854 (Simulation time: 00 hr 12 min 05 sec)
Heartbeat CPU 0 instructions: 154500897 cycles: 47522461 heartbeat IPC: 2.277 cumulative IPC: 2.851 (Simulation time: 00 hr 12 min 08 sec)
Heartbeat CPU 0 instructions: 155000901 cycles: 47738093 heartbeat IPC: 2.319 cumulative IPC: 2.848 (Simulation time: 00 hr 12 min 11 sec)
Heartbeat CPU 0 instructions: 155500902 cycles: 47957454 heartbeat IPC: 2.279 cumulative IPC: 2.844 (Simulation time: 00 hr 12 min 14 sec)
Heartbeat CPU 0 instructions: 156000902 cycles: 48177750 heartbeat IPC: 2.27 cumulative IPC: 2.841 (Simulation time: 00 hr 12 min 17 sec)
Heartbeat CPU 0 instructions: 156500906 cycles: 48393557 heartbeat IPC: 2.317 cumulative IPC: 2.838 (Simulation time: 00 hr 12 min 20 sec)
Heartbeat CPU 0 instructions: 157000907 cycles: 48612136 heartbeat IPC: 2.288 cumulative IPC: 2.835 (Simulation time: 00 hr 12 min 23 sec)
Heartbeat CPU 0 instructions: 157500908 cycles: 48827110 heartbeat IPC: 2.326 cumulative IPC: 2.832 (Simulation time: 00 hr 12 min 27 sec)
Heartbeat CPU 0 instructions: 158000913 cycles: 49048736 heartbeat IPC: 2.256 cumulative IPC: 2.828 (Simulation time: 00 hr 12 min 30 sec)
Heartbeat CPU 0 instructions: 158500913 cycles: 49267181 heartbeat IPC: 2.289 cumulative IPC: 2.825 (Simulation time: 00 hr 12 min 33 sec)
Heartbeat CPU 0 instructions: 159000913 cycles: 49485094 heartbeat IPC: 2.294 cumulative IPC: 2.822 (Simulation time: 00 hr 12 min 36 sec)
Heartbeat CPU 0 instructions: 159500913 cycles: 49706138 heartbeat IPC: 2.262 cumulative IPC: 2.819 (Simulation time: 00 hr 12 min 39 sec)
Heartbeat CPU 0 instructions: 160000919 cycles: 49924748 heartbeat IPC: 2.287 cumulative IPC: 2.816 (Simulation time: 00 hr 12 min 42 sec)
Heartbeat CPU 0 instructions: 160500923 cycles: 50143766 heartbeat IPC: 2.283 cumulative IPC: 2.813 (Simulation time: 00 hr 12 min 45 sec)
Heartbeat CPU 0 instructions: 161000927 cycles: 50359841 heartbeat IPC: 2.314 cumulative IPC: 2.81 (Simulation time: 00 hr 12 min 48 sec)
Heartbeat CPU 0 instructions: 161500932 cycles: 50578901 heartbeat IPC: 2.283 cumulative IPC: 2.808 (Simulation time: 00 hr 12 min 51 sec)
Heartbeat CPU 0 instructions: 162000936 cycles: 50798168 heartbeat IPC: 2.28 cumulative IPC: 2.805 (Simulation time: 00 hr 12 min 54 sec)
Heartbeat CPU 0 instructions: 162500942 cycles: 51017448 heartbeat IPC: 2.28 cumulative IPC: 2.802 (Simulation time: 00 hr 12 min 58 sec)
Heartbeat CPU 0 instructions: 163000943 cycles: 51236358 heartbeat IPC: 2.284 cumulative IPC: 2.799 (Simulation time: 00 hr 13 min 01 sec)
Heartbeat CPU 0 instructions: 163500943 cycles: 51455081 heartbeat IPC: 2.286 cumulative IPC: 2.796 (Simulation time: 00 hr 13 min 04 sec)
Heartbeat CPU 0 instructions: 164000947 cycles: 51673887 heartbeat IPC: 2.285 cumulative IPC: 2.794 (Simulation time: 00 hr 13 min 07 sec)
Heartbeat CPU 0 instructions: 164500947 cycles: 51896697 heartbeat IPC: 2.244 cumulative IPC: 2.791 (Simulation time: 00 hr 13 min 10 sec)
Heartbeat CPU 0 instructions: 165000947 cycles: 52112181 heartbeat IPC: 2.32 cumulative IPC: 2.788 (Simulation time: 00 hr 13 min 13 sec)
Heartbeat CPU 0 instructions: 165500949 cycles: 52333165 heartbeat IPC: 2.263 cumulative IPC: 2.785 (Simulation time: 00 hr 13 min 16 sec)
Heartbeat CPU 0 instructions: 166000954 cycles: 52551961 heartbeat IPC: 2.285 cumulative IPC: 2.783 (Simulation time: 00 hr 13 min 19 sec)
Heartbeat CPU 0 instructions: 166500958 cycles: 52768651 heartbeat IPC: 2.307 cumulative IPC: 2.78 (Simulation time: 00 hr 13 min 22 sec)
Heartbeat CPU 0 instructions: 167000963 cycles: 52989235 heartbeat IPC: 2.267 cumulative IPC: 2.777 (Simulation time: 00 hr 13 min 25 sec)
Heartbeat CPU 0 instructions: 167500966 cycles: 53205023 heartbeat IPC: 2.317 cumulative IPC: 2.775 (Simulation time: 00 hr 13 min 29 sec)
Heartbeat CPU 0 instructions: 168000969 cycles: 53424632 heartbeat IPC: 2.277 cumulative IPC: 2.773 (Simulation time: 00 hr 13 min 32 sec)
Heartbeat CPU 0 instructions: 168500976 cycles: 53645295 heartbeat IPC: 2.266 cumulative IPC: 2.77 (Simulation time: 00 hr 13 min 35 sec)
Heartbeat CPU 0 instructions: 169000976 cycles: 53859808 heartbeat IPC: 2.331 cumulative IPC: 2.768 (Simulation time: 00 hr 13 min 38 sec)
Heartbeat CPU 0 instructions: 169500977 cycles: 54081647 heartbeat IPC: 2.254 cumulative IPC: 2.765 (Simulation time: 00 hr 13 min 41 sec)
Heartbeat CPU 0 instructions: 170000982 cycles: 54301332 heartbeat IPC: 2.276 cumulative IPC: 2.763 (Simulation time: 00 hr 13 min 44 sec)
Heartbeat CPU 0 instructions: 170500983 cycles: 54519868 heartbeat IPC: 2.288 cumulative IPC: 2.76 (Simulation time: 00 hr 13 min 47 sec)
Heartbeat CPU 0 instructions: 171000984 cycles: 54741616 heartbeat IPC: 2.255 cumulative IPC: 2.758 (Simulation time: 00 hr 13 min 50 sec)
Heartbeat CPU 0 instructions: 171500987 cycles: 54959080 heartbeat IPC: 2.299 cumulative IPC: 2.755 (Simulation time: 00 hr 13 min 53 sec)
Heartbeat CPU 0 instructions: 172000991 cycles: 55178758 heartbeat IPC: 2.276 cumulative IPC: 2.753 (Simulation time: 00 hr 13 min 56 sec)
Heartbeat CPU 0 instructions: 172500993 cycles: 55393157 heartbeat IPC: 2.332 cumulative IPC: 2.751 (Simulation time: 00 hr 13 min 59 sec)
Heartbeat CPU 0 instructions: 173000996 cycles: 55615296 heartbeat IPC: 2.251 cumulative IPC: 2.749 (Simulation time: 00 hr 14 min 03 sec)
Heartbeat CPU 0 instructions: 173500997 cycles: 55833558 heartbeat IPC: 2.291 cumulative IPC: 2.746 (Simulation time: 00 hr 14 min 06 sec)
Heartbeat CPU 0 instructions: 174001000 cycles: 56046271 heartbeat IPC: 2.351 cumulative IPC: 2.745 (Simulation time: 00 hr 14 min 09 sec)
Heartbeat CPU 0 instructions: 174501002 cycles: 56266771 heartbeat IPC: 2.268 cumulative IPC: 2.742 (Simulation time: 00 hr 14 min 12 sec)
Heartbeat CPU 0 instructions: 175001009 cycles: 56482885 heartbeat IPC: 2.314 cumulative IPC: 2.74 (Simulation time: 00 hr 14 min 15 sec)
Heartbeat CPU 0 instructions: 175501009 cycles: 56701525 heartbeat IPC: 2.287 cumulative IPC: 2.738 (Simulation time: 00 hr 14 min 18 sec)
Heartbeat CPU 0 instructions: 176001011 cycles: 56919095 heartbeat IPC: 2.298 cumulative IPC: 2.736 (Simulation time: 00 hr 14 min 21 sec)
Heartbeat CPU 0 instructions: 176501018 cycles: 57138701 heartbeat IPC: 2.277 cumulative IPC: 2.734 (Simulation time: 00 hr 14 min 24 sec)
Heartbeat CPU 0 instructions: 177001023 cycles: 57355725 heartbeat IPC: 2.304 cumulative IPC: 2.732 (Simulation time: 00 hr 14 min 27 sec)
Heartbeat CPU 0 instructions: 177501027 cycles: 57570388 heartbeat IPC: 2.329 cumulative IPC: 2.73 (Simulation time: 00 hr 14 min 30 sec)
Heartbeat CPU 0 instructions: 178001030 cycles: 57787786 heartbeat IPC: 2.3 cumulative IPC: 2.728 (Simulation time: 00 hr 14 min 33 sec)
Heartbeat CPU 0 instructions: 178501034 cycles: 58004555 heartbeat IPC: 2.307 cumulative IPC: 2.726 (Simulation time: 00 hr 14 min 36 sec)
Heartbeat CPU 0 instructions: 179001036 cycles: 58224829 heartbeat IPC: 2.27 cumulative IPC: 2.724 (Simulation time: 00 hr 14 min 40 sec)
Heartbeat CPU 0 instructions: 179501036 cycles: 58440381 heartbeat IPC: 2.32 cumulative IPC: 2.722 (Simulation time: 00 hr 14 min 43 sec)
Heartbeat CPU 0 instructions: 180001040 cycles: 58660387 heartbeat IPC: 2.273 cumulative IPC: 2.72 (Simulation time: 00 hr 14 min 46 sec)
Heartbeat CPU 0 instructions: 180501047 cycles: 58882191 heartbeat IPC: 2.254 cumulative IPC: 2.718 (Simulation time: 00 hr 14 min 49 sec)
Heartbeat CPU 0 instructions: 181001047 cycles: 59098653 heartbeat IPC: 2.31 cumulative IPC: 2.716 (Simulation time: 00 hr 14 min 52 sec)
Heartbeat CPU 0 instructions: 181501048 cycles: 59317174 heartbeat IPC: 2.288 cumulative IPC: 2.714 (Simulation time: 00 hr 14 min 55 sec)
Heartbeat CPU 0 instructions: 182001053 cycles: 59533014 heartbeat IPC: 2.317 cumulative IPC: 2.712 (Simulation time: 00 hr 14 min 58 sec)
Heartbeat CPU 0 instructions: 182501053 cycles: 59750705 heartbeat IPC: 2.297 cumulative IPC: 2.71 (Simulation time: 00 hr 15 min 01 sec)
Heartbeat CPU 0 instructions: 183001057 cycles: 59973154 heartbeat IPC: 2.248 cumulative IPC: 2.708 (Simulation time: 00 hr 15 min 04 sec)
Heartbeat CPU 0 instructions: 183501057 cycles: 60190645 heartbeat IPC: 2.299 cumulative IPC: 2.707 (Simulation time: 00 hr 15 min 07 sec)
Heartbeat CPU 0 instructions: 184001057 cycles: 60409699 heartbeat IPC: 2.283 cumulative IPC: 2.705 (Simulation time: 00 hr 15 min 11 sec)
Heartbeat CPU 0 instructions: 184501058 cycles: 60626795 heartbeat IPC: 2.303 cumulative IPC: 2.703 (Simulation time: 00 hr 15 min 14 sec)
Heartbeat CPU 0 instructions: 185001065 cycles: 60847784 heartbeat IPC: 2.263 cumulative IPC: 2.701 (Simulation time: 00 hr 15 min 17 sec)
Heartbeat CPU 0 instructions: 185501070 cycles: 61068010 heartbeat IPC: 2.27 cumulative IPC: 2.699 (Simulation time: 00 hr 15 min 20 sec)
Heartbeat CPU 0 instructions: 186001070 cycles: 61286298 heartbeat IPC: 2.291 cumulative IPC: 2.697 (Simulation time: 00 hr 15 min 23 sec)
Heartbeat CPU 0 instructions: 186501070 cycles: 61507786 heartbeat IPC: 2.257 cumulative IPC: 2.695 (Simulation time: 00 hr 15 min 26 sec)
Heartbeat CPU 0 instructions: 187001071 cycles: 61726469 heartbeat IPC: 2.286 cumulative IPC: 2.694 (Simulation time: 00 hr 15 min 29 sec)
Heartbeat CPU 0 instructions: 187501071 cycles: 61946227 heartbeat IPC: 2.275 cumulative IPC: 2.692 (Simulation time: 00 hr 15 min 32 sec)
Heartbeat CPU 0 instructions: 188001074 cycles: 62167048 heartbeat IPC: 2.264 cumulative IPC: 2.69 (Simulation time: 00 hr 15 min 35 sec)
Heartbeat CPU 0 instructions: 188501075 cycles: 62386039 heartbeat IPC: 2.283 cumulative IPC: 2.688 (Simulation time: 00 hr 15 min 38 sec)
Heartbeat CPU 0 instructions: 189001075 cycles: 62603696 heartbeat IPC: 2.297 cumulative IPC: 2.687 (Simulation time: 00 hr 15 min 41 sec)
Heartbeat CPU 0 instructions: 189501079 cycles: 62821405 heartbeat IPC: 2.297 cumulative IPC: 2.685 (Simulation time: 00 hr 15 min 45 sec)
Heartbeat CPU 0 instructions: 190001085 cycles: 63039482 heartbeat IPC: 2.293 cumulative IPC: 2.683 (Simulation time: 00 hr 15 min 48 sec)
Heartbeat CPU 0 instructions: 190501090 cycles: 63261640 heartbeat IPC: 2.251 cumulative IPC: 2.681 (Simulation time: 00 hr 15 min 51 sec)
Heartbeat CPU 0 instructions: 191001090 cycles: 63477196 heartbeat IPC: 2.32 cumulative IPC: 2.68 (Simulation time: 00 hr 15 min 54 sec)
Heartbeat CPU 0 instructions: 191501092 cycles: 63695532 heartbeat IPC: 2.29 cumulative IPC: 2.678 (Simulation time: 00 hr 15 min 57 sec)
Heartbeat CPU 0 instructions: 192001099 cycles: 63915739 heartbeat IPC: 2.271 cumulative IPC: 2.677 (Simulation time: 00 hr 16 min 00 sec)
Heartbeat CPU 0 instructions: 192501100 cycles: 64133743 heartbeat IPC: 2.294 cumulative IPC: 2.675 (Simulation time: 00 hr 16 min 03 sec)
Heartbeat CPU 0 instructions: 193001103 cycles: 64352696 heartbeat IPC: 2.284 cumulative IPC: 2.674 (Simulation time: 00 hr 16 min 06 sec)
Heartbeat CPU 0 instructions: 193501108 cycles: 64570161 heartbeat IPC: 2.299 cumulative IPC: 2.672 (Simulation time: 00 hr 16 min 09 sec)
Heartbeat CPU 0 instructions: 194001113 cycles: 64791802 heartbeat IPC: 2.256 cumulative IPC: 2.67 (Simulation time: 00 hr 16 min 12 sec)
Heartbeat CPU 0 instructions: 194501113 cycles: 65007623 heartbeat IPC: 2.317 cumulative IPC: 2.669 (Simulation time: 00 hr 16 min 15 sec)
Heartbeat CPU 0 instructions: 195001117 cycles: 65224208 heartbeat IPC: 2.309 cumulative IPC: 2.667 (Simulation time: 00 hr 16 min 18 sec)
Heartbeat CPU 0 instructions: 195501121 cycles: 65446652 heartbeat IPC: 2.248 cumulative IPC: 2.666 (Simulation time: 00 hr 16 min 22 sec)
Heartbeat CPU 0 instructions: 196001127 cycles: 65662886 heartbeat IPC: 2.312 cumulative IPC: 2.664 (Simulation time: 00 hr 16 min 25 sec)
Heartbeat CPU 0 instructions: 196501132 cycles: 65882231 heartbeat IPC: 2.28 cumulative IPC: 2.663 (Simulation time: 00 hr 16 min 28 sec)
Heartbeat CPU 0 instructions: 197001139 cycles: 66099940 heartbeat IPC: 2.297 cumulative IPC: 2.661 (Simulation time: 00 hr 16 min 31 sec)
Heartbeat CPU 0 instructions: 197501140 cycles: 66318331 heartbeat IPC: 2.289 cumulative IPC: 2.66 (Simulation time: 00 hr 16 min 34 sec)
Heartbeat CPU 0 instructions: 198001142 cycles: 66537782 heartbeat IPC: 2.278 cumulative IPC: 2.658 (Simulation time: 00 hr 16 min 37 sec)
Heartbeat CPU 0 instructions: 198501142 cycles: 66753429 heartbeat IPC: 2.319 cumulative IPC: 2.657 (Simulation time: 00 hr 16 min 40 sec)
Heartbeat CPU 0 instructions: 199001143 cycles: 66973400 heartbeat IPC: 2.273 cumulative IPC: 2.656 (Simulation time: 00 hr 16 min 43 sec)
Heartbeat CPU 0 instructions: 199501143 cycles: 67191912 heartbeat IPC: 2.288 cumulative IPC: 2.654 (Simulation time: 00 hr 16 min 46 sec)
Heartbeat CPU 0 instructions: 200001148 cycles: 67416978 heartbeat IPC: 2.222 cumulative IPC: 2.652 (Simulation time: 00 hr 16 min 49 sec)
Heartbeat CPU 0 instructions: 200501149 cycles: 67636319 heartbeat IPC: 2.28 cumulative IPC: 2.651 (Simulation time: 00 hr 16 min 53 sec)
Heartbeat CPU 0 instructions: 201001153 cycles: 67855852 heartbeat IPC: 2.278 cumulative IPC: 2.65 (Simulation time: 00 hr 16 min 56 sec)
Heartbeat CPU 0 instructions: 201501154 cycles: 68074860 heartbeat IPC: 2.283 cumulative IPC: 2.648 (Simulation time: 00 hr 16 min 59 sec)
Heartbeat CPU 0 instructions: 202001161 cycles: 68291797 heartbeat IPC: 2.305 cumulative IPC: 2.647 (Simulation time: 00 hr 17 min 02 sec)
Heartbeat CPU 0 instructions: 202501163 cycles: 68511881 heartbeat IPC: 2.272 cumulative IPC: 2.645 (Simulation time: 00 hr 17 min 05 sec)
Heartbeat CPU 0 instructions: 203001167 cycles: 68728566 heartbeat IPC: 2.308 cumulative IPC: 2.644 (Simulation time: 00 hr 17 min 08 sec)
Heartbeat CPU 0 instructions: 203501167 cycles: 68946275 heartbeat IPC: 2.297 cumulative IPC: 2.643 (Simulation time: 00 hr 17 min 11 sec)
Heartbeat CPU 0 instructions: 204001169 cycles: 69164542 heartbeat IPC: 2.291 cumulative IPC: 2.642 (Simulation time: 00 hr 17 min 14 sec)
Heartbeat CPU 0 instructions: 204501176 cycles: 69381779 heartbeat IPC: 2.302 cumulative IPC: 2.64 (Simulation time: 00 hr 17 min 17 sec)
Heartbeat CPU 0 instructions: 205001178 cycles: 69600659 heartbeat IPC: 2.284 cumulative IPC: 2.639 (Simulation time: 00 hr 17 min 20 sec)
Heartbeat CPU 0 instructions: 205501181 cycles: 69819684 heartbeat IPC: 2.283 cumulative IPC: 2.638 (Simulation time: 00 hr 17 min 23 sec)
Heartbeat CPU 0 instructions: 206001183 cycles: 70035503 heartbeat IPC: 2.317 cumulative IPC: 2.636 (Simulation time: 00 hr 17 min 27 sec)
Heartbeat CPU 0 instructions: 206501183 cycles: 70255074 heartbeat IPC: 2.277 cumulative IPC: 2.635 (Simulation time: 00 hr 17 min 30 sec)
Heartbeat CPU 0 instructions: 207001188 cycles: 70471384 heartbeat IPC: 2.312 cumulative IPC: 2.634 (Simulation time: 00 hr 17 min 33 sec)
Heartbeat CPU 0 instructions: 207501189 cycles: 70693466 heartbeat IPC: 2.251 cumulative IPC: 2.633 (Simulation time: 00 hr 17 min 36 sec)
Heartbeat CPU 0 instructions: 208001189 cycles: 70912665 heartbeat IPC: 2.281 cumulative IPC: 2.631 (Simulation time: 00 hr 17 min 39 sec)
Heartbeat CPU 0 instructions: 208501193 cycles: 71130693 heartbeat IPC: 2.293 cumulative IPC: 2.63 (Simulation time: 00 hr 17 min 42 sec)
Heartbeat CPU 0 instructions: 209001198 cycles: 71350253 heartbeat IPC: 2.277 cumulative IPC: 2.629 (Simulation time: 00 hr 17 min 45 sec)
Heartbeat CPU 0 instructions: 209501202 cycles: 71565664 heartbeat IPC: 2.321 cumulative IPC: 2.628 (Simulation time: 00 hr 17 min 48 sec)
Heartbeat CPU 0 instructions: 210001204 cycles: 71784232 heartbeat IPC: 2.288 cumulative IPC: 2.626 (Simulation time: 00 hr 17 min 51 sec)
Heartbeat CPU 0 instructions: 210501208 cycles: 72003522 heartbeat IPC: 2.28 cumulative IPC: 2.625 (Simulation time: 00 hr 17 min 54 sec)
Heartbeat CPU 0 instructions: 211001208 cycles: 72224406 heartbeat IPC: 2.264 cumulative IPC: 2.624 (Simulation time: 00 hr 17 min 57 sec)
Heartbeat CPU 0 instructions: 211501210 cycles: 72444447 heartbeat IPC: 2.272 cumulative IPC: 2.623 (Simulation time: 00 hr 18 min 01 sec)
Heartbeat CPU 0 instructions: 212001210 cycles: 72662518 heartbeat IPC: 2.293 cumulative IPC: 2.621 (Simulation time: 00 hr 18 min 04 sec)
Heartbeat CPU 0 instructions: 212501211 cycles: 72880099 heartbeat IPC: 2.298 cumulative IPC: 2.62 (Simulation time: 00 hr 18 min 07 sec)
Heartbeat CPU 0 instructions: 213001214 cycles: 73095952 heartbeat IPC: 2.316 cumulative IPC: 2.619 (Simulation time: 00 hr 18 min 10 sec)
Heartbeat CPU 0 instructions: 213501214 cycles: 73312034 heartbeat IPC: 2.314 cumulative IPC: 2.618 (Simulation time: 00 hr 18 min 13 sec)
Heartbeat CPU 0 instructions: 214001217 cycles: 73533628 heartbeat IPC: 2.256 cumulative IPC: 2.617 (Simulation time: 00 hr 18 min 16 sec)
Heartbeat CPU 0 instructions: 214501222 cycles: 73755188 heartbeat IPC: 2.257 cumulative IPC: 2.616 (Simulation time: 00 hr 18 min 19 sec)
Heartbeat CPU 0 instructions: 215001223 cycles: 73977478 heartbeat IPC: 2.249 cumulative IPC: 2.614 (Simulation time: 00 hr 18 min 22 sec)
Heartbeat CPU 0 instructions: 215501223 cycles: 74198102 heartbeat IPC: 2.266 cumulative IPC: 2.613 (Simulation time: 00 hr 18 min 25 sec)
Heartbeat CPU 0 instructions: 216001228 cycles: 74414289 heartbeat IPC: 2.313 cumulative IPC: 2.612 (Simulation time: 00 hr 18 min 28 sec)
Heartbeat CPU 0 instructions: 216501230 cycles: 74634332 heartbeat IPC: 2.272 cumulative IPC: 2.611 (Simulation time: 00 hr 18 min 31 sec)
Heartbeat CPU 0 instructions: 217001231 cycles: 74851310 heartbeat IPC: 2.304 cumulative IPC: 2.61 (Simulation time: 00 hr 18 min 34 sec)
Heartbeat CPU 0 instructions: 217501233 cycles: 75072922 heartbeat IPC: 2.256 cumulative IPC: 2.609 (Simulation time: 00 hr 18 min 37 sec)
Heartbeat CPU 0 instructions: 218001236 cycles: 75293726 heartbeat IPC: 2.264 cumulative IPC: 2.608 (Simulation time: 00 hr 18 min 40 sec)
Heartbeat CPU 0 instructions: 218501236 cycles: 75514321 heartbeat IPC: 2.267 cumulative IPC: 2.606 (Simulation time: 00 hr 18 min 43 sec)
Heartbeat CPU 0 instructions: 219001238 cycles: 75733205 heartbeat IPC: 2.284 cumulative IPC: 2.605 (Simulation time: 00 hr 18 min 46 sec)
Heartbeat CPU 0 instructions: 219501238 cycles: 75950063 heartbeat IPC: 2.306 cumulative IPC: 2.604 (Simulation time: 00 hr 18 min 50 sec)
Heartbeat CPU 0 instructions: 220001241 cycles: 76168308 heartbeat IPC: 2.291 cumulative IPC: 2.603 (Simulation time: 00 hr 18 min 53 sec)
Heartbeat CPU 0 instructions: 220501246 cycles: 76388163 heartbeat IPC: 2.274 cumulative IPC: 2.602 (Simulation time: 00 hr 18 min 56 sec)
Heartbeat CPU 0 instructions: 221001248 cycles: 76608366 heartbeat IPC: 2.271 cumulative IPC: 2.601 (Simulation time: 00 hr 18 min 59 sec)
Heartbeat CPU 0 instructions: 221501255 cycles: 76824577 heartbeat IPC: 2.313 cumulative IPC: 2.6 (Simulation time: 00 hr 19 min 02 sec)
Heartbeat CPU 0 instructions: 222001261 cycles: 77044931 heartbeat IPC: 2.269 cumulative IPC: 2.599 (Simulation time: 00 hr 19 min 05 sec)
Heartbeat CPU 0 instructions: 222501262 cycles: 77266264 heartbeat IPC: 2.259 cumulative IPC: 2.598 (Simulation time: 00 hr 19 min 08 sec)
Heartbeat CPU 0 instructions: 223001262 cycles: 77483538 heartbeat IPC: 2.301 cumulative IPC: 2.597 (Simulation time: 00 hr 19 min 11 sec)
Heartbeat CPU 0 instructions: 223501265 cycles: 77703162 heartbeat IPC: 2.277 cumulative IPC: 2.596 (Simulation time: 00 hr 19 min 14 sec)
Heartbeat CPU 0 instructions: 224001269 cycles: 77916694 heartbeat IPC: 2.342 cumulative IPC: 2.595 (Simulation time: 00 hr 19 min 17 sec)
Heartbeat CPU 0 instructions: 224501269 cycles: 78132867 heartbeat IPC: 2.313 cumulative IPC: 2.594 (Simulation time: 00 hr 19 min 20 sec)
Heartbeat CPU 0 instructions: 225001271 cycles: 78351660 heartbeat IPC: 2.285 cumulative IPC: 2.593 (Simulation time: 00 hr 19 min 23 sec)
Heartbeat CPU 0 instructions: 225501275 cycles: 78571720 heartbeat IPC: 2.272 cumulative IPC: 2.592 (Simulation time: 00 hr 19 min 26 sec)
Heartbeat CPU 0 instructions: 226001281 cycles: 78792346 heartbeat IPC: 2.266 cumulative IPC: 2.591 (Simulation time: 00 hr 19 min 29 sec)
Heartbeat CPU 0 instructions: 226501285 cycles: 79007326 heartbeat IPC: 2.326 cumulative IPC: 2.59 (Simulation time: 00 hr 19 min 32 sec)
Heartbeat CPU 0 instructions: 227001290 cycles: 79224621 heartbeat IPC: 2.301 cumulative IPC: 2.589 (Simulation time: 00 hr 19 min 35 sec)
Heartbeat CPU 0 instructions: 227501295 cycles: 79445149 heartbeat IPC: 2.267 cumulative IPC: 2.588 (Simulation time: 00 hr 19 min 38 sec)
Heartbeat CPU 0 instructions: 228001301 cycles: 79665568 heartbeat IPC: 2.268 cumulative IPC: 2.587 (Simulation time: 00 hr 19 min 41 sec)
Heartbeat CPU 0 instructions: 228501302 cycles: 79885930 heartbeat IPC: 2.269 cumulative IPC: 2.586 (Simulation time: 00 hr 19 min 44 sec)
Heartbeat CPU 0 instructions: 229001302 cycles: 80103395 heartbeat IPC: 2.299 cumulative IPC: 2.585 (Simulation time: 00 hr 19 min 47 sec)
Heartbeat CPU 0 instructions: 229501307 cycles: 80323067 heartbeat IPC: 2.276 cumulative IPC: 2.584 (Simulation time: 00 hr 19 min 50 sec)
Heartbeat CPU 0 instructions: 230001309 cycles: 80543856 heartbeat IPC: 2.265 cumulative IPC: 2.583 (Simulation time: 00 hr 19 min 54 sec)
Heartbeat CPU 0 instructions: 230501309 cycles: 80762467 heartbeat IPC: 2.287 cumulative IPC: 2.582 (Simulation time: 00 hr 19 min 57 sec)
Heartbeat CPU 0 instructions: 231001312 cycles: 80984372 heartbeat IPC: 2.253 cumulative IPC: 2.581 (Simulation time: 00 hr 20 min 00 sec)
Heartbeat CPU 0 instructions: 231501316 cycles: 81201455 heartbeat IPC: 2.303 cumulative IPC: 2.58 (Simulation time: 00 hr 20 min 03 sec)
Heartbeat CPU 0 instructions: 232001316 cycles: 81419873 heartbeat IPC: 2.289 cumulative IPC: 2.58 (Simulation time: 00 hr 20 min 06 sec)
Heartbeat CPU 0 instructions: 232501317 cycles: 81639146 heartbeat IPC: 2.28 cumulative IPC: 2.579 (Simulation time: 00 hr 20 min 09 sec)
Heartbeat CPU 0 instructions: 233001317 cycles: 81859755 heartbeat IPC: 2.266 cumulative IPC: 2.578 (Simulation time: 00 hr 20 min 12 sec)
Heartbeat CPU 0 instructions: 233501320 cycles: 82080238 heartbeat IPC: 2.268 cumulative IPC: 2.577 (Simulation time: 00 hr 20 min 15 sec)
Heartbeat CPU 0 instructions: 234001324 cycles: 82295050 heartbeat IPC: 2.328 cumulative IPC: 2.576 (Simulation time: 00 hr 20 min 18 sec)
Heartbeat CPU 0 instructions: 234501329 cycles: 82511931 heartbeat IPC: 2.305 cumulative IPC: 2.575 (Simulation time: 00 hr 20 min 21 sec)
Heartbeat CPU 0 instructions: 235001331 cycles: 82730327 heartbeat IPC: 2.289 cumulative IPC: 2.574 (Simulation time: 00 hr 20 min 24 sec)
Heartbeat CPU 0 instructions: 235501331 cycles: 82945767 heartbeat IPC: 2.321 cumulative IPC: 2.574 (Simulation time: 00 hr 20 min 27 sec)
Heartbeat CPU 0 instructions: 236001334 cycles: 83165703 heartbeat IPC: 2.273 cumulative IPC: 2.573 (Simulation time: 00 hr 20 min 30 sec)
Heartbeat CPU 0 instructions: 236501341 cycles: 83379471 heartbeat IPC: 2.339 cumulative IPC: 2.572 (Simulation time: 00 hr 20 min 33 sec)
Heartbeat CPU 0 instructions: 237001346 cycles: 83599715 heartbeat IPC: 2.27 cumulative IPC: 2.571 (Simulation time: 00 hr 20 min 36 sec)
Heartbeat CPU 0 instructions: 237501348 cycles: 83821144 heartbeat IPC: 2.258 cumulative IPC: 2.57 (Simulation time: 00 hr 20 min 39 sec)
Heartbeat CPU 0 instructions: 238001355 cycles: 84037976 heartbeat IPC: 2.306 cumulative IPC: 2.569 (Simulation time: 00 hr 20 min 42 sec)
Heartbeat CPU 0 instructions: 238501359 cycles: 84261175 heartbeat IPC: 2.24 cumulative IPC: 2.568 (Simulation time: 00 hr 20 min 45 sec)
Heartbeat CPU 0 instructions: 239001366 cycles: 84475032 heartbeat IPC: 2.338 cumulative IPC: 2.568 (Simulation time: 00 hr 20 min 48 sec)
Heartbeat CPU 0 instructions: 239501371 cycles: 84692180 heartbeat IPC: 2.303 cumulative IPC: 2.567 (Simulation time: 00 hr 20 min 51 sec)
Heartbeat CPU 0 instructions: 240001373 cycles: 84911981 heartbeat IPC: 2.275 cumulative IPC: 2.566 (Simulation time: 00 hr 20 min 54 sec)
Heartbeat CPU 0 instructions: 240501380 cycles: 85129571 heartbeat IPC: 2.298 cumulative IPC: 2.565 (Simulation time: 00 hr 20 min 57 sec)
Heartbeat CPU 0 instructions: 241001383 cycles: 85347937 heartbeat IPC: 2.29 cumulative IPC: 2.564 (Simulation time: 00 hr 21 min 00 sec)
Heartbeat CPU 0 instructions: 241501388 cycles: 85564240 heartbeat IPC: 2.312 cumulative IPC: 2.564 (Simulation time: 00 hr 21 min 03 sec)
Heartbeat CPU 0 instructions: 242001393 cycles: 85786196 heartbeat IPC: 2.253 cumulative IPC: 2.563 (Simulation time: 00 hr 21 min 06 sec)
Heartbeat CPU 0 instructions: 242501398 cycles: 86004086 heartbeat IPC: 2.295 cumulative IPC: 2.562 (Simulation time: 00 hr 21 min 09 sec)
Heartbeat CPU 0 instructions: 243001401 cycles: 86223424 heartbeat IPC: 2.28 cumulative IPC: 2.561 (Simulation time: 00 hr 21 min 12 sec)
Heartbeat CPU 0 instructions: 243501407 cycles: 86441457 heartbeat IPC: 2.293 cumulative IPC: 2.56 (Simulation time: 00 hr 21 min 16 sec)
Heartbeat CPU 0 instructions: 244001413 cycles: 86659650 heartbeat IPC: 2.292 cumulative IPC: 2.56 (Simulation time: 00 hr 21 min 19 sec)
Heartbeat CPU 0 instructions: 244501415 cycles: 86883824 heartbeat IPC: 2.23 cumulative IPC: 2.559 (Simulation time: 00 hr 21 min 22 sec)
Heartbeat CPU 0 instructions: 245001415 cycles: 87097813 heartbeat IPC: 2.337 cumulative IPC: 2.558 (Simulation time: 00 hr 21 min 25 sec)
Heartbeat CPU 0 instructions: 245501419 cycles: 87316057 heartbeat IPC: 2.291 cumulative IPC: 2.557 (Simulation time: 00 hr 21 min 28 sec)
Heartbeat CPU 0 instructions: 246001421 cycles: 87535851 heartbeat IPC: 2.275 cumulative IPC: 2.556 (Simulation time: 00 hr 21 min 31 sec)
Heartbeat CPU 0 instructions: 246501422 cycles: 87752591 heartbeat IPC: 2.307 cumulative IPC: 2.556 (Simulation time: 00 hr 21 min 34 sec)
Heartbeat CPU 0 instructions: 247001424 cycles: 87972339 heartbeat IPC: 2.275 cumulative IPC: 2.555 (Simulation time: 00 hr 21 min 37 sec)
Heartbeat CPU 0 instructions: 247501428 cycles: 88190083 heartbeat IPC: 2.296 cumulative IPC: 2.554 (Simulation time: 00 hr 21 min 40 sec)
Heartbeat CPU 0 instructions: 248001435 cycles: 88408504 heartbeat IPC: 2.289 cumulative IPC: 2.553 (Simulation time: 00 hr 21 min 43 sec)
Heartbeat CPU 0 instructions: 248501438 cycles: 88630450 heartbeat IPC: 2.253 cumulative IPC: 2.553 (Simulation time: 00 hr 21 min 46 sec)
Heartbeat CPU 0 instructions: 249001442 cycles: 88847154 heartbeat IPC: 2.307 cumulative IPC: 2.552 (Simulation time: 00 hr 21 min 49 sec)
Heartbeat CPU 0 instructions: 249501448 cycles: 89071430 heartbeat IPC: 2.229 cumulative IPC: 2.551 (Simulation time: 00 hr 21 min 52 sec)
Simulation finished CPU 0 instructions: 200000004 cycles: 78423549 cumulative IPC: 2.55 (Simulation time: 00 hr 21 min 55 sec)
Simulation complete CPU 0 instructions: 200000004 cycles: 78423549 cumulative IPC: 2.55 (Simulation time: 00 hr 21 min 55 sec)

ChampSim completed all CPUs

=== Simulation ===
CPU 0 runs /local-ssd/ben/dpc4-traces/SPEC17/654.roms_s-293B.champsimtrace.xz

Region of Interest Statistics

CPU 0 cumulative IPC: 2.55 instructions: 200000004 cycles: 78423549
CPU 0 Branch Prediction Accuracy: 99.91% MPKI: 0.03265 Average ROB Occupancy at Mispredict: 504.6
Branch type MPKI
BRANCH_DIRECT_JUMP: 6e-05
BRANCH_INDIRECT: 0
BRANCH_CONDITIONAL: 0.03229
BRANCH_DIRECT_CALL: 0.00015
BRANCH_INDIRECT_CALL: 0
BRANCH_RETURN: 0.00015

cpu0->cpu0_STLB TOTAL        ACCESS:      73894 HIT:      25866 MISS:      48028 MSHR_MERGE:          0
cpu0->cpu0_STLB LOAD         ACCESS:      73894 HIT:      25866 MISS:      48028 MSHR_MERGE:          0
cpu0->cpu0_STLB RFO          ACCESS:          0 HIT:          0 MISS:          0 MSHR_MERGE:          0
cpu0->cpu0_STLB PREFETCH     ACCESS:          0 HIT:          0 MISS:          0 MSHR_MERGE:          0
cpu0->cpu0_STLB WRITE        ACCESS:          0 HIT:          0 MISS:          0 MSHR_MERGE:          0
cpu0->cpu0_STLB TRANSLATION  ACCESS:          0 HIT:          0 MISS:          0 MSHR_MERGE:          0
cpu0->cpu0_STLB PREFETCH REQUESTED:          0 ISSUED:          0 USEFUL:          0 USELESS:          0
cpu0->cpu0_STLB AVERAGE MISS LATENCY: 315.8 cycles
cpu0->cpu0_L2C TOTAL        ACCESS:   12391979 HIT:    8998160 MISS:    3393819 MSHR_MERGE:    1417193
cpu0->cpu0_L2C LOAD         ACCESS:    2118465 HIT:    1928966 MISS:     189499 MSHR_MERGE:     131015
cpu0->cpu0_L2C RFO          ACCESS:     405316 HIT:      92757 MISS:     312559 MSHR_MERGE:          1
cpu0->cpu0_L2C PREFETCH     ACCESS:    9406591 HIT:    6531671 MISS:    2874920 MSHR_MERGE:    1286177
cpu0->cpu0_L2C WRITE        ACCESS:     420055 HIT:     420039 MISS:         16 MSHR_MERGE:          0
cpu0->cpu0_L2C TRANSLATION  ACCESS:      41552 HIT:      24727 MISS:      16825 MSHR_MERGE:          0
cpu0->cpu0_L2C PREFETCH REQUESTED:   10138340 ISSUED:    9393212 USEFUL:    1473247 USELESS:     109812
cpu0->cpu0_L2C AVERAGE MISS LATENCY: 143.8 cycles
cpu0->cpu0_L1I TOTAL        ACCESS:   36128384 HIT:   36128184 MISS:        200 MSHR_MERGE:         27
cpu0->cpu0_L1I LOAD         ACCESS:   36128384 HIT:   36128184 MISS:        200 MSHR_MERGE:         27
cpu0->cpu0_L1I RFO          ACCESS:          0 HIT:          0 MISS:          0 MSHR_MERGE:          0
cpu0->cpu0_L1I PREFETCH     ACCESS:          0 HIT:          0 MISS:          0 MSHR_MERGE:          0
cpu0->cpu0_L1I WRITE        ACCESS:          0 HIT:          0 MISS:          0 MSHR_MERGE:          0
cpu0->cpu0_L1I TRANSLATION  ACCESS:          0 HIT:          0 MISS:          0 MSHR_MERGE:          0
cpu0->cpu0_L1I PREFETCH REQUESTED:          0 ISSUED:          0 USEFUL:          0 USELESS:          0
cpu0->cpu0_L1I AVERAGE MISS LATENCY: 258.7 cycles
cpu0->cpu0_L1D TOTAL        ACCESS:   55014728 HIT:   51089069 MISS:    3925659 MSHR_MERGE:    1346993
cpu0->cpu0_L1D LOAD         ACCESS:   43475922 HIT:   40791150 MISS:    2684772 MSHR_MERGE:     566468
cpu0->cpu0_L1D RFO          ACCESS:          0 HIT:          0 MISS:          0 MSHR_MERGE:          0
cpu0->cpu0_L1D PREFETCH     ACCESS:      22325 HIT:       8787 MISS:      13538 MSHR_MERGE:        159
cpu0->cpu0_L1D WRITE        ACCESS:   11396433 HIT:   10210829 MISS:    1185604 MSHR_MERGE:     780173
cpu0->cpu0_L1D TRANSLATION  ACCESS:     120048 HIT:      78303 MISS:      41745 MSHR_MERGE:        193
cpu0->cpu0_L1D PREFETCH REQUESTED:      47283 ISSUED:      22325 USEFUL:       5446 USELESS:       7933
cpu0->cpu0_L1D AVERAGE MISS LATENCY: 37.38 cycles
cpu0->cpu0_ITLB TOTAL        ACCESS:   27462778 HIT:   27462730 MISS:         48 MSHR_MERGE:         32
cpu0->cpu0_ITLB LOAD         ACCESS:   27462778 HIT:   27462730 MISS:         48 MSHR_MERGE:         32
cpu0->cpu0_ITLB RFO          ACCESS:          0 HIT:          0 MISS:          0 MSHR_MERGE:          0
cpu0->cpu0_ITLB PREFETCH     ACCESS:          0 HIT:          0 MISS:          0 MSHR_MERGE:          0
cpu0->cpu0_ITLB WRITE        ACCESS:          0 HIT:          0 MISS:          0 MSHR_MERGE:          0
cpu0->cpu0_ITLB TRANSLATION  ACCESS:          0 HIT:          0 MISS:          0 MSHR_MERGE:          0
cpu0->cpu0_ITLB PREFETCH REQUESTED:          0 ISSUED:          0 USEFUL:          0 USELESS:          0
cpu0->cpu0_ITLB AVERAGE MISS LATENCY: 391.4 cycles
cpu0->cpu0_DTLB TOTAL        ACCESS:   53501755 HIT:   53257111 MISS:     244644 MSHR_MERGE:     170766
cpu0->cpu0_DTLB LOAD         ACCESS:   53501755 HIT:   53257111 MISS:     244644 MSHR_MERGE:     170766
cpu0->cpu0_DTLB RFO          ACCESS:          0 HIT:          0 MISS:          0 MSHR_MERGE:          0
cpu0->cpu0_DTLB PREFETCH     ACCESS:          0 HIT:          0 MISS:          0 MSHR_MERGE:          0
cpu0->cpu0_DTLB WRITE        ACCESS:          0 HIT:          0 MISS:          0 MSHR_MERGE:          0
cpu0->cpu0_DTLB TRANSLATION  ACCESS:          0 HIT:          0 MISS:          0 MSHR_MERGE:          0
cpu0->cpu0_DTLB PREFETCH REQUESTED:          0 ISSUED:          0 USEFUL:          0 USELESS:          0
cpu0->cpu0_DTLB AVERAGE MISS LATENCY: 210.8 cycles
cpu0->LLC TOTAL        ACCESS:    2398383 HIT:     532694 MISS:    1865689 MSHR_MERGE:      36670
cpu0->LLC LOAD         ACCESS:      58484 HIT:       1505 MISS:      56979 MSHR_MERGE:          8
cpu0->LLC RFO          ACCESS:     312558 HIT:     194210 MISS:     118348 MSHR_MERGE:          0
cpu0->LLC PREFETCH     ACCESS:    1637975 HIT:      77130 MISS:    1560845 MSHR_MERGE:      36662
cpu0->LLC WRITE        ACCESS:     372541 HIT:     258694 MISS:     113847 MSHR_MERGE:          0
cpu0->LLC TRANSLATION  ACCESS:      16825 HIT:       1155 MISS:      15670 MSHR_MERGE:          0
cpu0->LLC PREFETCH REQUESTED:      49232 ISSUED:      49232 USEFUL:       8226 USELESS:       2764
cpu0->LLC AVERAGE MISS LATENCY: 169.9 cycles

DRAM Statistics

Channel 0 RQ ROW_BUFFER_HIT:       7464
  ROW_BUFFER_MISS:    1707648
  AVG DBUS CONGESTED CYCLE: 11.91
Channel 0 WQ ROW_BUFFER_HIT:      20705
  ROW_BUFFER_MISS:     113173
  FULL:          0
Channel 0 REFRESHES ISSUED:       6535
