[VMEM] WARNING: physical memory size is smaller than virtual memory size.

*** ChampSim Multicore Out-of-Order Simulator ***
Warmup Instructions: 50000000
Simulation Instructions: 200000000
Number of CPUs: 1
Page size: 4096
Core 0: /local-ssd/ben/dpc4-traces/gtraces_v2/merced_0002.champsim.gz
 L1D Berti prefetcher
Off-chip DRAM Size: 64 GiB Channels: 1 Width: 64-bit Data Rate: 4807 MT/s
[BTB] WARNING: target of return is a lower address than the corresponding call. This is usually a problem with your trace.
[BTB] WARNING: target of return is a lower address than the corresponding call. This is usually a problem with your trace.
[BTB] WARNING: target of return is a lower address than the corresponding call. This is usually a problem with your trace.
[BTB] WARNING: target of return is a lower address than the corresponding call. This is usually a problem with your trace.
[BTB] WARNING: target of return is a lower address than the corresponding call. This is usually a problem with your trace.
[BTB] WARNING: target of return is a lower address than the corresponding call. This is usually a problem with your trace.
[BTB] WARNING: target of return is a lower address than the corresponding call. This is usually a problem with your trace.
[BTB] WARNING: target of return is a lower address than the corresponding call. This is usually a problem with your trace.
[BTB] WARNING: target of return is a lower address than the corresponding call. This is usually a problem with your trace.
[BTB] WARNING: target of return is a lower address than the corresponding call. This is usually a problem with your trace.
Heartbeat CPU 0 instructions: 500004 cycles: 300912 heartbeat IPC: 1.662 cumulative IPC: 1.662 (Simulation time: 00 hr 00 min 05 sec)
Heartbeat CPU 0 instructions: 1000008 cycles: 500965 heartbeat IPC: 2.499 cumulative IPC: 1.996 (Simulation time: 00 hr 00 min 09 sec)
Heartbeat CPU 0 instructions: 1500011 cycles: 704352 heartbeat IPC: 2.458 cumulative IPC: 2.13 (Simulation time: 00 hr 00 min 12 sec)
Heartbeat CPU 0 instructions: 2000017 cycles: 882224 heartbeat IPC: 2.811 cumulative IPC: 2.267 (Simulation time: 00 hr 00 min 15 sec)
Heartbeat CPU 0 instructions: 2500019 cycles: 1031791 heartbeat IPC: 3.343 cumulative IPC: 2.423 (Simulation time: 00 hr 00 min 18 sec)
Heartbeat CPU 0 instructions: 3000020 cycles: 1152887 heartbeat IPC: 4.129 cumulative IPC: 2.602 (Simulation time: 00 hr 00 min 20 sec)
Heartbeat CPU 0 instructions: 3500024 cycles: 1268432 heartbeat IPC: 4.327 cumulative IPC: 2.759 (Simulation time: 00 hr 00 min 22 sec)
Heartbeat CPU 0 instructions: 4000026 cycles: 1376114 heartbeat IPC: 4.643 cumulative IPC: 2.907 (Simulation time: 00 hr 00 min 24 sec)
Heartbeat CPU 0 instructions: 4500026 cycles: 1476365 heartbeat IPC: 4.987 cumulative IPC: 3.048 (Simulation time: 00 hr 00 min 26 sec)
Heartbeat CPU 0 instructions: 5000028 cycles: 1582669 heartbeat IPC: 4.704 cumulative IPC: 3.159 (Simulation time: 00 hr 00 min 28 sec)
Heartbeat CPU 0 instructions: 5500031 cycles: 1698416 heartbeat IPC: 4.32 cumulative IPC: 3.238 (Simulation time: 00 hr 00 min 30 sec)
Heartbeat CPU 0 instructions: 6000033 cycles: 1807095 heartbeat IPC: 4.601 cumulative IPC: 3.32 (Simulation time: 00 hr 00 min 32 sec)
Heartbeat CPU 0 instructions: 6500039 cycles: 1914012 heartbeat IPC: 4.677 cumulative IPC: 3.396 (Simulation time: 00 hr 00 min 34 sec)
Heartbeat CPU 0 instructions: 7000044 cycles: 2017859 heartbeat IPC: 4.815 cumulative IPC: 3.469 (Simulation time: 00 hr 00 min 36 sec)
Heartbeat CPU 0 instructions: 7500044 cycles: 2120475 heartbeat IPC: 4.873 cumulative IPC: 3.537 (Simulation time: 00 hr 00 min 38 sec)
Heartbeat CPU 0 instructions: 8000050 cycles: 2235127 heartbeat IPC: 4.361 cumulative IPC: 3.579 (Simulation time: 00 hr 00 min 40 sec)
Heartbeat CPU 0 instructions: 8500053 cycles: 2349518 heartbeat IPC: 4.371 cumulative IPC: 3.618 (Simulation time: 00 hr 00 min 42 sec)
Heartbeat CPU 0 instructions: 9000058 cycles: 2495503 heartbeat IPC: 3.425 cumulative IPC: 3.607 (Simulation time: 00 hr 00 min 45 sec)
Heartbeat CPU 0 instructions: 9500064 cycles: 2644529 heartbeat IPC: 3.355 cumulative IPC: 3.592 (Simulation time: 00 hr 00 min 48 sec)
Heartbeat CPU 0 instructions: 10000068 cycles: 2764250 heartbeat IPC: 4.176 cumulative IPC: 3.618 (Simulation time: 00 hr 00 min 50 sec)
Heartbeat CPU 0 instructions: 10500071 cycles: 2875824 heartbeat IPC: 4.481 cumulative IPC: 3.651 (Simulation time: 00 hr 00 min 52 sec)
Heartbeat CPU 0 instructions: 11000077 cycles: 2978100 heartbeat IPC: 4.889 cumulative IPC: 3.694 (Simulation time: 00 hr 00 min 54 sec)
Heartbeat CPU 0 instructions: 11500077 cycles: 3086184 heartbeat IPC: 4.626 cumulative IPC: 3.726 (Simulation time: 00 hr 00 min 56 sec)
Heartbeat CPU 0 instructions: 12000081 cycles: 3196608 heartbeat IPC: 4.528 cumulative IPC: 3.754 (Simulation time: 00 hr 00 min 58 sec)
Heartbeat CPU 0 instructions: 12500082 cycles: 3303395 heartbeat IPC: 4.682 cumulative IPC: 3.784 (Simulation time: 00 hr 01 min 00 sec)
Heartbeat CPU 0 instructions: 13000082 cycles: 3408600 heartbeat IPC: 4.753 cumulative IPC: 3.814 (Simulation time: 00 hr 01 min 02 sec)
Heartbeat CPU 0 instructions: 13500085 cycles: 3512210 heartbeat IPC: 4.826 cumulative IPC: 3.844 (Simulation time: 00 hr 01 min 04 sec)
Heartbeat CPU 0 instructions: 14000091 cycles: 3627133 heartbeat IPC: 4.351 cumulative IPC: 3.86 (Simulation time: 00 hr 01 min 06 sec)
Heartbeat CPU 0 instructions: 14500095 cycles: 3736337 heartbeat IPC: 4.579 cumulative IPC: 3.881 (Simulation time: 00 hr 01 min 08 sec)
Heartbeat CPU 0 instructions: 15000102 cycles: 3841183 heartbeat IPC: 4.769 cumulative IPC: 3.905 (Simulation time: 00 hr 01 min 10 sec)
Heartbeat CPU 0 instructions: 15500103 cycles: 3944824 heartbeat IPC: 4.824 cumulative IPC: 3.929 (Simulation time: 00 hr 01 min 12 sec)
Heartbeat CPU 0 instructions: 16000104 cycles: 4094516 heartbeat IPC: 3.34 cumulative IPC: 3.908 (Simulation time: 00 hr 01 min 15 sec)
Heartbeat CPU 0 instructions: 16500107 cycles: 4255106 heartbeat IPC: 3.114 cumulative IPC: 3.878 (Simulation time: 00 hr 01 min 18 sec)
Heartbeat CPU 0 instructions: 17000114 cycles: 4383907 heartbeat IPC: 3.882 cumulative IPC: 3.878 (Simulation time: 00 hr 01 min 20 sec)
Heartbeat CPU 0 instructions: 17500120 cycles: 4491026 heartbeat IPC: 4.668 cumulative IPC: 3.897 (Simulation time: 00 hr 01 min 22 sec)
Heartbeat CPU 0 instructions: 18000123 cycles: 4597758 heartbeat IPC: 4.685 cumulative IPC: 3.915 (Simulation time: 00 hr 01 min 23 sec)
Heartbeat CPU 0 instructions: 18500125 cycles: 4704765 heartbeat IPC: 4.673 cumulative IPC: 3.932 (Simulation time: 00 hr 01 min 25 sec)
Heartbeat CPU 0 instructions: 19000132 cycles: 4814701 heartbeat IPC: 4.548 cumulative IPC: 3.946 (Simulation time: 00 hr 01 min 27 sec)
Heartbeat CPU 0 instructions: 19500139 cycles: 4941091 heartbeat IPC: 3.956 cumulative IPC: 3.947 (Simulation time: 00 hr 01 min 29 sec)
Heartbeat CPU 0 instructions: 20000145 cycles: 5108892 heartbeat IPC: 2.98 cumulative IPC: 3.915 (Simulation time: 00 hr 01 min 32 sec)
Heartbeat CPU 0 instructions: 20500150 cycles: 5252270 heartbeat IPC: 3.487 cumulative IPC: 3.903 (Simulation time: 00 hr 01 min 35 sec)
Heartbeat CPU 0 instructions: 21000150 cycles: 5371037 heartbeat IPC: 4.21 cumulative IPC: 3.91 (Simulation time: 00 hr 01 min 36 sec)
Heartbeat CPU 0 instructions: 21500155 cycles: 5486934 heartbeat IPC: 4.314 cumulative IPC: 3.918 (Simulation time: 00 hr 01 min 38 sec)
Heartbeat CPU 0 instructions: 22000158 cycles: 5626001 heartbeat IPC: 3.595 cumulative IPC: 3.91 (Simulation time: 00 hr 01 min 41 sec)
Heartbeat CPU 0 instructions: 22500160 cycles: 5771624 heartbeat IPC: 3.434 cumulative IPC: 3.898 (Simulation time: 00 hr 01 min 44 sec)
Heartbeat CPU 0 instructions: 23000166 cycles: 5916642 heartbeat IPC: 3.448 cumulative IPC: 3.887 (Simulation time: 00 hr 01 min 46 sec)
Heartbeat CPU 0 instructions: 23500170 cycles: 6056247 heartbeat IPC: 3.582 cumulative IPC: 3.88 (Simulation time: 00 hr 01 min 49 sec)
Heartbeat CPU 0 instructions: 24000176 cycles: 6213363 heartbeat IPC: 3.182 cumulative IPC: 3.863 (Simulation time: 00 hr 01 min 51 sec)
Heartbeat CPU 0 instructions: 24500176 cycles: 6359678 heartbeat IPC: 3.417 cumulative IPC: 3.852 (Simulation time: 00 hr 01 min 54 sec)
Heartbeat CPU 0 instructions: 25000183 cycles: 6522867 heartbeat IPC: 3.064 cumulative IPC: 3.833 (Simulation time: 00 hr 01 min 57 sec)
Heartbeat CPU 0 instructions: 25500186 cycles: 6639110 heartbeat IPC: 4.301 cumulative IPC: 3.841 (Simulation time: 00 hr 01 min 59 sec)
Heartbeat CPU 0 instructions: 26000186 cycles: 6755618 heartbeat IPC: 4.292 cumulative IPC: 3.849 (Simulation time: 00 hr 02 min 02 sec)
Heartbeat CPU 0 instructions: 26500193 cycles: 6869569 heartbeat IPC: 4.388 cumulative IPC: 3.858 (Simulation time: 00 hr 02 min 04 sec)
Heartbeat CPU 0 instructions: 27000196 cycles: 7003031 heartbeat IPC: 3.746 cumulative IPC: 3.856 (Simulation time: 00 hr 02 min 07 sec)
Heartbeat CPU 0 instructions: 27500203 cycles: 7123184 heartbeat IPC: 4.161 cumulative IPC: 3.861 (Simulation time: 00 hr 02 min 09 sec)
Heartbeat CPU 0 instructions: 28000203 cycles: 7240218 heartbeat IPC: 4.272 cumulative IPC: 3.867 (Simulation time: 00 hr 02 min 12 sec)
Heartbeat CPU 0 instructions: 28500209 cycles: 7363952 heartbeat IPC: 4.041 cumulative IPC: 3.87 (Simulation time: 00 hr 02 min 14 sec)
Heartbeat CPU 0 instructions: 29000215 cycles: 7513809 heartbeat IPC: 3.337 cumulative IPC: 3.86 (Simulation time: 00 hr 02 min 17 sec)
Heartbeat CPU 0 instructions: 29500219 cycles: 7650384 heartbeat IPC: 3.661 cumulative IPC: 3.856 (Simulation time: 00 hr 02 min 20 sec)
Heartbeat CPU 0 instructions: 30000222 cycles: 7776008 heartbeat IPC: 3.98 cumulative IPC: 3.858 (Simulation time: 00 hr 02 min 22 sec)
Heartbeat CPU 0 instructions: 30500229 cycles: 7922487 heartbeat IPC: 3.414 cumulative IPC: 3.85 (Simulation time: 00 hr 02 min 25 sec)
Heartbeat CPU 0 instructions: 31000230 cycles: 8044265 heartbeat IPC: 4.106 cumulative IPC: 3.854 (Simulation time: 00 hr 02 min 27 sec)
Heartbeat CPU 0 instructions: 31500231 cycles: 8233156 heartbeat IPC: 2.647 cumulative IPC: 3.826 (Simulation time: 00 hr 02 min 31 sec)
Heartbeat CPU 0 instructions: 32000233 cycles: 8403465 heartbeat IPC: 2.936 cumulative IPC: 3.808 (Simulation time: 00 hr 02 min 34 sec)
Heartbeat CPU 0 instructions: 32500237 cycles: 8578529 heartbeat IPC: 2.856 cumulative IPC: 3.789 (Simulation time: 00 hr 02 min 38 sec)
Heartbeat CPU 0 instructions: 33000242 cycles: 8787336 heartbeat IPC: 2.395 cumulative IPC: 3.755 (Simulation time: 00 hr 02 min 42 sec)
Heartbeat CPU 0 instructions: 33500245 cycles: 8947392 heartbeat IPC: 3.124 cumulative IPC: 3.744 (Simulation time: 00 hr 02 min 45 sec)
Heartbeat CPU 0 instructions: 34000252 cycles: 9120670 heartbeat IPC: 2.886 cumulative IPC: 3.728 (Simulation time: 00 hr 02 min 48 sec)
Heartbeat CPU 0 instructions: 34500255 cycles: 9285198 heartbeat IPC: 3.039 cumulative IPC: 3.716 (Simulation time: 00 hr 02 min 51 sec)
Heartbeat CPU 0 instructions: 35000260 cycles: 9405935 heartbeat IPC: 4.141 cumulative IPC: 3.721 (Simulation time: 00 hr 02 min 54 sec)
Heartbeat CPU 0 instructions: 35500262 cycles: 9542423 heartbeat IPC: 3.663 cumulative IPC: 3.72 (Simulation time: 00 hr 02 min 57 sec)
Heartbeat CPU 0 instructions: 36000265 cycles: 9671013 heartbeat IPC: 3.888 cumulative IPC: 3.722 (Simulation time: 00 hr 02 min 59 sec)
Heartbeat CPU 0 instructions: 36500265 cycles: 9776384 heartbeat IPC: 4.745 cumulative IPC: 3.734 (Simulation time: 00 hr 03 min 00 sec)
Heartbeat CPU 0 instructions: 37000266 cycles: 9922076 heartbeat IPC: 3.432 cumulative IPC: 3.729 (Simulation time: 00 hr 03 min 03 sec)
Heartbeat CPU 0 instructions: 37500270 cycles: 10078424 heartbeat IPC: 3.198 cumulative IPC: 3.721 (Simulation time: 00 hr 03 min 06 sec)
Heartbeat CPU 0 instructions: 38000272 cycles: 10193480 heartbeat IPC: 4.346 cumulative IPC: 3.728 (Simulation time: 00 hr 03 min 08 sec)
Heartbeat CPU 0 instructions: 38500274 cycles: 10309849 heartbeat IPC: 4.297 cumulative IPC: 3.734 (Simulation time: 00 hr 03 min 10 sec)
Heartbeat CPU 0 instructions: 39000274 cycles: 10503518 heartbeat IPC: 2.582 cumulative IPC: 3.713 (Simulation time: 00 hr 03 min 14 sec)
Heartbeat CPU 0 instructions: 39500278 cycles: 10662882 heartbeat IPC: 3.137 cumulative IPC: 3.704 (Simulation time: 00 hr 03 min 17 sec)
Heartbeat CPU 0 instructions: 40000280 cycles: 10793182 heartbeat IPC: 3.837 cumulative IPC: 3.706 (Simulation time: 00 hr 03 min 19 sec)
Heartbeat CPU 0 instructions: 40500283 cycles: 10935299 heartbeat IPC: 3.518 cumulative IPC: 3.704 (Simulation time: 00 hr 03 min 22 sec)
Heartbeat CPU 0 instructions: 41000285 cycles: 11058143 heartbeat IPC: 4.07 cumulative IPC: 3.708 (Simulation time: 00 hr 03 min 25 sec)
Heartbeat CPU 0 instructions: 41500285 cycles: 11181639 heartbeat IPC: 4.049 cumulative IPC: 3.711 (Simulation time: 00 hr 03 min 27 sec)
Heartbeat CPU 0 instructions: 42000286 cycles: 11350480 heartbeat IPC: 2.961 cumulative IPC: 3.7 (Simulation time: 00 hr 03 min 30 sec)
Heartbeat CPU 0 instructions: 42500293 cycles: 11528784 heartbeat IPC: 2.804 cumulative IPC: 3.686 (Simulation time: 00 hr 03 min 34 sec)
Heartbeat CPU 0 instructions: 43000295 cycles: 11649126 heartbeat IPC: 4.155 cumulative IPC: 3.691 (Simulation time: 00 hr 03 min 36 sec)
Heartbeat CPU 0 instructions: 43500296 cycles: 11781554 heartbeat IPC: 3.776 cumulative IPC: 3.692 (Simulation time: 00 hr 03 min 39 sec)
Heartbeat CPU 0 instructions: 44000296 cycles: 11915347 heartbeat IPC: 3.737 cumulative IPC: 3.693 (Simulation time: 00 hr 03 min 42 sec)
Heartbeat CPU 0 instructions: 44500298 cycles: 12048802 heartbeat IPC: 3.747 cumulative IPC: 3.693 (Simulation time: 00 hr 03 min 45 sec)
Heartbeat CPU 0 instructions: 45000299 cycles: 12157542 heartbeat IPC: 4.598 cumulative IPC: 3.701 (Simulation time: 00 hr 03 min 47 sec)
Heartbeat CPU 0 instructions: 45500304 cycles: 12270271 heartbeat IPC: 4.435 cumulative IPC: 3.708 (Simulation time: 00 hr 03 min 49 sec)
Heartbeat CPU 0 instructions: 46000309 cycles: 12388074 heartbeat IPC: 4.244 cumulative IPC: 3.713 (Simulation time: 00 hr 03 min 52 sec)
Heartbeat CPU 0 instructions: 46500313 cycles: 12527083 heartbeat IPC: 3.597 cumulative IPC: 3.712 (Simulation time: 00 hr 03 min 55 sec)
Heartbeat CPU 0 instructions: 47000320 cycles: 12640007 heartbeat IPC: 4.428 cumulative IPC: 3.718 (Simulation time: 00 hr 03 min 57 sec)
Heartbeat CPU 0 instructions: 47500320 cycles: 12746886 heartbeat IPC: 4.678 cumulative IPC: 3.726 (Simulation time: 00 hr 03 min 58 sec)
Heartbeat CPU 0 instructions: 48000327 cycles: 12889634 heartbeat IPC: 3.503 cumulative IPC: 3.724 (Simulation time: 00 hr 04 min 01 sec)
Heartbeat CPU 0 instructions: 48500327 cycles: 13035671 heartbeat IPC: 3.424 cumulative IPC: 3.721 (Simulation time: 00 hr 04 min 03 sec)
Heartbeat CPU 0 instructions: 49000331 cycles: 13160083 heartbeat IPC: 4.019 cumulative IPC: 3.723 (Simulation time: 00 hr 04 min 06 sec)
Heartbeat CPU 0 instructions: 49500336 cycles: 13341002 heartbeat IPC: 2.764 cumulative IPC: 3.71 (Simulation time: 00 hr 04 min 09 sec)
Warmup halting CPU 0 at instruction 50000004 cycle 13475094 for remainder of phase
Warmup finished CPU 0 instructions: 50000004 cycles: 13475094 cumulative IPC: 3.711 (Simulation time: 00 hr 04 min 12 sec)
Warmup complete CPU 0 instructions: 50000004 cycles: 13475094 cumulative IPC: 3.711 (Simulation time: 00 hr 04 min 12 sec)
Heartbeat CPU 0 instructions: 50000336 cycles: 13475214 heartbeat IPC: 3.725 cumulative IPC: 2.767 (Simulation time: 00 hr 04 min 12 sec)
Heartbeat CPU 0 instructions: 50500343 cycles: 13986463 heartbeat IPC: 0.978 cumulative IPC: 0.9784 (Simulation time: 00 hr 04 min 17 sec)
Heartbeat CPU 0 instructions: 51000344 cycles: 14475215 heartbeat IPC: 1.023 cumulative IPC: 1 (Simulation time: 00 hr 04 min 22 sec)
Heartbeat CPU 0 instructions: 51500350 cycles: 14802343 heartbeat IPC: 1.528 cumulative IPC: 1.13 (Simulation time: 00 hr 04 min 25 sec)
Heartbeat CPU 0 instructions: 52000355 cycles: 15144171 heartbeat IPC: 1.463 cumulative IPC: 1.198 (Simulation time: 00 hr 04 min 28 sec)
Heartbeat CPU 0 instructions: 52500361 cycles: 15900530 heartbeat IPC: 0.6611 cumulative IPC: 1.031 (Simulation time: 00 hr 04 min 35 sec)
Heartbeat CPU 0 instructions: 53000366 cycles: 17336798 heartbeat IPC: 0.3481 cumulative IPC: 0.777 (Simulation time: 00 hr 04 min 46 sec)
Heartbeat CPU 0 instructions: 53500372 cycles: 18476996 heartbeat IPC: 0.4385 cumulative IPC: 0.6998 (Simulation time: 00 hr 04 min 54 sec)
Heartbeat CPU 0 instructions: 54000376 cycles: 21364266 heartbeat IPC: 0.1732 cumulative IPC: 0.5071 (Simulation time: 00 hr 05 min 14 sec)
Heartbeat CPU 0 instructions: 54500377 cycles: 22376038 heartbeat IPC: 0.4942 cumulative IPC: 0.5056 (Simulation time: 00 hr 05 min 23 sec)
Heartbeat CPU 0 instructions: 55000378 cycles: 24205054 heartbeat IPC: 0.2734 cumulative IPC: 0.466 (Simulation time: 00 hr 05 min 37 sec)
Heartbeat CPU 0 instructions: 55500381 cycles: 24523989 heartbeat IPC: 1.568 cumulative IPC: 0.4978 (Simulation time: 00 hr 05 min 40 sec)
Heartbeat CPU 0 instructions: 56000385 cycles: 25852918 heartbeat IPC: 0.3762 cumulative IPC: 0.4848 (Simulation time: 00 hr 05 min 51 sec)
Heartbeat CPU 0 instructions: 56500387 cycles: 26968773 heartbeat IPC: 0.4481 cumulative IPC: 0.4817 (Simulation time: 00 hr 06 min 00 sec)
Heartbeat CPU 0 instructions: 57000387 cycles: 28120924 heartbeat IPC: 0.434 cumulative IPC: 0.478 (Simulation time: 00 hr 06 min 10 sec)
Heartbeat CPU 0 instructions: 57500393 cycles: 29835440 heartbeat IPC: 0.2916 cumulative IPC: 0.4584 (Simulation time: 00 hr 06 min 23 sec)
Heartbeat CPU 0 instructions: 58000395 cycles: 30432361 heartbeat IPC: 0.8376 cumulative IPC: 0.4718 (Simulation time: 00 hr 06 min 28 sec)
Heartbeat CPU 0 instructions: 58500400 cycles: 31989234 heartbeat IPC: 0.3212 cumulative IPC: 0.4591 (Simulation time: 00 hr 06 min 40 sec)
Heartbeat CPU 0 instructions: 59000400 cycles: 32656667 heartbeat IPC: 0.7491 cumulative IPC: 0.4692 (Simulation time: 00 hr 06 min 46 sec)
Heartbeat CPU 0 instructions: 59500406 cycles: 33485901 heartbeat IPC: 0.603 cumulative IPC: 0.4748 (Simulation time: 00 hr 06 min 53 sec)
Heartbeat CPU 0 instructions: 60000406 cycles: 34849950 heartbeat IPC: 0.3666 cumulative IPC: 0.4679 (Simulation time: 00 hr 07 min 04 sec)
Heartbeat CPU 0 instructions: 60500411 cycles: 35417156 heartbeat IPC: 0.8815 cumulative IPC: 0.4786 (Simulation time: 00 hr 07 min 10 sec)
Heartbeat CPU 0 instructions: 61000411 cycles: 36335502 heartbeat IPC: 0.5445 cumulative IPC: 0.4812 (Simulation time: 00 hr 07 min 18 sec)
Heartbeat CPU 0 instructions: 61500413 cycles: 37270029 heartbeat IPC: 0.535 cumulative IPC: 0.4833 (Simulation time: 00 hr 07 min 25 sec)
Heartbeat CPU 0 instructions: 62000413 cycles: 37585737 heartbeat IPC: 1.584 cumulative IPC: 0.4977 (Simulation time: 00 hr 07 min 29 sec)
Heartbeat CPU 0 instructions: 62500413 cycles: 38038249 heartbeat IPC: 1.105 cumulative IPC: 0.5089 (Simulation time: 00 hr 07 min 33 sec)
Heartbeat CPU 0 instructions: 63000415 cycles: 38759970 heartbeat IPC: 0.6928 cumulative IPC: 0.5142 (Simulation time: 00 hr 07 min 40 sec)
Heartbeat CPU 0 instructions: 63500415 cycles: 39665048 heartbeat IPC: 0.5524 cumulative IPC: 0.5155 (Simulation time: 00 hr 07 min 48 sec)
Heartbeat CPU 0 instructions: 64000415 cycles: 41331988 heartbeat IPC: 0.3 cumulative IPC: 0.5026 (Simulation time: 00 hr 08 min 01 sec)
Heartbeat CPU 0 instructions: 64500417 cycles: 42827473 heartbeat IPC: 0.3343 cumulative IPC: 0.494 (Simulation time: 00 hr 08 min 12 sec)
Heartbeat CPU 0 instructions: 65000418 cycles: 44409080 heartbeat IPC: 0.3161 cumulative IPC: 0.4849 (Simulation time: 00 hr 08 min 24 sec)
Heartbeat CPU 0 instructions: 65500419 cycles: 46108148 heartbeat IPC: 0.2943 cumulative IPC: 0.475 (Simulation time: 00 hr 08 min 37 sec)
Heartbeat CPU 0 instructions: 66000419 cycles: 46821083 heartbeat IPC: 0.7013 cumulative IPC: 0.4798 (Simulation time: 00 hr 08 min 43 sec)
Heartbeat CPU 0 instructions: 66500421 cycles: 47793778 heartbeat IPC: 0.514 cumulative IPC: 0.4808 (Simulation time: 00 hr 08 min 52 sec)
Heartbeat CPU 0 instructions: 67000423 cycles: 49638059 heartbeat IPC: 0.2711 cumulative IPC: 0.4701 (Simulation time: 00 hr 09 min 05 sec)
Heartbeat CPU 0 instructions: 67500426 cycles: 50058896 heartbeat IPC: 1.188 cumulative IPC: 0.4784 (Simulation time: 00 hr 09 min 09 sec)
Heartbeat CPU 0 instructions: 68000433 cycles: 50433370 heartbeat IPC: 1.335 cumulative IPC: 0.487 (Simulation time: 00 hr 09 min 13 sec)
Heartbeat CPU 0 instructions: 68500434 cycles: 50732546 heartbeat IPC: 1.671 cumulative IPC: 0.4966 (Simulation time: 00 hr 09 min 17 sec)
Heartbeat CPU 0 instructions: 69000436 cycles: 51030189 heartbeat IPC: 1.68 cumulative IPC: 0.5059 (Simulation time: 00 hr 09 min 20 sec)
Heartbeat CPU 0 instructions: 69500437 cycles: 51317156 heartbeat IPC: 1.742 cumulative IPC: 0.5153 (Simulation time: 00 hr 09 min 23 sec)
Heartbeat CPU 0 instructions: 70000440 cycles: 52009625 heartbeat IPC: 0.7221 cumulative IPC: 0.519 (Simulation time: 00 hr 09 min 29 sec)
Heartbeat CPU 0 instructions: 70500441 cycles: 53750107 heartbeat IPC: 0.2873 cumulative IPC: 0.509 (Simulation time: 00 hr 09 min 42 sec)
Heartbeat CPU 0 instructions: 71000441 cycles: 55002703 heartbeat IPC: 0.3992 cumulative IPC: 0.5057 (Simulation time: 00 hr 09 min 52 sec)
Heartbeat CPU 0 instructions: 71500448 cycles: 56289458 heartbeat IPC: 0.3886 cumulative IPC: 0.5022 (Simulation time: 00 hr 10 min 02 sec)
Heartbeat CPU 0 instructions: 72000450 cycles: 57380601 heartbeat IPC: 0.4582 cumulative IPC: 0.5011 (Simulation time: 00 hr 10 min 10 sec)
Heartbeat CPU 0 instructions: 72500450 cycles: 58723109 heartbeat IPC: 0.3724 cumulative IPC: 0.4973 (Simulation time: 00 hr 10 min 21 sec)
Heartbeat CPU 0 instructions: 73000450 cycles: 59183895 heartbeat IPC: 1.085 cumulative IPC: 0.5032 (Simulation time: 00 hr 10 min 25 sec)
Heartbeat CPU 0 instructions: 73500450 cycles: 59990812 heartbeat IPC: 0.6196 cumulative IPC: 0.5052 (Simulation time: 00 hr 10 min 32 sec)
Heartbeat CPU 0 instructions: 74000457 cycles: 61284415 heartbeat IPC: 0.3865 cumulative IPC: 0.502 (Simulation time: 00 hr 10 min 42 sec)
Heartbeat CPU 0 instructions: 74500462 cycles: 61812594 heartbeat IPC: 0.9467 cumulative IPC: 0.5069 (Simulation time: 00 hr 10 min 47 sec)
Heartbeat CPU 0 instructions: 75000462 cycles: 62839719 heartbeat IPC: 0.4868 cumulative IPC: 0.5064 (Simulation time: 00 hr 10 min 55 sec)
Heartbeat CPU 0 instructions: 75500463 cycles: 64231252 heartbeat IPC: 0.3593 cumulative IPC: 0.5024 (Simulation time: 00 hr 11 min 06 sec)
Heartbeat CPU 0 instructions: 76000470 cycles: 65508710 heartbeat IPC: 0.3914 cumulative IPC: 0.4997 (Simulation time: 00 hr 11 min 16 sec)
Heartbeat CPU 0 instructions: 76500471 cycles: 66699388 heartbeat IPC: 0.4199 cumulative IPC: 0.4979 (Simulation time: 00 hr 11 min 25 sec)
Heartbeat CPU 0 instructions: 77000471 cycles: 67969598 heartbeat IPC: 0.3936 cumulative IPC: 0.4955 (Simulation time: 00 hr 11 min 35 sec)
Heartbeat CPU 0 instructions: 77500475 cycles: 69612155 heartbeat IPC: 0.3044 cumulative IPC: 0.4899 (Simulation time: 00 hr 11 min 47 sec)
Heartbeat CPU 0 instructions: 78000479 cycles: 70561084 heartbeat IPC: 0.5269 cumulative IPC: 0.4905 (Simulation time: 00 hr 11 min 54 sec)
Heartbeat CPU 0 instructions: 78500482 cycles: 72241308 heartbeat IPC: 0.2976 cumulative IPC: 0.485 (Simulation time: 00 hr 12 min 08 sec)
Heartbeat CPU 0 instructions: 79000484 cycles: 73689673 heartbeat IPC: 0.3452 cumulative IPC: 0.4816 (Simulation time: 00 hr 12 min 19 sec)
Heartbeat CPU 0 instructions: 79500486 cycles: 74507738 heartbeat IPC: 0.6112 cumulative IPC: 0.4834 (Simulation time: 00 hr 12 min 26 sec)
Heartbeat CPU 0 instructions: 80000490 cycles: 75006241 heartbeat IPC: 1.003 cumulative IPC: 0.4876 (Simulation time: 00 hr 12 min 31 sec)
Heartbeat CPU 0 instructions: 80500490 cycles: 75990302 heartbeat IPC: 0.5081 cumulative IPC: 0.4879 (Simulation time: 00 hr 12 min 39 sec)
Heartbeat CPU 0 instructions: 81000490 cycles: 76405330 heartbeat IPC: 1.205 cumulative IPC: 0.4926 (Simulation time: 00 hr 12 min 43 sec)
Heartbeat CPU 0 instructions: 81500494 cycles: 77101754 heartbeat IPC: 0.718 cumulative IPC: 0.4951 (Simulation time: 00 hr 12 min 50 sec)
Heartbeat CPU 0 instructions: 82000496 cycles: 77382253 heartbeat IPC: 1.783 cumulative IPC: 0.5007 (Simulation time: 00 hr 12 min 53 sec)
Heartbeat CPU 0 instructions: 82500497 cycles: 77601105 heartbeat IPC: 2.285 cumulative IPC: 0.5068 (Simulation time: 00 hr 12 min 56 sec)
Heartbeat CPU 0 instructions: 83000500 cycles: 77859825 heartbeat IPC: 1.933 cumulative IPC: 0.5126 (Simulation time: 00 hr 13 min 00 sec)
Heartbeat CPU 0 instructions: 83500502 cycles: 79254827 heartbeat IPC: 0.3584 cumulative IPC: 0.5093 (Simulation time: 00 hr 13 min 11 sec)
Heartbeat CPU 0 instructions: 84000502 cycles: 80547423 heartbeat IPC: 0.3868 cumulative IPC: 0.5069 (Simulation time: 00 hr 13 min 22 sec)
Heartbeat CPU 0 instructions: 84500506 cycles: 82828748 heartbeat IPC: 0.2192 cumulative IPC: 0.4975 (Simulation time: 00 hr 13 min 39 sec)
Heartbeat CPU 0 instructions: 85000506 cycles: 84258961 heartbeat IPC: 0.3496 cumulative IPC: 0.4945 (Simulation time: 00 hr 13 min 50 sec)
Heartbeat CPU 0 instructions: 85500506 cycles: 85433682 heartbeat IPC: 0.4256 cumulative IPC: 0.4933 (Simulation time: 00 hr 13 min 59 sec)
Heartbeat CPU 0 instructions: 86000509 cycles: 86615374 heartbeat IPC: 0.4231 cumulative IPC: 0.4922 (Simulation time: 00 hr 14 min 07 sec)
Heartbeat CPU 0 instructions: 86500513 cycles: 87869412 heartbeat IPC: 0.3987 cumulative IPC: 0.4906 (Simulation time: 00 hr 14 min 16 sec)
Heartbeat CPU 0 instructions: 87000516 cycles: 89912588 heartbeat IPC: 0.2447 cumulative IPC: 0.4841 (Simulation time: 00 hr 14 min 31 sec)
Heartbeat CPU 0 instructions: 87500517 cycles: 90288262 heartbeat IPC: 1.331 cumulative IPC: 0.4882 (Simulation time: 00 hr 14 min 34 sec)
Heartbeat CPU 0 instructions: 88000522 cycles: 90584599 heartbeat IPC: 1.687 cumulative IPC: 0.4928 (Simulation time: 00 hr 14 min 37 sec)
Heartbeat CPU 0 instructions: 88500527 cycles: 91321391 heartbeat IPC: 0.6786 cumulative IPC: 0.4946 (Simulation time: 00 hr 14 min 44 sec)
Heartbeat CPU 0 instructions: 89000530 cycles: 92683270 heartbeat IPC: 0.3671 cumulative IPC: 0.4924 (Simulation time: 00 hr 14 min 54 sec)
Heartbeat CPU 0 instructions: 89500531 cycles: 92928598 heartbeat IPC: 2.038 cumulative IPC: 0.4972 (Simulation time: 00 hr 14 min 57 sec)
Heartbeat CPU 0 instructions: 90000531 cycles: 93660475 heartbeat IPC: 0.6832 cumulative IPC: 0.4989 (Simulation time: 00 hr 15 min 03 sec)
Heartbeat CPU 0 instructions: 90500531 cycles: 94275730 heartbeat IPC: 0.8127 cumulative IPC: 0.5012 (Simulation time: 00 hr 15 min 08 sec)
Heartbeat CPU 0 instructions: 91000531 cycles: 96263762 heartbeat IPC: 0.2515 cumulative IPC: 0.4952 (Simulation time: 00 hr 15 min 22 sec)
Heartbeat CPU 0 instructions: 91500533 cycles: 97384969 heartbeat IPC: 0.4459 cumulative IPC: 0.4946 (Simulation time: 00 hr 15 min 31 sec)
Heartbeat CPU 0 instructions: 92000533 cycles: 98952595 heartbeat IPC: 0.319 cumulative IPC: 0.4914 (Simulation time: 00 hr 15 min 41 sec)
Heartbeat CPU 0 instructions: 92500534 cycles: 100324741 heartbeat IPC: 0.3644 cumulative IPC: 0.4894 (Simulation time: 00 hr 15 min 52 sec)
Heartbeat CPU 0 instructions: 93000535 cycles: 101518055 heartbeat IPC: 0.419 cumulative IPC: 0.4884 (Simulation time: 00 hr 16 min 01 sec)
Heartbeat CPU 0 instructions: 93500538 cycles: 101866773 heartbeat IPC: 1.434 cumulative IPC: 0.4921 (Simulation time: 00 hr 16 min 05 sec)
Heartbeat CPU 0 instructions: 94000538 cycles: 102185423 heartbeat IPC: 1.569 cumulative IPC: 0.496 (Simulation time: 00 hr 16 min 08 sec)
Heartbeat CPU 0 instructions: 94500541 cycles: 102465825 heartbeat IPC: 1.783 cumulative IPC: 0.5001 (Simulation time: 00 hr 16 min 11 sec)
Heartbeat CPU 0 instructions: 95000547 cycles: 102740855 heartbeat IPC: 1.818 cumulative IPC: 0.5041 (Simulation time: 00 hr 16 min 15 sec)
Heartbeat CPU 0 instructions: 95500551 cycles: 103174961 heartbeat IPC: 1.152 cumulative IPC: 0.5073 (Simulation time: 00 hr 16 min 19 sec)
Heartbeat CPU 0 instructions: 96000551 cycles: 104918020 heartbeat IPC: 0.2869 cumulative IPC: 0.5031 (Simulation time: 00 hr 16 min 32 sec)
Heartbeat CPU 0 instructions: 96500553 cycles: 106870781 heartbeat IPC: 0.256 cumulative IPC: 0.4979 (Simulation time: 00 hr 16 min 46 sec)
Heartbeat CPU 0 instructions: 97000555 cycles: 108084771 heartbeat IPC: 0.4119 cumulative IPC: 0.4968 (Simulation time: 00 hr 16 min 56 sec)
Heartbeat CPU 0 instructions: 97500559 cycles: 109302175 heartbeat IPC: 0.4107 cumulative IPC: 0.4957 (Simulation time: 00 hr 17 min 05 sec)
Heartbeat CPU 0 instructions: 98000559 cycles: 110723396 heartbeat IPC: 0.3518 cumulative IPC: 0.4936 (Simulation time: 00 hr 17 min 15 sec)
Heartbeat CPU 0 instructions: 98500559 cycles: 111702169 heartbeat IPC: 0.5108 cumulative IPC: 0.4938 (Simulation time: 00 hr 17 min 23 sec)
Heartbeat CPU 0 instructions: 99000565 cycles: 112236070 heartbeat IPC: 0.9365 cumulative IPC: 0.4962 (Simulation time: 00 hr 17 min 28 sec)
Heartbeat CPU 0 instructions: 99500566 cycles: 113129785 heartbeat IPC: 0.5595 cumulative IPC: 0.4967 (Simulation time: 00 hr 17 min 36 sec)
Heartbeat CPU 0 instructions: 100000570 cycles: 114194515 heartbeat IPC: 0.4696 cumulative IPC: 0.4964 (Simulation time: 00 hr 17 min 44 sec)
Heartbeat CPU 0 instructions: 100500571 cycles: 116289011 heartbeat IPC: 0.2387 cumulative IPC: 0.4912 (Simulation time: 00 hr 17 min 58 sec)
Heartbeat CPU 0 instructions: 101000574 cycles: 117358351 heartbeat IPC: 0.4676 cumulative IPC: 0.4909 (Simulation time: 00 hr 18 min 05 sec)
Heartbeat CPU 0 instructions: 101500577 cycles: 118245010 heartbeat IPC: 0.5639 cumulative IPC: 0.4916 (Simulation time: 00 hr 18 min 12 sec)
Heartbeat CPU 0 instructions: 102000577 cycles: 119016109 heartbeat IPC: 0.6484 cumulative IPC: 0.4927 (Simulation time: 00 hr 18 min 18 sec)
Heartbeat CPU 0 instructions: 102500584 cycles: 119611506 heartbeat IPC: 0.8398 cumulative IPC: 0.4947 (Simulation time: 00 hr 18 min 23 sec)
Heartbeat CPU 0 instructions: 103000588 cycles: 121039865 heartbeat IPC: 0.3501 cumulative IPC: 0.4927 (Simulation time: 00 hr 18 min 33 sec)
Heartbeat CPU 0 instructions: 103500594 cycles: 121939491 heartbeat IPC: 0.5558 cumulative IPC: 0.4933 (Simulation time: 00 hr 18 min 41 sec)
Heartbeat CPU 0 instructions: 104000594 cycles: 123312125 heartbeat IPC: 0.3643 cumulative IPC: 0.4916 (Simulation time: 00 hr 18 min 51 sec)
Heartbeat CPU 0 instructions: 104500595 cycles: 123834909 heartbeat IPC: 0.9564 cumulative IPC: 0.4938 (Simulation time: 00 hr 18 min 55 sec)
Heartbeat CPU 0 instructions: 105000597 cycles: 125880596 heartbeat IPC: 0.2444 cumulative IPC: 0.4893 (Simulation time: 00 hr 19 min 08 sec)
Heartbeat CPU 0 instructions: 105500601 cycles: 127111619 heartbeat IPC: 0.4062 cumulative IPC: 0.4884 (Simulation time: 00 hr 19 min 18 sec)
Heartbeat CPU 0 instructions: 106000601 cycles: 127921969 heartbeat IPC: 0.617 cumulative IPC: 0.4893 (Simulation time: 00 hr 19 min 25 sec)
Heartbeat CPU 0 instructions: 106500601 cycles: 128983130 heartbeat IPC: 0.4712 cumulative IPC: 0.4891 (Simulation time: 00 hr 19 min 34 sec)
Heartbeat CPU 0 instructions: 107000604 cycles: 129530409 heartbeat IPC: 0.9136 cumulative IPC: 0.4912 (Simulation time: 00 hr 19 min 38 sec)
Heartbeat CPU 0 instructions: 107500606 cycles: 130004915 heartbeat IPC: 1.054 cumulative IPC: 0.4934 (Simulation time: 00 hr 19 min 43 sec)
Heartbeat CPU 0 instructions: 108000608 cycles: 131246210 heartbeat IPC: 0.4028 cumulative IPC: 0.4925 (Simulation time: 00 hr 19 min 52 sec)
Heartbeat CPU 0 instructions: 108500609 cycles: 132554957 heartbeat IPC: 0.382 cumulative IPC: 0.4913 (Simulation time: 00 hr 20 min 01 sec)
Heartbeat CPU 0 instructions: 109000610 cycles: 133161553 heartbeat IPC: 0.8243 cumulative IPC: 0.493 (Simulation time: 00 hr 20 min 06 sec)
Heartbeat CPU 0 instructions: 109500615 cycles: 133380859 heartbeat IPC: 2.28 cumulative IPC: 0.4962 (Simulation time: 00 hr 20 min 08 sec)
Heartbeat CPU 0 instructions: 110000621 cycles: 134269316 heartbeat IPC: 0.5628 cumulative IPC: 0.4967 (Simulation time: 00 hr 20 min 15 sec)
Heartbeat CPU 0 instructions: 110500625 cycles: 134766797 heartbeat IPC: 1.005 cumulative IPC: 0.4988 (Simulation time: 00 hr 20 min 20 sec)
Heartbeat CPU 0 instructions: 111000631 cycles: 135275453 heartbeat IPC: 0.983 cumulative IPC: 0.5008 (Simulation time: 00 hr 20 min 24 sec)
Heartbeat CPU 0 instructions: 111500631 cycles: 135779192 heartbeat IPC: 0.9926 cumulative IPC: 0.5029 (Simulation time: 00 hr 20 min 28 sec)
Heartbeat CPU 0 instructions: 112000633 cycles: 136287984 heartbeat IPC: 0.9827 cumulative IPC: 0.5048 (Simulation time: 00 hr 20 min 33 sec)
Heartbeat CPU 0 instructions: 112500638 cycles: 137003866 heartbeat IPC: 0.6984 cumulative IPC: 0.506 (Simulation time: 00 hr 20 min 39 sec)
Heartbeat CPU 0 instructions: 113000640 cycles: 137199035 heartbeat IPC: 2.562 cumulative IPC: 0.5092 (Simulation time: 00 hr 20 min 41 sec)
Heartbeat CPU 0 instructions: 113500641 cycles: 137552051 heartbeat IPC: 1.416 cumulative IPC: 0.5118 (Simulation time: 00 hr 20 min 44 sec)
Heartbeat CPU 0 instructions: 114000641 cycles: 139000650 heartbeat IPC: 0.3452 cumulative IPC: 0.5099 (Simulation time: 00 hr 20 min 55 sec)
Heartbeat CPU 0 instructions: 114500642 cycles: 139571672 heartbeat IPC: 0.8756 cumulative IPC: 0.5115 (Simulation time: 00 hr 21 min 00 sec)
Heartbeat CPU 0 instructions: 115000643 cycles: 140037209 heartbeat IPC: 1.074 cumulative IPC: 0.5136 (Simulation time: 00 hr 21 min 04 sec)
Heartbeat CPU 0 instructions: 115500643 cycles: 140482875 heartbeat IPC: 1.122 cumulative IPC: 0.5157 (Simulation time: 00 hr 21 min 08 sec)
Heartbeat CPU 0 instructions: 116000646 cycles: 141572269 heartbeat IPC: 0.459 cumulative IPC: 0.5152 (Simulation time: 00 hr 21 min 16 sec)
Heartbeat CPU 0 instructions: 116500646 cycles: 142970456 heartbeat IPC: 0.3576 cumulative IPC: 0.5135 (Simulation time: 00 hr 21 min 26 sec)
Heartbeat CPU 0 instructions: 117000646 cycles: 144637808 heartbeat IPC: 0.2999 cumulative IPC: 0.5108 (Simulation time: 00 hr 21 min 37 sec)
Heartbeat CPU 0 instructions: 117500646 cycles: 145298979 heartbeat IPC: 0.7562 cumulative IPC: 0.5121 (Simulation time: 00 hr 21 min 43 sec)
Heartbeat CPU 0 instructions: 118000650 cycles: 146374708 heartbeat IPC: 0.4648 cumulative IPC: 0.5117 (Simulation time: 00 hr 21 min 51 sec)
Heartbeat CPU 0 instructions: 118500651 cycles: 147663798 heartbeat IPC: 0.3879 cumulative IPC: 0.5105 (Simulation time: 00 hr 22 min 00 sec)
Heartbeat CPU 0 instructions: 119000656 cycles: 148751015 heartbeat IPC: 0.4599 cumulative IPC: 0.5101 (Simulation time: 00 hr 22 min 08 sec)
Heartbeat CPU 0 instructions: 119500660 cycles: 150159947 heartbeat IPC: 0.3549 cumulative IPC: 0.5085 (Simulation time: 00 hr 22 min 18 sec)
Heartbeat CPU 0 instructions: 120000663 cycles: 151456914 heartbeat IPC: 0.3855 cumulative IPC: 0.5073 (Simulation time: 00 hr 22 min 28 sec)
Heartbeat CPU 0 instructions: 120500666 cycles: 152833056 heartbeat IPC: 0.3633 cumulative IPC: 0.5059 (Simulation time: 00 hr 22 min 38 sec)
Heartbeat CPU 0 instructions: 121000670 cycles: 154077091 heartbeat IPC: 0.4019 cumulative IPC: 0.505 (Simulation time: 00 hr 22 min 47 sec)
Heartbeat CPU 0 instructions: 121500670 cycles: 154864709 heartbeat IPC: 0.6348 cumulative IPC: 0.5057 (Simulation time: 00 hr 22 min 54 sec)
Heartbeat CPU 0 instructions: 122000674 cycles: 156527772 heartbeat IPC: 0.3007 cumulative IPC: 0.5033 (Simulation time: 00 hr 23 min 05 sec)
Heartbeat CPU 0 instructions: 122500675 cycles: 156931874 heartbeat IPC: 1.237 cumulative IPC: 0.5054 (Simulation time: 00 hr 23 min 09 sec)
Heartbeat CPU 0 instructions: 123000675 cycles: 157419453 heartbeat IPC: 1.025 cumulative IPC: 0.5071 (Simulation time: 00 hr 23 min 13 sec)
Heartbeat CPU 0 instructions: 123500675 cycles: 157777371 heartbeat IPC: 1.397 cumulative IPC: 0.5094 (Simulation time: 00 hr 23 min 17 sec)
Heartbeat CPU 0 instructions: 124000678 cycles: 158888630 heartbeat IPC: 0.4499 cumulative IPC: 0.5089 (Simulation time: 00 hr 23 min 25 sec)
Heartbeat CPU 0 instructions: 124500683 cycles: 159914312 heartbeat IPC: 0.4875 cumulative IPC: 0.5087 (Simulation time: 00 hr 23 min 33 sec)
Heartbeat CPU 0 instructions: 125000685 cycles: 160994056 heartbeat IPC: 0.4631 cumulative IPC: 0.5084 (Simulation time: 00 hr 23 min 40 sec)
Heartbeat CPU 0 instructions: 125500687 cycles: 162384948 heartbeat IPC: 0.3595 cumulative IPC: 0.507 (Simulation time: 00 hr 23 min 50 sec)
Heartbeat CPU 0 instructions: 126000688 cycles: 163430110 heartbeat IPC: 0.4784 cumulative IPC: 0.5068 (Simulation time: 00 hr 23 min 57 sec)
Heartbeat CPU 0 instructions: 126500691 cycles: 164170399 heartbeat IPC: 0.6754 cumulative IPC: 0.5077 (Simulation time: 00 hr 24 min 04 sec)
Heartbeat CPU 0 instructions: 127000692 cycles: 165377021 heartbeat IPC: 0.4144 cumulative IPC: 0.5069 (Simulation time: 00 hr 24 min 12 sec)
Heartbeat CPU 0 instructions: 127500692 cycles: 166199453 heartbeat IPC: 0.608 cumulative IPC: 0.5075 (Simulation time: 00 hr 24 min 18 sec)
Heartbeat CPU 0 instructions: 128000693 cycles: 166531412 heartbeat IPC: 1.506 cumulative IPC: 0.5096 (Simulation time: 00 hr 24 min 20 sec)
Heartbeat CPU 0 instructions: 128500695 cycles: 166887914 heartbeat IPC: 1.403 cumulative IPC: 0.5117 (Simulation time: 00 hr 24 min 24 sec)
Heartbeat CPU 0 instructions: 129000698 cycles: 167270422 heartbeat IPC: 1.307 cumulative IPC: 0.5137 (Simulation time: 00 hr 24 min 27 sec)
Heartbeat CPU 0 instructions: 129500699 cycles: 167625654 heartbeat IPC: 1.408 cumulative IPC: 0.5157 (Simulation time: 00 hr 24 min 29 sec)
Heartbeat CPU 0 instructions: 130000699 cycles: 168008601 heartbeat IPC: 1.306 cumulative IPC: 0.5177 (Simulation time: 00 hr 24 min 32 sec)
Heartbeat CPU 0 instructions: 130500700 cycles: 169106012 heartbeat IPC: 0.4556 cumulative IPC: 0.5173 (Simulation time: 00 hr 24 min 40 sec)
Heartbeat CPU 0 instructions: 131000701 cycles: 169866645 heartbeat IPC: 0.6573 cumulative IPC: 0.5179 (Simulation time: 00 hr 24 min 46 sec)
Heartbeat CPU 0 instructions: 131500702 cycles: 171046077 heartbeat IPC: 0.4239 cumulative IPC: 0.5172 (Simulation time: 00 hr 24 min 54 sec)
Heartbeat CPU 0 instructions: 132000705 cycles: 171526429 heartbeat IPC: 1.041 cumulative IPC: 0.5188 (Simulation time: 00 hr 24 min 59 sec)
Heartbeat CPU 0 instructions: 132500710 cycles: 171991478 heartbeat IPC: 1.075 cumulative IPC: 0.5205 (Simulation time: 00 hr 25 min 03 sec)
Heartbeat CPU 0 instructions: 133000710 cycles: 172372042 heartbeat IPC: 1.314 cumulative IPC: 0.5224 (Simulation time: 00 hr 25 min 06 sec)
Heartbeat CPU 0 instructions: 133500711 cycles: 172664001 heartbeat IPC: 1.713 cumulative IPC: 0.5245 (Simulation time: 00 hr 25 min 09 sec)
Heartbeat CPU 0 instructions: 134000711 cycles: 172899645 heartbeat IPC: 2.122 cumulative IPC: 0.5269 (Simulation time: 00 hr 25 min 11 sec)
Heartbeat CPU 0 instructions: 134500711 cycles: 173062764 heartbeat IPC: 3.065 cumulative IPC: 0.5295 (Simulation time: 00 hr 25 min 13 sec)
Heartbeat CPU 0 instructions: 135000711 cycles: 173224383 heartbeat IPC: 3.094 cumulative IPC: 0.5321 (Simulation time: 00 hr 25 min 16 sec)
Heartbeat CPU 0 instructions: 135500712 cycles: 173620108 heartbeat IPC: 1.264 cumulative IPC: 0.5339 (Simulation time: 00 hr 25 min 19 sec)
Heartbeat CPU 0 instructions: 136000714 cycles: 174046872 heartbeat IPC: 1.172 cumulative IPC: 0.5356 (Simulation time: 00 hr 25 min 23 sec)
Heartbeat CPU 0 instructions: 136500716 cycles: 174471855 heartbeat IPC: 1.177 cumulative IPC: 0.5373 (Simulation time: 00 hr 25 min 27 sec)
Heartbeat CPU 0 instructions: 137000716 cycles: 174799920 heartbeat IPC: 1.524 cumulative IPC: 0.5393 (Simulation time: 00 hr 25 min 30 sec)
Heartbeat CPU 0 instructions: 137500718 cycles: 175208474 heartbeat IPC: 1.224 cumulative IPC: 0.541 (Simulation time: 00 hr 25 min 34 sec)
Heartbeat CPU 0 instructions: 138000720 cycles: 175563820 heartbeat IPC: 1.407 cumulative IPC: 0.5429 (Simulation time: 00 hr 25 min 37 sec)
Heartbeat CPU 0 instructions: 138500720 cycles: 177490692 heartbeat IPC: 0.2595 cumulative IPC: 0.5396 (Simulation time: 00 hr 25 min 50 sec)
Heartbeat CPU 0 instructions: 139000723 cycles: 179417632 heartbeat IPC: 0.2595 cumulative IPC: 0.5363 (Simulation time: 00 hr 26 min 03 sec)
Heartbeat CPU 0 instructions: 139500724 cycles: 180849403 heartbeat IPC: 0.3492 cumulative IPC: 0.5347 (Simulation time: 00 hr 26 min 12 sec)
Heartbeat CPU 0 instructions: 140000724 cycles: 182082680 heartbeat IPC: 0.4054 cumulative IPC: 0.5338 (Simulation time: 00 hr 26 min 21 sec)
Heartbeat CPU 0 instructions: 140500727 cycles: 182891547 heartbeat IPC: 0.6182 cumulative IPC: 0.5342 (Simulation time: 00 hr 26 min 27 sec)
Heartbeat CPU 0 instructions: 141000729 cycles: 184251601 heartbeat IPC: 0.3676 cumulative IPC: 0.5329 (Simulation time: 00 hr 26 min 36 sec)
Heartbeat CPU 0 instructions: 141500732 cycles: 185239889 heartbeat IPC: 0.5059 cumulative IPC: 0.5327 (Simulation time: 00 hr 26 min 43 sec)
Heartbeat CPU 0 instructions: 142000733 cycles: 187466712 heartbeat IPC: 0.2245 cumulative IPC: 0.5288 (Simulation time: 00 hr 26 min 57 sec)
Heartbeat CPU 0 instructions: 142500733 cycles: 189667888 heartbeat IPC: 0.2272 cumulative IPC: 0.525 (Simulation time: 00 hr 27 min 11 sec)
Heartbeat CPU 0 instructions: 143000733 cycles: 190118933 heartbeat IPC: 1.109 cumulative IPC: 0.5265 (Simulation time: 00 hr 27 min 15 sec)
Heartbeat CPU 0 instructions: 143500739 cycles: 190439160 heartbeat IPC: 1.561 cumulative IPC: 0.5284 (Simulation time: 00 hr 27 min 17 sec)
Heartbeat CPU 0 instructions: 144000740 cycles: 190818037 heartbeat IPC: 1.32 cumulative IPC: 0.5301 (Simulation time: 00 hr 27 min 21 sec)
Heartbeat CPU 0 instructions: 144500743 cycles: 191159405 heartbeat IPC: 1.465 cumulative IPC: 0.5318 (Simulation time: 00 hr 27 min 24 sec)
Heartbeat CPU 0 instructions: 145000744 cycles: 191811577 heartbeat IPC: 0.7667 cumulative IPC: 0.5327 (Simulation time: 00 hr 27 min 28 sec)
Heartbeat CPU 0 instructions: 145500746 cycles: 192180359 heartbeat IPC: 1.356 cumulative IPC: 0.5344 (Simulation time: 00 hr 27 min 31 sec)
Heartbeat CPU 0 instructions: 146000747 cycles: 192591070 heartbeat IPC: 1.217 cumulative IPC: 0.536 (Simulation time: 00 hr 27 min 34 sec)
Heartbeat CPU 0 instructions: 146500748 cycles: 194055510 heartbeat IPC: 0.3414 cumulative IPC: 0.5344 (Simulation time: 00 hr 27 min 43 sec)
Heartbeat CPU 0 instructions: 147000748 cycles: 194471211 heartbeat IPC: 1.203 cumulative IPC: 0.5359 (Simulation time: 00 hr 27 min 47 sec)
Heartbeat CPU 0 instructions: 147500750 cycles: 195435713 heartbeat IPC: 0.5184 cumulative IPC: 0.5358 (Simulation time: 00 hr 27 min 54 sec)
Heartbeat CPU 0 instructions: 148000751 cycles: 196793569 heartbeat IPC: 0.3682 cumulative IPC: 0.5346 (Simulation time: 00 hr 28 min 03 sec)
Heartbeat CPU 0 instructions: 148500756 cycles: 197806864 heartbeat IPC: 0.4934 cumulative IPC: 0.5344 (Simulation time: 00 hr 28 min 10 sec)
Heartbeat CPU 0 instructions: 149000756 cycles: 199303510 heartbeat IPC: 0.3341 cumulative IPC: 0.5328 (Simulation time: 00 hr 28 min 19 sec)
Heartbeat CPU 0 instructions: 149500756 cycles: 200689270 heartbeat IPC: 0.3608 cumulative IPC: 0.5315 (Simulation time: 00 hr 28 min 28 sec)
Heartbeat CPU 0 instructions: 150000758 cycles: 201559148 heartbeat IPC: 0.5748 cumulative IPC: 0.5317 (Simulation time: 00 hr 28 min 34 sec)
Heartbeat CPU 0 instructions: 150500759 cycles: 202227152 heartbeat IPC: 0.7485 cumulative IPC: 0.5324 (Simulation time: 00 hr 28 min 39 sec)
Heartbeat CPU 0 instructions: 151000765 cycles: 203394218 heartbeat IPC: 0.4284 cumulative IPC: 0.5318 (Simulation time: 00 hr 28 min 47 sec)
Heartbeat CPU 0 instructions: 151500768 cycles: 205590343 heartbeat IPC: 0.2277 cumulative IPC: 0.5283 (Simulation time: 00 hr 29 min 01 sec)
Heartbeat CPU 0 instructions: 152000773 cycles: 206509340 heartbeat IPC: 0.5441 cumulative IPC: 0.5284 (Simulation time: 00 hr 29 min 08 sec)
Heartbeat CPU 0 instructions: 152500777 cycles: 207364510 heartbeat IPC: 0.5847 cumulative IPC: 0.5287 (Simulation time: 00 hr 29 min 14 sec)
Heartbeat CPU 0 instructions: 153000778 cycles: 208716924 heartbeat IPC: 0.3697 cumulative IPC: 0.5276 (Simulation time: 00 hr 29 min 23 sec)
Heartbeat CPU 0 instructions: 153500783 cycles: 209731008 heartbeat IPC: 0.4931 cumulative IPC: 0.5274 (Simulation time: 00 hr 29 min 30 sec)
Heartbeat CPU 0 instructions: 154000784 cycles: 210905235 heartbeat IPC: 0.4258 cumulative IPC: 0.5268 (Simulation time: 00 hr 29 min 38 sec)
Heartbeat CPU 0 instructions: 154500786 cycles: 211801798 heartbeat IPC: 0.5577 cumulative IPC: 0.5269 (Simulation time: 00 hr 29 min 45 sec)
Heartbeat CPU 0 instructions: 155000786 cycles: 212482074 heartbeat IPC: 0.735 cumulative IPC: 0.5276 (Simulation time: 00 hr 29 min 50 sec)
Heartbeat CPU 0 instructions: 155500790 cycles: 213218597 heartbeat IPC: 0.6789 cumulative IPC: 0.5282 (Simulation time: 00 hr 29 min 55 sec)
Heartbeat CPU 0 instructions: 156000790 cycles: 213576210 heartbeat IPC: 1.398 cumulative IPC: 0.5297 (Simulation time: 00 hr 29 min 58 sec)
Heartbeat CPU 0 instructions: 156500792 cycles: 214227625 heartbeat IPC: 0.7676 cumulative IPC: 0.5305 (Simulation time: 00 hr 30 min 03 sec)
Heartbeat CPU 0 instructions: 157000792 cycles: 214515047 heartbeat IPC: 1.74 cumulative IPC: 0.5322 (Simulation time: 00 hr 30 min 06 sec)
Heartbeat CPU 0 instructions: 157500794 cycles: 215555045 heartbeat IPC: 0.4808 cumulative IPC: 0.532 (Simulation time: 00 hr 30 min 13 sec)
Heartbeat CPU 0 instructions: 158000795 cycles: 217058931 heartbeat IPC: 0.3325 cumulative IPC: 0.5305 (Simulation time: 00 hr 30 min 23 sec)
Heartbeat CPU 0 instructions: 158500795 cycles: 218164738 heartbeat IPC: 0.4522 cumulative IPC: 0.5301 (Simulation time: 00 hr 30 min 30 sec)
Heartbeat CPU 0 instructions: 159000799 cycles: 219563875 heartbeat IPC: 0.3574 cumulative IPC: 0.5289 (Simulation time: 00 hr 30 min 39 sec)
Heartbeat CPU 0 instructions: 159500802 cycles: 220165211 heartbeat IPC: 0.8315 cumulative IPC: 0.5298 (Simulation time: 00 hr 30 min 44 sec)
Heartbeat CPU 0 instructions: 160000803 cycles: 220598804 heartbeat IPC: 1.153 cumulative IPC: 0.5311 (Simulation time: 00 hr 30 min 48 sec)
Heartbeat CPU 0 instructions: 160500805 cycles: 221058906 heartbeat IPC: 1.087 cumulative IPC: 0.5323 (Simulation time: 00 hr 30 min 52 sec)
Heartbeat CPU 0 instructions: 161000808 cycles: 221461821 heartbeat IPC: 1.241 cumulative IPC: 0.5337 (Simulation time: 00 hr 30 min 55 sec)
Heartbeat CPU 0 instructions: 161500810 cycles: 221986282 heartbeat IPC: 0.9534 cumulative IPC: 0.5347 (Simulation time: 00 hr 31 min 00 sec)
Heartbeat CPU 0 instructions: 162000814 cycles: 222401311 heartbeat IPC: 1.205 cumulative IPC: 0.5361 (Simulation time: 00 hr 31 min 03 sec)
Heartbeat CPU 0 instructions: 162500821 cycles: 222843804 heartbeat IPC: 1.13 cumulative IPC: 0.5373 (Simulation time: 00 hr 31 min 07 sec)
Heartbeat CPU 0 instructions: 163000824 cycles: 223272868 heartbeat IPC: 1.165 cumulative IPC: 0.5386 (Simulation time: 00 hr 31 min 10 sec)
Heartbeat CPU 0 instructions: 163500828 cycles: 224051386 heartbeat IPC: 0.6423 cumulative IPC: 0.539 (Simulation time: 00 hr 31 min 16 sec)
Heartbeat CPU 0 instructions: 164000833 cycles: 226795129 heartbeat IPC: 0.1822 cumulative IPC: 0.5344 (Simulation time: 00 hr 31 min 33 sec)
Heartbeat CPU 0 instructions: 164500838 cycles: 228293341 heartbeat IPC: 0.3337 cumulative IPC: 0.533 (Simulation time: 00 hr 31 min 43 sec)
Heartbeat CPU 0 instructions: 165000845 cycles: 229811765 heartbeat IPC: 0.3293 cumulative IPC: 0.5316 (Simulation time: 00 hr 31 min 52 sec)
Heartbeat CPU 0 instructions: 165500845 cycles: 231215667 heartbeat IPC: 0.3562 cumulative IPC: 0.5305 (Simulation time: 00 hr 32 min 00 sec)
Heartbeat CPU 0 instructions: 166000845 cycles: 233021400 heartbeat IPC: 0.2769 cumulative IPC: 0.5284 (Simulation time: 00 hr 32 min 12 sec)
Heartbeat CPU 0 instructions: 166500850 cycles: 234215540 heartbeat IPC: 0.4187 cumulative IPC: 0.5278 (Simulation time: 00 hr 32 min 19 sec)
Heartbeat CPU 0 instructions: 167000855 cycles: 236619368 heartbeat IPC: 0.208 cumulative IPC: 0.5243 (Simulation time: 00 hr 32 min 34 sec)
Heartbeat CPU 0 instructions: 167500856 cycles: 237648485 heartbeat IPC: 0.4859 cumulative IPC: 0.5242 (Simulation time: 00 hr 32 min 40 sec)
Heartbeat CPU 0 instructions: 168000859 cycles: 238608615 heartbeat IPC: 0.5208 cumulative IPC: 0.5241 (Simulation time: 00 hr 32 min 47 sec)
Heartbeat CPU 0 instructions: 168500861 cycles: 239347155 heartbeat IPC: 0.677 cumulative IPC: 0.5246 (Simulation time: 00 hr 32 min 52 sec)
Heartbeat CPU 0 instructions: 169000865 cycles: 240860926 heartbeat IPC: 0.3303 cumulative IPC: 0.5233 (Simulation time: 00 hr 33 min 01 sec)
Heartbeat CPU 0 instructions: 169500866 cycles: 242160704 heartbeat IPC: 0.3847 cumulative IPC: 0.5226 (Simulation time: 00 hr 33 min 10 sec)
Heartbeat CPU 0 instructions: 170000870 cycles: 242923607 heartbeat IPC: 0.6554 cumulative IPC: 0.523 (Simulation time: 00 hr 33 min 15 sec)
Heartbeat CPU 0 instructions: 170500870 cycles: 243235567 heartbeat IPC: 1.603 cumulative IPC: 0.5245 (Simulation time: 00 hr 33 min 18 sec)
Heartbeat CPU 0 instructions: 171000875 cycles: 243920361 heartbeat IPC: 0.7302 cumulative IPC: 0.5251 (Simulation time: 00 hr 33 min 22 sec)
Heartbeat CPU 0 instructions: 171500878 cycles: 244798563 heartbeat IPC: 0.5693 cumulative IPC: 0.5252 (Simulation time: 00 hr 33 min 28 sec)
Heartbeat CPU 0 instructions: 172000878 cycles: 245615467 heartbeat IPC: 0.6121 cumulative IPC: 0.5255 (Simulation time: 00 hr 33 min 34 sec)
Heartbeat CPU 0 instructions: 172500878 cycles: 247356507 heartbeat IPC: 0.2872 cumulative IPC: 0.5238 (Simulation time: 00 hr 33 min 44 sec)
Heartbeat CPU 0 instructions: 173000883 cycles: 247968835 heartbeat IPC: 0.8166 cumulative IPC: 0.5245 (Simulation time: 00 hr 33 min 49 sec)
Heartbeat CPU 0 instructions: 173500885 cycles: 250007009 heartbeat IPC: 0.2453 cumulative IPC: 0.5221 (Simulation time: 00 hr 34 min 01 sec)
Heartbeat CPU 0 instructions: 174000886 cycles: 251336592 heartbeat IPC: 0.3761 cumulative IPC: 0.5213 (Simulation time: 00 hr 34 min 09 sec)
Heartbeat CPU 0 instructions: 174500886 cycles: 251857508 heartbeat IPC: 0.9598 cumulative IPC: 0.5223 (Simulation time: 00 hr 34 min 14 sec)
Heartbeat CPU 0 instructions: 175000887 cycles: 253338104 heartbeat IPC: 0.3377 cumulative IPC: 0.5211 (Simulation time: 00 hr 34 min 23 sec)
Heartbeat CPU 0 instructions: 175500889 cycles: 254261320 heartbeat IPC: 0.5416 cumulative IPC: 0.5212 (Simulation time: 00 hr 34 min 29 sec)
Heartbeat CPU 0 instructions: 176000891 cycles: 254752213 heartbeat IPC: 1.019 cumulative IPC: 0.5222 (Simulation time: 00 hr 34 min 33 sec)
Heartbeat CPU 0 instructions: 176500892 cycles: 255297366 heartbeat IPC: 0.9172 cumulative IPC: 0.5231 (Simulation time: 00 hr 34 min 37 sec)
Heartbeat CPU 0 instructions: 177000892 cycles: 255633608 heartbeat IPC: 1.487 cumulative IPC: 0.5245 (Simulation time: 00 hr 34 min 40 sec)
Heartbeat CPU 0 instructions: 177500892 cycles: 256263882 heartbeat IPC: 0.7933 cumulative IPC: 0.5252 (Simulation time: 00 hr 34 min 46 sec)
Heartbeat CPU 0 instructions: 178000893 cycles: 258156175 heartbeat IPC: 0.2642 cumulative IPC: 0.5231 (Simulation time: 00 hr 35 min 02 sec)
Heartbeat CPU 0 instructions: 178500894 cycles: 258804307 heartbeat IPC: 0.7714 cumulative IPC: 0.5238 (Simulation time: 00 hr 35 min 07 sec)
Heartbeat CPU 0 instructions: 179000895 cycles: 259312503 heartbeat IPC: 0.9839 cumulative IPC: 0.5247 (Simulation time: 00 hr 35 min 10 sec)
Heartbeat CPU 0 instructions: 179500897 cycles: 259636995 heartbeat IPC: 1.541 cumulative IPC: 0.5261 (Simulation time: 00 hr 35 min 13 sec)
Heartbeat CPU 0 instructions: 180000899 cycles: 261457026 heartbeat IPC: 0.2747 cumulative IPC: 0.5242 (Simulation time: 00 hr 35 min 25 sec)
Heartbeat CPU 0 instructions: 180500899 cycles: 262976875 heartbeat IPC: 0.329 cumulative IPC: 0.523 (Simulation time: 00 hr 35 min 34 sec)
Heartbeat CPU 0 instructions: 181000899 cycles: 263317688 heartbeat IPC: 1.467 cumulative IPC: 0.5243 (Simulation time: 00 hr 35 min 38 sec)
Heartbeat CPU 0 instructions: 181500903 cycles: 264226039 heartbeat IPC: 0.5505 cumulative IPC: 0.5244 (Simulation time: 00 hr 35 min 44 sec)
Heartbeat CPU 0 instructions: 182000903 cycles: 265452903 heartbeat IPC: 0.4075 cumulative IPC: 0.5239 (Simulation time: 00 hr 35 min 52 sec)
Heartbeat CPU 0 instructions: 182500909 cycles: 266977897 heartbeat IPC: 0.3279 cumulative IPC: 0.5227 (Simulation time: 00 hr 36 min 00 sec)
Heartbeat CPU 0 instructions: 183000912 cycles: 268056074 heartbeat IPC: 0.4637 cumulative IPC: 0.5224 (Simulation time: 00 hr 36 min 07 sec)
Heartbeat CPU 0 instructions: 183500918 cycles: 268432821 heartbeat IPC: 1.327 cumulative IPC: 0.5236 (Simulation time: 00 hr 36 min 10 sec)
Heartbeat CPU 0 instructions: 184000918 cycles: 268806199 heartbeat IPC: 1.339 cumulative IPC: 0.5248 (Simulation time: 00 hr 36 min 13 sec)
Heartbeat CPU 0 instructions: 184500919 cycles: 269108303 heartbeat IPC: 1.655 cumulative IPC: 0.5261 (Simulation time: 00 hr 36 min 15 sec)
Heartbeat CPU 0 instructions: 185000921 cycles: 269807847 heartbeat IPC: 0.7148 cumulative IPC: 0.5267 (Simulation time: 00 hr 36 min 20 sec)
Heartbeat CPU 0 instructions: 185500921 cycles: 270538075 heartbeat IPC: 0.6847 cumulative IPC: 0.5271 (Simulation time: 00 hr 36 min 25 sec)
Heartbeat CPU 0 instructions: 186000923 cycles: 272361970 heartbeat IPC: 0.2741 cumulative IPC: 0.5253 (Simulation time: 00 hr 36 min 35 sec)
Heartbeat CPU 0 instructions: 186500923 cycles: 273647189 heartbeat IPC: 0.389 cumulative IPC: 0.5247 (Simulation time: 00 hr 36 min 44 sec)
Heartbeat CPU 0 instructions: 187000923 cycles: 274243920 heartbeat IPC: 0.8379 cumulative IPC: 0.5254 (Simulation time: 00 hr 36 min 48 sec)
Heartbeat CPU 0 instructions: 187500927 cycles: 274874518 heartbeat IPC: 0.7929 cumulative IPC: 0.526 (Simulation time: 00 hr 36 min 52 sec)
Heartbeat CPU 0 instructions: 188000928 cycles: 276105025 heartbeat IPC: 0.4063 cumulative IPC: 0.5255 (Simulation time: 00 hr 37 min 00 sec)
Heartbeat CPU 0 instructions: 188500928 cycles: 276967206 heartbeat IPC: 0.5799 cumulative IPC: 0.5256 (Simulation time: 00 hr 37 min 05 sec)
Heartbeat CPU 0 instructions: 189000932 cycles: 279134608 heartbeat IPC: 0.2307 cumulative IPC: 0.5232 (Simulation time: 00 hr 37 min 18 sec)
Heartbeat CPU 0 instructions: 189500933 cycles: 279550451 heartbeat IPC: 1.202 cumulative IPC: 0.5243 (Simulation time: 00 hr 37 min 21 sec)
Heartbeat CPU 0 instructions: 190000934 cycles: 279947126 heartbeat IPC: 1.26 cumulative IPC: 0.5254 (Simulation time: 00 hr 37 min 24 sec)
Heartbeat CPU 0 instructions: 190500934 cycles: 280795267 heartbeat IPC: 0.5895 cumulative IPC: 0.5256 (Simulation time: 00 hr 37 min 30 sec)
Heartbeat CPU 0 instructions: 191000938 cycles: 281454966 heartbeat IPC: 0.7579 cumulative IPC: 0.5262 (Simulation time: 00 hr 37 min 34 sec)
Heartbeat CPU 0 instructions: 191500943 cycles: 281703817 heartbeat IPC: 2.009 cumulative IPC: 0.5275 (Simulation time: 00 hr 37 min 37 sec)
Heartbeat CPU 0 instructions: 192000943 cycles: 281998020 heartbeat IPC: 1.7 cumulative IPC: 0.5288 (Simulation time: 00 hr 37 min 39 sec)
Heartbeat CPU 0 instructions: 192500946 cycles: 282237236 heartbeat IPC: 2.09 cumulative IPC: 0.5302 (Simulation time: 00 hr 37 min 41 sec)
Heartbeat CPU 0 instructions: 193000948 cycles: 282626548 heartbeat IPC: 1.284 cumulative IPC: 0.5313 (Simulation time: 00 hr 37 min 45 sec)
Heartbeat CPU 0 instructions: 193500954 cycles: 283038037 heartbeat IPC: 1.215 cumulative IPC: 0.5323 (Simulation time: 00 hr 37 min 48 sec)
Heartbeat CPU 0 instructions: 194000954 cycles: 284511743 heartbeat IPC: 0.3393 cumulative IPC: 0.5313 (Simulation time: 00 hr 37 min 57 sec)
Heartbeat CPU 0 instructions: 194500955 cycles: 285404396 heartbeat IPC: 0.5601 cumulative IPC: 0.5314 (Simulation time: 00 hr 38 min 04 sec)
Heartbeat CPU 0 instructions: 195000956 cycles: 285792334 heartbeat IPC: 1.289 cumulative IPC: 0.5325 (Simulation time: 00 hr 38 min 07 sec)
Heartbeat CPU 0 instructions: 195500956 cycles: 286439069 heartbeat IPC: 0.7731 cumulative IPC: 0.533 (Simulation time: 00 hr 38 min 12 sec)
Heartbeat CPU 0 instructions: 196000959 cycles: 288337097 heartbeat IPC: 0.2634 cumulative IPC: 0.5312 (Simulation time: 00 hr 38 min 24 sec)
Heartbeat CPU 0 instructions: 196500959 cycles: 289513034 heartbeat IPC: 0.4252 cumulative IPC: 0.5307 (Simulation time: 00 hr 38 min 32 sec)
Heartbeat CPU 0 instructions: 197000959 cycles: 290207430 heartbeat IPC: 0.7201 cumulative IPC: 0.5312 (Simulation time: 00 hr 38 min 36 sec)
Heartbeat CPU 0 instructions: 197500960 cycles: 292120956 heartbeat IPC: 0.2613 cumulative IPC: 0.5293 (Simulation time: 00 hr 38 min 47 sec)
Heartbeat CPU 0 instructions: 198000967 cycles: 294045009 heartbeat IPC: 0.2599 cumulative IPC: 0.5275 (Simulation time: 00 hr 38 min 58 sec)
Heartbeat CPU 0 instructions: 198500969 cycles: 295110471 heartbeat IPC: 0.4693 cumulative IPC: 0.5273 (Simulation time: 00 hr 39 min 05 sec)
Heartbeat CPU 0 instructions: 199000969 cycles: 296101386 heartbeat IPC: 0.5046 cumulative IPC: 0.5272 (Simulation time: 00 hr 39 min 11 sec)
Heartbeat CPU 0 instructions: 199500970 cycles: 298083551 heartbeat IPC: 0.2522 cumulative IPC: 0.5253 (Simulation time: 00 hr 39 min 23 sec)
Heartbeat CPU 0 instructions: 200000971 cycles: 299363474 heartbeat IPC: 0.3906 cumulative IPC: 0.5247 (Simulation time: 00 hr 39 min 32 sec)
Heartbeat CPU 0 instructions: 200500972 cycles: 300640293 heartbeat IPC: 0.3916 cumulative IPC: 0.5241 (Simulation time: 00 hr 39 min 40 sec)
Heartbeat CPU 0 instructions: 201000976 cycles: 300897415 heartbeat IPC: 1.945 cumulative IPC: 0.5254 (Simulation time: 00 hr 39 min 42 sec)
Heartbeat CPU 0 instructions: 201500983 cycles: 301111632 heartbeat IPC: 2.334 cumulative IPC: 0.5267 (Simulation time: 00 hr 39 min 44 sec)
Heartbeat CPU 0 instructions: 202000983 cycles: 301329126 heartbeat IPC: 2.299 cumulative IPC: 0.528 (Simulation time: 00 hr 39 min 46 sec)
Heartbeat CPU 0 instructions: 202500990 cycles: 301591416 heartbeat IPC: 1.906 cumulative IPC: 0.5293 (Simulation time: 00 hr 39 min 48 sec)
Heartbeat CPU 0 instructions: 203000990 cycles: 301942389 heartbeat IPC: 1.425 cumulative IPC: 0.5304 (Simulation time: 00 hr 39 min 50 sec)
Heartbeat CPU 0 instructions: 203500995 cycles: 302294648 heartbeat IPC: 1.419 cumulative IPC: 0.5315 (Simulation time: 00 hr 39 min 53 sec)
Heartbeat CPU 0 instructions: 204000998 cycles: 302626510 heartbeat IPC: 1.507 cumulative IPC: 0.5326 (Simulation time: 00 hr 39 min 55 sec)
Heartbeat CPU 0 instructions: 204501001 cycles: 302958715 heartbeat IPC: 1.505 cumulative IPC: 0.5337 (Simulation time: 00 hr 39 min 57 sec)
Heartbeat CPU 0 instructions: 205001004 cycles: 304177967 heartbeat IPC: 0.4101 cumulative IPC: 0.5332 (Simulation time: 00 hr 40 min 05 sec)
Heartbeat CPU 0 instructions: 205501004 cycles: 305571599 heartbeat IPC: 0.3588 cumulative IPC: 0.5324 (Simulation time: 00 hr 40 min 13 sec)
Heartbeat CPU 0 instructions: 206001006 cycles: 306126366 heartbeat IPC: 0.9013 cumulative IPC: 0.5331 (Simulation time: 00 hr 40 min 18 sec)
Heartbeat CPU 0 instructions: 206501007 cycles: 306359388 heartbeat IPC: 2.146 cumulative IPC: 0.5343 (Simulation time: 00 hr 40 min 20 sec)
Heartbeat CPU 0 instructions: 207001010 cycles: 306601111 heartbeat IPC: 2.068 cumulative IPC: 0.5356 (Simulation time: 00 hr 40 min 22 sec)
Heartbeat CPU 0 instructions: 207501011 cycles: 307188426 heartbeat IPC: 0.8513 cumulative IPC: 0.5362 (Simulation time: 00 hr 40 min 26 sec)
Heartbeat CPU 0 instructions: 208001015 cycles: 308592928 heartbeat IPC: 0.356 cumulative IPC: 0.5354 (Simulation time: 00 hr 40 min 35 sec)
Heartbeat CPU 0 instructions: 208501018 cycles: 309155008 heartbeat IPC: 0.8896 cumulative IPC: 0.5361 (Simulation time: 00 hr 40 min 39 sec)
Heartbeat CPU 0 instructions: 209001018 cycles: 310014724 heartbeat IPC: 0.5816 cumulative IPC: 0.5362 (Simulation time: 00 hr 40 min 44 sec)
Heartbeat CPU 0 instructions: 209501019 cycles: 310898454 heartbeat IPC: 0.5658 cumulative IPC: 0.5363 (Simulation time: 00 hr 40 min 50 sec)
Heartbeat CPU 0 instructions: 210001020 cycles: 312245969 heartbeat IPC: 0.3711 cumulative IPC: 0.5355 (Simulation time: 00 hr 40 min 58 sec)
Heartbeat CPU 0 instructions: 210501020 cycles: 313293543 heartbeat IPC: 0.4773 cumulative IPC: 0.5353 (Simulation time: 00 hr 41 min 05 sec)
Heartbeat CPU 0 instructions: 211001024 cycles: 315106600 heartbeat IPC: 0.2758 cumulative IPC: 0.5338 (Simulation time: 00 hr 41 min 15 sec)
Heartbeat CPU 0 instructions: 211501026 cycles: 316557611 heartbeat IPC: 0.3446 cumulative IPC: 0.5329 (Simulation time: 00 hr 41 min 24 sec)
Heartbeat CPU 0 instructions: 212001032 cycles: 317751376 heartbeat IPC: 0.4188 cumulative IPC: 0.5324 (Simulation time: 00 hr 41 min 31 sec)
Heartbeat CPU 0 instructions: 212501032 cycles: 318784578 heartbeat IPC: 0.4839 cumulative IPC: 0.5323 (Simulation time: 00 hr 41 min 38 sec)
Heartbeat CPU 0 instructions: 213001038 cycles: 319135519 heartbeat IPC: 1.425 cumulative IPC: 0.5333 (Simulation time: 00 hr 41 min 41 sec)
Heartbeat CPU 0 instructions: 213501041 cycles: 320122348 heartbeat IPC: 0.5067 cumulative IPC: 0.5332 (Simulation time: 00 hr 41 min 47 sec)
Heartbeat CPU 0 instructions: 214001041 cycles: 320757686 heartbeat IPC: 0.787 cumulative IPC: 0.5337 (Simulation time: 00 hr 41 min 51 sec)
Heartbeat CPU 0 instructions: 214501041 cycles: 321884639 heartbeat IPC: 0.4437 cumulative IPC: 0.5334 (Simulation time: 00 hr 41 min 58 sec)
Heartbeat CPU 0 instructions: 215001041 cycles: 322990633 heartbeat IPC: 0.4521 cumulative IPC: 0.5331 (Simulation time: 00 hr 42 min 05 sec)
Heartbeat CPU 0 instructions: 215501046 cycles: 324061944 heartbeat IPC: 0.4667 cumulative IPC: 0.5329 (Simulation time: 00 hr 42 min 12 sec)
Heartbeat CPU 0 instructions: 216001046 cycles: 324539053 heartbeat IPC: 1.048 cumulative IPC: 0.5337 (Simulation time: 00 hr 42 min 16 sec)
Heartbeat CPU 0 instructions: 216501047 cycles: 324967606 heartbeat IPC: 1.167 cumulative IPC: 0.5345 (Simulation time: 00 hr 42 min 20 sec)
Heartbeat CPU 0 instructions: 217001048 cycles: 325477471 heartbeat IPC: 0.9807 cumulative IPC: 0.5353 (Simulation time: 00 hr 42 min 23 sec)
Heartbeat CPU 0 instructions: 217501049 cycles: 326102273 heartbeat IPC: 0.8003 cumulative IPC: 0.5358 (Simulation time: 00 hr 42 min 27 sec)
Heartbeat CPU 0 instructions: 218001052 cycles: 327719647 heartbeat IPC: 0.3091 cumulative IPC: 0.5346 (Simulation time: 00 hr 42 min 37 sec)
Heartbeat CPU 0 instructions: 218501058 cycles: 329290341 heartbeat IPC: 0.3183 cumulative IPC: 0.5335 (Simulation time: 00 hr 42 min 46 sec)
Heartbeat CPU 0 instructions: 219001063 cycles: 330238687 heartbeat IPC: 0.5272 cumulative IPC: 0.5335 (Simulation time: 00 hr 42 min 52 sec)
Heartbeat CPU 0 instructions: 219501067 cycles: 331097323 heartbeat IPC: 0.5823 cumulative IPC: 0.5337 (Simulation time: 00 hr 42 min 58 sec)
Heartbeat CPU 0 instructions: 220001068 cycles: 331766245 heartbeat IPC: 0.7475 cumulative IPC: 0.5341 (Simulation time: 00 hr 43 min 02 sec)
Heartbeat CPU 0 instructions: 220501068 cycles: 333544708 heartbeat IPC: 0.2811 cumulative IPC: 0.5327 (Simulation time: 00 hr 43 min 12 sec)
Heartbeat CPU 0 instructions: 221001068 cycles: 334616251 heartbeat IPC: 0.4666 cumulative IPC: 0.5325 (Simulation time: 00 hr 43 min 19 sec)
Heartbeat CPU 0 instructions: 221501073 cycles: 335551902 heartbeat IPC: 0.5344 cumulative IPC: 0.5325 (Simulation time: 00 hr 43 min 25 sec)
Heartbeat CPU 0 instructions: 222001073 cycles: 335932770 heartbeat IPC: 1.313 cumulative IPC: 0.5334 (Simulation time: 00 hr 43 min 28 sec)
Heartbeat CPU 0 instructions: 222501073 cycles: 336262930 heartbeat IPC: 1.514 cumulative IPC: 0.5344 (Simulation time: 00 hr 43 min 30 sec)
Heartbeat CPU 0 instructions: 223001073 cycles: 337038118 heartbeat IPC: 0.645 cumulative IPC: 0.5347 (Simulation time: 00 hr 43 min 36 sec)
Heartbeat CPU 0 instructions: 223501078 cycles: 338288536 heartbeat IPC: 0.3999 cumulative IPC: 0.5342 (Simulation time: 00 hr 43 min 44 sec)
Heartbeat CPU 0 instructions: 224001082 cycles: 338840310 heartbeat IPC: 0.9062 cumulative IPC: 0.5348 (Simulation time: 00 hr 43 min 48 sec)
Heartbeat CPU 0 instructions: 224501084 cycles: 339964172 heartbeat IPC: 0.4449 cumulative IPC: 0.5345 (Simulation time: 00 hr 43 min 55 sec)
Heartbeat CPU 0 instructions: 225001085 cycles: 341007326 heartbeat IPC: 0.4793 cumulative IPC: 0.5343 (Simulation time: 00 hr 44 min 01 sec)
Heartbeat CPU 0 instructions: 225501086 cycles: 341318495 heartbeat IPC: 1.607 cumulative IPC: 0.5353 (Simulation time: 00 hr 44 min 04 sec)
Heartbeat CPU 0 instructions: 226001089 cycles: 341587556 heartbeat IPC: 1.858 cumulative IPC: 0.5364 (Simulation time: 00 hr 44 min 06 sec)
Heartbeat CPU 0 instructions: 226501095 cycles: 341849010 heartbeat IPC: 1.912 cumulative IPC: 0.5375 (Simulation time: 00 hr 44 min 09 sec)
Heartbeat CPU 0 instructions: 227001096 cycles: 342119413 heartbeat IPC: 1.849 cumulative IPC: 0.5386 (Simulation time: 00 hr 44 min 11 sec)
Heartbeat CPU 0 instructions: 227501096 cycles: 342406752 heartbeat IPC: 1.74 cumulative IPC: 0.5396 (Simulation time: 00 hr 44 min 14 sec)
Heartbeat CPU 0 instructions: 228001100 cycles: 342711612 heartbeat IPC: 1.64 cumulative IPC: 0.5406 (Simulation time: 00 hr 44 min 17 sec)
Heartbeat CPU 0 instructions: 228501105 cycles: 342989400 heartbeat IPC: 1.8 cumulative IPC: 0.5417 (Simulation time: 00 hr 44 min 19 sec)
Heartbeat CPU 0 instructions: 229001111 cycles: 343241751 heartbeat IPC: 1.981 cumulative IPC: 0.5428 (Simulation time: 00 hr 44 min 22 sec)
Heartbeat CPU 0 instructions: 229501113 cycles: 343457207 heartbeat IPC: 2.321 cumulative IPC: 0.544 (Simulation time: 00 hr 44 min 24 sec)
Heartbeat CPU 0 instructions: 230001113 cycles: 343676980 heartbeat IPC: 2.275 cumulative IPC: 0.5451 (Simulation time: 00 hr 44 min 26 sec)
Heartbeat CPU 0 instructions: 230501114 cycles: 344669620 heartbeat IPC: 0.5037 cumulative IPC: 0.545 (Simulation time: 00 hr 44 min 32 sec)
Heartbeat CPU 0 instructions: 231001115 cycles: 346395515 heartbeat IPC: 0.2897 cumulative IPC: 0.5437 (Simulation time: 00 hr 44 min 43 sec)
Heartbeat CPU 0 instructions: 231501116 cycles: 348184851 heartbeat IPC: 0.2794 cumulative IPC: 0.5423 (Simulation time: 00 hr 44 min 53 sec)
Heartbeat CPU 0 instructions: 232001116 cycles: 348623596 heartbeat IPC: 1.14 cumulative IPC: 0.543 (Simulation time: 00 hr 44 min 57 sec)
Heartbeat CPU 0 instructions: 232501123 cycles: 349206379 heartbeat IPC: 0.858 cumulative IPC: 0.5436 (Simulation time: 00 hr 45 min 01 sec)
Heartbeat CPU 0 instructions: 233001128 cycles: 350304970 heartbeat IPC: 0.4551 cumulative IPC: 0.5433 (Simulation time: 00 hr 45 min 07 sec)
Heartbeat CPU 0 instructions: 233501130 cycles: 352312063 heartbeat IPC: 0.2491 cumulative IPC: 0.5416 (Simulation time: 00 hr 45 min 19 sec)
Heartbeat CPU 0 instructions: 234001131 cycles: 353958650 heartbeat IPC: 0.3037 cumulative IPC: 0.5404 (Simulation time: 00 hr 45 min 29 sec)
Heartbeat CPU 0 instructions: 234501132 cycles: 354287184 heartbeat IPC: 1.522 cumulative IPC: 0.5414 (Simulation time: 00 hr 45 min 32 sec)
Heartbeat CPU 0 instructions: 235001132 cycles: 354568680 heartbeat IPC: 1.776 cumulative IPC: 0.5424 (Simulation time: 00 hr 45 min 34 sec)
Heartbeat CPU 0 instructions: 235501132 cycles: 354987459 heartbeat IPC: 1.194 cumulative IPC: 0.5432 (Simulation time: 00 hr 45 min 37 sec)
Heartbeat CPU 0 instructions: 236001132 cycles: 355822469 heartbeat IPC: 0.5988 cumulative IPC: 0.5433 (Simulation time: 00 hr 45 min 43 sec)
Heartbeat CPU 0 instructions: 236501135 cycles: 356498011 heartbeat IPC: 0.7402 cumulative IPC: 0.5437 (Simulation time: 00 hr 45 min 47 sec)
Heartbeat CPU 0 instructions: 237001137 cycles: 358235337 heartbeat IPC: 0.2878 cumulative IPC: 0.5424 (Simulation time: 00 hr 45 min 58 sec)
Heartbeat CPU 0 instructions: 237501137 cycles: 358447741 heartbeat IPC: 2.354 cumulative IPC: 0.5435 (Simulation time: 00 hr 46 min 00 sec)
Heartbeat CPU 0 instructions: 238001143 cycles: 359112433 heartbeat IPC: 0.7522 cumulative IPC: 0.5439 (Simulation time: 00 hr 46 min 05 sec)
Heartbeat CPU 0 instructions: 238501145 cycles: 359511394 heartbeat IPC: 1.253 cumulative IPC: 0.5447 (Simulation time: 00 hr 46 min 08 sec)
Heartbeat CPU 0 instructions: 239001147 cycles: 360404708 heartbeat IPC: 0.5597 cumulative IPC: 0.5448 (Simulation time: 00 hr 46 min 14 sec)
Heartbeat CPU 0 instructions: 239501150 cycles: 361239203 heartbeat IPC: 0.5992 cumulative IPC: 0.5449 (Simulation time: 00 hr 46 min 19 sec)
Heartbeat CPU 0 instructions: 240001150 cycles: 361737802 heartbeat IPC: 1.003 cumulative IPC: 0.5456 (Simulation time: 00 hr 46 min 23 sec)
Heartbeat CPU 0 instructions: 240501150 cycles: 363326785 heartbeat IPC: 0.3147 cumulative IPC: 0.5445 (Simulation time: 00 hr 46 min 32 sec)
Heartbeat CPU 0 instructions: 241001153 cycles: 363962235 heartbeat IPC: 0.7868 cumulative IPC: 0.545 (Simulation time: 00 hr 46 min 36 sec)
Heartbeat CPU 0 instructions: 241501155 cycles: 365095951 heartbeat IPC: 0.441 cumulative IPC: 0.5446 (Simulation time: 00 hr 46 min 43 sec)
Heartbeat CPU 0 instructions: 242001155 cycles: 365933440 heartbeat IPC: 0.597 cumulative IPC: 0.5447 (Simulation time: 00 hr 46 min 49 sec)
Heartbeat CPU 0 instructions: 242501161 cycles: 367850548 heartbeat IPC: 0.2608 cumulative IPC: 0.5432 (Simulation time: 00 hr 46 min 59 sec)
Heartbeat CPU 0 instructions: 243001163 cycles: 368767726 heartbeat IPC: 0.5452 cumulative IPC: 0.5432 (Simulation time: 00 hr 47 min 06 sec)
Heartbeat CPU 0 instructions: 243501168 cycles: 369609251 heartbeat IPC: 0.5942 cumulative IPC: 0.5433 (Simulation time: 00 hr 47 min 11 sec)
Heartbeat CPU 0 instructions: 244001170 cycles: 371325446 heartbeat IPC: 0.2913 cumulative IPC: 0.5421 (Simulation time: 00 hr 47 min 21 sec)
Heartbeat CPU 0 instructions: 244501177 cycles: 372207300 heartbeat IPC: 0.567 cumulative IPC: 0.5422 (Simulation time: 00 hr 47 min 28 sec)
Heartbeat CPU 0 instructions: 245001183 cycles: 373553646 heartbeat IPC: 0.3714 cumulative IPC: 0.5416 (Simulation time: 00 hr 47 min 36 sec)
Heartbeat CPU 0 instructions: 245501183 cycles: 374755413 heartbeat IPC: 0.4161 cumulative IPC: 0.5411 (Simulation time: 00 hr 47 min 43 sec)
Heartbeat CPU 0 instructions: 246001189 cycles: 375090422 heartbeat IPC: 1.493 cumulative IPC: 0.542 (Simulation time: 00 hr 47 min 46 sec)
Heartbeat CPU 0 instructions: 246501189 cycles: 375715571 heartbeat IPC: 0.7998 cumulative IPC: 0.5425 (Simulation time: 00 hr 47 min 50 sec)
Heartbeat CPU 0 instructions: 247001193 cycles: 377694324 heartbeat IPC: 0.2527 cumulative IPC: 0.5409 (Simulation time: 00 hr 48 min 01 sec)
Heartbeat CPU 0 instructions: 247501193 cycles: 378508724 heartbeat IPC: 0.6139 cumulative IPC: 0.541 (Simulation time: 00 hr 48 min 07 sec)
Heartbeat CPU 0 instructions: 248001193 cycles: 379922562 heartbeat IPC: 0.3536 cumulative IPC: 0.5403 (Simulation time: 00 hr 48 min 15 sec)
Heartbeat CPU 0 instructions: 248501193 cycles: 381614760 heartbeat IPC: 0.2955 cumulative IPC: 0.5392 (Simulation time: 00 hr 48 min 25 sec)
Heartbeat CPU 0 instructions: 249001197 cycles: 383973932 heartbeat IPC: 0.2119 cumulative IPC: 0.5371 (Simulation time: 00 hr 48 min 39 sec)
Heartbeat CPU 0 instructions: 249501197 cycles: 386536853 heartbeat IPC: 0.1951 cumulative IPC: 0.5348 (Simulation time: 00 hr 48 min 56 sec)
Simulation finished CPU 0 instructions: 200000003 cycles: 375223076 cumulative IPC: 0.533 (Simulation time: 00 hr 49 min 11 sec)
Simulation complete CPU 0 instructions: 200000003 cycles: 375223076 cumulative IPC: 0.533 (Simulation time: 00 hr 49 min 11 sec)

ChampSim completed all CPUs

=== Simulation ===
CPU 0 runs /local-ssd/ben/dpc4-traces/gtraces_v2/merced_0002.champsim.gz

Region of Interest Statistics

CPU 0 cumulative IPC: 0.533 instructions: 200000003 cycles: 375223076
CPU 0 Branch Prediction Accuracy: 90.16% MPKI: 17.1 Average ROB Occupancy at Mispredict: 22.89
Branch type MPKI
BRANCH_DIRECT_JUMP: 1.059
BRANCH_INDIRECT: 0.3061
BRANCH_CONDITIONAL: 13.98
BRANCH_DIRECT_CALL: 0.8745
BRANCH_INDIRECT_CALL: 0.2974
BRANCH_RETURN: 0.5892

cpu0->cpu0_STLB TOTAL        ACCESS:    1576167 HIT:    1134539 MISS:     441628 MSHR_MERGE:          0
cpu0->cpu0_STLB LOAD         ACCESS:    1576167 HIT:    1134539 MISS:     441628 MSHR_MERGE:          0
cpu0->cpu0_STLB RFO          ACCESS:          0 HIT:          0 MISS:          0 MSHR_MERGE:          0
cpu0->cpu0_STLB PREFETCH     ACCESS:          0 HIT:          0 MISS:          0 MSHR_MERGE:          0
cpu0->cpu0_STLB WRITE        ACCESS:          0 HIT:          0 MISS:          0 MSHR_MERGE:          0
cpu0->cpu0_STLB TRANSLATION  ACCESS:          0 HIT:          0 MISS:          0 MSHR_MERGE:          0
cpu0->cpu0_STLB PREFETCH REQUESTED:          0 ISSUED:          0 USEFUL:          0 USELESS:          0
cpu0->cpu0_STLB AVERAGE MISS LATENCY: 186.8 cycles
cpu0->cpu0_L2C TOTAL        ACCESS:   13874239 HIT:    8684959 MISS:    5189280 MSHR_MERGE:    1204896
cpu0->cpu0_L2C LOAD         ACCESS:    3226931 HIT:    1711277 MISS:    1515654 MSHR_MERGE:      44047
cpu0->cpu0_L2C RFO          ACCESS:     637465 HIT:     229838 MISS:     407627 MSHR_MERGE:       4473
cpu0->cpu0_L2C PREFETCH     ACCESS:    8513308 HIT:    5478133 MISS:    3035175 MSHR_MERGE:    1156376
cpu0->cpu0_L2C WRITE        ACCESS:    1022135 HIT:    1022120 MISS:         15 MSHR_MERGE:          0
cpu0->cpu0_L2C TRANSLATION  ACCESS:     474400 HIT:     243591 MISS:     230809 MSHR_MERGE:          0
cpu0->cpu0_L2C PREFETCH REQUESTED:    7479425 ISSUED:    7198645 USEFUL:     624508 USELESS:     906581
cpu0->cpu0_L2C AVERAGE MISS LATENCY: 213.1 cycles
cpu0->cpu0_L1I TOTAL        ACCESS:   15671539 HIT:   13649005 MISS:    2022534 MSHR_MERGE:     459495
cpu0->cpu0_L1I LOAD         ACCESS:   15671539 HIT:   13649005 MISS:    2022534 MSHR_MERGE:     459495
cpu0->cpu0_L1I RFO          ACCESS:          0 HIT:          0 MISS:          0 MSHR_MERGE:          0
cpu0->cpu0_L1I PREFETCH     ACCESS:          0 HIT:          0 MISS:          0 MSHR_MERGE:          0
cpu0->cpu0_L1I WRITE        ACCESS:          0 HIT:          0 MISS:          0 MSHR_MERGE:          0
cpu0->cpu0_L1I TRANSLATION  ACCESS:          0 HIT:          0 MISS:          0 MSHR_MERGE:          0
cpu0->cpu0_L1I PREFETCH REQUESTED:          0 ISSUED:          0 USEFUL:          0 USELESS:          0
cpu0->cpu0_L1I AVERAGE MISS LATENCY: 126.6 cycles
cpu0->cpu0_L1D TOTAL        ACCESS:   52244553 HIT:   45739811 MISS:    6504742 MSHR_MERGE:    2414278
cpu0->cpu0_L1D LOAD         ACCESS:   30934232 HIT:   28651334 MISS:    2282898 MSHR_MERGE:     618990
cpu0->cpu0_L1D RFO          ACCESS:          0 HIT:          0 MISS:          0 MSHR_MERGE:          0
cpu0->cpu0_L1D PREFETCH     ACCESS:    2340864 HIT:     957245 MISS:    1383619 MSHR_MERGE:      68951
cpu0->cpu0_L1D WRITE        ACCESS:   17851417 HIT:   15493424 MISS:    2357993 MSHR_MERGE:    1720505
cpu0->cpu0_L1D TRANSLATION  ACCESS:    1118040 HIT:     637808 MISS:     480232 MSHR_MERGE:       5832
cpu0->cpu0_L1D PREFETCH REQUESTED:    2394908 ISSUED:    2340863 USEFUL:     726546 USELESS:     588212
cpu0->cpu0_L1D AVERAGE MISS LATENCY: 106.8 cycles
cpu0->cpu0_ITLB TOTAL        ACCESS:   12910286 HIT:   12696362 MISS:     213924 MSHR_MERGE:     105550
cpu0->cpu0_ITLB LOAD         ACCESS:   12910286 HIT:   12696362 MISS:     213924 MSHR_MERGE:     105550
cpu0->cpu0_ITLB RFO          ACCESS:          0 HIT:          0 MISS:          0 MSHR_MERGE:          0
cpu0->cpu0_ITLB PREFETCH     ACCESS:          0 HIT:          0 MISS:          0 MSHR_MERGE:          0
cpu0->cpu0_ITLB WRITE        ACCESS:          0 HIT:          0 MISS:          0 MSHR_MERGE:          0
cpu0->cpu0_ITLB TRANSLATION  ACCESS:          0 HIT:          0 MISS:          0 MSHR_MERGE:          0
cpu0->cpu0_ITLB PREFETCH REQUESTED:          0 ISSUED:          0 USEFUL:          0 USELESS:          0
cpu0->cpu0_ITLB AVERAGE MISS LATENCY: 36.87 cycles
cpu0->cpu0_DTLB TOTAL        ACCESS:   48791243 HIT:   46331536 MISS:    2459707 MSHR_MERGE:     991914
cpu0->cpu0_DTLB LOAD         ACCESS:   48791243 HIT:   46331536 MISS:    2459707 MSHR_MERGE:     991914
cpu0->cpu0_DTLB RFO          ACCESS:          0 HIT:          0 MISS:          0 MSHR_MERGE:          0
cpu0->cpu0_DTLB PREFETCH     ACCESS:          0 HIT:          0 MISS:          0 MSHR_MERGE:          0
cpu0->cpu0_DTLB WRITE        ACCESS:          0 HIT:          0 MISS:          0 MSHR_MERGE:          0
cpu0->cpu0_DTLB TRANSLATION  ACCESS:          0 HIT:          0 MISS:          0 MSHR_MERGE:          0
cpu0->cpu0_DTLB PREFETCH REQUESTED:          0 ISSUED:          0 USEFUL:          0 USELESS:          0
cpu0->cpu0_DTLB AVERAGE MISS LATENCY: 59.15 cycles
cpu0->LLC TOTAL        ACCESS:    4648055 HIT:     648478 MISS:    3999577 MSHR_MERGE:          0
cpu0->LLC LOAD         ACCESS:    1471607 HIT:     232478 MISS:    1239129 MSHR_MERGE:          0
cpu0->LLC RFO          ACCESS:     403154 HIT:      16539 MISS:     386615 MSHR_MERGE:          0
cpu0->LLC PREFETCH     ACCESS:    1878799 HIT:     121422 MISS:    1757377 MSHR_MERGE:          0
cpu0->LLC WRITE        ACCESS:     663686 HIT:     237892 MISS:     425794 MSHR_MERGE:          0
cpu0->LLC TRANSLATION  ACCESS:     230809 HIT:      40147 MISS:     190662 MSHR_MERGE:          0
cpu0->LLC PREFETCH REQUESTED:          0 ISSUED:          0 USEFUL:          0 USELESS:          0
cpu0->LLC AVERAGE MISS LATENCY: 182.9 cycles

DRAM Statistics

Channel 0 RQ ROW_BUFFER_HIT:     207409
  ROW_BUFFER_MISS:    3366326
  AVG DBUS CONGESTED CYCLE: 23.65
Channel 0 WQ ROW_BUFFER_HIT:     167920
  ROW_BUFFER_MISS:     445733
  FULL:        576
Channel 0 REFRESHES ISSUED:      31267
