[VMEM] WARNING: physical memory size is smaller than virtual memory size.

*** ChampSim Multicore Out-of-Order Simulator ***
Warmup Instructions: 50000000
Simulation Instructions: 200000000
Number of CPUs: 1
Page size: 4096
Core 0: /local-ssd/ben/dpc4-traces/gtraces_v2/sierra.a.4_0001.champsim.gz
 L1D Berti prefetcher
Off-chip DRAM Size: 64 GiB Channels: 1 Width: 64-bit Data Rate: 4807 MT/s
[BTB] WARNING: target of return is a lower address than the corresponding call. This is usually a problem with your trace.
Heartbeat CPU 0 instructions: 500005 cycles: 287061 heartbeat IPC: 1.742 cumulative IPC: 1.742 (Simulation time: 00 hr 00 min 05 sec)
[BTB] WARNING: target of return is a lower address than the corresponding call. This is usually a problem with your trace.
[BTB] WARNING: target of return is a lower address than the corresponding call. This is usually a problem with your trace.
[BTB] WARNING: target of return is a lower address than the corresponding call. This is usually a problem with your trace.
Heartbeat CPU 0 instructions: 1000011 cycles: 520814 heartbeat IPC: 2.139 cumulative IPC: 1.92 (Simulation time: 00 hr 00 min 09 sec)
[BTB] WARNING: target of return is a lower address than the corresponding call. This is usually a problem with your trace.
[BTB] WARNING: target of return is a lower address than the corresponding call. This is usually a problem with your trace.
[BTB] WARNING: target of return is a lower address than the corresponding call. This is usually a problem with your trace.
[BTB] WARNING: target of return is a lower address than the corresponding call. This is usually a problem with your trace.
[BTB] WARNING: target of return is a lower address than the corresponding call. This is usually a problem with your trace.
Heartbeat CPU 0 instructions: 1500018 cycles: 702803 heartbeat IPC: 2.747 cumulative IPC: 2.134 (Simulation time: 00 hr 00 min 12 sec)
[BTB] WARNING: target of return is a lower address than the corresponding call. This is usually a problem with your trace.
Heartbeat CPU 0 instructions: 2000024 cycles: 873292 heartbeat IPC: 2.933 cumulative IPC: 2.29 (Simulation time: 00 hr 00 min 16 sec)
Heartbeat CPU 0 instructions: 2500026 cycles: 1080388 heartbeat IPC: 2.414 cumulative IPC: 2.314 (Simulation time: 00 hr 00 min 19 sec)
Heartbeat CPU 0 instructions: 3000033 cycles: 1261099 heartbeat IPC: 2.767 cumulative IPC: 2.379 (Simulation time: 00 hr 00 min 23 sec)
Heartbeat CPU 0 instructions: 3500033 cycles: 1475810 heartbeat IPC: 2.329 cumulative IPC: 2.372 (Simulation time: 00 hr 00 min 26 sec)
Heartbeat CPU 0 instructions: 4000039 cycles: 1676042 heartbeat IPC: 2.497 cumulative IPC: 2.387 (Simulation time: 00 hr 00 min 29 sec)
Heartbeat CPU 0 instructions: 4500043 cycles: 1835732 heartbeat IPC: 3.131 cumulative IPC: 2.451 (Simulation time: 00 hr 00 min 32 sec)
Heartbeat CPU 0 instructions: 5000047 cycles: 2007717 heartbeat IPC: 2.907 cumulative IPC: 2.49 (Simulation time: 00 hr 00 min 35 sec)
Heartbeat CPU 0 instructions: 5500053 cycles: 2178139 heartbeat IPC: 2.934 cumulative IPC: 2.525 (Simulation time: 00 hr 00 min 38 sec)
Heartbeat CPU 0 instructions: 6000056 cycles: 2359226 heartbeat IPC: 2.761 cumulative IPC: 2.543 (Simulation time: 00 hr 00 min 42 sec)
Heartbeat CPU 0 instructions: 6500056 cycles: 2519595 heartbeat IPC: 3.118 cumulative IPC: 2.58 (Simulation time: 00 hr 00 min 45 sec)
Heartbeat CPU 0 instructions: 7000059 cycles: 2699291 heartbeat IPC: 2.782 cumulative IPC: 2.593 (Simulation time: 00 hr 00 min 48 sec)
Heartbeat CPU 0 instructions: 7500066 cycles: 2884705 heartbeat IPC: 2.697 cumulative IPC: 2.6 (Simulation time: 00 hr 00 min 52 sec)
Heartbeat CPU 0 instructions: 8000073 cycles: 3057795 heartbeat IPC: 2.889 cumulative IPC: 2.616 (Simulation time: 00 hr 00 min 55 sec)
Heartbeat CPU 0 instructions: 8500076 cycles: 3217589 heartbeat IPC: 3.129 cumulative IPC: 2.642 (Simulation time: 00 hr 00 min 58 sec)
Heartbeat CPU 0 instructions: 9000081 cycles: 3377838 heartbeat IPC: 3.12 cumulative IPC: 2.664 (Simulation time: 00 hr 01 min 02 sec)
Heartbeat CPU 0 instructions: 9500088 cycles: 3556525 heartbeat IPC: 2.798 cumulative IPC: 2.671 (Simulation time: 00 hr 01 min 05 sec)
Heartbeat CPU 0 instructions: 10000088 cycles: 3708462 heartbeat IPC: 3.291 cumulative IPC: 2.697 (Simulation time: 00 hr 01 min 08 sec)
Heartbeat CPU 0 instructions: 10500090 cycles: 3876410 heartbeat IPC: 2.977 cumulative IPC: 2.709 (Simulation time: 00 hr 01 min 11 sec)
Heartbeat CPU 0 instructions: 11000096 cycles: 4058882 heartbeat IPC: 2.74 cumulative IPC: 2.71 (Simulation time: 00 hr 01 min 15 sec)
Heartbeat CPU 0 instructions: 11500103 cycles: 4227826 heartbeat IPC: 2.96 cumulative IPC: 2.72 (Simulation time: 00 hr 01 min 18 sec)
Heartbeat CPU 0 instructions: 12000105 cycles: 4418603 heartbeat IPC: 2.621 cumulative IPC: 2.716 (Simulation time: 00 hr 01 min 21 sec)
Heartbeat CPU 0 instructions: 12500112 cycles: 4576678 heartbeat IPC: 3.163 cumulative IPC: 2.731 (Simulation time: 00 hr 01 min 24 sec)
Heartbeat CPU 0 instructions: 13000116 cycles: 4707629 heartbeat IPC: 3.818 cumulative IPC: 2.761 (Simulation time: 00 hr 01 min 27 sec)
Heartbeat CPU 0 instructions: 13500122 cycles: 4844969 heartbeat IPC: 3.641 cumulative IPC: 2.786 (Simulation time: 00 hr 01 min 29 sec)
Heartbeat CPU 0 instructions: 14000127 cycles: 5022106 heartbeat IPC: 2.823 cumulative IPC: 2.788 (Simulation time: 00 hr 01 min 33 sec)
Heartbeat CPU 0 instructions: 14500130 cycles: 5209406 heartbeat IPC: 2.67 cumulative IPC: 2.783 (Simulation time: 00 hr 01 min 36 sec)
Heartbeat CPU 0 instructions: 15000135 cycles: 5351875 heartbeat IPC: 3.51 cumulative IPC: 2.803 (Simulation time: 00 hr 01 min 39 sec)
Heartbeat CPU 0 instructions: 15500142 cycles: 5534364 heartbeat IPC: 2.74 cumulative IPC: 2.801 (Simulation time: 00 hr 01 min 42 sec)
Heartbeat CPU 0 instructions: 16000145 cycles: 5690266 heartbeat IPC: 3.207 cumulative IPC: 2.812 (Simulation time: 00 hr 01 min 45 sec)
Heartbeat CPU 0 instructions: 16500148 cycles: 5868272 heartbeat IPC: 2.809 cumulative IPC: 2.812 (Simulation time: 00 hr 01 min 49 sec)
Heartbeat CPU 0 instructions: 17000148 cycles: 6024373 heartbeat IPC: 3.203 cumulative IPC: 2.822 (Simulation time: 00 hr 01 min 51 sec)
Heartbeat CPU 0 instructions: 17500148 cycles: 6173516 heartbeat IPC: 3.352 cumulative IPC: 2.835 (Simulation time: 00 hr 01 min 54 sec)
Heartbeat CPU 0 instructions: 18000148 cycles: 6317047 heartbeat IPC: 3.484 cumulative IPC: 2.849 (Simulation time: 00 hr 01 min 57 sec)
Heartbeat CPU 0 instructions: 18500151 cycles: 6428081 heartbeat IPC: 4.503 cumulative IPC: 2.878 (Simulation time: 00 hr 01 min 59 sec)
Heartbeat CPU 0 instructions: 19000158 cycles: 6542253 heartbeat IPC: 4.379 cumulative IPC: 2.904 (Simulation time: 00 hr 02 min 01 sec)
Heartbeat CPU 0 instructions: 19500161 cycles: 6656063 heartbeat IPC: 4.393 cumulative IPC: 2.93 (Simulation time: 00 hr 02 min 03 sec)
Heartbeat CPU 0 instructions: 20000166 cycles: 6773539 heartbeat IPC: 4.256 cumulative IPC: 2.953 (Simulation time: 00 hr 02 min 05 sec)
Heartbeat CPU 0 instructions: 20500169 cycles: 6945969 heartbeat IPC: 2.9 cumulative IPC: 2.951 (Simulation time: 00 hr 02 min 08 sec)
Heartbeat CPU 0 instructions: 21000176 cycles: 7121460 heartbeat IPC: 2.849 cumulative IPC: 2.949 (Simulation time: 00 hr 02 min 12 sec)
Heartbeat CPU 0 instructions: 21500178 cycles: 7298741 heartbeat IPC: 2.82 cumulative IPC: 2.946 (Simulation time: 00 hr 02 min 15 sec)
Heartbeat CPU 0 instructions: 22000182 cycles: 7470189 heartbeat IPC: 2.916 cumulative IPC: 2.945 (Simulation time: 00 hr 02 min 18 sec)
Heartbeat CPU 0 instructions: 22500187 cycles: 7645312 heartbeat IPC: 2.855 cumulative IPC: 2.943 (Simulation time: 00 hr 02 min 21 sec)
Heartbeat CPU 0 instructions: 23000188 cycles: 7746059 heartbeat IPC: 4.963 cumulative IPC: 2.969 (Simulation time: 00 hr 02 min 23 sec)
Heartbeat CPU 0 instructions: 23500192 cycles: 7853841 heartbeat IPC: 4.639 cumulative IPC: 2.992 (Simulation time: 00 hr 02 min 25 sec)
Heartbeat CPU 0 instructions: 24000195 cycles: 7959531 heartbeat IPC: 4.731 cumulative IPC: 3.015 (Simulation time: 00 hr 02 min 27 sec)
Heartbeat CPU 0 instructions: 24500195 cycles: 8090051 heartbeat IPC: 3.831 cumulative IPC: 3.028 (Simulation time: 00 hr 02 min 30 sec)
Heartbeat CPU 0 instructions: 25000199 cycles: 8214463 heartbeat IPC: 4.019 cumulative IPC: 3.043 (Simulation time: 00 hr 02 min 32 sec)
Heartbeat CPU 0 instructions: 25500199 cycles: 8371996 heartbeat IPC: 3.174 cumulative IPC: 3.046 (Simulation time: 00 hr 02 min 35 sec)
Heartbeat CPU 0 instructions: 26000200 cycles: 8520209 heartbeat IPC: 3.374 cumulative IPC: 3.052 (Simulation time: 00 hr 02 min 38 sec)
Heartbeat CPU 0 instructions: 26500207 cycles: 8688484 heartbeat IPC: 2.971 cumulative IPC: 3.05 (Simulation time: 00 hr 02 min 41 sec)
Heartbeat CPU 0 instructions: 27000214 cycles: 8845818 heartbeat IPC: 3.178 cumulative IPC: 3.052 (Simulation time: 00 hr 02 min 45 sec)
Heartbeat CPU 0 instructions: 27500216 cycles: 9012862 heartbeat IPC: 2.993 cumulative IPC: 3.051 (Simulation time: 00 hr 02 min 48 sec)
Heartbeat CPU 0 instructions: 28000216 cycles: 9170650 heartbeat IPC: 3.169 cumulative IPC: 3.053 (Simulation time: 00 hr 02 min 51 sec)
Heartbeat CPU 0 instructions: 28500220 cycles: 9382966 heartbeat IPC: 2.355 cumulative IPC: 3.037 (Simulation time: 00 hr 02 min 55 sec)
Heartbeat CPU 0 instructions: 29000223 cycles: 9553455 heartbeat IPC: 2.933 cumulative IPC: 3.036 (Simulation time: 00 hr 02 min 58 sec)
Heartbeat CPU 0 instructions: 29500223 cycles: 9707927 heartbeat IPC: 3.237 cumulative IPC: 3.039 (Simulation time: 00 hr 03 min 01 sec)
Heartbeat CPU 0 instructions: 30000224 cycles: 9856189 heartbeat IPC: 3.372 cumulative IPC: 3.044 (Simulation time: 00 hr 03 min 04 sec)
Heartbeat CPU 0 instructions: 30500231 cycles: 10008165 heartbeat IPC: 3.29 cumulative IPC: 3.048 (Simulation time: 00 hr 03 min 07 sec)
Heartbeat CPU 0 instructions: 31000234 cycles: 10181715 heartbeat IPC: 2.881 cumulative IPC: 3.045 (Simulation time: 00 hr 03 min 10 sec)
Heartbeat CPU 0 instructions: 31500238 cycles: 10326846 heartbeat IPC: 3.445 cumulative IPC: 3.05 (Simulation time: 00 hr 03 min 13 sec)
Heartbeat CPU 0 instructions: 32000240 cycles: 10487451 heartbeat IPC: 3.113 cumulative IPC: 3.051 (Simulation time: 00 hr 03 min 16 sec)
Heartbeat CPU 0 instructions: 32500245 cycles: 10646149 heartbeat IPC: 3.151 cumulative IPC: 3.053 (Simulation time: 00 hr 03 min 19 sec)
Heartbeat CPU 0 instructions: 33000249 cycles: 10788641 heartbeat IPC: 3.509 cumulative IPC: 3.059 (Simulation time: 00 hr 03 min 22 sec)
Heartbeat CPU 0 instructions: 33500253 cycles: 10944434 heartbeat IPC: 3.209 cumulative IPC: 3.061 (Simulation time: 00 hr 03 min 24 sec)
Heartbeat CPU 0 instructions: 34000257 cycles: 11120750 heartbeat IPC: 2.836 cumulative IPC: 3.057 (Simulation time: 00 hr 03 min 28 sec)
Heartbeat CPU 0 instructions: 34500262 cycles: 11276908 heartbeat IPC: 3.202 cumulative IPC: 3.059 (Simulation time: 00 hr 03 min 31 sec)
Heartbeat CPU 0 instructions: 35000263 cycles: 11396540 heartbeat IPC: 4.179 cumulative IPC: 3.071 (Simulation time: 00 hr 03 min 33 sec)
Heartbeat CPU 0 instructions: 35500268 cycles: 11520746 heartbeat IPC: 4.026 cumulative IPC: 3.081 (Simulation time: 00 hr 03 min 36 sec)
Heartbeat CPU 0 instructions: 36000273 cycles: 11641182 heartbeat IPC: 4.152 cumulative IPC: 3.092 (Simulation time: 00 hr 03 min 38 sec)
Heartbeat CPU 0 instructions: 36500278 cycles: 11799646 heartbeat IPC: 3.155 cumulative IPC: 3.093 (Simulation time: 00 hr 03 min 41 sec)
Heartbeat CPU 0 instructions: 37000281 cycles: 11910675 heartbeat IPC: 4.503 cumulative IPC: 3.106 (Simulation time: 00 hr 03 min 43 sec)
Heartbeat CPU 0 instructions: 37500285 cycles: 12042394 heartbeat IPC: 3.796 cumulative IPC: 3.114 (Simulation time: 00 hr 03 min 46 sec)
Heartbeat CPU 0 instructions: 38000291 cycles: 12142405 heartbeat IPC: 5 cumulative IPC: 3.13 (Simulation time: 00 hr 03 min 48 sec)
Heartbeat CPU 0 instructions: 38500291 cycles: 12245852 heartbeat IPC: 4.833 cumulative IPC: 3.144 (Simulation time: 00 hr 03 min 50 sec)
Heartbeat CPU 0 instructions: 39000291 cycles: 12357033 heartbeat IPC: 4.497 cumulative IPC: 3.156 (Simulation time: 00 hr 03 min 52 sec)
Heartbeat CPU 0 instructions: 39500292 cycles: 12464003 heartbeat IPC: 4.674 cumulative IPC: 3.169 (Simulation time: 00 hr 03 min 54 sec)
Heartbeat CPU 0 instructions: 40000296 cycles: 12576627 heartbeat IPC: 4.44 cumulative IPC: 3.181 (Simulation time: 00 hr 03 min 56 sec)
Heartbeat CPU 0 instructions: 40500299 cycles: 12691575 heartbeat IPC: 4.35 cumulative IPC: 3.191 (Simulation time: 00 hr 03 min 58 sec)
Heartbeat CPU 0 instructions: 41000299 cycles: 12835568 heartbeat IPC: 3.472 cumulative IPC: 3.194 (Simulation time: 00 hr 04 min 01 sec)
Heartbeat CPU 0 instructions: 41500306 cycles: 12984863 heartbeat IPC: 3.349 cumulative IPC: 3.196 (Simulation time: 00 hr 04 min 04 sec)
Heartbeat CPU 0 instructions: 42000309 cycles: 13136288 heartbeat IPC: 3.302 cumulative IPC: 3.197 (Simulation time: 00 hr 04 min 07 sec)
Heartbeat CPU 0 instructions: 42500310 cycles: 13297609 heartbeat IPC: 3.099 cumulative IPC: 3.196 (Simulation time: 00 hr 04 min 10 sec)
Heartbeat CPU 0 instructions: 43000311 cycles: 13445149 heartbeat IPC: 3.389 cumulative IPC: 3.198 (Simulation time: 00 hr 04 min 13 sec)
Heartbeat CPU 0 instructions: 43500315 cycles: 13615627 heartbeat IPC: 2.933 cumulative IPC: 3.195 (Simulation time: 00 hr 04 min 17 sec)
Heartbeat CPU 0 instructions: 44000315 cycles: 13751391 heartbeat IPC: 3.683 cumulative IPC: 3.2 (Simulation time: 00 hr 04 min 19 sec)
Heartbeat CPU 0 instructions: 44500320 cycles: 13895221 heartbeat IPC: 3.476 cumulative IPC: 3.203 (Simulation time: 00 hr 04 min 22 sec)
Heartbeat CPU 0 instructions: 45000322 cycles: 14055735 heartbeat IPC: 3.115 cumulative IPC: 3.202 (Simulation time: 00 hr 04 min 26 sec)
Heartbeat CPU 0 instructions: 45500328 cycles: 14198997 heartbeat IPC: 3.49 cumulative IPC: 3.204 (Simulation time: 00 hr 04 min 28 sec)
Heartbeat CPU 0 instructions: 46000334 cycles: 14360329 heartbeat IPC: 3.099 cumulative IPC: 3.203 (Simulation time: 00 hr 04 min 32 sec)
Heartbeat CPU 0 instructions: 46500340 cycles: 14522320 heartbeat IPC: 3.087 cumulative IPC: 3.202 (Simulation time: 00 hr 04 min 35 sec)
Heartbeat CPU 0 instructions: 47000342 cycles: 14677273 heartbeat IPC: 3.227 cumulative IPC: 3.202 (Simulation time: 00 hr 04 min 38 sec)
Heartbeat CPU 0 instructions: 47500346 cycles: 14828798 heartbeat IPC: 3.3 cumulative IPC: 3.203 (Simulation time: 00 hr 04 min 41 sec)
Heartbeat CPU 0 instructions: 48000349 cycles: 14975251 heartbeat IPC: 3.414 cumulative IPC: 3.205 (Simulation time: 00 hr 04 min 44 sec)
Heartbeat CPU 0 instructions: 48500353 cycles: 15104284 heartbeat IPC: 3.875 cumulative IPC: 3.211 (Simulation time: 00 hr 04 min 46 sec)
Heartbeat CPU 0 instructions: 49000354 cycles: 15227101 heartbeat IPC: 4.071 cumulative IPC: 3.218 (Simulation time: 00 hr 04 min 48 sec)
Heartbeat CPU 0 instructions: 49500359 cycles: 15354656 heartbeat IPC: 3.92 cumulative IPC: 3.224 (Simulation time: 00 hr 04 min 51 sec)
Warmup halting CPU 0 at instruction 50000000 cycle 15478617 for remainder of phase
Warmup finished CPU 0 instructions: 50000000 cycles: 15478617 cumulative IPC: 3.23 (Simulation time: 00 hr 04 min 53 sec)
Warmup complete CPU 0 instructions: 50000000 cycles: 15478617 cumulative IPC: 3.23 (Simulation time: 00 hr 04 min 53 sec)
Heartbeat CPU 0 instructions: 50000361 cycles: 15478690 heartbeat IPC: 4.031 cumulative IPC: 4.945 (Simulation time: 00 hr 04 min 53 sec)
Heartbeat CPU 0 instructions: 50500362 cycles: 16889857 heartbeat IPC: 0.3543 cumulative IPC: 0.3546 (Simulation time: 00 hr 05 min 05 sec)
Heartbeat CPU 0 instructions: 51000367 cycles: 19312225 heartbeat IPC: 0.2064 cumulative IPC: 0.2609 (Simulation time: 00 hr 05 min 24 sec)
Heartbeat CPU 0 instructions: 51500369 cycles: 20788633 heartbeat IPC: 0.3387 cumulative IPC: 0.2826 (Simulation time: 00 hr 05 min 35 sec)
Heartbeat CPU 0 instructions: 52000370 cycles: 22681327 heartbeat IPC: 0.2642 cumulative IPC: 0.2777 (Simulation time: 00 hr 05 min 49 sec)
Heartbeat CPU 0 instructions: 52500373 cycles: 24791641 heartbeat IPC: 0.2369 cumulative IPC: 0.2685 (Simulation time: 00 hr 06 min 05 sec)
Heartbeat CPU 0 instructions: 53000375 cycles: 26479648 heartbeat IPC: 0.2962 cumulative IPC: 0.2727 (Simulation time: 00 hr 06 min 17 sec)
Heartbeat CPU 0 instructions: 53500375 cycles: 28862574 heartbeat IPC: 0.2098 cumulative IPC: 0.2615 (Simulation time: 00 hr 06 min 35 sec)
Heartbeat CPU 0 instructions: 54000380 cycles: 31272006 heartbeat IPC: 0.2075 cumulative IPC: 0.2533 (Simulation time: 00 hr 06 min 52 sec)
Heartbeat CPU 0 instructions: 54500385 cycles: 33092902 heartbeat IPC: 0.2746 cumulative IPC: 0.2555 (Simulation time: 00 hr 07 min 06 sec)
Heartbeat CPU 0 instructions: 55000385 cycles: 34748178 heartbeat IPC: 0.3021 cumulative IPC: 0.2595 (Simulation time: 00 hr 07 min 19 sec)
Heartbeat CPU 0 instructions: 55500385 cycles: 36824056 heartbeat IPC: 0.2409 cumulative IPC: 0.2577 (Simulation time: 00 hr 07 min 34 sec)
Heartbeat CPU 0 instructions: 56000386 cycles: 39037184 heartbeat IPC: 0.2259 cumulative IPC: 0.2547 (Simulation time: 00 hr 07 min 50 sec)
Heartbeat CPU 0 instructions: 56500387 cycles: 40924830 heartbeat IPC: 0.2649 cumulative IPC: 0.2555 (Simulation time: 00 hr 08 min 04 sec)
Heartbeat CPU 0 instructions: 57000387 cycles: 42132048 heartbeat IPC: 0.4142 cumulative IPC: 0.2626 (Simulation time: 00 hr 08 min 14 sec)
Heartbeat CPU 0 instructions: 57500388 cycles: 44809511 heartbeat IPC: 0.1867 cumulative IPC: 0.2557 (Simulation time: 00 hr 08 min 34 sec)
Heartbeat CPU 0 instructions: 58000392 cycles: 46249425 heartbeat IPC: 0.3472 cumulative IPC: 0.26 (Simulation time: 00 hr 08 min 45 sec)
Heartbeat CPU 0 instructions: 58500392 cycles: 48052278 heartbeat IPC: 0.2773 cumulative IPC: 0.261 (Simulation time: 00 hr 08 min 59 sec)
Heartbeat CPU 0 instructions: 59000394 cycles: 49527522 heartbeat IPC: 0.3389 cumulative IPC: 0.2643 (Simulation time: 00 hr 09 min 12 sec)
Heartbeat CPU 0 instructions: 59500398 cycles: 50013846 heartbeat IPC: 1.028 cumulative IPC: 0.2751 (Simulation time: 00 hr 09 min 17 sec)
Heartbeat CPU 0 instructions: 60000405 cycles: 52639148 heartbeat IPC: 0.1905 cumulative IPC: 0.2691 (Simulation time: 00 hr 09 min 36 sec)
Heartbeat CPU 0 instructions: 60500405 cycles: 53727479 heartbeat IPC: 0.4594 cumulative IPC: 0.2745 (Simulation time: 00 hr 09 min 46 sec)
Heartbeat CPU 0 instructions: 61000406 cycles: 56353536 heartbeat IPC: 0.1904 cumulative IPC: 0.2691 (Simulation time: 00 hr 10 min 05 sec)
Heartbeat CPU 0 instructions: 61500412 cycles: 59324391 heartbeat IPC: 0.1683 cumulative IPC: 0.2623 (Simulation time: 00 hr 10 min 26 sec)
Heartbeat CPU 0 instructions: 62000414 cycles: 61681544 heartbeat IPC: 0.2121 cumulative IPC: 0.2597 (Simulation time: 00 hr 10 min 44 sec)
Heartbeat CPU 0 instructions: 62500415 cycles: 64303718 heartbeat IPC: 0.1907 cumulative IPC: 0.256 (Simulation time: 00 hr 11 min 02 sec)
Heartbeat CPU 0 instructions: 63000417 cycles: 66401466 heartbeat IPC: 0.2384 cumulative IPC: 0.2553 (Simulation time: 00 hr 11 min 18 sec)
Heartbeat CPU 0 instructions: 63500417 cycles: 68329786 heartbeat IPC: 0.2593 cumulative IPC: 0.2554 (Simulation time: 00 hr 11 min 33 sec)
Heartbeat CPU 0 instructions: 64000418 cycles: 70358121 heartbeat IPC: 0.2465 cumulative IPC: 0.2551 (Simulation time: 00 hr 11 min 48 sec)
Heartbeat CPU 0 instructions: 64500419 cycles: 72588120 heartbeat IPC: 0.2242 cumulative IPC: 0.2539 (Simulation time: 00 hr 12 min 04 sec)
Heartbeat CPU 0 instructions: 65000426 cycles: 75078124 heartbeat IPC: 0.2008 cumulative IPC: 0.2517 (Simulation time: 00 hr 12 min 22 sec)
Heartbeat CPU 0 instructions: 65500432 cycles: 76464319 heartbeat IPC: 0.3607 cumulative IPC: 0.2542 (Simulation time: 00 hr 12 min 33 sec)
Heartbeat CPU 0 instructions: 66000432 cycles: 78184533 heartbeat IPC: 0.2907 cumulative IPC: 0.2552 (Simulation time: 00 hr 12 min 46 sec)
Heartbeat CPU 0 instructions: 66500432 cycles: 79477529 heartbeat IPC: 0.3867 cumulative IPC: 0.2578 (Simulation time: 00 hr 12 min 56 sec)
Heartbeat CPU 0 instructions: 67000434 cycles: 81140266 heartbeat IPC: 0.3007 cumulative IPC: 0.2589 (Simulation time: 00 hr 13 min 09 sec)
Heartbeat CPU 0 instructions: 67500434 cycles: 82788166 heartbeat IPC: 0.3034 cumulative IPC: 0.26 (Simulation time: 00 hr 13 min 21 sec)
Heartbeat CPU 0 instructions: 68000441 cycles: 84536632 heartbeat IPC: 0.286 cumulative IPC: 0.2607 (Simulation time: 00 hr 13 min 35 sec)
Heartbeat CPU 0 instructions: 68500446 cycles: 85827392 heartbeat IPC: 0.3874 cumulative IPC: 0.263 (Simulation time: 00 hr 13 min 46 sec)
Heartbeat CPU 0 instructions: 69000447 cycles: 86380204 heartbeat IPC: 0.9045 cumulative IPC: 0.268 (Simulation time: 00 hr 13 min 51 sec)
Heartbeat CPU 0 instructions: 69500454 cycles: 86719656 heartbeat IPC: 1.473 cumulative IPC: 0.2737 (Simulation time: 00 hr 13 min 55 sec)
Heartbeat CPU 0 instructions: 70000459 cycles: 87096662 heartbeat IPC: 1.326 cumulative IPC: 0.2793 (Simulation time: 00 hr 14 min 00 sec)
Heartbeat CPU 0 instructions: 70500463 cycles: 87441565 heartbeat IPC: 1.45 cumulative IPC: 0.2849 (Simulation time: 00 hr 14 min 04 sec)
Heartbeat CPU 0 instructions: 71000463 cycles: 87802401 heartbeat IPC: 1.386 cumulative IPC: 0.2904 (Simulation time: 00 hr 14 min 08 sec)
Heartbeat CPU 0 instructions: 71500464 cycles: 88142927 heartbeat IPC: 1.468 cumulative IPC: 0.2959 (Simulation time: 00 hr 14 min 12 sec)
Heartbeat CPU 0 instructions: 72000466 cycles: 90660802 heartbeat IPC: 0.1986 cumulative IPC: 0.2926 (Simulation time: 00 hr 14 min 32 sec)
Heartbeat CPU 0 instructions: 72500468 cycles: 91958493 heartbeat IPC: 0.3853 cumulative IPC: 0.2942 (Simulation time: 00 hr 14 min 43 sec)
Heartbeat CPU 0 instructions: 73000471 cycles: 92449069 heartbeat IPC: 1.019 cumulative IPC: 0.2988 (Simulation time: 00 hr 14 min 48 sec)
Heartbeat CPU 0 instructions: 73500472 cycles: 92971970 heartbeat IPC: 0.9562 cumulative IPC: 0.3033 (Simulation time: 00 hr 14 min 54 sec)
Heartbeat CPU 0 instructions: 74000477 cycles: 94071941 heartbeat IPC: 0.4546 cumulative IPC: 0.3054 (Simulation time: 00 hr 15 min 05 sec)
Heartbeat CPU 0 instructions: 74500479 cycles: 95952612 heartbeat IPC: 0.2659 cumulative IPC: 0.3045 (Simulation time: 00 hr 15 min 22 sec)
Heartbeat CPU 0 instructions: 75000479 cycles: 97184967 heartbeat IPC: 0.4057 cumulative IPC: 0.306 (Simulation time: 00 hr 15 min 31 sec)
Heartbeat CPU 0 instructions: 75500481 cycles: 98426998 heartbeat IPC: 0.4026 cumulative IPC: 0.3074 (Simulation time: 00 hr 15 min 41 sec)
Heartbeat CPU 0 instructions: 76000484 cycles: 98996696 heartbeat IPC: 0.8777 cumulative IPC: 0.3113 (Simulation time: 00 hr 15 min 47 sec)
Heartbeat CPU 0 instructions: 76500487 cycles: 99320306 heartbeat IPC: 1.545 cumulative IPC: 0.3161 (Simulation time: 00 hr 15 min 51 sec)
Heartbeat CPU 0 instructions: 77000488 cycles: 99689394 heartbeat IPC: 1.355 cumulative IPC: 0.3206 (Simulation time: 00 hr 15 min 55 sec)
Heartbeat CPU 0 instructions: 77500494 cycles: 100100963 heartbeat IPC: 1.215 cumulative IPC: 0.325 (Simulation time: 00 hr 15 min 59 sec)
Heartbeat CPU 0 instructions: 78000496 cycles: 100446480 heartbeat IPC: 1.447 cumulative IPC: 0.3295 (Simulation time: 00 hr 16 min 04 sec)
Heartbeat CPU 0 instructions: 78500497 cycles: 102464911 heartbeat IPC: 0.2477 cumulative IPC: 0.3276 (Simulation time: 00 hr 16 min 19 sec)
Heartbeat CPU 0 instructions: 79000498 cycles: 103944126 heartbeat IPC: 0.338 cumulative IPC: 0.3278 (Simulation time: 00 hr 16 min 31 sec)
Heartbeat CPU 0 instructions: 79500499 cycles: 105470490 heartbeat IPC: 0.3276 cumulative IPC: 0.3278 (Simulation time: 00 hr 16 min 42 sec)
Heartbeat CPU 0 instructions: 80000501 cycles: 107450980 heartbeat IPC: 0.2525 cumulative IPC: 0.3262 (Simulation time: 00 hr 16 min 57 sec)
Heartbeat CPU 0 instructions: 80500501 cycles: 109496352 heartbeat IPC: 0.2445 cumulative IPC: 0.3244 (Simulation time: 00 hr 17 min 12 sec)
Heartbeat CPU 0 instructions: 81000504 cycles: 111002486 heartbeat IPC: 0.332 cumulative IPC: 0.3245 (Simulation time: 00 hr 17 min 23 sec)
Heartbeat CPU 0 instructions: 81500504 cycles: 112894942 heartbeat IPC: 0.2642 cumulative IPC: 0.3234 (Simulation time: 00 hr 17 min 37 sec)
Heartbeat CPU 0 instructions: 82000508 cycles: 115048107 heartbeat IPC: 0.2322 cumulative IPC: 0.3214 (Simulation time: 00 hr 17 min 53 sec)
Heartbeat CPU 0 instructions: 82500513 cycles: 116823314 heartbeat IPC: 0.2817 cumulative IPC: 0.3207 (Simulation time: 00 hr 18 min 07 sec)
Heartbeat CPU 0 instructions: 83000513 cycles: 118887451 heartbeat IPC: 0.2422 cumulative IPC: 0.3191 (Simulation time: 00 hr 18 min 21 sec)
Heartbeat CPU 0 instructions: 83500515 cycles: 120444175 heartbeat IPC: 0.3212 cumulative IPC: 0.3192 (Simulation time: 00 hr 18 min 33 sec)
Heartbeat CPU 0 instructions: 84000515 cycles: 122321079 heartbeat IPC: 0.2664 cumulative IPC: 0.3182 (Simulation time: 00 hr 18 min 47 sec)
Heartbeat CPU 0 instructions: 84500515 cycles: 124235735 heartbeat IPC: 0.2611 cumulative IPC: 0.3172 (Simulation time: 00 hr 19 min 01 sec)
Heartbeat CPU 0 instructions: 85000515 cycles: 126431248 heartbeat IPC: 0.2277 cumulative IPC: 0.3155 (Simulation time: 00 hr 19 min 17 sec)
Heartbeat CPU 0 instructions: 85500522 cycles: 127982358 heartbeat IPC: 0.3224 cumulative IPC: 0.3155 (Simulation time: 00 hr 19 min 29 sec)
Heartbeat CPU 0 instructions: 86000523 cycles: 129023792 heartbeat IPC: 0.4801 cumulative IPC: 0.3171 (Simulation time: 00 hr 19 min 38 sec)
Heartbeat CPU 0 instructions: 86500523 cycles: 130710498 heartbeat IPC: 0.2964 cumulative IPC: 0.3168 (Simulation time: 00 hr 19 min 51 sec)
Heartbeat CPU 0 instructions: 87000525 cycles: 132558954 heartbeat IPC: 0.2705 cumulative IPC: 0.316 (Simulation time: 00 hr 20 min 04 sec)
Heartbeat CPU 0 instructions: 87500530 cycles: 134105508 heartbeat IPC: 0.3233 cumulative IPC: 0.3161 (Simulation time: 00 hr 20 min 16 sec)
Heartbeat CPU 0 instructions: 88000531 cycles: 136233937 heartbeat IPC: 0.2349 cumulative IPC: 0.3147 (Simulation time: 00 hr 20 min 31 sec)
Heartbeat CPU 0 instructions: 88500533 cycles: 138127851 heartbeat IPC: 0.264 cumulative IPC: 0.3139 (Simulation time: 00 hr 20 min 45 sec)
Heartbeat CPU 0 instructions: 89000538 cycles: 140620914 heartbeat IPC: 0.2006 cumulative IPC: 0.3116 (Simulation time: 00 hr 21 min 03 sec)
Heartbeat CPU 0 instructions: 89500540 cycles: 142258049 heartbeat IPC: 0.3054 cumulative IPC: 0.3116 (Simulation time: 00 hr 21 min 15 sec)
Heartbeat CPU 0 instructions: 90000541 cycles: 144032428 heartbeat IPC: 0.2818 cumulative IPC: 0.3112 (Simulation time: 00 hr 21 min 27 sec)
Heartbeat CPU 0 instructions: 90500542 cycles: 145850540 heartbeat IPC: 0.275 cumulative IPC: 0.3107 (Simulation time: 00 hr 21 min 41 sec)
Heartbeat CPU 0 instructions: 91000545 cycles: 146849894 heartbeat IPC: 0.5003 cumulative IPC: 0.3121 (Simulation time: 00 hr 21 min 50 sec)
Heartbeat CPU 0 instructions: 91500551 cycles: 147823439 heartbeat IPC: 0.5136 cumulative IPC: 0.3136 (Simulation time: 00 hr 21 min 58 sec)
Heartbeat CPU 0 instructions: 92000551 cycles: 149142228 heartbeat IPC: 0.3791 cumulative IPC: 0.3142 (Simulation time: 00 hr 22 min 09 sec)
Heartbeat CPU 0 instructions: 92500552 cycles: 151416487 heartbeat IPC: 0.2199 cumulative IPC: 0.3126 (Simulation time: 00 hr 22 min 24 sec)
Heartbeat CPU 0 instructions: 93000553 cycles: 153181024 heartbeat IPC: 0.2834 cumulative IPC: 0.3123 (Simulation time: 00 hr 22 min 37 sec)
Heartbeat CPU 0 instructions: 93500554 cycles: 154936952 heartbeat IPC: 0.2848 cumulative IPC: 0.3119 (Simulation time: 00 hr 22 min 49 sec)
Heartbeat CPU 0 instructions: 94000554 cycles: 156437135 heartbeat IPC: 0.3333 cumulative IPC: 0.3122 (Simulation time: 00 hr 23 min 00 sec)
Heartbeat CPU 0 instructions: 94500555 cycles: 158265712 heartbeat IPC: 0.2734 cumulative IPC: 0.3117 (Simulation time: 00 hr 23 min 13 sec)
Heartbeat CPU 0 instructions: 95000559 cycles: 160248081 heartbeat IPC: 0.2522 cumulative IPC: 0.3108 (Simulation time: 00 hr 23 min 27 sec)
Heartbeat CPU 0 instructions: 95500559 cycles: 161649241 heartbeat IPC: 0.3568 cumulative IPC: 0.3113 (Simulation time: 00 hr 23 min 38 sec)
Heartbeat CPU 0 instructions: 96000566 cycles: 162834517 heartbeat IPC: 0.4218 cumulative IPC: 0.3122 (Simulation time: 00 hr 23 min 47 sec)
Heartbeat CPU 0 instructions: 96500567 cycles: 164704044 heartbeat IPC: 0.2674 cumulative IPC: 0.3116 (Simulation time: 00 hr 24 min 01 sec)
Heartbeat CPU 0 instructions: 97000567 cycles: 165829587 heartbeat IPC: 0.4442 cumulative IPC: 0.3126 (Simulation time: 00 hr 24 min 09 sec)
Heartbeat CPU 0 instructions: 97500569 cycles: 166248408 heartbeat IPC: 1.194 cumulative IPC: 0.3151 (Simulation time: 00 hr 24 min 13 sec)
Heartbeat CPU 0 instructions: 98000572 cycles: 167464262 heartbeat IPC: 0.4112 cumulative IPC: 0.3158 (Simulation time: 00 hr 24 min 22 sec)
Heartbeat CPU 0 instructions: 98500572 cycles: 170065868 heartbeat IPC: 0.1922 cumulative IPC: 0.3137 (Simulation time: 00 hr 24 min 39 sec)
Heartbeat CPU 0 instructions: 99000572 cycles: 171034349 heartbeat IPC: 0.5163 cumulative IPC: 0.315 (Simulation time: 00 hr 24 min 47 sec)
Heartbeat CPU 0 instructions: 99500572 cycles: 174146282 heartbeat IPC: 0.1607 cumulative IPC: 0.312 (Simulation time: 00 hr 25 min 08 sec)
Heartbeat CPU 0 instructions: 100000577 cycles: 175903008 heartbeat IPC: 0.2846 cumulative IPC: 0.3117 (Simulation time: 00 hr 25 min 20 sec)
Heartbeat CPU 0 instructions: 100500577 cycles: 177848203 heartbeat IPC: 0.257 cumulative IPC: 0.311 (Simulation time: 00 hr 25 min 35 sec)
Heartbeat CPU 0 instructions: 101000578 cycles: 179164121 heartbeat IPC: 0.38 cumulative IPC: 0.3116 (Simulation time: 00 hr 25 min 45 sec)
Heartbeat CPU 0 instructions: 101500581 cycles: 181233183 heartbeat IPC: 0.2417 cumulative IPC: 0.3107 (Simulation time: 00 hr 25 min 59 sec)
Heartbeat CPU 0 instructions: 102000581 cycles: 183766356 heartbeat IPC: 0.1974 cumulative IPC: 0.309 (Simulation time: 00 hr 26 min 16 sec)
Heartbeat CPU 0 instructions: 102500588 cycles: 185732408 heartbeat IPC: 0.2543 cumulative IPC: 0.3084 (Simulation time: 00 hr 26 min 30 sec)
Heartbeat CPU 0 instructions: 103000590 cycles: 186715993 heartbeat IPC: 0.5083 cumulative IPC: 0.3095 (Simulation time: 00 hr 26 min 38 sec)
Heartbeat CPU 0 instructions: 103500590 cycles: 189359225 heartbeat IPC: 0.1892 cumulative IPC: 0.3077 (Simulation time: 00 hr 26 min 55 sec)
Heartbeat CPU 0 instructions: 104000591 cycles: 191280639 heartbeat IPC: 0.2602 cumulative IPC: 0.3072 (Simulation time: 00 hr 27 min 09 sec)
Heartbeat CPU 0 instructions: 104500595 cycles: 192723426 heartbeat IPC: 0.3466 cumulative IPC: 0.3075 (Simulation time: 00 hr 27 min 19 sec)
Heartbeat CPU 0 instructions: 105000595 cycles: 195261611 heartbeat IPC: 0.197 cumulative IPC: 0.3059 (Simulation time: 00 hr 27 min 36 sec)
Heartbeat CPU 0 instructions: 105500596 cycles: 196977998 heartbeat IPC: 0.2913 cumulative IPC: 0.3058 (Simulation time: 00 hr 27 min 48 sec)
Heartbeat CPU 0 instructions: 106000596 cycles: 198884166 heartbeat IPC: 0.2623 cumulative IPC: 0.3053 (Simulation time: 00 hr 28 min 01 sec)
Heartbeat CPU 0 instructions: 106500596 cycles: 200488729 heartbeat IPC: 0.3116 cumulative IPC: 0.3054 (Simulation time: 00 hr 28 min 12 sec)
Heartbeat CPU 0 instructions: 107000598 cycles: 202712578 heartbeat IPC: 0.2248 cumulative IPC: 0.3044 (Simulation time: 00 hr 28 min 27 sec)
Heartbeat CPU 0 instructions: 107500598 cycles: 204484138 heartbeat IPC: 0.2822 cumulative IPC: 0.3042 (Simulation time: 00 hr 28 min 39 sec)
Heartbeat CPU 0 instructions: 108000604 cycles: 206166389 heartbeat IPC: 0.2972 cumulative IPC: 0.3042 (Simulation time: 00 hr 28 min 50 sec)
Heartbeat CPU 0 instructions: 108500605 cycles: 208126911 heartbeat IPC: 0.255 cumulative IPC: 0.3037 (Simulation time: 00 hr 29 min 03 sec)
Heartbeat CPU 0 instructions: 109000606 cycles: 208955319 heartbeat IPC: 0.6036 cumulative IPC: 0.3049 (Simulation time: 00 hr 29 min 09 sec)
Heartbeat CPU 0 instructions: 109500606 cycles: 211199406 heartbeat IPC: 0.2228 cumulative IPC: 0.304 (Simulation time: 00 hr 29 min 24 sec)
Heartbeat CPU 0 instructions: 110000606 cycles: 212742466 heartbeat IPC: 0.324 cumulative IPC: 0.3042 (Simulation time: 00 hr 29 min 35 sec)
Heartbeat CPU 0 instructions: 110500606 cycles: 215144782 heartbeat IPC: 0.2081 cumulative IPC: 0.303 (Simulation time: 00 hr 29 min 51 sec)
Heartbeat CPU 0 instructions: 111000607 cycles: 217296435 heartbeat IPC: 0.2324 cumulative IPC: 0.3023 (Simulation time: 00 hr 30 min 05 sec)
Heartbeat CPU 0 instructions: 111500609 cycles: 219537954 heartbeat IPC: 0.2231 cumulative IPC: 0.3014 (Simulation time: 00 hr 30 min 19 sec)
Heartbeat CPU 0 instructions: 112000609 cycles: 221202043 heartbeat IPC: 0.3005 cumulative IPC: 0.3014 (Simulation time: 00 hr 30 min 31 sec)
Heartbeat CPU 0 instructions: 112500610 cycles: 223018184 heartbeat IPC: 0.2753 cumulative IPC: 0.3012 (Simulation time: 00 hr 30 min 43 sec)
Heartbeat CPU 0 instructions: 113000611 cycles: 224569314 heartbeat IPC: 0.3223 cumulative IPC: 0.3013 (Simulation time: 00 hr 30 min 54 sec)
Heartbeat CPU 0 instructions: 113500613 cycles: 226562809 heartbeat IPC: 0.2508 cumulative IPC: 0.3008 (Simulation time: 00 hr 31 min 07 sec)
Heartbeat CPU 0 instructions: 114000613 cycles: 228784026 heartbeat IPC: 0.2251 cumulative IPC: 0.3 (Simulation time: 00 hr 31 min 23 sec)
Heartbeat CPU 0 instructions: 114500615 cycles: 230976554 heartbeat IPC: 0.228 cumulative IPC: 0.2993 (Simulation time: 00 hr 31 min 38 sec)
Heartbeat CPU 0 instructions: 115000615 cycles: 233369234 heartbeat IPC: 0.209 cumulative IPC: 0.2983 (Simulation time: 00 hr 31 min 53 sec)
Heartbeat CPU 0 instructions: 115500615 cycles: 235198050 heartbeat IPC: 0.2734 cumulative IPC: 0.2981 (Simulation time: 00 hr 32 min 05 sec)
Heartbeat CPU 0 instructions: 116000617 cycles: 237392780 heartbeat IPC: 0.2278 cumulative IPC: 0.2974 (Simulation time: 00 hr 32 min 19 sec)
Heartbeat CPU 0 instructions: 116500620 cycles: 239087717 heartbeat IPC: 0.295 cumulative IPC: 0.2974 (Simulation time: 00 hr 32 min 30 sec)
Heartbeat CPU 0 instructions: 117000626 cycles: 240303169 heartbeat IPC: 0.4114 cumulative IPC: 0.298 (Simulation time: 00 hr 32 min 39 sec)
Heartbeat CPU 0 instructions: 117500630 cycles: 241750615 heartbeat IPC: 0.3454 cumulative IPC: 0.2983 (Simulation time: 00 hr 32 min 49 sec)
Heartbeat CPU 0 instructions: 118000633 cycles: 243697330 heartbeat IPC: 0.2568 cumulative IPC: 0.298 (Simulation time: 00 hr 33 min 02 sec)
Heartbeat CPU 0 instructions: 118500638 cycles: 245400438 heartbeat IPC: 0.2936 cumulative IPC: 0.2979 (Simulation time: 00 hr 33 min 14 sec)
Heartbeat CPU 0 instructions: 119000639 cycles: 247458830 heartbeat IPC: 0.2429 cumulative IPC: 0.2974 (Simulation time: 00 hr 33 min 27 sec)
Heartbeat CPU 0 instructions: 119500646 cycles: 249203929 heartbeat IPC: 0.2865 cumulative IPC: 0.2974 (Simulation time: 00 hr 33 min 39 sec)
Heartbeat CPU 0 instructions: 120000646 cycles: 250838638 heartbeat IPC: 0.3059 cumulative IPC: 0.2974 (Simulation time: 00 hr 33 min 49 sec)
Heartbeat CPU 0 instructions: 120500650 cycles: 252869601 heartbeat IPC: 0.2462 cumulative IPC: 0.297 (Simulation time: 00 hr 34 min 02 sec)
Heartbeat CPU 0 instructions: 121000651 cycles: 255375159 heartbeat IPC: 0.1996 cumulative IPC: 0.296 (Simulation time: 00 hr 34 min 18 sec)
Heartbeat CPU 0 instructions: 121500652 cycles: 256616431 heartbeat IPC: 0.4028 cumulative IPC: 0.2965 (Simulation time: 00 hr 34 min 26 sec)
Heartbeat CPU 0 instructions: 122000652 cycles: 257337731 heartbeat IPC: 0.6932 cumulative IPC: 0.2977 (Simulation time: 00 hr 34 min 32 sec)
Heartbeat CPU 0 instructions: 122500655 cycles: 257645154 heartbeat IPC: 1.626 cumulative IPC: 0.2994 (Simulation time: 00 hr 34 min 35 sec)
Heartbeat CPU 0 instructions: 123000657 cycles: 258633043 heartbeat IPC: 0.5061 cumulative IPC: 0.3002 (Simulation time: 00 hr 34 min 41 sec)
Heartbeat CPU 0 instructions: 123500662 cycles: 259087981 heartbeat IPC: 1.099 cumulative IPC: 0.3017 (Simulation time: 00 hr 34 min 45 sec)
Heartbeat CPU 0 instructions: 124000665 cycles: 259676169 heartbeat IPC: 0.8501 cumulative IPC: 0.303 (Simulation time: 00 hr 34 min 50 sec)
Heartbeat CPU 0 instructions: 124500668 cycles: 261300045 heartbeat IPC: 0.3079 cumulative IPC: 0.3031 (Simulation time: 00 hr 35 min 01 sec)
Heartbeat CPU 0 instructions: 125000670 cycles: 263631115 heartbeat IPC: 0.2145 cumulative IPC: 0.3022 (Simulation time: 00 hr 35 min 15 sec)
Heartbeat CPU 0 instructions: 125500670 cycles: 265484098 heartbeat IPC: 0.2698 cumulative IPC: 0.302 (Simulation time: 00 hr 35 min 26 sec)
Heartbeat CPU 0 instructions: 126000670 cycles: 267155376 heartbeat IPC: 0.2992 cumulative IPC: 0.302 (Simulation time: 00 hr 35 min 37 sec)
Heartbeat CPU 0 instructions: 126500671 cycles: 269371844 heartbeat IPC: 0.2256 cumulative IPC: 0.3013 (Simulation time: 00 hr 35 min 51 sec)
Heartbeat CPU 0 instructions: 127000673 cycles: 270608614 heartbeat IPC: 0.4043 cumulative IPC: 0.3018 (Simulation time: 00 hr 35 min 59 sec)
Heartbeat CPU 0 instructions: 127500673 cycles: 272112094 heartbeat IPC: 0.3326 cumulative IPC: 0.302 (Simulation time: 00 hr 36 min 08 sec)
Heartbeat CPU 0 instructions: 128000675 cycles: 274309820 heartbeat IPC: 0.2275 cumulative IPC: 0.3014 (Simulation time: 00 hr 36 min 22 sec)
Heartbeat CPU 0 instructions: 128500682 cycles: 275571609 heartbeat IPC: 0.3963 cumulative IPC: 0.3018 (Simulation time: 00 hr 36 min 31 sec)
Heartbeat CPU 0 instructions: 129000682 cycles: 277089159 heartbeat IPC: 0.3295 cumulative IPC: 0.302 (Simulation time: 00 hr 36 min 40 sec)
Heartbeat CPU 0 instructions: 129500685 cycles: 277501301 heartbeat IPC: 1.213 cumulative IPC: 0.3034 (Simulation time: 00 hr 36 min 43 sec)
Heartbeat CPU 0 instructions: 130000686 cycles: 279502466 heartbeat IPC: 0.2499 cumulative IPC: 0.303 (Simulation time: 00 hr 36 min 56 sec)
Heartbeat CPU 0 instructions: 130500690 cycles: 281489032 heartbeat IPC: 0.2517 cumulative IPC: 0.3026 (Simulation time: 00 hr 37 min 08 sec)
Heartbeat CPU 0 instructions: 131000691 cycles: 283916673 heartbeat IPC: 0.206 cumulative IPC: 0.3017 (Simulation time: 00 hr 37 min 22 sec)
Heartbeat CPU 0 instructions: 131500691 cycles: 285136705 heartbeat IPC: 0.4098 cumulative IPC: 0.3022 (Simulation time: 00 hr 37 min 30 sec)
Heartbeat CPU 0 instructions: 132000691 cycles: 286490802 heartbeat IPC: 0.3692 cumulative IPC: 0.3026 (Simulation time: 00 hr 37 min 38 sec)
Heartbeat CPU 0 instructions: 132500692 cycles: 288342028 heartbeat IPC: 0.2701 cumulative IPC: 0.3024 (Simulation time: 00 hr 37 min 50 sec)
Heartbeat CPU 0 instructions: 133000695 cycles: 289967056 heartbeat IPC: 0.3077 cumulative IPC: 0.3024 (Simulation time: 00 hr 38 min 00 sec)
Heartbeat CPU 0 instructions: 133500696 cycles: 290596431 heartbeat IPC: 0.7944 cumulative IPC: 0.3035 (Simulation time: 00 hr 38 min 05 sec)
Heartbeat CPU 0 instructions: 134000697 cycles: 291472200 heartbeat IPC: 0.5709 cumulative IPC: 0.3044 (Simulation time: 00 hr 38 min 12 sec)
Heartbeat CPU 0 instructions: 134500697 cycles: 293021956 heartbeat IPC: 0.3226 cumulative IPC: 0.3045 (Simulation time: 00 hr 38 min 22 sec)
Heartbeat CPU 0 instructions: 135000697 cycles: 294947408 heartbeat IPC: 0.2597 cumulative IPC: 0.3042 (Simulation time: 00 hr 38 min 34 sec)
Heartbeat CPU 0 instructions: 135500699 cycles: 297568467 heartbeat IPC: 0.1908 cumulative IPC: 0.3031 (Simulation time: 00 hr 38 min 49 sec)
Heartbeat CPU 0 instructions: 136000699 cycles: 299622191 heartbeat IPC: 0.2435 cumulative IPC: 0.3027 (Simulation time: 00 hr 39 min 02 sec)
Heartbeat CPU 0 instructions: 136500701 cycles: 301174442 heartbeat IPC: 0.3221 cumulative IPC: 0.3028 (Simulation time: 00 hr 39 min 12 sec)
Heartbeat CPU 0 instructions: 137000701 cycles: 303095025 heartbeat IPC: 0.2603 cumulative IPC: 0.3025 (Simulation time: 00 hr 39 min 23 sec)
Heartbeat CPU 0 instructions: 137500701 cycles: 305429555 heartbeat IPC: 0.2142 cumulative IPC: 0.3018 (Simulation time: 00 hr 39 min 38 sec)
Heartbeat CPU 0 instructions: 138000703 cycles: 306788879 heartbeat IPC: 0.3678 cumulative IPC: 0.3021 (Simulation time: 00 hr 39 min 46 sec)
Heartbeat CPU 0 instructions: 138500703 cycles: 308874184 heartbeat IPC: 0.2398 cumulative IPC: 0.3016 (Simulation time: 00 hr 39 min 59 sec)
Heartbeat CPU 0 instructions: 139000703 cycles: 310656297 heartbeat IPC: 0.2806 cumulative IPC: 0.3015 (Simulation time: 00 hr 40 min 10 sec)
Heartbeat CPU 0 instructions: 139500704 cycles: 312066052 heartbeat IPC: 0.3547 cumulative IPC: 0.3018 (Simulation time: 00 hr 40 min 19 sec)
Heartbeat CPU 0 instructions: 140000707 cycles: 312775876 heartbeat IPC: 0.7044 cumulative IPC: 0.3027 (Simulation time: 00 hr 40 min 25 sec)
Heartbeat CPU 0 instructions: 140500710 cycles: 313145843 heartbeat IPC: 1.351 cumulative IPC: 0.304 (Simulation time: 00 hr 40 min 28 sec)
Heartbeat CPU 0 instructions: 141000710 cycles: 315247656 heartbeat IPC: 0.2379 cumulative IPC: 0.3036 (Simulation time: 00 hr 40 min 41 sec)
Heartbeat CPU 0 instructions: 141500711 cycles: 317268568 heartbeat IPC: 0.2474 cumulative IPC: 0.3032 (Simulation time: 00 hr 40 min 53 sec)
Heartbeat CPU 0 instructions: 142000712 cycles: 318470509 heartbeat IPC: 0.416 cumulative IPC: 0.3036 (Simulation time: 00 hr 41 min 02 sec)
Heartbeat CPU 0 instructions: 142500714 cycles: 319208287 heartbeat IPC: 0.6777 cumulative IPC: 0.3045 (Simulation time: 00 hr 41 min 09 sec)
Heartbeat CPU 0 instructions: 143000715 cycles: 319683385 heartbeat IPC: 1.052 cumulative IPC: 0.3057 (Simulation time: 00 hr 41 min 14 sec)
Heartbeat CPU 0 instructions: 143500721 cycles: 320199382 heartbeat IPC: 0.969 cumulative IPC: 0.3068 (Simulation time: 00 hr 41 min 20 sec)
Heartbeat CPU 0 instructions: 144000721 cycles: 320681718 heartbeat IPC: 1.037 cumulative IPC: 0.308 (Simulation time: 00 hr 41 min 26 sec)
Heartbeat CPU 0 instructions: 144500722 cycles: 321198729 heartbeat IPC: 0.9671 cumulative IPC: 0.3091 (Simulation time: 00 hr 41 min 31 sec)
Heartbeat CPU 0 instructions: 145000725 cycles: 321688568 heartbeat IPC: 1.021 cumulative IPC: 0.3102 (Simulation time: 00 hr 41 min 37 sec)
Heartbeat CPU 0 instructions: 145500732 cycles: 322200083 heartbeat IPC: 0.9775 cumulative IPC: 0.3114 (Simulation time: 00 hr 41 min 43 sec)
Heartbeat CPU 0 instructions: 146000735 cycles: 322693842 heartbeat IPC: 1.013 cumulative IPC: 0.3125 (Simulation time: 00 hr 41 min 48 sec)
Heartbeat CPU 0 instructions: 146500737 cycles: 323209566 heartbeat IPC: 0.9695 cumulative IPC: 0.3136 (Simulation time: 00 hr 41 min 54 sec)
Heartbeat CPU 0 instructions: 147000737 cycles: 323712770 heartbeat IPC: 0.9936 cumulative IPC: 0.3147 (Simulation time: 00 hr 42 min 00 sec)
Heartbeat CPU 0 instructions: 147500739 cycles: 324210661 heartbeat IPC: 1.004 cumulative IPC: 0.3158 (Simulation time: 00 hr 42 min 05 sec)
Heartbeat CPU 0 instructions: 148000740 cycles: 324700470 heartbeat IPC: 1.021 cumulative IPC: 0.3169 (Simulation time: 00 hr 42 min 11 sec)
Heartbeat CPU 0 instructions: 148500740 cycles: 327007079 heartbeat IPC: 0.2168 cumulative IPC: 0.3162 (Simulation time: 00 hr 42 min 26 sec)
Heartbeat CPU 0 instructions: 149000743 cycles: 328032836 heartbeat IPC: 0.4874 cumulative IPC: 0.3167 (Simulation time: 00 hr 42 min 33 sec)
Heartbeat CPU 0 instructions: 149500749 cycles: 328401188 heartbeat IPC: 1.357 cumulative IPC: 0.318 (Simulation time: 00 hr 42 min 36 sec)
Heartbeat CPU 0 instructions: 150000752 cycles: 329153673 heartbeat IPC: 0.6645 cumulative IPC: 0.3188 (Simulation time: 00 hr 42 min 42 sec)
Heartbeat CPU 0 instructions: 150500756 cycles: 330832292 heartbeat IPC: 0.2979 cumulative IPC: 0.3187 (Simulation time: 00 hr 42 min 53 sec)
Heartbeat CPU 0 instructions: 151000758 cycles: 331436294 heartbeat IPC: 0.8278 cumulative IPC: 0.3197 (Simulation time: 00 hr 42 min 58 sec)
Heartbeat CPU 0 instructions: 151500759 cycles: 331841843 heartbeat IPC: 1.233 cumulative IPC: 0.3208 (Simulation time: 00 hr 43 min 01 sec)
Heartbeat CPU 0 instructions: 152000759 cycles: 332240171 heartbeat IPC: 1.255 cumulative IPC: 0.322 (Simulation time: 00 hr 43 min 05 sec)
Heartbeat CPU 0 instructions: 152500762 cycles: 332614753 heartbeat IPC: 1.335 cumulative IPC: 0.3232 (Simulation time: 00 hr 43 min 08 sec)
Heartbeat CPU 0 instructions: 153000766 cycles: 334185559 heartbeat IPC: 0.3183 cumulative IPC: 0.3232 (Simulation time: 00 hr 43 min 19 sec)
Heartbeat CPU 0 instructions: 153500768 cycles: 336793449 heartbeat IPC: 0.1917 cumulative IPC: 0.3221 (Simulation time: 00 hr 43 min 34 sec)
Heartbeat CPU 0 instructions: 154000768 cycles: 338613892 heartbeat IPC: 0.2747 cumulative IPC: 0.3218 (Simulation time: 00 hr 43 min 45 sec)
Heartbeat CPU 0 instructions: 154500775 cycles: 340899881 heartbeat IPC: 0.2187 cumulative IPC: 0.3211 (Simulation time: 00 hr 43 min 58 sec)
Heartbeat CPU 0 instructions: 155000776 cycles: 342142425 heartbeat IPC: 0.4024 cumulative IPC: 0.3214 (Simulation time: 00 hr 44 min 06 sec)
Heartbeat CPU 0 instructions: 155500783 cycles: 344031618 heartbeat IPC: 0.2647 cumulative IPC: 0.3211 (Simulation time: 00 hr 44 min 17 sec)
Heartbeat CPU 0 instructions: 156000783 cycles: 345172699 heartbeat IPC: 0.4382 cumulative IPC: 0.3215 (Simulation time: 00 hr 44 min 24 sec)
Heartbeat CPU 0 instructions: 156500786 cycles: 347838190 heartbeat IPC: 0.1876 cumulative IPC: 0.3204 (Simulation time: 00 hr 44 min 39 sec)
Heartbeat CPU 0 instructions: 157000788 cycles: 349667124 heartbeat IPC: 0.2734 cumulative IPC: 0.3202 (Simulation time: 00 hr 44 min 51 sec)
Heartbeat CPU 0 instructions: 157500795 cycles: 350154275 heartbeat IPC: 1.026 cumulative IPC: 0.3212 (Simulation time: 00 hr 44 min 55 sec)
Heartbeat CPU 0 instructions: 158000800 cycles: 350501638 heartbeat IPC: 1.439 cumulative IPC: 0.3224 (Simulation time: 00 hr 44 min 58 sec)
Heartbeat CPU 0 instructions: 158500807 cycles: 350841746 heartbeat IPC: 1.47 cumulative IPC: 0.3235 (Simulation time: 00 hr 45 min 01 sec)
Heartbeat CPU 0 instructions: 159000812 cycles: 352978719 heartbeat IPC: 0.234 cumulative IPC: 0.323 (Simulation time: 00 hr 45 min 16 sec)
Heartbeat CPU 0 instructions: 159500812 cycles: 353550518 heartbeat IPC: 0.8744 cumulative IPC: 0.3239 (Simulation time: 00 hr 45 min 22 sec)
Heartbeat CPU 0 instructions: 160000816 cycles: 354039995 heartbeat IPC: 1.022 cumulative IPC: 0.3249 (Simulation time: 00 hr 45 min 27 sec)
Heartbeat CPU 0 instructions: 160500819 cycles: 354531763 heartbeat IPC: 1.017 cumulative IPC: 0.3259 (Simulation time: 00 hr 45 min 32 sec)
Heartbeat CPU 0 instructions: 161000824 cycles: 355074368 heartbeat IPC: 0.9215 cumulative IPC: 0.3269 (Simulation time: 00 hr 45 min 38 sec)
Heartbeat CPU 0 instructions: 161500830 cycles: 355782360 heartbeat IPC: 0.7062 cumulative IPC: 0.3277 (Simulation time: 00 hr 45 min 46 sec)
Heartbeat CPU 0 instructions: 162000832 cycles: 356403999 heartbeat IPC: 0.8043 cumulative IPC: 0.3285 (Simulation time: 00 hr 45 min 53 sec)
Heartbeat CPU 0 instructions: 162500832 cycles: 357022164 heartbeat IPC: 0.8088 cumulative IPC: 0.3294 (Simulation time: 00 hr 45 min 59 sec)
Heartbeat CPU 0 instructions: 163000834 cycles: 357584135 heartbeat IPC: 0.8897 cumulative IPC: 0.3303 (Simulation time: 00 hr 46 min 05 sec)
Heartbeat CPU 0 instructions: 163500838 cycles: 358174134 heartbeat IPC: 0.8475 cumulative IPC: 0.3312 (Simulation time: 00 hr 46 min 10 sec)
Heartbeat CPU 0 instructions: 164000842 cycles: 358793581 heartbeat IPC: 0.8072 cumulative IPC: 0.3321 (Simulation time: 00 hr 46 min 16 sec)
Heartbeat CPU 0 instructions: 164500844 cycles: 359075447 heartbeat IPC: 1.774 cumulative IPC: 0.3332 (Simulation time: 00 hr 46 min 18 sec)
Heartbeat CPU 0 instructions: 165000844 cycles: 361668705 heartbeat IPC: 0.1928 cumulative IPC: 0.3322 (Simulation time: 00 hr 46 min 34 sec)
Heartbeat CPU 0 instructions: 165500844 cycles: 364243779 heartbeat IPC: 0.1942 cumulative IPC: 0.3312 (Simulation time: 00 hr 46 min 48 sec)
Heartbeat CPU 0 instructions: 166000847 cycles: 366335676 heartbeat IPC: 0.239 cumulative IPC: 0.3306 (Simulation time: 00 hr 47 min 00 sec)
Heartbeat CPU 0 instructions: 166500847 cycles: 368445236 heartbeat IPC: 0.237 cumulative IPC: 0.3301 (Simulation time: 00 hr 47 min 12 sec)
Heartbeat CPU 0 instructions: 167000852 cycles: 371534715 heartbeat IPC: 0.1618 cumulative IPC: 0.3286 (Simulation time: 00 hr 47 min 28 sec)
Heartbeat CPU 0 instructions: 167500853 cycles: 372807672 heartbeat IPC: 0.3928 cumulative IPC: 0.3288 (Simulation time: 00 hr 47 min 36 sec)
Heartbeat CPU 0 instructions: 168000854 cycles: 373271601 heartbeat IPC: 1.078 cumulative IPC: 0.3298 (Simulation time: 00 hr 47 min 40 sec)
Heartbeat CPU 0 instructions: 168500861 cycles: 373619088 heartbeat IPC: 1.439 cumulative IPC: 0.3309 (Simulation time: 00 hr 47 min 44 sec)
Heartbeat CPU 0 instructions: 169000867 cycles: 373969751 heartbeat IPC: 1.426 cumulative IPC: 0.3319 (Simulation time: 00 hr 47 min 47 sec)
Heartbeat CPU 0 instructions: 169500872 cycles: 374292156 heartbeat IPC: 1.551 cumulative IPC: 0.333 (Simulation time: 00 hr 47 min 50 sec)
Heartbeat CPU 0 instructions: 170000874 cycles: 374633243 heartbeat IPC: 1.466 cumulative IPC: 0.3341 (Simulation time: 00 hr 47 min 53 sec)
Heartbeat CPU 0 instructions: 170500875 cycles: 375380146 heartbeat IPC: 0.6694 cumulative IPC: 0.3348 (Simulation time: 00 hr 48 min 00 sec)
Heartbeat CPU 0 instructions: 171000877 cycles: 377432035 heartbeat IPC: 0.2437 cumulative IPC: 0.3343 (Simulation time: 00 hr 48 min 13 sec)
Heartbeat CPU 0 instructions: 171500880 cycles: 380367149 heartbeat IPC: 0.1704 cumulative IPC: 0.333 (Simulation time: 00 hr 48 min 29 sec)
Heartbeat CPU 0 instructions: 172000880 cycles: 381220377 heartbeat IPC: 0.586 cumulative IPC: 0.3336 (Simulation time: 00 hr 48 min 35 sec)
Heartbeat CPU 0 instructions: 172500880 cycles: 381609079 heartbeat IPC: 1.286 cumulative IPC: 0.3346 (Simulation time: 00 hr 48 min 38 sec)
Heartbeat CPU 0 instructions: 173000881 cycles: 381973374 heartbeat IPC: 1.373 cumulative IPC: 0.3356 (Simulation time: 00 hr 48 min 42 sec)
Heartbeat CPU 0 instructions: 173500885 cycles: 382337685 heartbeat IPC: 1.372 cumulative IPC: 0.3366 (Simulation time: 00 hr 48 min 45 sec)
Heartbeat CPU 0 instructions: 174000885 cycles: 384949843 heartbeat IPC: 0.1914 cumulative IPC: 0.3356 (Simulation time: 00 hr 49 min 01 sec)
Heartbeat CPU 0 instructions: 174500885 cycles: 386784994 heartbeat IPC: 0.2725 cumulative IPC: 0.3353 (Simulation time: 00 hr 49 min 12 sec)
Heartbeat CPU 0 instructions: 175000885 cycles: 388062917 heartbeat IPC: 0.3913 cumulative IPC: 0.3355 (Simulation time: 00 hr 49 min 20 sec)
Heartbeat CPU 0 instructions: 175500885 cycles: 390437510 heartbeat IPC: 0.2106 cumulative IPC: 0.3347 (Simulation time: 00 hr 49 min 33 sec)
Heartbeat CPU 0 instructions: 176000886 cycles: 391705716 heartbeat IPC: 0.3943 cumulative IPC: 0.3349 (Simulation time: 00 hr 49 min 41 sec)
Heartbeat CPU 0 instructions: 176500888 cycles: 393456179 heartbeat IPC: 0.2856 cumulative IPC: 0.3347 (Simulation time: 00 hr 49 min 51 sec)
Heartbeat CPU 0 instructions: 177000888 cycles: 394757031 heartbeat IPC: 0.3844 cumulative IPC: 0.3348 (Simulation time: 00 hr 49 min 59 sec)
Heartbeat CPU 0 instructions: 177500890 cycles: 396324834 heartbeat IPC: 0.3189 cumulative IPC: 0.3348 (Simulation time: 00 hr 50 min 08 sec)
Heartbeat CPU 0 instructions: 178000890 cycles: 398013642 heartbeat IPC: 0.2961 cumulative IPC: 0.3346 (Simulation time: 00 hr 50 min 19 sec)
Heartbeat CPU 0 instructions: 178500891 cycles: 399550696 heartbeat IPC: 0.3253 cumulative IPC: 0.3346 (Simulation time: 00 hr 50 min 28 sec)
Heartbeat CPU 0 instructions: 179000891 cycles: 401826836 heartbeat IPC: 0.2197 cumulative IPC: 0.3339 (Simulation time: 00 hr 50 min 42 sec)
Heartbeat CPU 0 instructions: 179500894 cycles: 403837236 heartbeat IPC: 0.2487 cumulative IPC: 0.3335 (Simulation time: 00 hr 50 min 53 sec)
Heartbeat CPU 0 instructions: 180000895 cycles: 406036021 heartbeat IPC: 0.2274 cumulative IPC: 0.3329 (Simulation time: 00 hr 51 min 06 sec)
Heartbeat CPU 0 instructions: 180500901 cycles: 407318758 heartbeat IPC: 0.3898 cumulative IPC: 0.333 (Simulation time: 00 hr 51 min 13 sec)
Heartbeat CPU 0 instructions: 181000906 cycles: 408061586 heartbeat IPC: 0.6731 cumulative IPC: 0.3337 (Simulation time: 00 hr 51 min 18 sec)
Heartbeat CPU 0 instructions: 181500909 cycles: 408415948 heartbeat IPC: 1.411 cumulative IPC: 0.3347 (Simulation time: 00 hr 51 min 21 sec)
Heartbeat CPU 0 instructions: 182000914 cycles: 409527813 heartbeat IPC: 0.4497 cumulative IPC: 0.335 (Simulation time: 00 hr 51 min 28 sec)
Heartbeat CPU 0 instructions: 182500915 cycles: 411264210 heartbeat IPC: 0.288 cumulative IPC: 0.3348 (Simulation time: 00 hr 51 min 38 sec)
Heartbeat CPU 0 instructions: 183000916 cycles: 413134153 heartbeat IPC: 0.2674 cumulative IPC: 0.3345 (Simulation time: 00 hr 51 min 49 sec)
Heartbeat CPU 0 instructions: 183500916 cycles: 414345649 heartbeat IPC: 0.4127 cumulative IPC: 0.3347 (Simulation time: 00 hr 51 min 56 sec)
Heartbeat CPU 0 instructions: 184000920 cycles: 415709346 heartbeat IPC: 0.3667 cumulative IPC: 0.3348 (Simulation time: 00 hr 52 min 05 sec)
Heartbeat CPU 0 instructions: 184500921 cycles: 417323088 heartbeat IPC: 0.3098 cumulative IPC: 0.3347 (Simulation time: 00 hr 52 min 14 sec)
Heartbeat CPU 0 instructions: 185000921 cycles: 419448580 heartbeat IPC: 0.2352 cumulative IPC: 0.3342 (Simulation time: 00 hr 52 min 26 sec)
Heartbeat CPU 0 instructions: 185500927 cycles: 421807029 heartbeat IPC: 0.212 cumulative IPC: 0.3335 (Simulation time: 00 hr 52 min 40 sec)
Heartbeat CPU 0 instructions: 186000931 cycles: 423884606 heartbeat IPC: 0.2407 cumulative IPC: 0.333 (Simulation time: 00 hr 52 min 51 sec)
Heartbeat CPU 0 instructions: 186500936 cycles: 425617616 heartbeat IPC: 0.2885 cumulative IPC: 0.3328 (Simulation time: 00 hr 53 min 01 sec)
Heartbeat CPU 0 instructions: 187000936 cycles: 427210779 heartbeat IPC: 0.3138 cumulative IPC: 0.3327 (Simulation time: 00 hr 53 min 11 sec)
Heartbeat CPU 0 instructions: 187500936 cycles: 428659013 heartbeat IPC: 0.3452 cumulative IPC: 0.3328 (Simulation time: 00 hr 53 min 20 sec)
Heartbeat CPU 0 instructions: 188000941 cycles: 431209536 heartbeat IPC: 0.196 cumulative IPC: 0.3319 (Simulation time: 00 hr 53 min 34 sec)
Heartbeat CPU 0 instructions: 188500944 cycles: 433657020 heartbeat IPC: 0.2043 cumulative IPC: 0.3312 (Simulation time: 00 hr 53 min 49 sec)
Heartbeat CPU 0 instructions: 189000944 cycles: 435730489 heartbeat IPC: 0.2411 cumulative IPC: 0.3308 (Simulation time: 00 hr 54 min 01 sec)
Heartbeat CPU 0 instructions: 189500944 cycles: 437640957 heartbeat IPC: 0.2617 cumulative IPC: 0.3304 (Simulation time: 00 hr 54 min 12 sec)
Heartbeat CPU 0 instructions: 190000951 cycles: 438843913 heartbeat IPC: 0.4156 cumulative IPC: 0.3307 (Simulation time: 00 hr 54 min 19 sec)
Heartbeat CPU 0 instructions: 190500957 cycles: 441552650 heartbeat IPC: 0.1846 cumulative IPC: 0.3298 (Simulation time: 00 hr 54 min 34 sec)
Heartbeat CPU 0 instructions: 191000957 cycles: 443424899 heartbeat IPC: 0.2671 cumulative IPC: 0.3295 (Simulation time: 00 hr 54 min 45 sec)
Heartbeat CPU 0 instructions: 191500959 cycles: 444490880 heartbeat IPC: 0.4691 cumulative IPC: 0.3298 (Simulation time: 00 hr 54 min 52 sec)
Heartbeat CPU 0 instructions: 192000961 cycles: 446936362 heartbeat IPC: 0.2045 cumulative IPC: 0.3291 (Simulation time: 00 hr 55 min 06 sec)
Heartbeat CPU 0 instructions: 192500964 cycles: 448887541 heartbeat IPC: 0.2563 cumulative IPC: 0.3288 (Simulation time: 00 hr 55 min 17 sec)
Heartbeat CPU 0 instructions: 193000965 cycles: 451089688 heartbeat IPC: 0.2271 cumulative IPC: 0.3283 (Simulation time: 00 hr 55 min 30 sec)
Heartbeat CPU 0 instructions: 193500965 cycles: 452925028 heartbeat IPC: 0.2724 cumulative IPC: 0.328 (Simulation time: 00 hr 55 min 40 sec)
Heartbeat CPU 0 instructions: 194000972 cycles: 454894408 heartbeat IPC: 0.2539 cumulative IPC: 0.3277 (Simulation time: 00 hr 55 min 52 sec)
Heartbeat CPU 0 instructions: 194500972 cycles: 456831254 heartbeat IPC: 0.2582 cumulative IPC: 0.3274 (Simulation time: 00 hr 56 min 03 sec)
Heartbeat CPU 0 instructions: 195000974 cycles: 458675696 heartbeat IPC: 0.2711 cumulative IPC: 0.3272 (Simulation time: 00 hr 56 min 17 sec)
Heartbeat CPU 0 instructions: 195500974 cycles: 461569848 heartbeat IPC: 0.1728 cumulative IPC: 0.3262 (Simulation time: 00 hr 56 min 34 sec)
Heartbeat CPU 0 instructions: 196000980 cycles: 463778308 heartbeat IPC: 0.2264 cumulative IPC: 0.3257 (Simulation time: 00 hr 56 min 46 sec)
Heartbeat CPU 0 instructions: 196500981 cycles: 465505152 heartbeat IPC: 0.2895 cumulative IPC: 0.3255 (Simulation time: 00 hr 56 min 57 sec)
Heartbeat CPU 0 instructions: 197000981 cycles: 467254229 heartbeat IPC: 0.2859 cumulative IPC: 0.3254 (Simulation time: 00 hr 57 min 07 sec)
Heartbeat CPU 0 instructions: 197500983 cycles: 469376095 heartbeat IPC: 0.2356 cumulative IPC: 0.325 (Simulation time: 00 hr 57 min 19 sec)
Heartbeat CPU 0 instructions: 198000985 cycles: 471308016 heartbeat IPC: 0.2588 cumulative IPC: 0.3247 (Simulation time: 00 hr 57 min 30 sec)
Heartbeat CPU 0 instructions: 198500989 cycles: 472491485 heartbeat IPC: 0.4225 cumulative IPC: 0.3249 (Simulation time: 00 hr 57 min 38 sec)
Heartbeat CPU 0 instructions: 199000990 cycles: 473652640 heartbeat IPC: 0.4306 cumulative IPC: 0.3252 (Simulation time: 00 hr 57 min 45 sec)
Heartbeat CPU 0 instructions: 199500993 cycles: 474131309 heartbeat IPC: 1.045 cumulative IPC: 0.326 (Simulation time: 00 hr 57 min 49 sec)
Heartbeat CPU 0 instructions: 200000993 cycles: 474620819 heartbeat IPC: 1.021 cumulative IPC: 0.3267 (Simulation time: 00 hr 57 min 53 sec)
Heartbeat CPU 0 instructions: 200500997 cycles: 475033523 heartbeat IPC: 1.212 cumulative IPC: 0.3275 (Simulation time: 00 hr 57 min 57 sec)
Heartbeat CPU 0 instructions: 201001000 cycles: 475408401 heartbeat IPC: 1.334 cumulative IPC: 0.3283 (Simulation time: 00 hr 58 min 00 sec)
Heartbeat CPU 0 instructions: 201501000 cycles: 477065098 heartbeat IPC: 0.3018 cumulative IPC: 0.3282 (Simulation time: 00 hr 58 min 11 sec)
Heartbeat CPU 0 instructions: 202001005 cycles: 479744598 heartbeat IPC: 0.1866 cumulative IPC: 0.3274 (Simulation time: 00 hr 58 min 27 sec)
Heartbeat CPU 0 instructions: 202501009 cycles: 481081228 heartbeat IPC: 0.3741 cumulative IPC: 0.3275 (Simulation time: 00 hr 58 min 35 sec)
Heartbeat CPU 0 instructions: 203001009 cycles: 483400734 heartbeat IPC: 0.2156 cumulative IPC: 0.327 (Simulation time: 00 hr 58 min 48 sec)
Heartbeat CPU 0 instructions: 203501012 cycles: 485490912 heartbeat IPC: 0.2392 cumulative IPC: 0.3266 (Simulation time: 00 hr 59 min 00 sec)
Heartbeat CPU 0 instructions: 204001013 cycles: 487116599 heartbeat IPC: 0.3076 cumulative IPC: 0.3265 (Simulation time: 00 hr 59 min 10 sec)
Heartbeat CPU 0 instructions: 204501015 cycles: 488793398 heartbeat IPC: 0.2982 cumulative IPC: 0.3264 (Simulation time: 00 hr 59 min 19 sec)
Heartbeat CPU 0 instructions: 205001017 cycles: 490206192 heartbeat IPC: 0.3539 cumulative IPC: 0.3265 (Simulation time: 00 hr 59 min 28 sec)
Heartbeat CPU 0 instructions: 205501021 cycles: 491755459 heartbeat IPC: 0.3227 cumulative IPC: 0.3265 (Simulation time: 00 hr 59 min 38 sec)
Heartbeat CPU 0 instructions: 206001025 cycles: 494445069 heartbeat IPC: 0.1859 cumulative IPC: 0.3257 (Simulation time: 00 hr 59 min 52 sec)
Heartbeat CPU 0 instructions: 206501030 cycles: 496512255 heartbeat IPC: 0.2419 cumulative IPC: 0.3253 (Simulation time: 01 hr 00 min 04 sec)
Heartbeat CPU 0 instructions: 207001035 cycles: 498003441 heartbeat IPC: 0.3353 cumulative IPC: 0.3254 (Simulation time: 01 hr 00 min 12 sec)
Heartbeat CPU 0 instructions: 207501036 cycles: 499392833 heartbeat IPC: 0.3599 cumulative IPC: 0.3255 (Simulation time: 01 hr 00 min 21 sec)
Heartbeat CPU 0 instructions: 208001037 cycles: 500346409 heartbeat IPC: 0.5243 cumulative IPC: 0.3259 (Simulation time: 01 hr 00 min 27 sec)
Heartbeat CPU 0 instructions: 208501038 cycles: 502583277 heartbeat IPC: 0.2235 cumulative IPC: 0.3254 (Simulation time: 01 hr 00 min 40 sec)
Heartbeat CPU 0 instructions: 209001040 cycles: 504298138 heartbeat IPC: 0.2916 cumulative IPC: 0.3253 (Simulation time: 01 hr 00 min 49 sec)
Heartbeat CPU 0 instructions: 209501042 cycles: 505348607 heartbeat IPC: 0.476 cumulative IPC: 0.3256 (Simulation time: 01 hr 00 min 56 sec)
Heartbeat CPU 0 instructions: 210001048 cycles: 506786732 heartbeat IPC: 0.3477 cumulative IPC: 0.3257 (Simulation time: 01 hr 01 min 05 sec)
Heartbeat CPU 0 instructions: 210501049 cycles: 509096203 heartbeat IPC: 0.2165 cumulative IPC: 0.3252 (Simulation time: 01 hr 01 min 17 sec)
Heartbeat CPU 0 instructions: 211001049 cycles: 511072543 heartbeat IPC: 0.253 cumulative IPC: 0.3249 (Simulation time: 01 hr 01 min 28 sec)
Heartbeat CPU 0 instructions: 211501049 cycles: 512799505 heartbeat IPC: 0.2895 cumulative IPC: 0.3247 (Simulation time: 01 hr 01 min 39 sec)
Heartbeat CPU 0 instructions: 212001049 cycles: 514649889 heartbeat IPC: 0.2702 cumulative IPC: 0.3245 (Simulation time: 01 hr 01 min 50 sec)
Heartbeat CPU 0 instructions: 212501056 cycles: 516977568 heartbeat IPC: 0.2148 cumulative IPC: 0.324 (Simulation time: 01 hr 02 min 03 sec)
Heartbeat CPU 0 instructions: 213001058 cycles: 518747488 heartbeat IPC: 0.2825 cumulative IPC: 0.3239 (Simulation time: 01 hr 02 min 13 sec)
Heartbeat CPU 0 instructions: 213501059 cycles: 520691496 heartbeat IPC: 0.2572 cumulative IPC: 0.3236 (Simulation time: 01 hr 02 min 24 sec)
Heartbeat CPU 0 instructions: 214001064 cycles: 522745901 heartbeat IPC: 0.2434 cumulative IPC: 0.3233 (Simulation time: 01 hr 02 min 35 sec)
Heartbeat CPU 0 instructions: 214501064 cycles: 524830040 heartbeat IPC: 0.2399 cumulative IPC: 0.323 (Simulation time: 01 hr 02 min 46 sec)
Heartbeat CPU 0 instructions: 215001065 cycles: 527085323 heartbeat IPC: 0.2217 cumulative IPC: 0.3225 (Simulation time: 01 hr 02 min 59 sec)
Heartbeat CPU 0 instructions: 215501065 cycles: 528572250 heartbeat IPC: 0.3363 cumulative IPC: 0.3226 (Simulation time: 01 hr 03 min 08 sec)
Heartbeat CPU 0 instructions: 216001071 cycles: 530020112 heartbeat IPC: 0.3453 cumulative IPC: 0.3226 (Simulation time: 01 hr 03 min 16 sec)
Heartbeat CPU 0 instructions: 216501076 cycles: 531449253 heartbeat IPC: 0.3499 cumulative IPC: 0.3227 (Simulation time: 01 hr 03 min 24 sec)
Heartbeat CPU 0 instructions: 217001078 cycles: 533574301 heartbeat IPC: 0.2353 cumulative IPC: 0.3223 (Simulation time: 01 hr 03 min 36 sec)
Heartbeat CPU 0 instructions: 217501082 cycles: 535101688 heartbeat IPC: 0.3274 cumulative IPC: 0.3224 (Simulation time: 01 hr 03 min 45 sec)
Heartbeat CPU 0 instructions: 218001083 cycles: 536640061 heartbeat IPC: 0.325 cumulative IPC: 0.3224 (Simulation time: 01 hr 03 min 54 sec)
Heartbeat CPU 0 instructions: 218501088 cycles: 538229424 heartbeat IPC: 0.3146 cumulative IPC: 0.3223 (Simulation time: 01 hr 04 min 04 sec)
Heartbeat CPU 0 instructions: 219001092 cycles: 540848721 heartbeat IPC: 0.1909 cumulative IPC: 0.3217 (Simulation time: 01 hr 04 min 18 sec)
Heartbeat CPU 0 instructions: 219501092 cycles: 542068646 heartbeat IPC: 0.4099 cumulative IPC: 0.3219 (Simulation time: 01 hr 04 min 25 sec)
Heartbeat CPU 0 instructions: 220001092 cycles: 544376220 heartbeat IPC: 0.2167 cumulative IPC: 0.3214 (Simulation time: 01 hr 04 min 39 sec)
Heartbeat CPU 0 instructions: 220501099 cycles: 546303064 heartbeat IPC: 0.2595 cumulative IPC: 0.3212 (Simulation time: 01 hr 04 min 50 sec)
Heartbeat CPU 0 instructions: 221001105 cycles: 548329804 heartbeat IPC: 0.2467 cumulative IPC: 0.3209 (Simulation time: 01 hr 05 min 01 sec)
Heartbeat CPU 0 instructions: 221501112 cycles: 550539396 heartbeat IPC: 0.2263 cumulative IPC: 0.3205 (Simulation time: 01 hr 05 min 14 sec)
Heartbeat CPU 0 instructions: 222001113 cycles: 551667938 heartbeat IPC: 0.4431 cumulative IPC: 0.3208 (Simulation time: 01 hr 05 min 21 sec)
Heartbeat CPU 0 instructions: 222501113 cycles: 553257992 heartbeat IPC: 0.3145 cumulative IPC: 0.3208 (Simulation time: 01 hr 05 min 31 sec)
Heartbeat CPU 0 instructions: 223001113 cycles: 555000690 heartbeat IPC: 0.2869 cumulative IPC: 0.3207 (Simulation time: 01 hr 05 min 41 sec)
Heartbeat CPU 0 instructions: 223501113 cycles: 556275204 heartbeat IPC: 0.3923 cumulative IPC: 0.3208 (Simulation time: 01 hr 05 min 49 sec)
Heartbeat CPU 0 instructions: 224001114 cycles: 557874426 heartbeat IPC: 0.3127 cumulative IPC: 0.3208 (Simulation time: 01 hr 05 min 59 sec)
Heartbeat CPU 0 instructions: 224501115 cycles: 561013929 heartbeat IPC: 0.1593 cumulative IPC: 0.3199 (Simulation time: 01 hr 06 min 16 sec)
Heartbeat CPU 0 instructions: 225001121 cycles: 562927099 heartbeat IPC: 0.2613 cumulative IPC: 0.3197 (Simulation time: 01 hr 06 min 28 sec)
Heartbeat CPU 0 instructions: 225501124 cycles: 564819957 heartbeat IPC: 0.2642 cumulative IPC: 0.3195 (Simulation time: 01 hr 06 min 39 sec)
Heartbeat CPU 0 instructions: 226001130 cycles: 567178109 heartbeat IPC: 0.212 cumulative IPC: 0.319 (Simulation time: 01 hr 06 min 52 sec)
Heartbeat CPU 0 instructions: 226501130 cycles: 568829207 heartbeat IPC: 0.3028 cumulative IPC: 0.319 (Simulation time: 01 hr 07 min 01 sec)
Heartbeat CPU 0 instructions: 227001132 cycles: 569943562 heartbeat IPC: 0.4487 cumulative IPC: 0.3192 (Simulation time: 01 hr 07 min 09 sec)
Heartbeat CPU 0 instructions: 227501136 cycles: 571049654 heartbeat IPC: 0.452 cumulative IPC: 0.3195 (Simulation time: 01 hr 07 min 17 sec)
Heartbeat CPU 0 instructions: 228001136 cycles: 573860565 heartbeat IPC: 0.1779 cumulative IPC: 0.3188 (Simulation time: 01 hr 07 min 32 sec)
Heartbeat CPU 0 instructions: 228501138 cycles: 576136408 heartbeat IPC: 0.2197 cumulative IPC: 0.3184 (Simulation time: 01 hr 07 min 44 sec)
Heartbeat CPU 0 instructions: 229001143 cycles: 577328932 heartbeat IPC: 0.4193 cumulative IPC: 0.3186 (Simulation time: 01 hr 07 min 52 sec)
Heartbeat CPU 0 instructions: 229501146 cycles: 578216838 heartbeat IPC: 0.5631 cumulative IPC: 0.319 (Simulation time: 01 hr 07 min 58 sec)
Heartbeat CPU 0 instructions: 230001146 cycles: 579247904 heartbeat IPC: 0.4849 cumulative IPC: 0.3193 (Simulation time: 01 hr 08 min 05 sec)
Heartbeat CPU 0 instructions: 230501146 cycles: 581525967 heartbeat IPC: 0.2195 cumulative IPC: 0.3189 (Simulation time: 01 hr 08 min 18 sec)
Heartbeat CPU 0 instructions: 231001148 cycles: 582891084 heartbeat IPC: 0.3663 cumulative IPC: 0.319 (Simulation time: 01 hr 08 min 26 sec)
Heartbeat CPU 0 instructions: 231501149 cycles: 584334151 heartbeat IPC: 0.3465 cumulative IPC: 0.3191 (Simulation time: 01 hr 08 min 35 sec)
Heartbeat CPU 0 instructions: 232001149 cycles: 585973515 heartbeat IPC: 0.305 cumulative IPC: 0.319 (Simulation time: 01 hr 08 min 45 sec)
Heartbeat CPU 0 instructions: 232501155 cycles: 587778224 heartbeat IPC: 0.2771 cumulative IPC: 0.3189 (Simulation time: 01 hr 08 min 55 sec)
Heartbeat CPU 0 instructions: 233001155 cycles: 589144708 heartbeat IPC: 0.3659 cumulative IPC: 0.319 (Simulation time: 01 hr 09 min 03 sec)
Heartbeat CPU 0 instructions: 233501155 cycles: 590420547 heartbeat IPC: 0.3919 cumulative IPC: 0.3192 (Simulation time: 01 hr 09 min 12 sec)
Heartbeat CPU 0 instructions: 234001162 cycles: 593433891 heartbeat IPC: 0.1659 cumulative IPC: 0.3184 (Simulation time: 01 hr 09 min 28 sec)
Heartbeat CPU 0 instructions: 234501169 cycles: 595574249 heartbeat IPC: 0.2336 cumulative IPC: 0.3181 (Simulation time: 01 hr 09 min 41 sec)
Heartbeat CPU 0 instructions: 235001169 cycles: 597033902 heartbeat IPC: 0.3425 cumulative IPC: 0.3181 (Simulation time: 01 hr 09 min 50 sec)
Heartbeat CPU 0 instructions: 235501169 cycles: 598779882 heartbeat IPC: 0.2864 cumulative IPC: 0.318 (Simulation time: 01 hr 10 min 00 sec)
Heartbeat CPU 0 instructions: 236001170 cycles: 599954913 heartbeat IPC: 0.4255 cumulative IPC: 0.3182 (Simulation time: 01 hr 10 min 07 sec)
Heartbeat CPU 0 instructions: 236501171 cycles: 600737970 heartbeat IPC: 0.6385 cumulative IPC: 0.3187 (Simulation time: 01 hr 10 min 12 sec)
Heartbeat CPU 0 instructions: 237001171 cycles: 602135894 heartbeat IPC: 0.3577 cumulative IPC: 0.3188 (Simulation time: 01 hr 10 min 21 sec)
Heartbeat CPU 0 instructions: 237501173 cycles: 603472962 heartbeat IPC: 0.374 cumulative IPC: 0.3189 (Simulation time: 01 hr 10 min 29 sec)
Heartbeat CPU 0 instructions: 238001174 cycles: 605284616 heartbeat IPC: 0.276 cumulative IPC: 0.3188 (Simulation time: 01 hr 10 min 39 sec)
Heartbeat CPU 0 instructions: 238501177 cycles: 607480265 heartbeat IPC: 0.2277 cumulative IPC: 0.3184 (Simulation time: 01 hr 10 min 52 sec)
Heartbeat CPU 0 instructions: 239001178 cycles: 609481470 heartbeat IPC: 0.2498 cumulative IPC: 0.3182 (Simulation time: 01 hr 11 min 04 sec)
Heartbeat CPU 0 instructions: 239501182 cycles: 611054117 heartbeat IPC: 0.3179 cumulative IPC: 0.3182 (Simulation time: 01 hr 11 min 13 sec)
Heartbeat CPU 0 instructions: 240001182 cycles: 613133974 heartbeat IPC: 0.2404 cumulative IPC: 0.3179 (Simulation time: 01 hr 11 min 25 sec)
Heartbeat CPU 0 instructions: 240501188 cycles: 615648985 heartbeat IPC: 0.1988 cumulative IPC: 0.3174 (Simulation time: 01 hr 11 min 40 sec)
Heartbeat CPU 0 instructions: 241001188 cycles: 616836213 heartbeat IPC: 0.4211 cumulative IPC: 0.3176 (Simulation time: 01 hr 11 min 48 sec)
Heartbeat CPU 0 instructions: 241501190 cycles: 618787758 heartbeat IPC: 0.2562 cumulative IPC: 0.3174 (Simulation time: 01 hr 11 min 59 sec)
Heartbeat CPU 0 instructions: 242001191 cycles: 620285109 heartbeat IPC: 0.3339 cumulative IPC: 0.3175 (Simulation time: 01 hr 12 min 08 sec)
Heartbeat CPU 0 instructions: 242501196 cycles: 621552108 heartbeat IPC: 0.3946 cumulative IPC: 0.3176 (Simulation time: 01 hr 12 min 15 sec)
Heartbeat CPU 0 instructions: 243001196 cycles: 622846817 heartbeat IPC: 0.3862 cumulative IPC: 0.3178 (Simulation time: 01 hr 12 min 23 sec)
Heartbeat CPU 0 instructions: 243501198 cycles: 623912547 heartbeat IPC: 0.4692 cumulative IPC: 0.318 (Simulation time: 01 hr 12 min 30 sec)
Heartbeat CPU 0 instructions: 244001198 cycles: 625171436 heartbeat IPC: 0.3972 cumulative IPC: 0.3182 (Simulation time: 01 hr 12 min 38 sec)
Heartbeat CPU 0 instructions: 244501200 cycles: 626710748 heartbeat IPC: 0.3248 cumulative IPC: 0.3182 (Simulation time: 01 hr 12 min 47 sec)
Heartbeat CPU 0 instructions: 245001205 cycles: 628800637 heartbeat IPC: 0.2392 cumulative IPC: 0.3179 (Simulation time: 01 hr 12 min 59 sec)
Heartbeat CPU 0 instructions: 245501205 cycles: 630508033 heartbeat IPC: 0.2928 cumulative IPC: 0.3179 (Simulation time: 01 hr 13 min 09 sec)
Heartbeat CPU 0 instructions: 246001205 cycles: 632483216 heartbeat IPC: 0.2531 cumulative IPC: 0.3177 (Simulation time: 01 hr 13 min 20 sec)
Heartbeat CPU 0 instructions: 246501209 cycles: 634407344 heartbeat IPC: 0.2599 cumulative IPC: 0.3175 (Simulation time: 01 hr 13 min 31 sec)
Heartbeat CPU 0 instructions: 247001209 cycles: 635694476 heartbeat IPC: 0.3885 cumulative IPC: 0.3176 (Simulation time: 01 hr 13 min 38 sec)
Heartbeat CPU 0 instructions: 247501215 cycles: 637649106 heartbeat IPC: 0.2558 cumulative IPC: 0.3174 (Simulation time: 01 hr 13 min 49 sec)
Heartbeat CPU 0 instructions: 248001216 cycles: 639299897 heartbeat IPC: 0.3029 cumulative IPC: 0.3174 (Simulation time: 01 hr 13 min 59 sec)
Heartbeat CPU 0 instructions: 248501223 cycles: 641380641 heartbeat IPC: 0.2403 cumulative IPC: 0.3171 (Simulation time: 01 hr 14 min 11 sec)
Heartbeat CPU 0 instructions: 249001229 cycles: 643206826 heartbeat IPC: 0.2738 cumulative IPC: 0.317 (Simulation time: 01 hr 14 min 22 sec)
Heartbeat CPU 0 instructions: 249501231 cycles: 644786195 heartbeat IPC: 0.3166 cumulative IPC: 0.317 (Simulation time: 01 hr 14 min 31 sec)
Simulation finished CPU 0 instructions: 200000005 cycles: 631338903 cumulative IPC: 0.3168 (Simulation time: 01 hr 14 min 42 sec)
Simulation complete CPU 0 instructions: 200000005 cycles: 631338903 cumulative IPC: 0.3168 (Simulation time: 01 hr 14 min 42 sec)

ChampSim completed all CPUs

=== Simulation ===
CPU 0 runs /local-ssd/ben/dpc4-traces/gtraces_v2/sierra.a.4_0001.champsim.gz

Region of Interest Statistics

CPU 0 cumulative IPC: 0.3168 instructions: 200000005 cycles: 631338903
CPU 0 Branch Prediction Accuracy: 84.25% MPKI: 26.3 Average ROB Occupancy at Mispredict: 20.2
Branch type MPKI
BRANCH_DIRECT_JUMP: 2.936
BRANCH_INDIRECT: 0.2669
BRANCH_CONDITIONAL: 18.71
BRANCH_DIRECT_CALL: 2.409
BRANCH_INDIRECT_CALL: 0.4506
BRANCH_RETURN: 1.527

cpu0->cpu0_STLB TOTAL        ACCESS:    2983866 HIT:    2052770 MISS:     931096 MSHR_MERGE:          0
cpu0->cpu0_STLB LOAD         ACCESS:    2983866 HIT:    2052770 MISS:     931096 MSHR_MERGE:          0
cpu0->cpu0_STLB RFO          ACCESS:          0 HIT:          0 MISS:          0 MSHR_MERGE:          0
cpu0->cpu0_STLB PREFETCH     ACCESS:          0 HIT:          0 MISS:          0 MSHR_MERGE:          0
cpu0->cpu0_STLB WRITE        ACCESS:          0 HIT:          0 MISS:          0 MSHR_MERGE:          0
cpu0->cpu0_STLB TRANSLATION  ACCESS:          0 HIT:          0 MISS:          0 MSHR_MERGE:          0
cpu0->cpu0_STLB PREFETCH REQUESTED:          0 ISSUED:          0 USEFUL:          0 USELESS:          0
cpu0->cpu0_STLB AVERAGE MISS LATENCY: 165.6 cycles
cpu0->cpu0_L2C TOTAL        ACCESS:   24443536 HIT:   16361141 MISS:    8082395 MSHR_MERGE:    1128918
cpu0->cpu0_L2C LOAD         ACCESS:    8881901 HIT:    5568211 MISS:    3313690 MSHR_MERGE:      73119
cpu0->cpu0_L2C RFO          ACCESS:    1753366 HIT:     858399 MISS:     894967 MSHR_MERGE:       3934
cpu0->cpu0_L2C PREFETCH     ACCESS:    9981462 HIT:    6602203 MISS:    3379259 MSHR_MERGE:    1051865
cpu0->cpu0_L2C WRITE        ACCESS:    2750573 HIT:    2750497 MISS:         76 MSHR_MERGE:          0
cpu0->cpu0_L2C TRANSLATION  ACCESS:    1076234 HIT:     581831 MISS:     494403 MSHR_MERGE:          0
cpu0->cpu0_L2C PREFETCH REQUESTED:    9334402 ISSUED:    8370913 USEFUL:     665792 USELESS:    1147366
cpu0->cpu0_L2C AVERAGE MISS LATENCY: 195.2 cycles
cpu0->cpu0_L1I TOTAL        ACCESS:   22163929 HIT:   14741457 MISS:    7422472 MSHR_MERGE:    1673906
cpu0->cpu0_L1I LOAD         ACCESS:   22163929 HIT:   14741457 MISS:    7422472 MSHR_MERGE:    1673906
cpu0->cpu0_L1I RFO          ACCESS:          0 HIT:          0 MISS:          0 MSHR_MERGE:          0
cpu0->cpu0_L1I PREFETCH     ACCESS:          0 HIT:          0 MISS:          0 MSHR_MERGE:          0
cpu0->cpu0_L1I WRITE        ACCESS:          0 HIT:          0 MISS:          0 MSHR_MERGE:          0
cpu0->cpu0_L1I TRANSLATION  ACCESS:          0 HIT:          0 MISS:          0 MSHR_MERGE:          0
cpu0->cpu0_L1I PREFETCH REQUESTED:          0 ISSUED:          0 USEFUL:          0 USELESS:          0
cpu0->cpu0_L1I AVERAGE MISS LATENCY: 76.03 cycles
cpu0->cpu0_L1D TOTAL        ACCESS:   68299409 HIT:   56993396 MISS:   11306013 MSHR_MERGE:    3732426
cpu0->cpu0_L1D LOAD         ACCESS:   37707655 HIT:   33698316 MISS:    4009339 MSHR_MERGE:     875952
cpu0->cpu0_L1D RFO          ACCESS:          0 HIT:          0 MISS:          0 MSHR_MERGE:          0
cpu0->cpu0_L1D PREFETCH     ACCESS:    3115232 HIT:    1396991 MISS:    1718241 MSHR_MERGE:     107675
cpu0->cpu0_L1D WRITE        ACCESS:   25023246 HIT:   20527682 MISS:    4495564 MSHR_MERGE:    2742164
cpu0->cpu0_L1D TRANSLATION  ACCESS:    2453276 HIT:    1370407 MISS:    1082869 MSHR_MERGE:       6635
cpu0->cpu0_L1D PREFETCH REQUESTED:    3732542 ISSUED:    3115232 USEFUL:     783103 USELESS:     827415
cpu0->cpu0_L1D AVERAGE MISS LATENCY: 98.01 cycles
cpu0->cpu0_ITLB TOTAL        ACCESS:   17869350 HIT:   16995296 MISS:     874054 MSHR_MERGE:     403429
cpu0->cpu0_ITLB LOAD         ACCESS:   17869350 HIT:   16995296 MISS:     874054 MSHR_MERGE:     403429
cpu0->cpu0_ITLB RFO          ACCESS:          0 HIT:          0 MISS:          0 MSHR_MERGE:          0
cpu0->cpu0_ITLB PREFETCH     ACCESS:          0 HIT:          0 MISS:          0 MSHR_MERGE:          0
cpu0->cpu0_ITLB WRITE        ACCESS:          0 HIT:          0 MISS:          0 MSHR_MERGE:          0
cpu0->cpu0_ITLB TRANSLATION  ACCESS:          0 HIT:          0 MISS:          0 MSHR_MERGE:          0
cpu0->cpu0_ITLB PREFETCH REQUESTED:          0 ISSUED:          0 USEFUL:          0 USELESS:          0
cpu0->cpu0_ITLB AVERAGE MISS LATENCY: 30.73 cycles
cpu0->cpu0_DTLB TOTAL        ACCESS:   62701820 HIT:   58537762 MISS:    4164058 MSHR_MERGE:    1650817
cpu0->cpu0_DTLB LOAD         ACCESS:   62701820 HIT:   58537762 MISS:    4164058 MSHR_MERGE:    1650817
cpu0->cpu0_DTLB RFO          ACCESS:          0 HIT:          0 MISS:          0 MSHR_MERGE:          0
cpu0->cpu0_DTLB PREFETCH     ACCESS:          0 HIT:          0 MISS:          0 MSHR_MERGE:          0
cpu0->cpu0_DTLB WRITE        ACCESS:          0 HIT:          0 MISS:          0 MSHR_MERGE:          0
cpu0->cpu0_DTLB TRANSLATION  ACCESS:          0 HIT:          0 MISS:          0 MSHR_MERGE:          0
cpu0->cpu0_DTLB PREFETCH REQUESTED:          0 ISSUED:          0 USEFUL:          0 USELESS:          0
cpu0->cpu0_DTLB AVERAGE MISS LATENCY: 61.9 cycles
cpu0->LLC TOTAL        ACCESS:    8355690 HIT:    1773341 MISS:    6582349 MSHR_MERGE:          0
cpu0->LLC LOAD         ACCESS:    3240571 HIT:     874492 MISS:    2366079 MSHR_MERGE:          0
cpu0->LLC RFO          ACCESS:     891033 HIT:      42585 MISS:     848448 MSHR_MERGE:          0
cpu0->LLC PREFETCH     ACCESS:    2327394 HIT:     202715 MISS:    2124679 MSHR_MERGE:          0
cpu0->LLC WRITE        ACCESS:    1402289 HIT:     581209 MISS:     821080 MSHR_MERGE:          0
cpu0->LLC TRANSLATION  ACCESS:     494403 HIT:      72340 MISS:     422063 MSHR_MERGE:          0
cpu0->LLC PREFETCH REQUESTED:          0 ISSUED:          0 USEFUL:          0 USELESS:          0
cpu0->LLC AVERAGE MISS LATENCY: 182.8 cycles

DRAM Statistics

Channel 0 RQ ROW_BUFFER_HIT:     312153
  ROW_BUFFER_MISS:    5449021
  AVG DBUS CONGESTED CYCLE: 23.79
Channel 0 WQ ROW_BUFFER_HIT:     350693
  ROW_BUFFER_MISS:     973939
  FULL:        402
Channel 0 REFRESHES ISSUED:      52609
