[VMEM] WARNING: physical memory size is smaller than virtual memory size.

*** ChampSim Multicore Out-of-Order Simulator ***
Warmup Instructions: 50000000
Simulation Instructions: 200000000
Number of CPUs: 1
Page size: 4096
Core 0: /local-ssd/ben/dpc4-traces/SPEC17/654.roms_s-293B.champsimtrace.xz
 L1D Berti prefetcher
Off-chip DRAM Size: 64 GiB Channels: 1 Width: 64-bit Data Rate: 4807 MT/s
Heartbeat CPU 0 instructions: 500002 cycles: 104491 heartbeat IPC: 4.785 cumulative IPC: 4.785 (Simulation time: 00 hr 00 min 02 sec)
Heartbeat CPU 0 instructions: 1000003 cycles: 206869 heartbeat IPC: 4.884 cumulative IPC: 4.834 (Simulation time: 00 hr 00 min 04 sec)
Heartbeat CPU 0 instructions: 1500008 cycles: 309277 heartbeat IPC: 4.882 cumulative IPC: 4.85 (Simulation time: 00 hr 00 min 06 sec)
Heartbeat CPU 0 instructions: 2000013 cycles: 412023 heartbeat IPC: 4.866 cumulative IPC: 4.854 (Simulation time: 00 hr 00 min 07 sec)
Heartbeat CPU 0 instructions: 2500016 cycles: 514662 heartbeat IPC: 4.871 cumulative IPC: 4.858 (Simulation time: 00 hr 00 min 09 sec)
Heartbeat CPU 0 instructions: 3000023 cycles: 616436 heartbeat IPC: 4.913 cumulative IPC: 4.867 (Simulation time: 00 hr 00 min 10 sec)
Heartbeat CPU 0 instructions: 3500023 cycles: 723371 heartbeat IPC: 4.676 cumulative IPC: 4.838 (Simulation time: 00 hr 00 min 12 sec)
Heartbeat CPU 0 instructions: 4000030 cycles: 854542 heartbeat IPC: 3.812 cumulative IPC: 4.681 (Simulation time: 00 hr 00 min 15 sec)
Heartbeat CPU 0 instructions: 4500034 cycles: 981188 heartbeat IPC: 3.948 cumulative IPC: 4.586 (Simulation time: 00 hr 00 min 17 sec)
Heartbeat CPU 0 instructions: 5000036 cycles: 1159419 heartbeat IPC: 2.805 cumulative IPC: 4.313 (Simulation time: 00 hr 00 min 20 sec)
Heartbeat CPU 0 instructions: 5500036 cycles: 1262280 heartbeat IPC: 4.861 cumulative IPC: 4.357 (Simulation time: 00 hr 00 min 22 sec)
Heartbeat CPU 0 instructions: 6000039 cycles: 1363804 heartbeat IPC: 4.925 cumulative IPC: 4.399 (Simulation time: 00 hr 00 min 23 sec)
Heartbeat CPU 0 instructions: 6500043 cycles: 1466000 heartbeat IPC: 4.893 cumulative IPC: 4.434 (Simulation time: 00 hr 00 min 25 sec)
Heartbeat CPU 0 instructions: 7000050 cycles: 1567823 heartbeat IPC: 4.911 cumulative IPC: 4.465 (Simulation time: 00 hr 00 min 27 sec)
Heartbeat CPU 0 instructions: 7500052 cycles: 1668563 heartbeat IPC: 4.963 cumulative IPC: 4.495 (Simulation time: 00 hr 00 min 28 sec)
Heartbeat CPU 0 instructions: 8000056 cycles: 1769672 heartbeat IPC: 4.945 cumulative IPC: 4.521 (Simulation time: 00 hr 00 min 30 sec)
Heartbeat CPU 0 instructions: 8500056 cycles: 1870873 heartbeat IPC: 4.941 cumulative IPC: 4.543 (Simulation time: 00 hr 00 min 32 sec)
Heartbeat CPU 0 instructions: 9000062 cycles: 1971932 heartbeat IPC: 4.948 cumulative IPC: 4.564 (Simulation time: 00 hr 00 min 33 sec)
Heartbeat CPU 0 instructions: 9500063 cycles: 2072779 heartbeat IPC: 4.958 cumulative IPC: 4.583 (Simulation time: 00 hr 00 min 35 sec)
Heartbeat CPU 0 instructions: 10000063 cycles: 2173588 heartbeat IPC: 4.96 cumulative IPC: 4.601 (Simulation time: 00 hr 00 min 36 sec)
Heartbeat CPU 0 instructions: 10500068 cycles: 2281393 heartbeat IPC: 4.638 cumulative IPC: 4.602 (Simulation time: 00 hr 00 min 38 sec)
Heartbeat CPU 0 instructions: 11000068 cycles: 2398296 heartbeat IPC: 4.277 cumulative IPC: 4.587 (Simulation time: 00 hr 00 min 41 sec)
Heartbeat CPU 0 instructions: 11500069 cycles: 2515283 heartbeat IPC: 4.274 cumulative IPC: 4.572 (Simulation time: 00 hr 00 min 43 sec)
Heartbeat CPU 0 instructions: 12000070 cycles: 2672034 heartbeat IPC: 3.19 cumulative IPC: 4.491 (Simulation time: 00 hr 00 min 46 sec)
Heartbeat CPU 0 instructions: 12500073 cycles: 2772667 heartbeat IPC: 4.969 cumulative IPC: 4.508 (Simulation time: 00 hr 00 min 47 sec)
Heartbeat CPU 0 instructions: 13000080 cycles: 2873561 heartbeat IPC: 4.956 cumulative IPC: 4.524 (Simulation time: 00 hr 00 min 49 sec)
Heartbeat CPU 0 instructions: 13500081 cycles: 2974936 heartbeat IPC: 4.932 cumulative IPC: 4.538 (Simulation time: 00 hr 00 min 50 sec)
Heartbeat CPU 0 instructions: 14000088 cycles: 3076096 heartbeat IPC: 4.943 cumulative IPC: 4.551 (Simulation time: 00 hr 00 min 52 sec)
Heartbeat CPU 0 instructions: 14500091 cycles: 3176824 heartbeat IPC: 4.964 cumulative IPC: 4.564 (Simulation time: 00 hr 00 min 54 sec)
Heartbeat CPU 0 instructions: 15000094 cycles: 3277322 heartbeat IPC: 4.975 cumulative IPC: 4.577 (Simulation time: 00 hr 00 min 55 sec)
Heartbeat CPU 0 instructions: 15500095 cycles: 3378358 heartbeat IPC: 4.949 cumulative IPC: 4.588 (Simulation time: 00 hr 00 min 57 sec)
Heartbeat CPU 0 instructions: 16000096 cycles: 3479163 heartbeat IPC: 4.96 cumulative IPC: 4.599 (Simulation time: 00 hr 00 min 58 sec)
Heartbeat CPU 0 instructions: 16500103 cycles: 3580044 heartbeat IPC: 4.956 cumulative IPC: 4.609 (Simulation time: 00 hr 01 min 00 sec)
Heartbeat CPU 0 instructions: 17000106 cycles: 3681202 heartbeat IPC: 4.943 cumulative IPC: 4.618 (Simulation time: 00 hr 01 min 02 sec)
Heartbeat CPU 0 instructions: 17500110 cycles: 3792746 heartbeat IPC: 4.483 cumulative IPC: 4.614 (Simulation time: 00 hr 01 min 04 sec)
Heartbeat CPU 0 instructions: 18000116 cycles: 3909702 heartbeat IPC: 4.275 cumulative IPC: 4.604 (Simulation time: 00 hr 01 min 06 sec)
Heartbeat CPU 0 instructions: 18500116 cycles: 4033555 heartbeat IPC: 4.037 cumulative IPC: 4.587 (Simulation time: 00 hr 01 min 09 sec)
Heartbeat CPU 0 instructions: 19000117 cycles: 4179570 heartbeat IPC: 3.424 cumulative IPC: 4.546 (Simulation time: 00 hr 01 min 11 sec)
Heartbeat CPU 0 instructions: 19500118 cycles: 4280341 heartbeat IPC: 4.962 cumulative IPC: 4.556 (Simulation time: 00 hr 01 min 13 sec)
Heartbeat CPU 0 instructions: 20000121 cycles: 4381469 heartbeat IPC: 4.944 cumulative IPC: 4.565 (Simulation time: 00 hr 01 min 14 sec)
Heartbeat CPU 0 instructions: 20500122 cycles: 4482518 heartbeat IPC: 4.948 cumulative IPC: 4.573 (Simulation time: 00 hr 01 min 16 sec)
Heartbeat CPU 0 instructions: 21000123 cycles: 4583647 heartbeat IPC: 4.944 cumulative IPC: 4.582 (Simulation time: 00 hr 01 min 17 sec)
Heartbeat CPU 0 instructions: 21500128 cycles: 4684371 heartbeat IPC: 4.964 cumulative IPC: 4.59 (Simulation time: 00 hr 01 min 19 sec)
Heartbeat CPU 0 instructions: 22000133 cycles: 4785536 heartbeat IPC: 4.942 cumulative IPC: 4.597 (Simulation time: 00 hr 01 min 21 sec)
Heartbeat CPU 0 instructions: 22500136 cycles: 4886526 heartbeat IPC: 4.951 cumulative IPC: 4.605 (Simulation time: 00 hr 01 min 22 sec)
Heartbeat CPU 0 instructions: 23000143 cycles: 4987412 heartbeat IPC: 4.956 cumulative IPC: 4.612 (Simulation time: 00 hr 01 min 24 sec)
Heartbeat CPU 0 instructions: 23500144 cycles: 5088579 heartbeat IPC: 4.942 cumulative IPC: 4.618 (Simulation time: 00 hr 01 min 26 sec)
Heartbeat CPU 0 instructions: 24000151 cycles: 5191447 heartbeat IPC: 4.861 cumulative IPC: 4.623 (Simulation time: 00 hr 01 min 27 sec)
Heartbeat CPU 0 instructions: 24500152 cycles: 5306371 heartbeat IPC: 4.351 cumulative IPC: 4.617 (Simulation time: 00 hr 01 min 29 sec)
Heartbeat CPU 0 instructions: 25000156 cycles: 5423663 heartbeat IPC: 4.263 cumulative IPC: 4.609 (Simulation time: 00 hr 01 min 32 sec)
Heartbeat CPU 0 instructions: 25500161 cycles: 5576322 heartbeat IPC: 3.275 cumulative IPC: 4.573 (Simulation time: 00 hr 01 min 35 sec)
Heartbeat CPU 0 instructions: 26000165 cycles: 5688439 heartbeat IPC: 4.46 cumulative IPC: 4.571 (Simulation time: 00 hr 01 min 36 sec)
Heartbeat CPU 0 instructions: 26500165 cycles: 5789362 heartbeat IPC: 4.954 cumulative IPC: 4.577 (Simulation time: 00 hr 01 min 38 sec)
Heartbeat CPU 0 instructions: 27000171 cycles: 5890400 heartbeat IPC: 4.949 cumulative IPC: 4.584 (Simulation time: 00 hr 01 min 40 sec)
Heartbeat CPU 0 instructions: 27500172 cycles: 5991211 heartbeat IPC: 4.96 cumulative IPC: 4.59 (Simulation time: 00 hr 01 min 41 sec)
Heartbeat CPU 0 instructions: 28000176 cycles: 6092373 heartbeat IPC: 4.943 cumulative IPC: 4.596 (Simulation time: 00 hr 01 min 43 sec)
Heartbeat CPU 0 instructions: 28500183 cycles: 6193088 heartbeat IPC: 4.965 cumulative IPC: 4.602 (Simulation time: 00 hr 01 min 44 sec)
Heartbeat CPU 0 instructions: 29000190 cycles: 6293927 heartbeat IPC: 4.958 cumulative IPC: 4.608 (Simulation time: 00 hr 01 min 46 sec)
Heartbeat CPU 0 instructions: 29500196 cycles: 6395026 heartbeat IPC: 4.946 cumulative IPC: 4.613 (Simulation time: 00 hr 01 min 48 sec)
Heartbeat CPU 0 instructions: 30000196 cycles: 6495774 heartbeat IPC: 4.963 cumulative IPC: 4.618 (Simulation time: 00 hr 01 min 49 sec)
Heartbeat CPU 0 instructions: 30500202 cycles: 6596925 heartbeat IPC: 4.943 cumulative IPC: 4.623 (Simulation time: 00 hr 01 min 51 sec)
Heartbeat CPU 0 instructions: 31000206 cycles: 6703442 heartbeat IPC: 4.694 cumulative IPC: 4.625 (Simulation time: 00 hr 01 min 52 sec)
Heartbeat CPU 0 instructions: 31500208 cycles: 6819637 heartbeat IPC: 4.303 cumulative IPC: 4.619 (Simulation time: 00 hr 01 min 55 sec)
Heartbeat CPU 0 instructions: 32000210 cycles: 6936847 heartbeat IPC: 4.266 cumulative IPC: 4.613 (Simulation time: 00 hr 01 min 57 sec)
Heartbeat CPU 0 instructions: 32500215 cycles: 7095055 heartbeat IPC: 3.16 cumulative IPC: 4.581 (Simulation time: 00 hr 02 min 00 sec)
Heartbeat CPU 0 instructions: 33000216 cycles: 7195716 heartbeat IPC: 4.967 cumulative IPC: 4.586 (Simulation time: 00 hr 02 min 01 sec)
Heartbeat CPU 0 instructions: 33500217 cycles: 7296534 heartbeat IPC: 4.959 cumulative IPC: 4.591 (Simulation time: 00 hr 02 min 03 sec)
Heartbeat CPU 0 instructions: 34000224 cycles: 7397811 heartbeat IPC: 4.937 cumulative IPC: 4.596 (Simulation time: 00 hr 02 min 05 sec)
Heartbeat CPU 0 instructions: 34500229 cycles: 7498910 heartbeat IPC: 4.946 cumulative IPC: 4.601 (Simulation time: 00 hr 02 min 06 sec)
Heartbeat CPU 0 instructions: 35000236 cycles: 7599640 heartbeat IPC: 4.964 cumulative IPC: 4.606 (Simulation time: 00 hr 02 min 08 sec)
Heartbeat CPU 0 instructions: 35500237 cycles: 7700752 heartbeat IPC: 4.945 cumulative IPC: 4.61 (Simulation time: 00 hr 02 min 09 sec)
Heartbeat CPU 0 instructions: 36000240 cycles: 7801991 heartbeat IPC: 4.939 cumulative IPC: 4.614 (Simulation time: 00 hr 02 min 11 sec)
Heartbeat CPU 0 instructions: 36500241 cycles: 7902936 heartbeat IPC: 4.953 cumulative IPC: 4.619 (Simulation time: 00 hr 02 min 13 sec)
Heartbeat CPU 0 instructions: 37000244 cycles: 8004015 heartbeat IPC: 4.947 cumulative IPC: 4.623 (Simulation time: 00 hr 02 min 14 sec)
Heartbeat CPU 0 instructions: 37500251 cycles: 8105290 heartbeat IPC: 4.937 cumulative IPC: 4.627 (Simulation time: 00 hr 02 min 16 sec)
Heartbeat CPU 0 instructions: 38000255 cycles: 8215145 heartbeat IPC: 4.551 cumulative IPC: 4.626 (Simulation time: 00 hr 02 min 18 sec)
Heartbeat CPU 0 instructions: 38500256 cycles: 8332457 heartbeat IPC: 4.262 cumulative IPC: 4.621 (Simulation time: 00 hr 02 min 20 sec)
Heartbeat CPU 0 instructions: 39000258 cycles: 8449651 heartbeat IPC: 4.266 cumulative IPC: 4.616 (Simulation time: 00 hr 02 min 23 sec)
Heartbeat CPU 0 instructions: 39500264 cycles: 8603618 heartbeat IPC: 3.247 cumulative IPC: 4.591 (Simulation time: 00 hr 02 min 25 sec)
Heartbeat CPU 0 instructions: 40000265 cycles: 8704289 heartbeat IPC: 4.967 cumulative IPC: 4.595 (Simulation time: 00 hr 02 min 27 sec)
Heartbeat CPU 0 instructions: 40500266 cycles: 8805555 heartbeat IPC: 4.938 cumulative IPC: 4.599 (Simulation time: 00 hr 02 min 28 sec)
Heartbeat CPU 0 instructions: 41000267 cycles: 8906595 heartbeat IPC: 4.949 cumulative IPC: 4.603 (Simulation time: 00 hr 02 min 30 sec)
Heartbeat CPU 0 instructions: 41500268 cycles: 9007493 heartbeat IPC: 4.956 cumulative IPC: 4.607 (Simulation time: 00 hr 02 min 31 sec)
Heartbeat CPU 0 instructions: 42000271 cycles: 9108307 heartbeat IPC: 4.96 cumulative IPC: 4.611 (Simulation time: 00 hr 02 min 33 sec)
Heartbeat CPU 0 instructions: 42500272 cycles: 9209364 heartbeat IPC: 4.948 cumulative IPC: 4.615 (Simulation time: 00 hr 02 min 35 sec)
Heartbeat CPU 0 instructions: 43000273 cycles: 9310218 heartbeat IPC: 4.958 cumulative IPC: 4.619 (Simulation time: 00 hr 02 min 36 sec)
Heartbeat CPU 0 instructions: 43500274 cycles: 9411157 heartbeat IPC: 4.953 cumulative IPC: 4.622 (Simulation time: 00 hr 02 min 38 sec)
Heartbeat CPU 0 instructions: 44000281 cycles: 9512334 heartbeat IPC: 4.942 cumulative IPC: 4.626 (Simulation time: 00 hr 02 min 39 sec)
Heartbeat CPU 0 instructions: 44500286 cycles: 9613230 heartbeat IPC: 4.956 cumulative IPC: 4.629 (Simulation time: 00 hr 02 min 41 sec)
Heartbeat CPU 0 instructions: 45000293 cycles: 9728103 heartbeat IPC: 4.353 cumulative IPC: 4.626 (Simulation time: 00 hr 02 min 43 sec)
Heartbeat CPU 0 instructions: 45500293 cycles: 9845438 heartbeat IPC: 4.261 cumulative IPC: 4.621 (Simulation time: 00 hr 02 min 46 sec)
Heartbeat CPU 0 instructions: 46000299 cycles: 9988480 heartbeat IPC: 3.496 cumulative IPC: 4.605 (Simulation time: 00 hr 02 min 48 sec)
Heartbeat CPU 0 instructions: 46500304 cycles: 10111600 heartbeat IPC: 4.061 cumulative IPC: 4.599 (Simulation time: 00 hr 02 min 50 sec)
Heartbeat CPU 0 instructions: 47000307 cycles: 10212388 heartbeat IPC: 4.961 cumulative IPC: 4.602 (Simulation time: 00 hr 02 min 52 sec)
Heartbeat CPU 0 instructions: 47500308 cycles: 10313610 heartbeat IPC: 4.94 cumulative IPC: 4.606 (Simulation time: 00 hr 02 min 53 sec)
Heartbeat CPU 0 instructions: 48000309 cycles: 10414769 heartbeat IPC: 4.943 cumulative IPC: 4.609 (Simulation time: 00 hr 02 min 55 sec)
Heartbeat CPU 0 instructions: 48500313 cycles: 10515441 heartbeat IPC: 4.967 cumulative IPC: 4.612 (Simulation time: 00 hr 02 min 57 sec)
Heartbeat CPU 0 instructions: 49000313 cycles: 10616058 heartbeat IPC: 4.969 cumulative IPC: 4.616 (Simulation time: 00 hr 02 min 58 sec)
Heartbeat CPU 0 instructions: 49500314 cycles: 10717068 heartbeat IPC: 4.95 cumulative IPC: 4.619 (Simulation time: 00 hr 03 min 00 sec)
Warmup halting CPU 0 at instruction 50000001 cycle 10817943 for remainder of phase
Warmup finished CPU 0 instructions: 50000001 cycles: 10817943 cumulative IPC: 4.622 (Simulation time: 00 hr 03 min 01 sec)
Warmup complete CPU 0 instructions: 50000001 cycles: 10817943 cumulative IPC: 4.622 (Simulation time: 00 hr 03 min 01 sec)
Heartbeat CPU 0 instructions: 50000318 cycles: 10818036 heartbeat IPC: 4.952 cumulative IPC: 3.409 (Simulation time: 00 hr 03 min 01 sec)
Heartbeat CPU 0 instructions: 50500321 cycles: 10949821 heartbeat IPC: 3.794 cumulative IPC: 3.794 (Simulation time: 00 hr 03 min 04 sec)
Heartbeat CPU 0 instructions: 51000322 cycles: 11081897 heartbeat IPC: 3.786 cumulative IPC: 3.79 (Simulation time: 00 hr 03 min 07 sec)
Heartbeat CPU 0 instructions: 51500324 cycles: 11238994 heartbeat IPC: 3.183 cumulative IPC: 3.563 (Simulation time: 00 hr 03 min 10 sec)
Heartbeat CPU 0 instructions: 52000330 cycles: 11446301 heartbeat IPC: 2.412 cumulative IPC: 3.183 (Simulation time: 00 hr 03 min 14 sec)
Heartbeat CPU 0 instructions: 52500337 cycles: 11646533 heartbeat IPC: 2.497 cumulative IPC: 3.018 (Simulation time: 00 hr 03 min 18 sec)
Heartbeat CPU 0 instructions: 53000341 cycles: 11887616 heartbeat IPC: 2.074 cumulative IPC: 2.805 (Simulation time: 00 hr 03 min 22 sec)
Heartbeat CPU 0 instructions: 53500342 cycles: 12019379 heartbeat IPC: 3.795 cumulative IPC: 2.913 (Simulation time: 00 hr 03 min 24 sec)
Heartbeat CPU 0 instructions: 54000342 cycles: 12149714 heartbeat IPC: 3.836 cumulative IPC: 3.004 (Simulation time: 00 hr 03 min 27 sec)
Heartbeat CPU 0 instructions: 54500343 cycles: 12280945 heartbeat IPC: 3.81 cumulative IPC: 3.076 (Simulation time: 00 hr 03 min 30 sec)
Heartbeat CPU 0 instructions: 55000347 cycles: 12412543 heartbeat IPC: 3.799 cumulative IPC: 3.136 (Simulation time: 00 hr 03 min 33 sec)
Heartbeat CPU 0 instructions: 55500348 cycles: 12543458 heartbeat IPC: 3.819 cumulative IPC: 3.188 (Simulation time: 00 hr 03 min 35 sec)
Heartbeat CPU 0 instructions: 56000349 cycles: 12673777 heartbeat IPC: 3.837 cumulative IPC: 3.233 (Simulation time: 00 hr 03 min 38 sec)
Heartbeat CPU 0 instructions: 56500356 cycles: 12803748 heartbeat IPC: 3.847 cumulative IPC: 3.273 (Simulation time: 00 hr 03 min 41 sec)
Heartbeat CPU 0 instructions: 57000361 cycles: 12936012 heartbeat IPC: 3.78 cumulative IPC: 3.305 (Simulation time: 00 hr 03 min 44 sec)
Heartbeat CPU 0 instructions: 57500362 cycles: 13067356 heartbeat IPC: 3.807 cumulative IPC: 3.334 (Simulation time: 00 hr 03 min 46 sec)
Heartbeat CPU 0 instructions: 58000367 cycles: 13198839 heartbeat IPC: 3.803 cumulative IPC: 3.36 (Simulation time: 00 hr 03 min 49 sec)
Heartbeat CPU 0 instructions: 58500367 cycles: 13380556 heartbeat IPC: 2.752 cumulative IPC: 3.317 (Simulation time: 00 hr 03 min 52 sec)
Heartbeat CPU 0 instructions: 59000370 cycles: 13587432 heartbeat IPC: 2.417 cumulative IPC: 3.25 (Simulation time: 00 hr 03 min 56 sec)
Heartbeat CPU 0 instructions: 59500370 cycles: 13788776 heartbeat IPC: 2.483 cumulative IPC: 3.198 (Simulation time: 00 hr 04 min 00 sec)
Heartbeat CPU 0 instructions: 60000375 cycles: 14010453 heartbeat IPC: 2.256 cumulative IPC: 3.132 (Simulation time: 00 hr 04 min 04 sec)
Heartbeat CPU 0 instructions: 60500380 cycles: 14141504 heartbeat IPC: 3.815 cumulative IPC: 3.159 (Simulation time: 00 hr 04 min 07 sec)
Heartbeat CPU 0 instructions: 61000385 cycles: 14274816 heartbeat IPC: 3.751 cumulative IPC: 3.182 (Simulation time: 00 hr 04 min 09 sec)
Heartbeat CPU 0 instructions: 61500388 cycles: 14404367 heartbeat IPC: 3.86 cumulative IPC: 3.207 (Simulation time: 00 hr 04 min 12 sec)
Heartbeat CPU 0 instructions: 62000389 cycles: 14536077 heartbeat IPC: 3.796 cumulative IPC: 3.228 (Simulation time: 00 hr 04 min 15 sec)
Heartbeat CPU 0 instructions: 62500390 cycles: 14668390 heartbeat IPC: 3.779 cumulative IPC: 3.246 (Simulation time: 00 hr 04 min 18 sec)
Heartbeat CPU 0 instructions: 63000390 cycles: 14799661 heartbeat IPC: 3.809 cumulative IPC: 3.265 (Simulation time: 00 hr 04 min 20 sec)
Heartbeat CPU 0 instructions: 63500395 cycles: 14931144 heartbeat IPC: 3.803 cumulative IPC: 3.282 (Simulation time: 00 hr 04 min 23 sec)
Heartbeat CPU 0 instructions: 64000395 cycles: 15060593 heartbeat IPC: 3.863 cumulative IPC: 3.3 (Simulation time: 00 hr 04 min 26 sec)
Heartbeat CPU 0 instructions: 64500400 cycles: 15191703 heartbeat IPC: 3.814 cumulative IPC: 3.315 (Simulation time: 00 hr 04 min 28 sec)
Heartbeat CPU 0 instructions: 65000404 cycles: 15322062 heartbeat IPC: 3.836 cumulative IPC: 3.33 (Simulation time: 00 hr 04 min 31 sec)
Heartbeat CPU 0 instructions: 65500404 cycles: 15527139 heartbeat IPC: 2.438 cumulative IPC: 3.292 (Simulation time: 00 hr 04 min 35 sec)
Heartbeat CPU 0 instructions: 66000411 cycles: 15728131 heartbeat IPC: 2.488 cumulative IPC: 3.259 (Simulation time: 00 hr 04 min 39 sec)
Heartbeat CPU 0 instructions: 66500414 cycles: 15944935 heartbeat IPC: 2.306 cumulative IPC: 3.218 (Simulation time: 00 hr 04 min 43 sec)
Heartbeat CPU 0 instructions: 67000419 cycles: 16129511 heartbeat IPC: 2.709 cumulative IPC: 3.201 (Simulation time: 00 hr 04 min 46 sec)
Heartbeat CPU 0 instructions: 67500425 cycles: 16260255 heartbeat IPC: 3.824 cumulative IPC: 3.216 (Simulation time: 00 hr 04 min 49 sec)
Heartbeat CPU 0 instructions: 68000425 cycles: 16392078 heartbeat IPC: 3.793 cumulative IPC: 3.229 (Simulation time: 00 hr 04 min 51 sec)
Heartbeat CPU 0 instructions: 68500427 cycles: 16522721 heartbeat IPC: 3.827 cumulative IPC: 3.243 (Simulation time: 00 hr 04 min 54 sec)
Heartbeat CPU 0 instructions: 69000430 cycles: 16652335 heartbeat IPC: 3.858 cumulative IPC: 3.257 (Simulation time: 00 hr 04 min 57 sec)
Heartbeat CPU 0 instructions: 69500437 cycles: 16785481 heartbeat IPC: 3.755 cumulative IPC: 3.268 (Simulation time: 00 hr 04 min 59 sec)
Heartbeat CPU 0 instructions: 70000440 cycles: 16916586 heartbeat IPC: 3.814 cumulative IPC: 3.279 (Simulation time: 00 hr 05 min 02 sec)
Heartbeat CPU 0 instructions: 70500441 cycles: 17048591 heartbeat IPC: 3.788 cumulative IPC: 3.29 (Simulation time: 00 hr 05 min 05 sec)
Heartbeat CPU 0 instructions: 71000442 cycles: 17181256 heartbeat IPC: 3.769 cumulative IPC: 3.3 (Simulation time: 00 hr 05 min 07 sec)
Heartbeat CPU 0 instructions: 71500445 cycles: 17311875 heartbeat IPC: 3.828 cumulative IPC: 3.311 (Simulation time: 00 hr 05 min 10 sec)
Heartbeat CPU 0 instructions: 72000451 cycles: 17460400 heartbeat IPC: 3.366 cumulative IPC: 3.312 (Simulation time: 00 hr 05 min 13 sec)
Heartbeat CPU 0 instructions: 72500453 cycles: 17668648 heartbeat IPC: 2.401 cumulative IPC: 3.284 (Simulation time: 00 hr 05 min 17 sec)
Heartbeat CPU 0 instructions: 73000453 cycles: 17868689 heartbeat IPC: 2.499 cumulative IPC: 3.262 (Simulation time: 00 hr 05 min 20 sec)
Heartbeat CPU 0 instructions: 73500459 cycles: 18113992 heartbeat IPC: 2.038 cumulative IPC: 3.221 (Simulation time: 00 hr 05 min 24 sec)
Heartbeat CPU 0 instructions: 74000465 cycles: 18244800 heartbeat IPC: 3.822 cumulative IPC: 3.232 (Simulation time: 00 hr 05 min 27 sec)
Heartbeat CPU 0 instructions: 74500466 cycles: 18375638 heartbeat IPC: 3.822 cumulative IPC: 3.242 (Simulation time: 00 hr 05 min 30 sec)
Heartbeat CPU 0 instructions: 75000472 cycles: 18507370 heartbeat IPC: 3.796 cumulative IPC: 3.251 (Simulation time: 00 hr 05 min 33 sec)
Heartbeat CPU 0 instructions: 75500476 cycles: 18638485 heartbeat IPC: 3.813 cumulative IPC: 3.261 (Simulation time: 00 hr 05 min 35 sec)
Heartbeat CPU 0 instructions: 76000477 cycles: 18771537 heartbeat IPC: 3.758 cumulative IPC: 3.269 (Simulation time: 00 hr 05 min 38 sec)
Heartbeat CPU 0 instructions: 76500480 cycles: 18902750 heartbeat IPC: 3.811 cumulative IPC: 3.278 (Simulation time: 00 hr 05 min 41 sec)
Heartbeat CPU 0 instructions: 77000485 cycles: 19033282 heartbeat IPC: 3.831 cumulative IPC: 3.287 (Simulation time: 00 hr 05 min 43 sec)
Heartbeat CPU 0 instructions: 77500490 cycles: 19163679 heartbeat IPC: 3.834 cumulative IPC: 3.295 (Simulation time: 00 hr 05 min 46 sec)
Heartbeat CPU 0 instructions: 78000495 cycles: 19295350 heartbeat IPC: 3.797 cumulative IPC: 3.303 (Simulation time: 00 hr 05 min 49 sec)
Heartbeat CPU 0 instructions: 78500500 cycles: 19426635 heartbeat IPC: 3.809 cumulative IPC: 3.311 (Simulation time: 00 hr 05 min 51 sec)
Heartbeat CPU 0 instructions: 79000500 cycles: 19597174 heartbeat IPC: 2.932 cumulative IPC: 3.303 (Simulation time: 00 hr 05 min 55 sec)
Heartbeat CPU 0 instructions: 79500503 cycles: 19804002 heartbeat IPC: 2.417 cumulative IPC: 3.283 (Simulation time: 00 hr 05 min 58 sec)
Heartbeat CPU 0 instructions: 80000503 cycles: 20005704 heartbeat IPC: 2.479 cumulative IPC: 3.265 (Simulation time: 00 hr 06 min 02 sec)
Heartbeat CPU 0 instructions: 80500504 cycles: 20237212 heartbeat IPC: 2.16 cumulative IPC: 3.238 (Simulation time: 00 hr 06 min 06 sec)
Heartbeat CPU 0 instructions: 81000507 cycles: 20367172 heartbeat IPC: 3.847 cumulative IPC: 3.246 (Simulation time: 00 hr 06 min 08 sec)
Heartbeat CPU 0 instructions: 81500508 cycles: 20498747 heartbeat IPC: 3.8 cumulative IPC: 3.254 (Simulation time: 00 hr 06 min 11 sec)
Heartbeat CPU 0 instructions: 82000513 cycles: 20630077 heartbeat IPC: 3.807 cumulative IPC: 3.261 (Simulation time: 00 hr 06 min 14 sec)
Heartbeat CPU 0 instructions: 82500514 cycles: 20762115 heartbeat IPC: 3.787 cumulative IPC: 3.268 (Simulation time: 00 hr 06 min 16 sec)
Heartbeat CPU 0 instructions: 83000519 cycles: 20894541 heartbeat IPC: 3.776 cumulative IPC: 3.275 (Simulation time: 00 hr 06 min 19 sec)
Heartbeat CPU 0 instructions: 83500522 cycles: 21023876 heartbeat IPC: 3.866 cumulative IPC: 3.282 (Simulation time: 00 hr 06 min 22 sec)
Heartbeat CPU 0 instructions: 84000523 cycles: 21156769 heartbeat IPC: 3.762 cumulative IPC: 3.289 (Simulation time: 00 hr 06 min 24 sec)
Heartbeat CPU 0 instructions: 84500523 cycles: 21288770 heartbeat IPC: 3.788 cumulative IPC: 3.295 (Simulation time: 00 hr 06 min 27 sec)
Heartbeat CPU 0 instructions: 85000524 cycles: 21421261 heartbeat IPC: 3.774 cumulative IPC: 3.301 (Simulation time: 00 hr 06 min 30 sec)
Heartbeat CPU 0 instructions: 85500525 cycles: 21552284 heartbeat IPC: 3.816 cumulative IPC: 3.307 (Simulation time: 00 hr 06 min 33 sec)
Heartbeat CPU 0 instructions: 86000528 cycles: 21750270 heartbeat IPC: 2.525 cumulative IPC: 3.293 (Simulation time: 00 hr 06 min 36 sec)
Heartbeat CPU 0 instructions: 86500535 cycles: 21951753 heartbeat IPC: 2.482 cumulative IPC: 3.278 (Simulation time: 00 hr 06 min 40 sec)
Heartbeat CPU 0 instructions: 87000540 cycles: 22161119 heartbeat IPC: 2.388 cumulative IPC: 3.262 (Simulation time: 00 hr 06 min 44 sec)
Heartbeat CPU 0 instructions: 87500545 cycles: 22358394 heartbeat IPC: 2.535 cumulative IPC: 3.249 (Simulation time: 00 hr 06 min 47 sec)
Heartbeat CPU 0 instructions: 88000546 cycles: 22490082 heartbeat IPC: 3.797 cumulative IPC: 3.256 (Simulation time: 00 hr 06 min 50 sec)
Heartbeat CPU 0 instructions: 88500549 cycles: 22620051 heartbeat IPC: 3.847 cumulative IPC: 3.262 (Simulation time: 00 hr 06 min 52 sec)
Heartbeat CPU 0 instructions: 89000550 cycles: 22750799 heartbeat IPC: 3.824 cumulative IPC: 3.268 (Simulation time: 00 hr 06 min 55 sec)
Heartbeat CPU 0 instructions: 89500551 cycles: 22882843 heartbeat IPC: 3.787 cumulative IPC: 3.274 (Simulation time: 00 hr 06 min 57 sec)
Heartbeat CPU 0 instructions: 90000552 cycles: 23015835 heartbeat IPC: 3.76 cumulative IPC: 3.279 (Simulation time: 00 hr 07 min 00 sec)
Heartbeat CPU 0 instructions: 90500553 cycles: 23147419 heartbeat IPC: 3.8 cumulative IPC: 3.285 (Simulation time: 00 hr 07 min 03 sec)
Heartbeat CPU 0 instructions: 91000554 cycles: 23277941 heartbeat IPC: 3.831 cumulative IPC: 3.291 (Simulation time: 00 hr 07 min 05 sec)
Heartbeat CPU 0 instructions: 91500557 cycles: 23409747 heartbeat IPC: 3.793 cumulative IPC: 3.296 (Simulation time: 00 hr 07 min 08 sec)
Heartbeat CPU 0 instructions: 92000562 cycles: 23540919 heartbeat IPC: 3.812 cumulative IPC: 3.301 (Simulation time: 00 hr 07 min 11 sec)
Heartbeat CPU 0 instructions: 92500565 cycles: 23684961 heartbeat IPC: 3.471 cumulative IPC: 3.303 (Simulation time: 00 hr 07 min 13 sec)
Heartbeat CPU 0 instructions: 93000569 cycles: 23893191 heartbeat IPC: 2.401 cumulative IPC: 3.289 (Simulation time: 00 hr 07 min 17 sec)
Heartbeat CPU 0 instructions: 93500576 cycles: 24097065 heartbeat IPC: 2.453 cumulative IPC: 3.276 (Simulation time: 00 hr 07 min 21 sec)
Heartbeat CPU 0 instructions: 94000576 cycles: 24337062 heartbeat IPC: 2.083 cumulative IPC: 3.255 (Simulation time: 00 hr 07 min 25 sec)
Heartbeat CPU 0 instructions: 94500582 cycles: 24486056 heartbeat IPC: 3.356 cumulative IPC: 3.256 (Simulation time: 00 hr 07 min 28 sec)
Heartbeat CPU 0 instructions: 95000587 cycles: 24618336 heartbeat IPC: 3.78 cumulative IPC: 3.261 (Simulation time: 00 hr 07 min 30 sec)
Heartbeat CPU 0 instructions: 95500588 cycles: 24748991 heartbeat IPC: 3.827 cumulative IPC: 3.266 (Simulation time: 00 hr 07 min 33 sec)
Heartbeat CPU 0 instructions: 96000591 cycles: 24879289 heartbeat IPC: 3.837 cumulative IPC: 3.271 (Simulation time: 00 hr 07 min 36 sec)
Heartbeat CPU 0 instructions: 96500592 cycles: 25010232 heartbeat IPC: 3.818 cumulative IPC: 3.276 (Simulation time: 00 hr 07 min 38 sec)
Heartbeat CPU 0 instructions: 97000593 cycles: 25141366 heartbeat IPC: 3.813 cumulative IPC: 3.281 (Simulation time: 00 hr 07 min 41 sec)
Heartbeat CPU 0 instructions: 97500594 cycles: 25271906 heartbeat IPC: 3.83 cumulative IPC: 3.286 (Simulation time: 00 hr 07 min 43 sec)
Heartbeat CPU 0 instructions: 98000595 cycles: 25404530 heartbeat IPC: 3.77 cumulative IPC: 3.291 (Simulation time: 00 hr 07 min 46 sec)
Heartbeat CPU 0 instructions: 98500598 cycles: 25535490 heartbeat IPC: 3.818 cumulative IPC: 3.295 (Simulation time: 00 hr 07 min 49 sec)
Heartbeat CPU 0 instructions: 99000599 cycles: 25667236 heartbeat IPC: 3.795 cumulative IPC: 3.3 (Simulation time: 00 hr 07 min 51 sec)
Heartbeat CPU 0 instructions: 99500602 cycles: 25831234 heartbeat IPC: 3.049 cumulative IPC: 3.297 (Simulation time: 00 hr 07 min 54 sec)
Heartbeat CPU 0 instructions: 100000609 cycles: 26039120 heartbeat IPC: 2.405 cumulative IPC: 3.285 (Simulation time: 00 hr 07 min 58 sec)
Heartbeat CPU 0 instructions: 100500610 cycles: 26243075 heartbeat IPC: 2.452 cumulative IPC: 3.274 (Simulation time: 00 hr 08 min 02 sec)
Heartbeat CPU 0 instructions: 101000611 cycles: 26472191 heartbeat IPC: 2.182 cumulative IPC: 3.258 (Simulation time: 00 hr 08 min 05 sec)
Heartbeat CPU 0 instructions: 101500616 cycles: 26603489 heartbeat IPC: 3.808 cumulative IPC: 3.263 (Simulation time: 00 hr 08 min 08 sec)
Heartbeat CPU 0 instructions: 102000621 cycles: 26733925 heartbeat IPC: 3.833 cumulative IPC: 3.267 (Simulation time: 00 hr 08 min 11 sec)
Heartbeat CPU 0 instructions: 102500626 cycles: 26865456 heartbeat IPC: 3.801 cumulative IPC: 3.272 (Simulation time: 00 hr 08 min 13 sec)
Heartbeat CPU 0 instructions: 103000633 cycles: 26996499 heartbeat IPC: 3.816 cumulative IPC: 3.276 (Simulation time: 00 hr 08 min 16 sec)
Heartbeat CPU 0 instructions: 103500638 cycles: 27127066 heartbeat IPC: 3.829 cumulative IPC: 3.28 (Simulation time: 00 hr 08 min 18 sec)
Heartbeat CPU 0 instructions: 104000643 cycles: 27259426 heartbeat IPC: 3.778 cumulative IPC: 3.284 (Simulation time: 00 hr 08 min 21 sec)
Heartbeat CPU 0 instructions: 104500643 cycles: 27390253 heartbeat IPC: 3.822 cumulative IPC: 3.289 (Simulation time: 00 hr 08 min 24 sec)
Heartbeat CPU 0 instructions: 105000649 cycles: 27522634 heartbeat IPC: 3.777 cumulative IPC: 3.293 (Simulation time: 00 hr 08 min 26 sec)
Heartbeat CPU 0 instructions: 105500656 cycles: 27652638 heartbeat IPC: 3.846 cumulative IPC: 3.297 (Simulation time: 00 hr 08 min 29 sec)
Heartbeat CPU 0 instructions: 106000656 cycles: 27784102 heartbeat IPC: 3.803 cumulative IPC: 3.301 (Simulation time: 00 hr 08 min 32 sec)
Heartbeat CPU 0 instructions: 106500656 cycles: 27976573 heartbeat IPC: 2.598 cumulative IPC: 3.293 (Simulation time: 00 hr 08 min 35 sec)
Heartbeat CPU 0 instructions: 107000660 cycles: 28181204 heartbeat IPC: 2.443 cumulative IPC: 3.283 (Simulation time: 00 hr 08 min 39 sec)
Heartbeat CPU 0 instructions: 107500664 cycles: 28384239 heartbeat IPC: 2.463 cumulative IPC: 3.273 (Simulation time: 00 hr 08 min 42 sec)
Heartbeat CPU 0 instructions: 108000668 cycles: 28597166 heartbeat IPC: 2.348 cumulative IPC: 3.262 (Simulation time: 00 hr 08 min 46 sec)
Heartbeat CPU 0 instructions: 108500669 cycles: 28729972 heartbeat IPC: 3.765 cumulative IPC: 3.266 (Simulation time: 00 hr 08 min 48 sec)
Heartbeat CPU 0 instructions: 109000669 cycles: 28860195 heartbeat IPC: 3.84 cumulative IPC: 3.27 (Simulation time: 00 hr 08 min 51 sec)
Heartbeat CPU 0 instructions: 109500671 cycles: 28991444 heartbeat IPC: 3.81 cumulative IPC: 3.274 (Simulation time: 00 hr 08 min 54 sec)
Heartbeat CPU 0 instructions: 110000672 cycles: 29122871 heartbeat IPC: 3.804 cumulative IPC: 3.278 (Simulation time: 00 hr 08 min 56 sec)
Heartbeat CPU 0 instructions: 110500675 cycles: 29254620 heartbeat IPC: 3.795 cumulative IPC: 3.282 (Simulation time: 00 hr 08 min 59 sec)
Heartbeat CPU 0 instructions: 111000676 cycles: 29385831 heartbeat IPC: 3.811 cumulative IPC: 3.285 (Simulation time: 00 hr 09 min 01 sec)
Heartbeat CPU 0 instructions: 111500681 cycles: 29517384 heartbeat IPC: 3.801 cumulative IPC: 3.289 (Simulation time: 00 hr 09 min 04 sec)
Heartbeat CPU 0 instructions: 112000686 cycles: 29648175 heartbeat IPC: 3.823 cumulative IPC: 3.293 (Simulation time: 00 hr 09 min 07 sec)
Heartbeat CPU 0 instructions: 112500691 cycles: 29780296 heartbeat IPC: 3.784 cumulative IPC: 3.296 (Simulation time: 00 hr 09 min 09 sec)
Heartbeat CPU 0 instructions: 113000698 cycles: 29911695 heartbeat IPC: 3.805 cumulative IPC: 3.3 (Simulation time: 00 hr 09 min 12 sec)
Heartbeat CPU 0 instructions: 113500699 cycles: 30125572 heartbeat IPC: 2.338 cumulative IPC: 3.289 (Simulation time: 00 hr 09 min 15 sec)
Heartbeat CPU 0 instructions: 114000701 cycles: 30326310 heartbeat IPC: 2.491 cumulative IPC: 3.281 (Simulation time: 00 hr 09 min 19 sec)
Heartbeat CPU 0 instructions: 114500702 cycles: 30557653 heartbeat IPC: 2.161 cumulative IPC: 3.268 (Simulation time: 00 hr 09 min 23 sec)
Heartbeat CPU 0 instructions: 115000707 cycles: 30721093 heartbeat IPC: 3.059 cumulative IPC: 3.266 (Simulation time: 00 hr 09 min 26 sec)
Heartbeat CPU 0 instructions: 115500710 cycles: 30851203 heartbeat IPC: 3.843 cumulative IPC: 3.27 (Simulation time: 00 hr 09 min 28 sec)
Heartbeat CPU 0 instructions: 116000711 cycles: 30982902 heartbeat IPC: 3.797 cumulative IPC: 3.273 (Simulation time: 00 hr 09 min 31 sec)
Heartbeat CPU 0 instructions: 116500716 cycles: 31113137 heartbeat IPC: 3.839 cumulative IPC: 3.277 (Simulation time: 00 hr 09 min 34 sec)
Heartbeat CPU 0 instructions: 117000717 cycles: 31246695 heartbeat IPC: 3.744 cumulative IPC: 3.28 (Simulation time: 00 hr 09 min 36 sec)
Heartbeat CPU 0 instructions: 117500718 cycles: 31377459 heartbeat IPC: 3.824 cumulative IPC: 3.283 (Simulation time: 00 hr 09 min 39 sec)
Heartbeat CPU 0 instructions: 118000721 cycles: 31507493 heartbeat IPC: 3.845 cumulative IPC: 3.287 (Simulation time: 00 hr 09 min 41 sec)
Heartbeat CPU 0 instructions: 118500726 cycles: 31639402 heartbeat IPC: 3.791 cumulative IPC: 3.29 (Simulation time: 00 hr 09 min 44 sec)
Heartbeat CPU 0 instructions: 119000727 cycles: 31771701 heartbeat IPC: 3.779 cumulative IPC: 3.293 (Simulation time: 00 hr 09 min 47 sec)
Heartbeat CPU 0 instructions: 119500728 cycles: 31902612 heartbeat IPC: 3.819 cumulative IPC: 3.296 (Simulation time: 00 hr 09 min 49 sec)
Heartbeat CPU 0 instructions: 120000732 cycles: 32061797 heartbeat IPC: 3.141 cumulative IPC: 3.295 (Simulation time: 00 hr 09 min 52 sec)
Heartbeat CPU 0 instructions: 120500733 cycles: 32270843 heartbeat IPC: 2.392 cumulative IPC: 3.286 (Simulation time: 00 hr 09 min 56 sec)
Heartbeat CPU 0 instructions: 121000734 cycles: 32470603 heartbeat IPC: 2.503 cumulative IPC: 3.279 (Simulation time: 00 hr 10 min 00 sec)
Heartbeat CPU 0 instructions: 121500740 cycles: 32713493 heartbeat IPC: 2.059 cumulative IPC: 3.266 (Simulation time: 00 hr 10 min 04 sec)
Heartbeat CPU 0 instructions: 122000741 cycles: 32844926 heartbeat IPC: 3.804 cumulative IPC: 3.269 (Simulation time: 00 hr 10 min 06 sec)
Heartbeat CPU 0 instructions: 122500742 cycles: 32977128 heartbeat IPC: 3.782 cumulative IPC: 3.272 (Simulation time: 00 hr 10 min 09 sec)
Heartbeat CPU 0 instructions: 123000744 cycles: 33107329 heartbeat IPC: 3.84 cumulative IPC: 3.275 (Simulation time: 00 hr 10 min 12 sec)
Heartbeat CPU 0 instructions: 123500750 cycles: 33240721 heartbeat IPC: 3.748 cumulative IPC: 3.278 (Simulation time: 00 hr 10 min 14 sec)
Heartbeat CPU 0 instructions: 124000755 cycles: 33372797 heartbeat IPC: 3.786 cumulative IPC: 3.281 (Simulation time: 00 hr 10 min 17 sec)
Heartbeat CPU 0 instructions: 124500760 cycles: 33503271 heartbeat IPC: 3.832 cumulative IPC: 3.284 (Simulation time: 00 hr 10 min 20 sec)
Heartbeat CPU 0 instructions: 125000764 cycles: 33635616 heartbeat IPC: 3.778 cumulative IPC: 3.287 (Simulation time: 00 hr 10 min 22 sec)
Heartbeat CPU 0 instructions: 125500768 cycles: 33765535 heartbeat IPC: 3.849 cumulative IPC: 3.29 (Simulation time: 00 hr 10 min 25 sec)
Heartbeat CPU 0 instructions: 126000768 cycles: 33897240 heartbeat IPC: 3.796 cumulative IPC: 3.293 (Simulation time: 00 hr 10 min 28 sec)
Heartbeat CPU 0 instructions: 126500769 cycles: 34027995 heartbeat IPC: 3.824 cumulative IPC: 3.296 (Simulation time: 00 hr 10 min 30 sec)
Heartbeat CPU 0 instructions: 127000776 cycles: 34208813 heartbeat IPC: 2.765 cumulative IPC: 3.292 (Simulation time: 00 hr 10 min 33 sec)
Heartbeat CPU 0 instructions: 127500781 cycles: 34415637 heartbeat IPC: 2.418 cumulative IPC: 3.284 (Simulation time: 00 hr 10 min 37 sec)
Heartbeat CPU 0 instructions: 128000783 cycles: 34616707 heartbeat IPC: 2.487 cumulative IPC: 3.278 (Simulation time: 00 hr 10 min 41 sec)
Heartbeat CPU 0 instructions: 128500787 cycles: 34909062 heartbeat IPC: 1.71 cumulative IPC: 3.258 (Simulation time: 00 hr 10 min 45 sec)
Heartbeat CPU 0 instructions: 129000787 cycles: 35120658 heartbeat IPC: 2.363 cumulative IPC: 3.251 (Simulation time: 00 hr 10 min 49 sec)
Heartbeat CPU 0 instructions: 129500787 cycles: 35336833 heartbeat IPC: 2.313 cumulative IPC: 3.242 (Simulation time: 00 hr 10 min 52 sec)
Heartbeat CPU 0 instructions: 130000791 cycles: 35553781 heartbeat IPC: 2.305 cumulative IPC: 3.234 (Simulation time: 00 hr 10 min 56 sec)
Heartbeat CPU 0 instructions: 130500795 cycles: 35761092 heartbeat IPC: 2.412 cumulative IPC: 3.227 (Simulation time: 00 hr 11 min 00 sec)
Heartbeat CPU 0 instructions: 131000797 cycles: 35974337 heartbeat IPC: 2.345 cumulative IPC: 3.22 (Simulation time: 00 hr 11 min 04 sec)
Heartbeat CPU 0 instructions: 131500804 cycles: 36171562 heartbeat IPC: 2.535 cumulative IPC: 3.215 (Simulation time: 00 hr 11 min 07 sec)
Heartbeat CPU 0 instructions: 132000809 cycles: 36362964 heartbeat IPC: 2.612 cumulative IPC: 3.21 (Simulation time: 00 hr 11 min 11 sec)
Heartbeat CPU 0 instructions: 132500810 cycles: 36558649 heartbeat IPC: 2.555 cumulative IPC: 3.205 (Simulation time: 00 hr 11 min 14 sec)
Heartbeat CPU 0 instructions: 133000810 cycles: 36750291 heartbeat IPC: 2.609 cumulative IPC: 3.201 (Simulation time: 00 hr 11 min 17 sec)
Heartbeat CPU 0 instructions: 133500812 cycles: 36946022 heartbeat IPC: 2.555 cumulative IPC: 3.196 (Simulation time: 00 hr 11 min 21 sec)
Heartbeat CPU 0 instructions: 134000816 cycles: 37138538 heartbeat IPC: 2.597 cumulative IPC: 3.191 (Simulation time: 00 hr 11 min 24 sec)
Heartbeat CPU 0 instructions: 134500820 cycles: 37336138 heartbeat IPC: 2.53 cumulative IPC: 3.187 (Simulation time: 00 hr 11 min 27 sec)
Heartbeat CPU 0 instructions: 135000825 cycles: 37526028 heartbeat IPC: 2.633 cumulative IPC: 3.183 (Simulation time: 00 hr 11 min 31 sec)
Heartbeat CPU 0 instructions: 135500825 cycles: 37721773 heartbeat IPC: 2.554 cumulative IPC: 3.178 (Simulation time: 00 hr 11 min 34 sec)
Heartbeat CPU 0 instructions: 136000826 cycles: 37916776 heartbeat IPC: 2.564 cumulative IPC: 3.174 (Simulation time: 00 hr 11 min 37 sec)
Heartbeat CPU 0 instructions: 136500831 cycles: 38109617 heartbeat IPC: 2.593 cumulative IPC: 3.169 (Simulation time: 00 hr 11 min 41 sec)
Heartbeat CPU 0 instructions: 137000832 cycles: 38307919 heartbeat IPC: 2.521 cumulative IPC: 3.165 (Simulation time: 00 hr 11 min 44 sec)
Heartbeat CPU 0 instructions: 137500839 cycles: 38496529 heartbeat IPC: 2.651 cumulative IPC: 3.161 (Simulation time: 00 hr 11 min 47 sec)
Heartbeat CPU 0 instructions: 138000845 cycles: 38692897 heartbeat IPC: 2.546 cumulative IPC: 3.157 (Simulation time: 00 hr 11 min 51 sec)
Heartbeat CPU 0 instructions: 138500849 cycles: 38888121 heartbeat IPC: 2.561 cumulative IPC: 3.153 (Simulation time: 00 hr 11 min 54 sec)
Heartbeat CPU 0 instructions: 139000854 cycles: 39080848 heartbeat IPC: 2.594 cumulative IPC: 3.149 (Simulation time: 00 hr 11 min 57 sec)
Heartbeat CPU 0 instructions: 139500854 cycles: 39276715 heartbeat IPC: 2.553 cumulative IPC: 3.145 (Simulation time: 00 hr 12 min 01 sec)
Heartbeat CPU 0 instructions: 140000854 cycles: 39468193 heartbeat IPC: 2.611 cumulative IPC: 3.141 (Simulation time: 00 hr 12 min 04 sec)
Heartbeat CPU 0 instructions: 140500859 cycles: 39662702 heartbeat IPC: 2.571 cumulative IPC: 3.138 (Simulation time: 00 hr 12 min 07 sec)
Heartbeat CPU 0 instructions: 141000861 cycles: 39859396 heartbeat IPC: 2.542 cumulative IPC: 3.133 (Simulation time: 00 hr 12 min 10 sec)
Heartbeat CPU 0 instructions: 141500868 cycles: 40052267 heartbeat IPC: 2.592 cumulative IPC: 3.13 (Simulation time: 00 hr 12 min 13 sec)
Heartbeat CPU 0 instructions: 142000869 cycles: 40249541 heartbeat IPC: 2.535 cumulative IPC: 3.126 (Simulation time: 00 hr 12 min 17 sec)
Heartbeat CPU 0 instructions: 142500873 cycles: 40439565 heartbeat IPC: 2.631 cumulative IPC: 3.123 (Simulation time: 00 hr 12 min 20 sec)
Heartbeat CPU 0 instructions: 143000873 cycles: 40633699 heartbeat IPC: 2.576 cumulative IPC: 3.119 (Simulation time: 00 hr 12 min 23 sec)
Heartbeat CPU 0 instructions: 143500875 cycles: 40830351 heartbeat IPC: 2.543 cumulative IPC: 3.115 (Simulation time: 00 hr 12 min 26 sec)
Heartbeat CPU 0 instructions: 144000880 cycles: 41022975 heartbeat IPC: 2.596 cumulative IPC: 3.112 (Simulation time: 00 hr 12 min 30 sec)
Heartbeat CPU 0 instructions: 144500884 cycles: 41220093 heartbeat IPC: 2.537 cumulative IPC: 3.108 (Simulation time: 00 hr 12 min 33 sec)
Heartbeat CPU 0 instructions: 145000888 cycles: 41410501 heartbeat IPC: 2.626 cumulative IPC: 3.105 (Simulation time: 00 hr 12 min 36 sec)
Heartbeat CPU 0 instructions: 145500893 cycles: 41604852 heartbeat IPC: 2.573 cumulative IPC: 3.102 (Simulation time: 00 hr 12 min 39 sec)
Heartbeat CPU 0 instructions: 146000897 cycles: 41801035 heartbeat IPC: 2.549 cumulative IPC: 3.098 (Simulation time: 00 hr 12 min 42 sec)
Heartbeat CPU 0 instructions: 146500899 cycles: 41994486 heartbeat IPC: 2.585 cumulative IPC: 3.095 (Simulation time: 00 hr 12 min 46 sec)
Heartbeat CPU 0 instructions: 147000903 cycles: 42188567 heartbeat IPC: 2.576 cumulative IPC: 3.092 (Simulation time: 00 hr 12 min 49 sec)
Heartbeat CPU 0 instructions: 147500908 cycles: 42381454 heartbeat IPC: 2.592 cumulative IPC: 3.089 (Simulation time: 00 hr 12 min 52 sec)
Heartbeat CPU 0 instructions: 148000908 cycles: 42577176 heartbeat IPC: 2.555 cumulative IPC: 3.086 (Simulation time: 00 hr 12 min 55 sec)
Heartbeat CPU 0 instructions: 148500909 cycles: 42769223 heartbeat IPC: 2.604 cumulative IPC: 3.083 (Simulation time: 00 hr 12 min 59 sec)
Heartbeat CPU 0 instructions: 149000909 cycles: 42966058 heartbeat IPC: 2.54 cumulative IPC: 3.08 (Simulation time: 00 hr 13 min 02 sec)
Heartbeat CPU 0 instructions: 149500911 cycles: 43159694 heartbeat IPC: 2.582 cumulative IPC: 3.077 (Simulation time: 00 hr 13 min 05 sec)
Heartbeat CPU 0 instructions: 150000914 cycles: 43353326 heartbeat IPC: 2.582 cumulative IPC: 3.074 (Simulation time: 00 hr 13 min 08 sec)
Heartbeat CPU 0 instructions: 150500914 cycles: 43547515 heartbeat IPC: 2.575 cumulative IPC: 3.071 (Simulation time: 00 hr 13 min 11 sec)
Heartbeat CPU 0 instructions: 151000915 cycles: 43742693 heartbeat IPC: 2.562 cumulative IPC: 3.068 (Simulation time: 00 hr 13 min 14 sec)
Heartbeat CPU 0 instructions: 151500915 cycles: 43937036 heartbeat IPC: 2.573 cumulative IPC: 3.065 (Simulation time: 00 hr 13 min 18 sec)
Heartbeat CPU 0 instructions: 152000917 cycles: 44129875 heartbeat IPC: 2.593 cumulative IPC: 3.062 (Simulation time: 00 hr 13 min 21 sec)
Heartbeat CPU 0 instructions: 152500921 cycles: 44324807 heartbeat IPC: 2.565 cumulative IPC: 3.059 (Simulation time: 00 hr 13 min 24 sec)
Heartbeat CPU 0 instructions: 153000926 cycles: 44518928 heartbeat IPC: 2.576 cumulative IPC: 3.056 (Simulation time: 00 hr 13 min 27 sec)
Heartbeat CPU 0 instructions: 153500930 cycles: 44713216 heartbeat IPC: 2.574 cumulative IPC: 3.054 (Simulation time: 00 hr 13 min 30 sec)
Heartbeat CPU 0 instructions: 154000935 cycles: 44907055 heartbeat IPC: 2.579 cumulative IPC: 3.051 (Simulation time: 00 hr 13 min 34 sec)
Heartbeat CPU 0 instructions: 154500937 cycles: 45101506 heartbeat IPC: 2.571 cumulative IPC: 3.048 (Simulation time: 00 hr 13 min 37 sec)
Heartbeat CPU 0 instructions: 155000941 cycles: 45295994 heartbeat IPC: 2.571 cumulative IPC: 3.045 (Simulation time: 00 hr 13 min 40 sec)
Heartbeat CPU 0 instructions: 155500945 cycles: 45492760 heartbeat IPC: 2.541 cumulative IPC: 3.043 (Simulation time: 00 hr 13 min 43 sec)
Heartbeat CPU 0 instructions: 156000949 cycles: 45684790 heartbeat IPC: 2.604 cumulative IPC: 3.04 (Simulation time: 00 hr 13 min 46 sec)
Heartbeat CPU 0 instructions: 156500950 cycles: 45877981 heartbeat IPC: 2.588 cumulative IPC: 3.038 (Simulation time: 00 hr 13 min 49 sec)
Heartbeat CPU 0 instructions: 157000950 cycles: 46071193 heartbeat IPC: 2.588 cumulative IPC: 3.035 (Simulation time: 00 hr 13 min 53 sec)
Heartbeat CPU 0 instructions: 157500956 cycles: 46266817 heartbeat IPC: 2.556 cumulative IPC: 3.033 (Simulation time: 00 hr 13 min 56 sec)
Heartbeat CPU 0 instructions: 158000961 cycles: 46463596 heartbeat IPC: 2.541 cumulative IPC: 3.03 (Simulation time: 00 hr 13 min 59 sec)
Heartbeat CPU 0 instructions: 158500964 cycles: 46655415 heartbeat IPC: 2.607 cumulative IPC: 3.028 (Simulation time: 00 hr 14 min 02 sec)
Heartbeat CPU 0 instructions: 159000964 cycles: 46848043 heartbeat IPC: 2.596 cumulative IPC: 3.025 (Simulation time: 00 hr 14 min 05 sec)
Heartbeat CPU 0 instructions: 159500965 cycles: 47041935 heartbeat IPC: 2.579 cumulative IPC: 3.023 (Simulation time: 00 hr 14 min 09 sec)
Heartbeat CPU 0 instructions: 160000971 cycles: 47239144 heartbeat IPC: 2.535 cumulative IPC: 3.02 (Simulation time: 00 hr 14 min 12 sec)
Heartbeat CPU 0 instructions: 160500972 cycles: 47434468 heartbeat IPC: 2.56 cumulative IPC: 3.018 (Simulation time: 00 hr 14 min 15 sec)
Heartbeat CPU 0 instructions: 161000979 cycles: 47626452 heartbeat IPC: 2.604 cumulative IPC: 3.016 (Simulation time: 00 hr 14 min 18 sec)
Heartbeat CPU 0 instructions: 161500984 cycles: 47820953 heartbeat IPC: 2.571 cumulative IPC: 3.013 (Simulation time: 00 hr 14 min 21 sec)
Heartbeat CPU 0 instructions: 162000985 cycles: 48013868 heartbeat IPC: 2.592 cumulative IPC: 3.011 (Simulation time: 00 hr 14 min 25 sec)
Heartbeat CPU 0 instructions: 162500986 cycles: 48209119 heartbeat IPC: 2.561 cumulative IPC: 3.009 (Simulation time: 00 hr 14 min 28 sec)
Heartbeat CPU 0 instructions: 163000987 cycles: 48404877 heartbeat IPC: 2.554 cumulative IPC: 3.006 (Simulation time: 00 hr 14 min 31 sec)
Heartbeat CPU 0 instructions: 163500994 cycles: 48596881 heartbeat IPC: 2.604 cumulative IPC: 3.004 (Simulation time: 00 hr 14 min 34 sec)
Heartbeat CPU 0 instructions: 164000999 cycles: 48792234 heartbeat IPC: 2.559 cumulative IPC: 3.002 (Simulation time: 00 hr 14 min 37 sec)
Heartbeat CPU 0 instructions: 164501000 cycles: 48985334 heartbeat IPC: 2.589 cumulative IPC: 3 (Simulation time: 00 hr 14 min 41 sec)
Heartbeat CPU 0 instructions: 165001000 cycles: 49178853 heartbeat IPC: 2.584 cumulative IPC: 2.998 (Simulation time: 00 hr 14 min 44 sec)
Heartbeat CPU 0 instructions: 165501002 cycles: 49375772 heartbeat IPC: 2.539 cumulative IPC: 2.996 (Simulation time: 00 hr 14 min 47 sec)
Heartbeat CPU 0 instructions: 166001005 cycles: 49568239 heartbeat IPC: 2.598 cumulative IPC: 2.994 (Simulation time: 00 hr 14 min 50 sec)
Heartbeat CPU 0 instructions: 166501005 cycles: 49763006 heartbeat IPC: 2.567 cumulative IPC: 2.991 (Simulation time: 00 hr 14 min 53 sec)
Heartbeat CPU 0 instructions: 167001011 cycles: 49956435 heartbeat IPC: 2.585 cumulative IPC: 2.989 (Simulation time: 00 hr 14 min 57 sec)
Heartbeat CPU 0 instructions: 167501011 cycles: 50149799 heartbeat IPC: 2.586 cumulative IPC: 2.987 (Simulation time: 00 hr 15 min 00 sec)
Heartbeat CPU 0 instructions: 168001016 cycles: 50346398 heartbeat IPC: 2.543 cumulative IPC: 2.985 (Simulation time: 00 hr 15 min 03 sec)
Heartbeat CPU 0 instructions: 168501021 cycles: 50539930 heartbeat IPC: 2.584 cumulative IPC: 2.983 (Simulation time: 00 hr 15 min 06 sec)
Heartbeat CPU 0 instructions: 169001024 cycles: 50733975 heartbeat IPC: 2.577 cumulative IPC: 2.981 (Simulation time: 00 hr 15 min 09 sec)
Heartbeat CPU 0 instructions: 169501029 cycles: 50927436 heartbeat IPC: 2.585 cumulative IPC: 2.979 (Simulation time: 00 hr 15 min 12 sec)
Heartbeat CPU 0 instructions: 170001033 cycles: 51121622 heartbeat IPC: 2.575 cumulative IPC: 2.977 (Simulation time: 00 hr 15 min 16 sec)
Heartbeat CPU 0 instructions: 170501035 cycles: 51316205 heartbeat IPC: 2.57 cumulative IPC: 2.975 (Simulation time: 00 hr 15 min 19 sec)
Heartbeat CPU 0 instructions: 171001036 cycles: 51510908 heartbeat IPC: 2.568 cumulative IPC: 2.974 (Simulation time: 00 hr 15 min 22 sec)
Heartbeat CPU 0 instructions: 171501040 cycles: 51705859 heartbeat IPC: 2.565 cumulative IPC: 2.972 (Simulation time: 00 hr 15 min 25 sec)
Heartbeat CPU 0 instructions: 172001040 cycles: 51898322 heartbeat IPC: 2.598 cumulative IPC: 2.97 (Simulation time: 00 hr 15 min 29 sec)
Heartbeat CPU 0 instructions: 172501040 cycles: 52093022 heartbeat IPC: 2.568 cumulative IPC: 2.968 (Simulation time: 00 hr 15 min 32 sec)
Heartbeat CPU 0 instructions: 173001041 cycles: 52286913 heartbeat IPC: 2.579 cumulative IPC: 2.966 (Simulation time: 00 hr 15 min 35 sec)
Heartbeat CPU 0 instructions: 173501046 cycles: 52482719 heartbeat IPC: 2.554 cumulative IPC: 2.964 (Simulation time: 00 hr 15 min 38 sec)
Heartbeat CPU 0 instructions: 174001053 cycles: 52676861 heartbeat IPC: 2.575 cumulative IPC: 2.962 (Simulation time: 00 hr 15 min 41 sec)
Heartbeat CPU 0 instructions: 174501054 cycles: 52869724 heartbeat IPC: 2.593 cumulative IPC: 2.961 (Simulation time: 00 hr 15 min 44 sec)
Heartbeat CPU 0 instructions: 175001057 cycles: 53064077 heartbeat IPC: 2.573 cumulative IPC: 2.959 (Simulation time: 00 hr 15 min 48 sec)
Heartbeat CPU 0 instructions: 175501061 cycles: 53258216 heartbeat IPC: 2.575 cumulative IPC: 2.957 (Simulation time: 00 hr 15 min 51 sec)
Heartbeat CPU 0 instructions: 176001067 cycles: 53453521 heartbeat IPC: 2.56 cumulative IPC: 2.955 (Simulation time: 00 hr 15 min 54 sec)
Heartbeat CPU 0 instructions: 176501067 cycles: 53648150 heartbeat IPC: 2.569 cumulative IPC: 2.954 (Simulation time: 00 hr 15 min 57 sec)
Heartbeat CPU 0 instructions: 177001067 cycles: 53840900 heartbeat IPC: 2.594 cumulative IPC: 2.952 (Simulation time: 00 hr 16 min 00 sec)
Heartbeat CPU 0 instructions: 177501070 cycles: 54035743 heartbeat IPC: 2.566 cumulative IPC: 2.95 (Simulation time: 00 hr 16 min 03 sec)
Heartbeat CPU 0 instructions: 178001070 cycles: 54229049 heartbeat IPC: 2.587 cumulative IPC: 2.949 (Simulation time: 00 hr 16 min 06 sec)
Heartbeat CPU 0 instructions: 178501070 cycles: 54422756 heartbeat IPC: 2.581 cumulative IPC: 2.947 (Simulation time: 00 hr 16 min 10 sec)
Heartbeat CPU 0 instructions: 179001072 cycles: 54620650 heartbeat IPC: 2.527 cumulative IPC: 2.945 (Simulation time: 00 hr 16 min 13 sec)
Heartbeat CPU 0 instructions: 179501076 cycles: 54811980 heartbeat IPC: 2.613 cumulative IPC: 2.944 (Simulation time: 00 hr 16 min 16 sec)
Heartbeat CPU 0 instructions: 180001076 cycles: 55006748 heartbeat IPC: 2.567 cumulative IPC: 2.942 (Simulation time: 00 hr 16 min 19 sec)
Heartbeat CPU 0 instructions: 180501083 cycles: 55201108 heartbeat IPC: 2.573 cumulative IPC: 2.94 (Simulation time: 00 hr 16 min 22 sec)
Heartbeat CPU 0 instructions: 181001088 cycles: 55394231 heartbeat IPC: 2.589 cumulative IPC: 2.939 (Simulation time: 00 hr 16 min 25 sec)
Heartbeat CPU 0 instructions: 181501091 cycles: 55591250 heartbeat IPC: 2.538 cumulative IPC: 2.937 (Simulation time: 00 hr 16 min 28 sec)
Heartbeat CPU 0 instructions: 182001097 cycles: 55783635 heartbeat IPC: 2.599 cumulative IPC: 2.936 (Simulation time: 00 hr 16 min 31 sec)
Heartbeat CPU 0 instructions: 182501097 cycles: 55978214 heartbeat IPC: 2.57 cumulative IPC: 2.934 (Simulation time: 00 hr 16 min 35 sec)
Heartbeat CPU 0 instructions: 183001097 cycles: 56172414 heartbeat IPC: 2.575 cumulative IPC: 2.932 (Simulation time: 00 hr 16 min 38 sec)
Heartbeat CPU 0 instructions: 183501100 cycles: 56365993 heartbeat IPC: 2.583 cumulative IPC: 2.931 (Simulation time: 00 hr 16 min 41 sec)
Heartbeat CPU 0 instructions: 184001100 cycles: 56562833 heartbeat IPC: 2.54 cumulative IPC: 2.929 (Simulation time: 00 hr 16 min 44 sec)
Heartbeat CPU 0 instructions: 184501102 cycles: 56755023 heartbeat IPC: 2.602 cumulative IPC: 2.928 (Simulation time: 00 hr 16 min 47 sec)
Heartbeat CPU 0 instructions: 185001105 cycles: 56950215 heartbeat IPC: 2.562 cumulative IPC: 2.926 (Simulation time: 00 hr 16 min 50 sec)
Heartbeat CPU 0 instructions: 185501106 cycles: 57143149 heartbeat IPC: 2.592 cumulative IPC: 2.925 (Simulation time: 00 hr 16 min 53 sec)
Heartbeat CPU 0 instructions: 186001113 cycles: 57337073 heartbeat IPC: 2.578 cumulative IPC: 2.924 (Simulation time: 00 hr 16 min 56 sec)
Heartbeat CPU 0 instructions: 186501114 cycles: 57533736 heartbeat IPC: 2.542 cumulative IPC: 2.922 (Simulation time: 00 hr 16 min 59 sec)
Heartbeat CPU 0 instructions: 187001114 cycles: 57726083 heartbeat IPC: 2.599 cumulative IPC: 2.921 (Simulation time: 00 hr 17 min 03 sec)
Heartbeat CPU 0 instructions: 187501118 cycles: 57920246 heartbeat IPC: 2.575 cumulative IPC: 2.919 (Simulation time: 00 hr 17 min 06 sec)
Heartbeat CPU 0 instructions: 188001123 cycles: 58114263 heartbeat IPC: 2.577 cumulative IPC: 2.918 (Simulation time: 00 hr 17 min 09 sec)
Heartbeat CPU 0 instructions: 188501126 cycles: 58308403 heartbeat IPC: 2.575 cumulative IPC: 2.916 (Simulation time: 00 hr 17 min 12 sec)
Heartbeat CPU 0 instructions: 189001127 cycles: 58504178 heartbeat IPC: 2.554 cumulative IPC: 2.915 (Simulation time: 00 hr 17 min 15 sec)
Heartbeat CPU 0 instructions: 189501128 cycles: 58697751 heartbeat IPC: 2.583 cumulative IPC: 2.914 (Simulation time: 00 hr 17 min 18 sec)
Heartbeat CPU 0 instructions: 190001129 cycles: 58890629 heartbeat IPC: 2.592 cumulative IPC: 2.912 (Simulation time: 00 hr 17 min 21 sec)
Heartbeat CPU 0 instructions: 190501134 cycles: 59084780 heartbeat IPC: 2.575 cumulative IPC: 2.911 (Simulation time: 00 hr 17 min 24 sec)
Heartbeat CPU 0 instructions: 191001134 cycles: 59279505 heartbeat IPC: 2.568 cumulative IPC: 2.91 (Simulation time: 00 hr 17 min 27 sec)
Heartbeat CPU 0 instructions: 191501136 cycles: 59475750 heartbeat IPC: 2.548 cumulative IPC: 2.908 (Simulation time: 00 hr 17 min 30 sec)
Heartbeat CPU 0 instructions: 192001139 cycles: 59666551 heartbeat IPC: 2.621 cumulative IPC: 2.907 (Simulation time: 00 hr 17 min 34 sec)
Heartbeat CPU 0 instructions: 192501142 cycles: 59862598 heartbeat IPC: 2.55 cumulative IPC: 2.906 (Simulation time: 00 hr 17 min 37 sec)
Heartbeat CPU 0 instructions: 193001143 cycles: 60056996 heartbeat IPC: 2.572 cumulative IPC: 2.904 (Simulation time: 00 hr 17 min 40 sec)
Heartbeat CPU 0 instructions: 193501143 cycles: 60250868 heartbeat IPC: 2.579 cumulative IPC: 2.903 (Simulation time: 00 hr 17 min 43 sec)
Heartbeat CPU 0 instructions: 194001149 cycles: 60447717 heartbeat IPC: 2.54 cumulative IPC: 2.902 (Simulation time: 00 hr 17 min 46 sec)
Heartbeat CPU 0 instructions: 194501152 cycles: 60638998 heartbeat IPC: 2.614 cumulative IPC: 2.9 (Simulation time: 00 hr 17 min 49 sec)
Heartbeat CPU 0 instructions: 195001153 cycles: 60834515 heartbeat IPC: 2.557 cumulative IPC: 2.899 (Simulation time: 00 hr 17 min 52 sec)
Heartbeat CPU 0 instructions: 195501154 cycles: 61028355 heartbeat IPC: 2.579 cumulative IPC: 2.898 (Simulation time: 00 hr 17 min 55 sec)
Heartbeat CPU 0 instructions: 196001158 cycles: 61222196 heartbeat IPC: 2.579 cumulative IPC: 2.897 (Simulation time: 00 hr 17 min 58 sec)
Heartbeat CPU 0 instructions: 196501163 cycles: 61416421 heartbeat IPC: 2.574 cumulative IPC: 2.895 (Simulation time: 00 hr 18 min 01 sec)
Heartbeat CPU 0 instructions: 197001163 cycles: 61609587 heartbeat IPC: 2.588 cumulative IPC: 2.894 (Simulation time: 00 hr 18 min 04 sec)
Heartbeat CPU 0 instructions: 197501164 cycles: 61805656 heartbeat IPC: 2.55 cumulative IPC: 2.893 (Simulation time: 00 hr 18 min 07 sec)
Heartbeat CPU 0 instructions: 198001169 cycles: 61999245 heartbeat IPC: 2.583 cumulative IPC: 2.892 (Simulation time: 00 hr 18 min 10 sec)
Heartbeat CPU 0 instructions: 198501174 cycles: 62193331 heartbeat IPC: 2.576 cumulative IPC: 2.891 (Simulation time: 00 hr 18 min 13 sec)
Heartbeat CPU 0 instructions: 199001174 cycles: 62389252 heartbeat IPC: 2.552 cumulative IPC: 2.889 (Simulation time: 00 hr 18 min 16 sec)
Heartbeat CPU 0 instructions: 199501174 cycles: 62581038 heartbeat IPC: 2.607 cumulative IPC: 2.888 (Simulation time: 00 hr 18 min 19 sec)
Heartbeat CPU 0 instructions: 200001176 cycles: 62779352 heartbeat IPC: 2.521 cumulative IPC: 2.887 (Simulation time: 00 hr 18 min 22 sec)
Heartbeat CPU 0 instructions: 200501181 cycles: 62970358 heartbeat IPC: 2.618 cumulative IPC: 2.886 (Simulation time: 00 hr 18 min 25 sec)
Heartbeat CPU 0 instructions: 201001181 cycles: 63165028 heartbeat IPC: 2.568 cumulative IPC: 2.885 (Simulation time: 00 hr 18 min 28 sec)
Heartbeat CPU 0 instructions: 201501182 cycles: 63360453 heartbeat IPC: 2.559 cumulative IPC: 2.883 (Simulation time: 00 hr 18 min 31 sec)
Heartbeat CPU 0 instructions: 202001186 cycles: 63551987 heartbeat IPC: 2.611 cumulative IPC: 2.882 (Simulation time: 00 hr 18 min 34 sec)
Heartbeat CPU 0 instructions: 202501186 cycles: 63749665 heartbeat IPC: 2.529 cumulative IPC: 2.881 (Simulation time: 00 hr 18 min 37 sec)
Heartbeat CPU 0 instructions: 203001187 cycles: 63939954 heartbeat IPC: 2.628 cumulative IPC: 2.88 (Simulation time: 00 hr 18 min 40 sec)
Heartbeat CPU 0 instructions: 203501192 cycles: 64136098 heartbeat IPC: 2.549 cumulative IPC: 2.879 (Simulation time: 00 hr 18 min 43 sec)
Heartbeat CPU 0 instructions: 204001196 cycles: 64331631 heartbeat IPC: 2.557 cumulative IPC: 2.878 (Simulation time: 00 hr 18 min 46 sec)
Heartbeat CPU 0 instructions: 204501201 cycles: 64523682 heartbeat IPC: 2.604 cumulative IPC: 2.877 (Simulation time: 00 hr 18 min 49 sec)
Heartbeat CPU 0 instructions: 205001201 cycles: 64718771 heartbeat IPC: 2.563 cumulative IPC: 2.876 (Simulation time: 00 hr 18 min 52 sec)
Heartbeat CPU 0 instructions: 205501201 cycles: 64911331 heartbeat IPC: 2.597 cumulative IPC: 2.875 (Simulation time: 00 hr 18 min 55 sec)
Heartbeat CPU 0 instructions: 206001206 cycles: 65106821 heartbeat IPC: 2.558 cumulative IPC: 2.874 (Simulation time: 00 hr 18 min 58 sec)
Heartbeat CPU 0 instructions: 206501208 cycles: 65300138 heartbeat IPC: 2.586 cumulative IPC: 2.873 (Simulation time: 00 hr 19 min 01 sec)
Heartbeat CPU 0 instructions: 207001208 cycles: 65495213 heartbeat IPC: 2.563 cumulative IPC: 2.871 (Simulation time: 00 hr 19 min 04 sec)
Heartbeat CPU 0 instructions: 207501209 cycles: 65691360 heartbeat IPC: 2.549 cumulative IPC: 2.87 (Simulation time: 00 hr 19 min 07 sec)
Heartbeat CPU 0 instructions: 208001212 cycles: 65882399 heartbeat IPC: 2.617 cumulative IPC: 2.869 (Simulation time: 00 hr 19 min 10 sec)
Heartbeat CPU 0 instructions: 208501213 cycles: 66077732 heartbeat IPC: 2.56 cumulative IPC: 2.868 (Simulation time: 00 hr 19 min 14 sec)
Heartbeat CPU 0 instructions: 209001215 cycles: 66271362 heartbeat IPC: 2.582 cumulative IPC: 2.867 (Simulation time: 00 hr 19 min 17 sec)
Heartbeat CPU 0 instructions: 209501215 cycles: 66465883 heartbeat IPC: 2.57 cumulative IPC: 2.866 (Simulation time: 00 hr 19 min 20 sec)
Heartbeat CPU 0 instructions: 210001220 cycles: 66662330 heartbeat IPC: 2.545 cumulative IPC: 2.865 (Simulation time: 00 hr 19 min 23 sec)
Heartbeat CPU 0 instructions: 210501220 cycles: 66854273 heartbeat IPC: 2.605 cumulative IPC: 2.864 (Simulation time: 00 hr 19 min 26 sec)
Heartbeat CPU 0 instructions: 211001224 cycles: 67048534 heartbeat IPC: 2.574 cumulative IPC: 2.863 (Simulation time: 00 hr 19 min 29 sec)
Heartbeat CPU 0 instructions: 211501229 cycles: 67242991 heartbeat IPC: 2.571 cumulative IPC: 2.862 (Simulation time: 00 hr 19 min 32 sec)
Heartbeat CPU 0 instructions: 212001233 cycles: 67437301 heartbeat IPC: 2.573 cumulative IPC: 2.861 (Simulation time: 00 hr 19 min 35 sec)
Heartbeat CPU 0 instructions: 212501235 cycles: 67631125 heartbeat IPC: 2.58 cumulative IPC: 2.86 (Simulation time: 00 hr 19 min 38 sec)
Heartbeat CPU 0 instructions: 213001242 cycles: 67825481 heartbeat IPC: 2.573 cumulative IPC: 2.859 (Simulation time: 00 hr 19 min 41 sec)
Heartbeat CPU 0 instructions: 213501247 cycles: 68019407 heartbeat IPC: 2.578 cumulative IPC: 2.858 (Simulation time: 00 hr 19 min 44 sec)
Heartbeat CPU 0 instructions: 214001250 cycles: 68214148 heartbeat IPC: 2.568 cumulative IPC: 2.857 (Simulation time: 00 hr 19 min 47 sec)
Heartbeat CPU 0 instructions: 214501250 cycles: 68408695 heartbeat IPC: 2.57 cumulative IPC: 2.856 (Simulation time: 00 hr 19 min 50 sec)
Heartbeat CPU 0 instructions: 215001251 cycles: 68602395 heartbeat IPC: 2.581 cumulative IPC: 2.855 (Simulation time: 00 hr 19 min 53 sec)
Heartbeat CPU 0 instructions: 215501256 cycles: 68796619 heartbeat IPC: 2.574 cumulative IPC: 2.855 (Simulation time: 00 hr 19 min 56 sec)
Heartbeat CPU 0 instructions: 216001263 cycles: 68990801 heartbeat IPC: 2.575 cumulative IPC: 2.854 (Simulation time: 00 hr 19 min 59 sec)
Heartbeat CPU 0 instructions: 216501265 cycles: 69183339 heartbeat IPC: 2.597 cumulative IPC: 2.853 (Simulation time: 00 hr 20 min 02 sec)
Heartbeat CPU 0 instructions: 217001265 cycles: 69379838 heartbeat IPC: 2.545 cumulative IPC: 2.852 (Simulation time: 00 hr 20 min 05 sec)
Heartbeat CPU 0 instructions: 217501268 cycles: 69573230 heartbeat IPC: 2.585 cumulative IPC: 2.851 (Simulation time: 00 hr 20 min 08 sec)
Heartbeat CPU 0 instructions: 218001273 cycles: 69767863 heartbeat IPC: 2.569 cumulative IPC: 2.85 (Simulation time: 00 hr 20 min 11 sec)
Heartbeat CPU 0 instructions: 218501277 cycles: 69962082 heartbeat IPC: 2.574 cumulative IPC: 2.849 (Simulation time: 00 hr 20 min 14 sec)
Heartbeat CPU 0 instructions: 219001282 cycles: 70155078 heartbeat IPC: 2.591 cumulative IPC: 2.848 (Simulation time: 00 hr 20 min 17 sec)
Heartbeat CPU 0 instructions: 219501287 cycles: 70351369 heartbeat IPC: 2.547 cumulative IPC: 2.847 (Simulation time: 00 hr 20 min 20 sec)
Heartbeat CPU 0 instructions: 220001290 cycles: 70544656 heartbeat IPC: 2.587 cumulative IPC: 2.846 (Simulation time: 00 hr 20 min 23 sec)
Heartbeat CPU 0 instructions: 220501290 cycles: 70739242 heartbeat IPC: 2.57 cumulative IPC: 2.845 (Simulation time: 00 hr 20 min 26 sec)
Heartbeat CPU 0 instructions: 221001292 cycles: 70934781 heartbeat IPC: 2.557 cumulative IPC: 2.844 (Simulation time: 00 hr 20 min 29 sec)
Heartbeat CPU 0 instructions: 221501296 cycles: 71126355 heartbeat IPC: 2.61 cumulative IPC: 2.844 (Simulation time: 00 hr 20 min 32 sec)
Heartbeat CPU 0 instructions: 222001297 cycles: 71322967 heartbeat IPC: 2.543 cumulative IPC: 2.843 (Simulation time: 00 hr 20 min 35 sec)
Heartbeat CPU 0 instructions: 222501299 cycles: 71516199 heartbeat IPC: 2.588 cumulative IPC: 2.842 (Simulation time: 00 hr 20 min 38 sec)
Heartbeat CPU 0 instructions: 223001303 cycles: 71710552 heartbeat IPC: 2.573 cumulative IPC: 2.841 (Simulation time: 00 hr 20 min 41 sec)
Heartbeat CPU 0 instructions: 223501308 cycles: 71906008 heartbeat IPC: 2.558 cumulative IPC: 2.84 (Simulation time: 00 hr 20 min 44 sec)
Heartbeat CPU 0 instructions: 224001312 cycles: 72097371 heartbeat IPC: 2.613 cumulative IPC: 2.839 (Simulation time: 00 hr 20 min 47 sec)
Heartbeat CPU 0 instructions: 224501316 cycles: 72292512 heartbeat IPC: 2.562 cumulative IPC: 2.839 (Simulation time: 00 hr 20 min 50 sec)
Heartbeat CPU 0 instructions: 225001316 cycles: 72486698 heartbeat IPC: 2.575 cumulative IPC: 2.838 (Simulation time: 00 hr 20 min 53 sec)
Heartbeat CPU 0 instructions: 225501319 cycles: 72681897 heartbeat IPC: 2.562 cumulative IPC: 2.837 (Simulation time: 00 hr 20 min 56 sec)
Heartbeat CPU 0 instructions: 226001322 cycles: 72877983 heartbeat IPC: 2.55 cumulative IPC: 2.836 (Simulation time: 00 hr 20 min 59 sec)
Heartbeat CPU 0 instructions: 226501322 cycles: 73069522 heartbeat IPC: 2.61 cumulative IPC: 2.835 (Simulation time: 00 hr 21 min 02 sec)
Heartbeat CPU 0 instructions: 227001325 cycles: 73263888 heartbeat IPC: 2.572 cumulative IPC: 2.834 (Simulation time: 00 hr 21 min 05 sec)
Heartbeat CPU 0 instructions: 227501328 cycles: 73456598 heartbeat IPC: 2.595 cumulative IPC: 2.834 (Simulation time: 00 hr 21 min 08 sec)
Heartbeat CPU 0 instructions: 228001328 cycles: 73653181 heartbeat IPC: 2.543 cumulative IPC: 2.833 (Simulation time: 00 hr 21 min 11 sec)
Heartbeat CPU 0 instructions: 228501330 cycles: 73848254 heartbeat IPC: 2.563 cumulative IPC: 2.832 (Simulation time: 00 hr 21 min 14 sec)
Heartbeat CPU 0 instructions: 229001335 cycles: 74041227 heartbeat IPC: 2.591 cumulative IPC: 2.831 (Simulation time: 00 hr 21 min 17 sec)
Heartbeat CPU 0 instructions: 229501335 cycles: 74234868 heartbeat IPC: 2.582 cumulative IPC: 2.83 (Simulation time: 00 hr 21 min 20 sec)
Heartbeat CPU 0 instructions: 230001336 cycles: 74427947 heartbeat IPC: 2.59 cumulative IPC: 2.83 (Simulation time: 00 hr 21 min 23 sec)
Heartbeat CPU 0 instructions: 230501341 cycles: 74623724 heartbeat IPC: 2.554 cumulative IPC: 2.829 (Simulation time: 00 hr 21 min 26 sec)
Heartbeat CPU 0 instructions: 231001347 cycles: 74818939 heartbeat IPC: 2.561 cumulative IPC: 2.828 (Simulation time: 00 hr 21 min 29 sec)
Heartbeat CPU 0 instructions: 231501352 cycles: 75011907 heartbeat IPC: 2.591 cumulative IPC: 2.827 (Simulation time: 00 hr 21 min 32 sec)
Heartbeat CPU 0 instructions: 232001355 cycles: 75206062 heartbeat IPC: 2.575 cumulative IPC: 2.827 (Simulation time: 00 hr 21 min 35 sec)
Heartbeat CPU 0 instructions: 232501361 cycles: 75399736 heartbeat IPC: 2.582 cumulative IPC: 2.826 (Simulation time: 00 hr 21 min 38 sec)
Heartbeat CPU 0 instructions: 233001366 cycles: 75595437 heartbeat IPC: 2.555 cumulative IPC: 2.825 (Simulation time: 00 hr 21 min 41 sec)
Heartbeat CPU 0 instructions: 233501369 cycles: 75790876 heartbeat IPC: 2.558 cumulative IPC: 2.824 (Simulation time: 00 hr 21 min 44 sec)
Heartbeat CPU 0 instructions: 234001369 cycles: 75982841 heartbeat IPC: 2.605 cumulative IPC: 2.824 (Simulation time: 00 hr 21 min 47 sec)
Heartbeat CPU 0 instructions: 234501372 cycles: 76177922 heartbeat IPC: 2.563 cumulative IPC: 2.823 (Simulation time: 00 hr 21 min 50 sec)
Heartbeat CPU 0 instructions: 235001374 cycles: 76370572 heartbeat IPC: 2.595 cumulative IPC: 2.822 (Simulation time: 00 hr 21 min 53 sec)
Heartbeat CPU 0 instructions: 235501374 cycles: 76565341 heartbeat IPC: 2.567 cumulative IPC: 2.821 (Simulation time: 00 hr 21 min 56 sec)
Heartbeat CPU 0 instructions: 236001378 cycles: 76762284 heartbeat IPC: 2.539 cumulative IPC: 2.821 (Simulation time: 00 hr 21 min 59 sec)
Heartbeat CPU 0 instructions: 236501381 cycles: 76954078 heartbeat IPC: 2.607 cumulative IPC: 2.82 (Simulation time: 00 hr 22 min 02 sec)
Heartbeat CPU 0 instructions: 237001382 cycles: 77148732 heartbeat IPC: 2.569 cumulative IPC: 2.819 (Simulation time: 00 hr 22 min 05 sec)
Heartbeat CPU 0 instructions: 237501384 cycles: 77341439 heartbeat IPC: 2.595 cumulative IPC: 2.819 (Simulation time: 00 hr 22 min 08 sec)
Heartbeat CPU 0 instructions: 238001387 cycles: 77536460 heartbeat IPC: 2.564 cumulative IPC: 2.818 (Simulation time: 00 hr 22 min 11 sec)
Heartbeat CPU 0 instructions: 238501391 cycles: 77733303 heartbeat IPC: 2.54 cumulative IPC: 2.817 (Simulation time: 00 hr 22 min 14 sec)
Heartbeat CPU 0 instructions: 239001398 cycles: 77925060 heartbeat IPC: 2.608 cumulative IPC: 2.816 (Simulation time: 00 hr 22 min 17 sec)
Heartbeat CPU 0 instructions: 239501398 cycles: 78119819 heartbeat IPC: 2.567 cumulative IPC: 2.816 (Simulation time: 00 hr 22 min 20 sec)
Heartbeat CPU 0 instructions: 240001400 cycles: 78312894 heartbeat IPC: 2.59 cumulative IPC: 2.815 (Simulation time: 00 hr 22 min 23 sec)
Heartbeat CPU 0 instructions: 240501405 cycles: 78507614 heartbeat IPC: 2.568 cumulative IPC: 2.814 (Simulation time: 00 hr 22 min 26 sec)
Heartbeat CPU 0 instructions: 241001406 cycles: 78703765 heartbeat IPC: 2.549 cumulative IPC: 2.814 (Simulation time: 00 hr 22 min 29 sec)
Heartbeat CPU 0 instructions: 241501407 cycles: 78896413 heartbeat IPC: 2.595 cumulative IPC: 2.813 (Simulation time: 00 hr 22 min 32 sec)
Heartbeat CPU 0 instructions: 242001409 cycles: 79093849 heartbeat IPC: 2.532 cumulative IPC: 2.812 (Simulation time: 00 hr 22 min 35 sec)
Heartbeat CPU 0 instructions: 242501413 cycles: 79284373 heartbeat IPC: 2.624 cumulative IPC: 2.812 (Simulation time: 00 hr 22 min 38 sec)
Heartbeat CPU 0 instructions: 243001413 cycles: 79479409 heartbeat IPC: 2.564 cumulative IPC: 2.811 (Simulation time: 00 hr 22 min 41 sec)
Heartbeat CPU 0 instructions: 243501420 cycles: 79674870 heartbeat IPC: 2.558 cumulative IPC: 2.81 (Simulation time: 00 hr 22 min 44 sec)
Heartbeat CPU 0 instructions: 244001421 cycles: 79868687 heartbeat IPC: 2.58 cumulative IPC: 2.81 (Simulation time: 00 hr 22 min 47 sec)
Heartbeat CPU 0 instructions: 244501426 cycles: 80064585 heartbeat IPC: 2.552 cumulative IPC: 2.809 (Simulation time: 00 hr 22 min 50 sec)
Heartbeat CPU 0 instructions: 245001431 cycles: 80255662 heartbeat IPC: 2.617 cumulative IPC: 2.808 (Simulation time: 00 hr 22 min 53 sec)
Heartbeat CPU 0 instructions: 245501435 cycles: 80450389 heartbeat IPC: 2.568 cumulative IPC: 2.808 (Simulation time: 00 hr 22 min 56 sec)
Heartbeat CPU 0 instructions: 246001440 cycles: 80645072 heartbeat IPC: 2.568 cumulative IPC: 2.807 (Simulation time: 00 hr 22 min 59 sec)
Heartbeat CPU 0 instructions: 246501446 cycles: 80839182 heartbeat IPC: 2.576 cumulative IPC: 2.806 (Simulation time: 00 hr 23 min 02 sec)
Heartbeat CPU 0 instructions: 247001447 cycles: 81036324 heartbeat IPC: 2.536 cumulative IPC: 2.806 (Simulation time: 00 hr 23 min 05 sec)
Heartbeat CPU 0 instructions: 247501447 cycles: 81226905 heartbeat IPC: 2.624 cumulative IPC: 2.805 (Simulation time: 00 hr 23 min 07 sec)
Heartbeat CPU 0 instructions: 248001452 cycles: 81421407 heartbeat IPC: 2.571 cumulative IPC: 2.804 (Simulation time: 00 hr 23 min 10 sec)
Heartbeat CPU 0 instructions: 248501454 cycles: 81614284 heartbeat IPC: 2.592 cumulative IPC: 2.804 (Simulation time: 00 hr 23 min 13 sec)
Heartbeat CPU 0 instructions: 249001454 cycles: 81808827 heartbeat IPC: 2.57 cumulative IPC: 2.803 (Simulation time: 00 hr 23 min 16 sec)
Heartbeat CPU 0 instructions: 249501456 cycles: 82008865 heartbeat IPC: 2.5 cumulative IPC: 2.802 (Simulation time: 00 hr 23 min 19 sec)
Simulation finished CPU 0 instructions: 200000003 cycles: 71383443 cumulative IPC: 2.802 (Simulation time: 00 hr 23 min 22 sec)
Simulation complete CPU 0 instructions: 200000003 cycles: 71383443 cumulative IPC: 2.802 (Simulation time: 00 hr 23 min 22 sec)

ChampSim completed all CPUs

=== Simulation ===
CPU 0 runs /local-ssd/ben/dpc4-traces/SPEC17/654.roms_s-293B.champsimtrace.xz

Region of Interest Statistics

CPU 0 cumulative IPC: 2.802 instructions: 200000003 cycles: 71383443
CPU 0 Branch Prediction Accuracy: 99.91% MPKI: 0.03265 Average ROB Occupancy at Mispredict: 502.1
Branch type MPKI
BRANCH_DIRECT_JUMP: 6e-05
BRANCH_INDIRECT: 0
BRANCH_CONDITIONAL: 0.03229
BRANCH_DIRECT_CALL: 0.00015
BRANCH_INDIRECT_CALL: 0
BRANCH_RETURN: 0.00015

cpu0->cpu0_STLB TOTAL        ACCESS:      73669 HIT:      25800 MISS:      47869 MSHR_MERGE:          0
cpu0->cpu0_STLB LOAD         ACCESS:      73669 HIT:      25800 MISS:      47869 MSHR_MERGE:          0
cpu0->cpu0_STLB RFO          ACCESS:          0 HIT:          0 MISS:          0 MSHR_MERGE:          0
cpu0->cpu0_STLB PREFETCH     ACCESS:          0 HIT:          0 MISS:          0 MSHR_MERGE:          0
cpu0->cpu0_STLB WRITE        ACCESS:          0 HIT:          0 MISS:          0 MSHR_MERGE:          0
cpu0->cpu0_STLB TRANSLATION  ACCESS:          0 HIT:          0 MISS:          0 MSHR_MERGE:          0
cpu0->cpu0_STLB PREFETCH REQUESTED:          0 ISSUED:          0 USEFUL:          0 USELESS:          0
cpu0->cpu0_STLB AVERAGE MISS LATENCY: 364 cycles
cpu0->cpu0_L2C TOTAL        ACCESS:   13414717 HIT:    9725881 MISS:    3688836 MSHR_MERGE:    1665124
cpu0->cpu0_L2C LOAD         ACCESS:     207734 HIT:     168892 MISS:      38842 MSHR_MERGE:       3249
cpu0->cpu0_L2C RFO          ACCESS:     405226 HIT:      91186 MISS:     314040 MSHR_MERGE:          2
cpu0->cpu0_L2C PREFETCH     ACCESS:   12336268 HIT:    9017163 MISS:    3319105 MSHR_MERGE:    1661873
cpu0->cpu0_L2C WRITE        ACCESS:     423768 HIT:     423754 MISS:         14 MSHR_MERGE:          0
cpu0->cpu0_L2C TRANSLATION  ACCESS:      41721 HIT:      24886 MISS:      16835 MSHR_MERGE:          0
cpu0->cpu0_L2C PREFETCH REQUESTED:   10444069 ISSUED:   10381406 USEFUL:    1381716 USELESS:     203942
cpu0->cpu0_L2C AVERAGE MISS LATENCY: 167.3 cycles
cpu0->cpu0_L1I TOTAL        ACCESS:   36304326 HIT:   36304125 MISS:        201 MSHR_MERGE:         28
cpu0->cpu0_L1I LOAD         ACCESS:   36304326 HIT:   36304125 MISS:        201 MSHR_MERGE:         28
cpu0->cpu0_L1I RFO          ACCESS:          0 HIT:          0 MISS:          0 MSHR_MERGE:          0
cpu0->cpu0_L1I PREFETCH     ACCESS:          0 HIT:          0 MISS:          0 MSHR_MERGE:          0
cpu0->cpu0_L1I WRITE        ACCESS:          0 HIT:          0 MISS:          0 MSHR_MERGE:          0
cpu0->cpu0_L1I TRANSLATION  ACCESS:          0 HIT:          0 MISS:          0 MSHR_MERGE:          0
cpu0->cpu0_L1I PREFETCH REQUESTED:          0 ISSUED:          0 USEFUL:          0 USELESS:          0
cpu0->cpu0_L1I AVERAGE MISS LATENCY: 283.6 cycles
cpu0->cpu0_L1D TOTAL        ACCESS:   55413758 HIT:   51794083 MISS:    3619675 MSHR_MERGE:    1010190
cpu0->cpu0_L1D LOAD         ACCESS:   41394205 HIT:   40964594 MISS:     429611 MSHR_MERGE:     222049
cpu0->cpu0_L1D RFO          ACCESS:          0 HIT:          0 MISS:          0 MSHR_MERGE:          0
cpu0->cpu0_L1D PREFETCH     ACCESS:    2503570 HIT:     533600 MISS:    1969970 MSHR_MERGE:      15102
cpu0->cpu0_L1D WRITE        ACCESS:   11396249 HIT:   10218056 MISS:    1178193 MSHR_MERGE:     772859
cpu0->cpu0_L1D TRANSLATION  ACCESS:     119734 HIT:      77833 MISS:      41901 MSHR_MERGE:        180
cpu0->cpu0_L1D PREFETCH REQUESTED:    2552968 ISSUED:    2503563 USEFUL:    1919183 USELESS:      35678
cpu0->cpu0_L1D AVERAGE MISS LATENCY: 108.8 cycles
cpu0->cpu0_ITLB TOTAL        ACCESS:   27570663 HIT:   27570618 MISS:         45 MSHR_MERGE:         29
cpu0->cpu0_ITLB LOAD         ACCESS:   27570663 HIT:   27570618 MISS:         45 MSHR_MERGE:         29
cpu0->cpu0_ITLB RFO          ACCESS:          0 HIT:          0 MISS:          0 MSHR_MERGE:          0
cpu0->cpu0_ITLB PREFETCH     ACCESS:          0 HIT:          0 MISS:          0 MSHR_MERGE:          0
cpu0->cpu0_ITLB WRITE        ACCESS:          0 HIT:          0 MISS:          0 MSHR_MERGE:          0
cpu0->cpu0_ITLB TRANSLATION  ACCESS:          0 HIT:          0 MISS:          0 MSHR_MERGE:          0
cpu0->cpu0_ITLB PREFETCH REQUESTED:          0 ISSUED:          0 USEFUL:          0 USELESS:          0
cpu0->cpu0_ITLB AVERAGE MISS LATENCY: 396.3 cycles
cpu0->cpu0_DTLB TOTAL        ACCESS:   53653886 HIT:   53423091 MISS:     230795 MSHR_MERGE:     157142
cpu0->cpu0_DTLB LOAD         ACCESS:   53653886 HIT:   53423091 MISS:     230795 MSHR_MERGE:     157142
cpu0->cpu0_DTLB RFO          ACCESS:          0 HIT:          0 MISS:          0 MSHR_MERGE:          0
cpu0->cpu0_DTLB PREFETCH     ACCESS:          0 HIT:          0 MISS:          0 MSHR_MERGE:          0
cpu0->cpu0_DTLB WRITE        ACCESS:          0 HIT:          0 MISS:          0 MSHR_MERGE:          0
cpu0->cpu0_DTLB TRANSLATION  ACCESS:          0 HIT:          0 MISS:          0 MSHR_MERGE:          0
cpu0->cpu0_DTLB PREFETCH REQUESTED:          0 ISSUED:          0 USEFUL:          0 USELESS:          0
cpu0->cpu0_DTLB AVERAGE MISS LATENCY: 242.1 cycles
cpu0->LLC TOTAL        ACCESS:    2402694 HIT:     549942 MISS:    1852752 MSHR_MERGE:          0
cpu0->LLC LOAD         ACCESS:      35593 HIT:        856 MISS:      34737 MSHR_MERGE:          0
cpu0->LLC RFO          ACCESS:     314038 HIT:     198559 MISS:     115479 MSHR_MERGE:          0
cpu0->LLC PREFETCH     ACCESS:    1657232 HIT:      80927 MISS:    1576305 MSHR_MERGE:          0
cpu0->LLC WRITE        ACCESS:     378996 HIT:     267953 MISS:     111043 MSHR_MERGE:          0
cpu0->LLC TRANSLATION  ACCESS:      16835 HIT:       1647 MISS:      15188 MSHR_MERGE:          0
cpu0->LLC PREFETCH REQUESTED:          0 ISSUED:          0 USEFUL:          0 USELESS:          0
cpu0->LLC AVERAGE MISS LATENCY: 199.2 cycles

DRAM Statistics

Channel 0 RQ ROW_BUFFER_HIT:       9961
  ROW_BUFFER_MISS:    1731688
  AVG DBUS CONGESTED CYCLE: 11.82
Channel 0 WQ ROW_BUFFER_HIT:      19251
  ROW_BUFFER_MISS:     110277
  FULL:        165
Channel 0 REFRESHES ISSUED:       5948
