[VMEM] WARNING: physical memory size is smaller than virtual memory size.

*** ChampSim Multicore Out-of-Order Simulator ***
Warmup Instructions: 50000000
Simulation Instructions: 200000000
Number of CPUs: 1
Page size: 4096
Core 0: /local-ssd/ben/dpc4-traces/ai-ml/stable-diffusion.cpp-sd-v1-4.ckpt.1.champsimtrace.gz
Off-chip DRAM Size: 64 GiB Channels: 1 Width: 64-bit Data Rate: 4807 MT/s
Heartbeat CPU 0 instructions: 500002 cycles: 320846 heartbeat IPC: 1.558 cumulative IPC: 1.558 (Simulation time: 00 hr 00 min 05 sec)
Heartbeat CPU 0 instructions: 1000003 cycles: 641038 heartbeat IPC: 1.562 cumulative IPC: 1.56 (Simulation time: 00 hr 00 min 11 sec)
Heartbeat CPU 0 instructions: 1500005 cycles: 960107 heartbeat IPC: 1.567 cumulative IPC: 1.562 (Simulation time: 00 hr 00 min 16 sec)
Heartbeat CPU 0 instructions: 2000006 cycles: 1281644 heartbeat IPC: 1.555 cumulative IPC: 1.561 (Simulation time: 00 hr 00 min 22 sec)
Heartbeat CPU 0 instructions: 2500013 cycles: 1603707 heartbeat IPC: 1.553 cumulative IPC: 1.559 (Simulation time: 00 hr 00 min 27 sec)
Heartbeat CPU 0 instructions: 3000013 cycles: 1922736 heartbeat IPC: 1.567 cumulative IPC: 1.56 (Simulation time: 00 hr 00 min 33 sec)
Heartbeat CPU 0 instructions: 3500013 cycles: 2244561 heartbeat IPC: 1.554 cumulative IPC: 1.559 (Simulation time: 00 hr 00 min 38 sec)
Heartbeat CPU 0 instructions: 4000013 cycles: 2566217 heartbeat IPC: 1.554 cumulative IPC: 1.559 (Simulation time: 00 hr 00 min 44 sec)
Heartbeat CPU 0 instructions: 4500013 cycles: 2885109 heartbeat IPC: 1.568 cumulative IPC: 1.56 (Simulation time: 00 hr 00 min 49 sec)
Heartbeat CPU 0 instructions: 5000013 cycles: 3206480 heartbeat IPC: 1.556 cumulative IPC: 1.559 (Simulation time: 00 hr 00 min 55 sec)
Heartbeat CPU 0 instructions: 5500017 cycles: 3528086 heartbeat IPC: 1.555 cumulative IPC: 1.559 (Simulation time: 00 hr 01 min 00 sec)
Heartbeat CPU 0 instructions: 6000021 cycles: 3846612 heartbeat IPC: 1.57 cumulative IPC: 1.56 (Simulation time: 00 hr 01 min 05 sec)
Heartbeat CPU 0 instructions: 6500021 cycles: 4168786 heartbeat IPC: 1.552 cumulative IPC: 1.559 (Simulation time: 00 hr 01 min 11 sec)
Heartbeat CPU 0 instructions: 7000026 cycles: 4490583 heartbeat IPC: 1.554 cumulative IPC: 1.559 (Simulation time: 00 hr 01 min 16 sec)
Heartbeat CPU 0 instructions: 7500033 cycles: 4808755 heartbeat IPC: 1.571 cumulative IPC: 1.56 (Simulation time: 00 hr 01 min 22 sec)
Heartbeat CPU 0 instructions: 8000033 cycles: 5130702 heartbeat IPC: 1.553 cumulative IPC: 1.559 (Simulation time: 00 hr 01 min 27 sec)
Heartbeat CPU 0 instructions: 8500038 cycles: 5452330 heartbeat IPC: 1.555 cumulative IPC: 1.559 (Simulation time: 00 hr 01 min 33 sec)
Heartbeat CPU 0 instructions: 9000040 cycles: 5770352 heartbeat IPC: 1.572 cumulative IPC: 1.56 (Simulation time: 00 hr 01 min 38 sec)
Heartbeat CPU 0 instructions: 9500040 cycles: 6092698 heartbeat IPC: 1.551 cumulative IPC: 1.559 (Simulation time: 00 hr 01 min 44 sec)
Heartbeat CPU 0 instructions: 10000042 cycles: 6414619 heartbeat IPC: 1.553 cumulative IPC: 1.559 (Simulation time: 00 hr 01 min 49 sec)
Heartbeat CPU 0 instructions: 10500043 cycles: 6733169 heartbeat IPC: 1.57 cumulative IPC: 1.559 (Simulation time: 00 hr 01 min 55 sec)
Heartbeat CPU 0 instructions: 11000050 cycles: 7055128 heartbeat IPC: 1.553 cumulative IPC: 1.559 (Simulation time: 00 hr 02 min 00 sec)
Heartbeat CPU 0 instructions: 11500050 cycles: 7376971 heartbeat IPC: 1.554 cumulative IPC: 1.559 (Simulation time: 00 hr 02 min 06 sec)
Heartbeat CPU 0 instructions: 12000052 cycles: 7695183 heartbeat IPC: 1.571 cumulative IPC: 1.559 (Simulation time: 00 hr 02 min 11 sec)
Heartbeat CPU 0 instructions: 12500054 cycles: 8017470 heartbeat IPC: 1.551 cumulative IPC: 1.559 (Simulation time: 00 hr 02 min 17 sec)
Heartbeat CPU 0 instructions: 13000058 cycles: 8339397 heartbeat IPC: 1.553 cumulative IPC: 1.559 (Simulation time: 00 hr 02 min 22 sec)
Heartbeat CPU 0 instructions: 13500063 cycles: 8657278 heartbeat IPC: 1.573 cumulative IPC: 1.559 (Simulation time: 00 hr 02 min 28 sec)
Heartbeat CPU 0 instructions: 14000069 cycles: 8979185 heartbeat IPC: 1.553 cumulative IPC: 1.559 (Simulation time: 00 hr 02 min 33 sec)
Heartbeat CPU 0 instructions: 14500074 cycles: 9300685 heartbeat IPC: 1.555 cumulative IPC: 1.559 (Simulation time: 00 hr 02 min 39 sec)
Heartbeat CPU 0 instructions: 15000079 cycles: 9619164 heartbeat IPC: 1.57 cumulative IPC: 1.559 (Simulation time: 00 hr 02 min 44 sec)
Heartbeat CPU 0 instructions: 15500085 cycles: 9940238 heartbeat IPC: 1.557 cumulative IPC: 1.559 (Simulation time: 00 hr 02 min 50 sec)
Heartbeat CPU 0 instructions: 16000088 cycles: 10261800 heartbeat IPC: 1.555 cumulative IPC: 1.559 (Simulation time: 00 hr 02 min 55 sec)
Heartbeat CPU 0 instructions: 16500089 cycles: 10579130 heartbeat IPC: 1.576 cumulative IPC: 1.56 (Simulation time: 00 hr 03 min 00 sec)
Heartbeat CPU 0 instructions: 17000089 cycles: 10899545 heartbeat IPC: 1.56 cumulative IPC: 1.56 (Simulation time: 00 hr 03 min 06 sec)
Heartbeat CPU 0 instructions: 17500089 cycles: 11220038 heartbeat IPC: 1.56 cumulative IPC: 1.56 (Simulation time: 00 hr 03 min 11 sec)
Heartbeat CPU 0 instructions: 18000090 cycles: 11537641 heartbeat IPC: 1.574 cumulative IPC: 1.56 (Simulation time: 00 hr 03 min 17 sec)
Heartbeat CPU 0 instructions: 18500097 cycles: 11859552 heartbeat IPC: 1.553 cumulative IPC: 1.56 (Simulation time: 00 hr 03 min 22 sec)
Heartbeat CPU 0 instructions: 19000101 cycles: 12181048 heartbeat IPC: 1.555 cumulative IPC: 1.56 (Simulation time: 00 hr 03 min 28 sec)
Heartbeat CPU 0 instructions: 19500104 cycles: 12499182 heartbeat IPC: 1.572 cumulative IPC: 1.56 (Simulation time: 00 hr 03 min 33 sec)
Heartbeat CPU 0 instructions: 20000108 cycles: 12820429 heartbeat IPC: 1.556 cumulative IPC: 1.56 (Simulation time: 00 hr 03 min 39 sec)
Heartbeat CPU 0 instructions: 20500110 cycles: 13141874 heartbeat IPC: 1.555 cumulative IPC: 1.56 (Simulation time: 00 hr 03 min 44 sec)
Heartbeat CPU 0 instructions: 21000112 cycles: 13459990 heartbeat IPC: 1.572 cumulative IPC: 1.56 (Simulation time: 00 hr 03 min 50 sec)
Heartbeat CPU 0 instructions: 21500112 cycles: 13781578 heartbeat IPC: 1.555 cumulative IPC: 1.56 (Simulation time: 00 hr 03 min 55 sec)
Heartbeat CPU 0 instructions: 22000114 cycles: 14103343 heartbeat IPC: 1.554 cumulative IPC: 1.56 (Simulation time: 00 hr 04 min 01 sec)
Heartbeat CPU 0 instructions: 22500116 cycles: 14421578 heartbeat IPC: 1.571 cumulative IPC: 1.56 (Simulation time: 00 hr 04 min 06 sec)
Heartbeat CPU 0 instructions: 23000121 cycles: 14743097 heartbeat IPC: 1.555 cumulative IPC: 1.56 (Simulation time: 00 hr 04 min 12 sec)
Heartbeat CPU 0 instructions: 23500126 cycles: 15064570 heartbeat IPC: 1.555 cumulative IPC: 1.56 (Simulation time: 00 hr 04 min 17 sec)
Heartbeat CPU 0 instructions: 24000127 cycles: 15385567 heartbeat IPC: 1.558 cumulative IPC: 1.56 (Simulation time: 00 hr 04 min 23 sec)
Heartbeat CPU 0 instructions: 24500127 cycles: 15707249 heartbeat IPC: 1.554 cumulative IPC: 1.56 (Simulation time: 00 hr 04 min 28 sec)
Heartbeat CPU 0 instructions: 25000133 cycles: 16029339 heartbeat IPC: 1.552 cumulative IPC: 1.56 (Simulation time: 00 hr 04 min 34 sec)
Heartbeat CPU 0 instructions: 25500135 cycles: 16350984 heartbeat IPC: 1.555 cumulative IPC: 1.56 (Simulation time: 00 hr 04 min 39 sec)
Heartbeat CPU 0 instructions: 26000137 cycles: 16672351 heartbeat IPC: 1.556 cumulative IPC: 1.559 (Simulation time: 00 hr 04 min 45 sec)
Heartbeat CPU 0 instructions: 26500141 cycles: 16994220 heartbeat IPC: 1.553 cumulative IPC: 1.559 (Simulation time: 00 hr 04 min 50 sec)
Heartbeat CPU 0 instructions: 27000143 cycles: 17315196 heartbeat IPC: 1.558 cumulative IPC: 1.559 (Simulation time: 00 hr 04 min 56 sec)
Heartbeat CPU 0 instructions: 27500146 cycles: 17636917 heartbeat IPC: 1.554 cumulative IPC: 1.559 (Simulation time: 00 hr 05 min 02 sec)
Heartbeat CPU 0 instructions: 28000149 cycles: 17958535 heartbeat IPC: 1.555 cumulative IPC: 1.559 (Simulation time: 00 hr 05 min 07 sec)
Heartbeat CPU 0 instructions: 28500150 cycles: 18280589 heartbeat IPC: 1.553 cumulative IPC: 1.559 (Simulation time: 00 hr 05 min 12 sec)
Heartbeat CPU 0 instructions: 29000152 cycles: 18601996 heartbeat IPC: 1.556 cumulative IPC: 1.559 (Simulation time: 00 hr 05 min 18 sec)
Heartbeat CPU 0 instructions: 29500152 cycles: 18923587 heartbeat IPC: 1.555 cumulative IPC: 1.559 (Simulation time: 00 hr 05 min 23 sec)
Heartbeat CPU 0 instructions: 30000152 cycles: 19244999 heartbeat IPC: 1.556 cumulative IPC: 1.559 (Simulation time: 00 hr 05 min 29 sec)
Heartbeat CPU 0 instructions: 30500152 cycles: 19566946 heartbeat IPC: 1.553 cumulative IPC: 1.559 (Simulation time: 00 hr 05 min 34 sec)
Heartbeat CPU 0 instructions: 31000152 cycles: 19888600 heartbeat IPC: 1.554 cumulative IPC: 1.559 (Simulation time: 00 hr 05 min 39 sec)
Heartbeat CPU 0 instructions: 31500152 cycles: 20209622 heartbeat IPC: 1.558 cumulative IPC: 1.559 (Simulation time: 00 hr 05 min 45 sec)
Heartbeat CPU 0 instructions: 32000156 cycles: 20530929 heartbeat IPC: 1.556 cumulative IPC: 1.559 (Simulation time: 00 hr 05 min 50 sec)
Heartbeat CPU 0 instructions: 32500160 cycles: 20853098 heartbeat IPC: 1.552 cumulative IPC: 1.559 (Simulation time: 00 hr 05 min 56 sec)
Heartbeat CPU 0 instructions: 33000160 cycles: 21174374 heartbeat IPC: 1.556 cumulative IPC: 1.558 (Simulation time: 00 hr 06 min 01 sec)
Heartbeat CPU 0 instructions: 33500164 cycles: 21496237 heartbeat IPC: 1.553 cumulative IPC: 1.558 (Simulation time: 00 hr 06 min 06 sec)
Heartbeat CPU 0 instructions: 34000164 cycles: 21817843 heartbeat IPC: 1.555 cumulative IPC: 1.558 (Simulation time: 00 hr 06 min 12 sec)
Heartbeat CPU 0 instructions: 34500164 cycles: 22139159 heartbeat IPC: 1.556 cumulative IPC: 1.558 (Simulation time: 00 hr 06 min 17 sec)
Heartbeat CPU 0 instructions: 35000166 cycles: 22460680 heartbeat IPC: 1.555 cumulative IPC: 1.558 (Simulation time: 00 hr 06 min 23 sec)
Heartbeat CPU 0 instructions: 35500171 cycles: 22781813 heartbeat IPC: 1.557 cumulative IPC: 1.558 (Simulation time: 00 hr 06 min 28 sec)
Heartbeat CPU 0 instructions: 36000171 cycles: 23103185 heartbeat IPC: 1.556 cumulative IPC: 1.558 (Simulation time: 00 hr 06 min 33 sec)
Heartbeat CPU 0 instructions: 36500178 cycles: 23425576 heartbeat IPC: 1.551 cumulative IPC: 1.558 (Simulation time: 00 hr 06 min 39 sec)
Heartbeat CPU 0 instructions: 37000183 cycles: 23747180 heartbeat IPC: 1.555 cumulative IPC: 1.558 (Simulation time: 00 hr 06 min 44 sec)
Heartbeat CPU 0 instructions: 37500183 cycles: 24068151 heartbeat IPC: 1.558 cumulative IPC: 1.558 (Simulation time: 00 hr 06 min 50 sec)
Heartbeat CPU 0 instructions: 38000183 cycles: 24389904 heartbeat IPC: 1.554 cumulative IPC: 1.558 (Simulation time: 00 hr 06 min 56 sec)
Heartbeat CPU 0 instructions: 38500183 cycles: 24711273 heartbeat IPC: 1.556 cumulative IPC: 1.558 (Simulation time: 00 hr 07 min 01 sec)
Heartbeat CPU 0 instructions: 39000183 cycles: 25032931 heartbeat IPC: 1.554 cumulative IPC: 1.558 (Simulation time: 00 hr 07 min 07 sec)
Heartbeat CPU 0 instructions: 39500189 cycles: 25354793 heartbeat IPC: 1.553 cumulative IPC: 1.558 (Simulation time: 00 hr 07 min 12 sec)
Heartbeat CPU 0 instructions: 40000191 cycles: 25675852 heartbeat IPC: 1.557 cumulative IPC: 1.558 (Simulation time: 00 hr 07 min 17 sec)
Heartbeat CPU 0 instructions: 40500198 cycles: 25996706 heartbeat IPC: 1.558 cumulative IPC: 1.558 (Simulation time: 00 hr 07 min 23 sec)
Heartbeat CPU 0 instructions: 41000200 cycles: 26316566 heartbeat IPC: 1.563 cumulative IPC: 1.558 (Simulation time: 00 hr 07 min 29 sec)
Heartbeat CPU 0 instructions: 41500206 cycles: 26637394 heartbeat IPC: 1.558 cumulative IPC: 1.558 (Simulation time: 00 hr 07 min 34 sec)
Heartbeat CPU 0 instructions: 42000213 cycles: 26959238 heartbeat IPC: 1.554 cumulative IPC: 1.558 (Simulation time: 00 hr 07 min 40 sec)
Heartbeat CPU 0 instructions: 42500215 cycles: 27280943 heartbeat IPC: 1.554 cumulative IPC: 1.558 (Simulation time: 00 hr 07 min 45 sec)
Heartbeat CPU 0 instructions: 43000222 cycles: 27602544 heartbeat IPC: 1.555 cumulative IPC: 1.558 (Simulation time: 00 hr 07 min 51 sec)
Heartbeat CPU 0 instructions: 43500224 cycles: 27924531 heartbeat IPC: 1.553 cumulative IPC: 1.558 (Simulation time: 00 hr 07 min 56 sec)
Heartbeat CPU 0 instructions: 44000224 cycles: 28245823 heartbeat IPC: 1.556 cumulative IPC: 1.558 (Simulation time: 00 hr 08 min 02 sec)
Heartbeat CPU 0 instructions: 44500230 cycles: 28567712 heartbeat IPC: 1.553 cumulative IPC: 1.558 (Simulation time: 00 hr 08 min 07 sec)
Heartbeat CPU 0 instructions: 45000231 cycles: 28889311 heartbeat IPC: 1.555 cumulative IPC: 1.558 (Simulation time: 00 hr 08 min 13 sec)
Heartbeat CPU 0 instructions: 45500236 cycles: 29211203 heartbeat IPC: 1.553 cumulative IPC: 1.558 (Simulation time: 00 hr 08 min 18 sec)
Heartbeat CPU 0 instructions: 46000240 cycles: 29532836 heartbeat IPC: 1.555 cumulative IPC: 1.558 (Simulation time: 00 hr 08 min 24 sec)
Heartbeat CPU 0 instructions: 46500247 cycles: 29854383 heartbeat IPC: 1.555 cumulative IPC: 1.558 (Simulation time: 00 hr 08 min 29 sec)
Heartbeat CPU 0 instructions: 47000254 cycles: 30176262 heartbeat IPC: 1.553 cumulative IPC: 1.558 (Simulation time: 00 hr 08 min 35 sec)
Heartbeat CPU 0 instructions: 47500256 cycles: 30497885 heartbeat IPC: 1.555 cumulative IPC: 1.557 (Simulation time: 00 hr 08 min 40 sec)
Heartbeat CPU 0 instructions: 48000256 cycles: 30819332 heartbeat IPC: 1.555 cumulative IPC: 1.557 (Simulation time: 00 hr 08 min 46 sec)
Heartbeat CPU 0 instructions: 48500258 cycles: 31140950 heartbeat IPC: 1.555 cumulative IPC: 1.557 (Simulation time: 00 hr 08 min 51 sec)
Heartbeat CPU 0 instructions: 49000263 cycles: 31462347 heartbeat IPC: 1.556 cumulative IPC: 1.557 (Simulation time: 00 hr 08 min 57 sec)
Heartbeat CPU 0 instructions: 49500267 cycles: 31783908 heartbeat IPC: 1.555 cumulative IPC: 1.557 (Simulation time: 00 hr 09 min 02 sec)
Warmup halting CPU 0 at instruction 50000000 cycle 32105817 for remainder of phase
Warmup finished CPU 0 instructions: 50000000 cycles: 32105817 cumulative IPC: 1.557 (Simulation time: 00 hr 09 min 08 sec)
Warmup complete CPU 0 instructions: 50000000 cycles: 32105817 cumulative IPC: 1.557 (Simulation time: 00 hr 09 min 08 sec)
Heartbeat CPU 0 instructions: 50000267 cycles: 32105865 heartbeat IPC: 1.553 cumulative IPC: 5.562 (Simulation time: 00 hr 09 min 08 sec)
Heartbeat CPU 0 instructions: 50500274 cycles: 32374681 heartbeat IPC: 1.86 cumulative IPC: 1.861 (Simulation time: 00 hr 09 min 12 sec)
Heartbeat CPU 0 instructions: 51000274 cycles: 32558326 heartbeat IPC: 2.723 cumulative IPC: 2.211 (Simulation time: 00 hr 09 min 15 sec)
Heartbeat CPU 0 instructions: 51500275 cycles: 32740737 heartbeat IPC: 2.741 cumulative IPC: 2.363 (Simulation time: 00 hr 09 min 18 sec)
Heartbeat CPU 0 instructions: 52000279 cycles: 33008761 heartbeat IPC: 1.866 cumulative IPC: 2.215 (Simulation time: 00 hr 09 min 23 sec)
Heartbeat CPU 0 instructions: 52500279 cycles: 33190347 heartbeat IPC: 2.754 cumulative IPC: 2.305 (Simulation time: 00 hr 09 min 26 sec)
Heartbeat CPU 0 instructions: 53000283 cycles: 33371641 heartbeat IPC: 2.758 cumulative IPC: 2.37 (Simulation time: 00 hr 09 min 29 sec)
Heartbeat CPU 0 instructions: 53500283 cycles: 33642807 heartbeat IPC: 1.844 cumulative IPC: 2.277 (Simulation time: 00 hr 09 min 34 sec)
Heartbeat CPU 0 instructions: 54000287 cycles: 33826878 heartbeat IPC: 2.716 cumulative IPC: 2.324 (Simulation time: 00 hr 09 min 37 sec)
Heartbeat CPU 0 instructions: 54500289 cycles: 34010122 heartbeat IPC: 2.729 cumulative IPC: 2.363 (Simulation time: 00 hr 09 min 40 sec)
Heartbeat CPU 0 instructions: 55000291 cycles: 34279926 heartbeat IPC: 1.853 cumulative IPC: 2.3 (Simulation time: 00 hr 09 min 44 sec)
Heartbeat CPU 0 instructions: 55500295 cycles: 34463076 heartbeat IPC: 2.73 cumulative IPC: 2.333 (Simulation time: 00 hr 09 min 48 sec)
Heartbeat CPU 0 instructions: 56000301 cycles: 34645812 heartbeat IPC: 2.736 cumulative IPC: 2.362 (Simulation time: 00 hr 09 min 51 sec)
Heartbeat CPU 0 instructions: 56500302 cycles: 34919622 heartbeat IPC: 1.826 cumulative IPC: 2.31 (Simulation time: 00 hr 09 min 55 sec)
Heartbeat CPU 0 instructions: 57000306 cycles: 35102767 heartbeat IPC: 2.73 cumulative IPC: 2.336 (Simulation time: 00 hr 09 min 59 sec)
Heartbeat CPU 0 instructions: 57500313 cycles: 35286556 heartbeat IPC: 2.721 cumulative IPC: 2.358 (Simulation time: 00 hr 10 min 02 sec)
Heartbeat CPU 0 instructions: 58000318 cycles: 35554071 heartbeat IPC: 1.869 cumulative IPC: 2.32 (Simulation time: 00 hr 10 min 06 sec)
Heartbeat CPU 0 instructions: 58500320 cycles: 35737844 heartbeat IPC: 2.721 cumulative IPC: 2.34 (Simulation time: 00 hr 10 min 09 sec)
Heartbeat CPU 0 instructions: 59000320 cycles: 35919772 heartbeat IPC: 2.748 cumulative IPC: 2.36 (Simulation time: 00 hr 10 min 13 sec)
Heartbeat CPU 0 instructions: 59500326 cycles: 36189063 heartbeat IPC: 1.857 cumulative IPC: 2.327 (Simulation time: 00 hr 10 min 17 sec)
Heartbeat CPU 0 instructions: 60000330 cycles: 36370963 heartbeat IPC: 2.749 cumulative IPC: 2.345 (Simulation time: 00 hr 10 min 20 sec)
Heartbeat CPU 0 instructions: 60500336 cycles: 36549989 heartbeat IPC: 2.793 cumulative IPC: 2.363 (Simulation time: 00 hr 10 min 23 sec)
Heartbeat CPU 0 instructions: 61000339 cycles: 36816315 heartbeat IPC: 1.877 cumulative IPC: 2.335 (Simulation time: 00 hr 10 min 28 sec)
Heartbeat CPU 0 instructions: 61500344 cycles: 36996829 heartbeat IPC: 2.77 cumulative IPC: 2.351 (Simulation time: 00 hr 10 min 31 sec)
Heartbeat CPU 0 instructions: 62000347 cycles: 37178879 heartbeat IPC: 2.747 cumulative IPC: 2.366 (Simulation time: 00 hr 10 min 34 sec)
Heartbeat CPU 0 instructions: 62500348 cycles: 37451510 heartbeat IPC: 1.834 cumulative IPC: 2.338 (Simulation time: 00 hr 10 min 39 sec)
Heartbeat CPU 0 instructions: 63000349 cycles: 37635886 heartbeat IPC: 2.712 cumulative IPC: 2.351 (Simulation time: 00 hr 10 min 42 sec)
Heartbeat CPU 0 instructions: 63500356 cycles: 37817597 heartbeat IPC: 2.752 cumulative IPC: 2.364 (Simulation time: 00 hr 10 min 45 sec)
Heartbeat CPU 0 instructions: 64000361 cycles: 38108902 heartbeat IPC: 1.716 cumulative IPC: 2.332 (Simulation time: 00 hr 10 min 50 sec)
Heartbeat CPU 0 instructions: 64500363 cycles: 38328214 heartbeat IPC: 2.28 cumulative IPC: 2.33 (Simulation time: 00 hr 10 min 53 sec)
Heartbeat CPU 0 instructions: 65000364 cycles: 38545849 heartbeat IPC: 2.297 cumulative IPC: 2.329 (Simulation time: 00 hr 10 min 57 sec)
Heartbeat CPU 0 instructions: 65500364 cycles: 38838180 heartbeat IPC: 1.71 cumulative IPC: 2.302 (Simulation time: 00 hr 11 min 01 sec)
Heartbeat CPU 0 instructions: 66000367 cycles: 39025853 heartbeat IPC: 2.664 cumulative IPC: 2.312 (Simulation time: 00 hr 11 min 05 sec)
Heartbeat CPU 0 instructions: 66500369 cycles: 39214019 heartbeat IPC: 2.657 cumulative IPC: 2.321 (Simulation time: 00 hr 11 min 08 sec)
Heartbeat CPU 0 instructions: 67000372 cycles: 39485036 heartbeat IPC: 1.845 cumulative IPC: 2.304 (Simulation time: 00 hr 11 min 12 sec)
Heartbeat CPU 0 instructions: 67500374 cycles: 39671808 heartbeat IPC: 2.677 cumulative IPC: 2.313 (Simulation time: 00 hr 11 min 16 sec)
Heartbeat CPU 0 instructions: 68000381 cycles: 39858263 heartbeat IPC: 2.682 cumulative IPC: 2.322 (Simulation time: 00 hr 11 min 19 sec)
Heartbeat CPU 0 instructions: 68500386 cycles: 40125837 heartbeat IPC: 1.869 cumulative IPC: 2.307 (Simulation time: 00 hr 11 min 23 sec)
Heartbeat CPU 0 instructions: 69000390 cycles: 40315407 heartbeat IPC: 2.638 cumulative IPC: 2.314 (Simulation time: 00 hr 11 min 27 sec)
Heartbeat CPU 0 instructions: 69500394 cycles: 40503139 heartbeat IPC: 2.663 cumulative IPC: 2.322 (Simulation time: 00 hr 11 min 30 sec)
Heartbeat CPU 0 instructions: 70000394 cycles: 40768670 heartbeat IPC: 1.883 cumulative IPC: 2.309 (Simulation time: 00 hr 11 min 34 sec)
Heartbeat CPU 0 instructions: 70500394 cycles: 40955664 heartbeat IPC: 2.674 cumulative IPC: 2.316 (Simulation time: 00 hr 11 min 37 sec)
Heartbeat CPU 0 instructions: 71000396 cycles: 41142387 heartbeat IPC: 2.678 cumulative IPC: 2.324 (Simulation time: 00 hr 11 min 41 sec)
Heartbeat CPU 0 instructions: 71500399 cycles: 41405141 heartbeat IPC: 1.903 cumulative IPC: 2.312 (Simulation time: 00 hr 11 min 45 sec)
Heartbeat CPU 0 instructions: 72000401 cycles: 41591493 heartbeat IPC: 2.683 cumulative IPC: 2.319 (Simulation time: 00 hr 11 min 48 sec)
Heartbeat CPU 0 instructions: 72500404 cycles: 41774914 heartbeat IPC: 2.726 cumulative IPC: 2.327 (Simulation time: 00 hr 11 min 52 sec)
Heartbeat CPU 0 instructions: 73000410 cycles: 42035707 heartbeat IPC: 1.917 cumulative IPC: 2.316 (Simulation time: 00 hr 11 min 56 sec)
Heartbeat CPU 0 instructions: 73500417 cycles: 42223860 heartbeat IPC: 2.657 cumulative IPC: 2.323 (Simulation time: 00 hr 11 min 59 sec)
Heartbeat CPU 0 instructions: 74000424 cycles: 42406493 heartbeat IPC: 2.738 cumulative IPC: 2.33 (Simulation time: 00 hr 12 min 02 sec)
Heartbeat CPU 0 instructions: 74500431 cycles: 42677835 heartbeat IPC: 1.843 cumulative IPC: 2.317 (Simulation time: 00 hr 12 min 07 sec)
Heartbeat CPU 0 instructions: 75000436 cycles: 42866085 heartbeat IPC: 2.656 cumulative IPC: 2.323 (Simulation time: 00 hr 12 min 10 sec)
Heartbeat CPU 0 instructions: 75500443 cycles: 43051910 heartbeat IPC: 2.691 cumulative IPC: 2.33 (Simulation time: 00 hr 12 min 13 sec)
Heartbeat CPU 0 instructions: 76000448 cycles: 43321142 heartbeat IPC: 1.857 cumulative IPC: 2.318 (Simulation time: 00 hr 12 min 18 sec)
Heartbeat CPU 0 instructions: 76500451 cycles: 43505691 heartbeat IPC: 2.709 cumulative IPC: 2.325 (Simulation time: 00 hr 12 min 21 sec)
Heartbeat CPU 0 instructions: 77000456 cycles: 43690791 heartbeat IPC: 2.701 cumulative IPC: 2.331 (Simulation time: 00 hr 12 min 24 sec)
Heartbeat CPU 0 instructions: 77500463 cycles: 43963111 heartbeat IPC: 1.836 cumulative IPC: 2.319 (Simulation time: 00 hr 12 min 28 sec)
Heartbeat CPU 0 instructions: 78000465 cycles: 44145512 heartbeat IPC: 2.741 cumulative IPC: 2.326 (Simulation time: 00 hr 12 min 32 sec)
Heartbeat CPU 0 instructions: 78500470 cycles: 44330646 heartbeat IPC: 2.701 cumulative IPC: 2.331 (Simulation time: 00 hr 12 min 35 sec)
Heartbeat CPU 0 instructions: 79000470 cycles: 44603208 heartbeat IPC: 1.834 cumulative IPC: 2.321 (Simulation time: 00 hr 12 min 39 sec)
Heartbeat CPU 0 instructions: 79500474 cycles: 44787735 heartbeat IPC: 2.71 cumulative IPC: 2.326 (Simulation time: 00 hr 12 min 43 sec)
Heartbeat CPU 0 instructions: 80000474 cycles: 44975425 heartbeat IPC: 2.664 cumulative IPC: 2.331 (Simulation time: 00 hr 12 min 46 sec)
Heartbeat CPU 0 instructions: 80500475 cycles: 45246238 heartbeat IPC: 1.846 cumulative IPC: 2.321 (Simulation time: 00 hr 12 min 50 sec)
Heartbeat CPU 0 instructions: 81000479 cycles: 45431098 heartbeat IPC: 2.705 cumulative IPC: 2.326 (Simulation time: 00 hr 12 min 53 sec)
Heartbeat CPU 0 instructions: 81500484 cycles: 45617489 heartbeat IPC: 2.683 cumulative IPC: 2.331 (Simulation time: 00 hr 12 min 57 sec)
Heartbeat CPU 0 instructions: 82000485 cycles: 45885157 heartbeat IPC: 1.868 cumulative IPC: 2.322 (Simulation time: 00 hr 13 min 01 sec)
Heartbeat CPU 0 instructions: 82500486 cycles: 46070045 heartbeat IPC: 2.704 cumulative IPC: 2.327 (Simulation time: 00 hr 13 min 04 sec)
Heartbeat CPU 0 instructions: 83000488 cycles: 46256626 heartbeat IPC: 2.68 cumulative IPC: 2.332 (Simulation time: 00 hr 13 min 08 sec)
Heartbeat CPU 0 instructions: 83500493 cycles: 46526971 heartbeat IPC: 1.85 cumulative IPC: 2.323 (Simulation time: 00 hr 13 min 12 sec)
Heartbeat CPU 0 instructions: 84000498 cycles: 46711450 heartbeat IPC: 2.71 cumulative IPC: 2.328 (Simulation time: 00 hr 13 min 15 sec)
Heartbeat CPU 0 instructions: 84500503 cycles: 46897177 heartbeat IPC: 2.692 cumulative IPC: 2.332 (Simulation time: 00 hr 13 min 19 sec)
Heartbeat CPU 0 instructions: 85000504 cycles: 47174148 heartbeat IPC: 1.805 cumulative IPC: 2.323 (Simulation time: 00 hr 13 min 23 sec)
Heartbeat CPU 0 instructions: 85500511 cycles: 47358311 heartbeat IPC: 2.715 cumulative IPC: 2.328 (Simulation time: 00 hr 13 min 26 sec)
Heartbeat CPU 0 instructions: 86000515 cycles: 47552112 heartbeat IPC: 2.58 cumulative IPC: 2.331 (Simulation time: 00 hr 13 min 30 sec)
Heartbeat CPU 0 instructions: 86500518 cycles: 47825049 heartbeat IPC: 1.832 cumulative IPC: 2.322 (Simulation time: 00 hr 13 min 34 sec)
Heartbeat CPU 0 instructions: 87000525 cycles: 48009382 heartbeat IPC: 2.713 cumulative IPC: 2.327 (Simulation time: 00 hr 13 min 37 sec)
Heartbeat CPU 0 instructions: 87500532 cycles: 48193904 heartbeat IPC: 2.71 cumulative IPC: 2.331 (Simulation time: 00 hr 13 min 40 sec)
Heartbeat CPU 0 instructions: 88000539 cycles: 48489920 heartbeat IPC: 1.689 cumulative IPC: 2.319 (Simulation time: 00 hr 13 min 45 sec)
Heartbeat CPU 0 instructions: 88500544 cycles: 48712590 heartbeat IPC: 2.245 cumulative IPC: 2.318 (Simulation time: 00 hr 13 min 49 sec)
Heartbeat CPU 0 instructions: 89000545 cycles: 48930506 heartbeat IPC: 2.294 cumulative IPC: 2.318 (Simulation time: 00 hr 13 min 52 sec)
Heartbeat CPU 0 instructions: 89500545 cycles: 49206166 heartbeat IPC: 1.814 cumulative IPC: 2.31 (Simulation time: 00 hr 13 min 57 sec)
Heartbeat CPU 0 instructions: 90000552 cycles: 49396960 heartbeat IPC: 2.621 cumulative IPC: 2.313 (Simulation time: 00 hr 14 min 00 sec)
Heartbeat CPU 0 instructions: 90500557 cycles: 49584139 heartbeat IPC: 2.671 cumulative IPC: 2.317 (Simulation time: 00 hr 14 min 03 sec)
Heartbeat CPU 0 instructions: 91000564 cycles: 49855521 heartbeat IPC: 1.842 cumulative IPC: 2.31 (Simulation time: 00 hr 14 min 08 sec)
Heartbeat CPU 0 instructions: 91500568 cycles: 50043254 heartbeat IPC: 2.663 cumulative IPC: 2.314 (Simulation time: 00 hr 14 min 11 sec)
Heartbeat CPU 0 instructions: 92000574 cycles: 50228487 heartbeat IPC: 2.699 cumulative IPC: 2.318 (Simulation time: 00 hr 14 min 14 sec)
Heartbeat CPU 0 instructions: 92500580 cycles: 50497478 heartbeat IPC: 1.859 cumulative IPC: 2.311 (Simulation time: 00 hr 14 min 19 sec)
Heartbeat CPU 0 instructions: 93000584 cycles: 50687855 heartbeat IPC: 2.626 cumulative IPC: 2.314 (Simulation time: 00 hr 14 min 22 sec)
Heartbeat CPU 0 instructions: 93500591 cycles: 50873967 heartbeat IPC: 2.687 cumulative IPC: 2.318 (Simulation time: 00 hr 14 min 25 sec)
Heartbeat CPU 0 instructions: 94000596 cycles: 51143793 heartbeat IPC: 1.853 cumulative IPC: 2.311 (Simulation time: 00 hr 14 min 30 sec)
Heartbeat CPU 0 instructions: 94500601 cycles: 51329866 heartbeat IPC: 2.687 cumulative IPC: 2.315 (Simulation time: 00 hr 14 min 33 sec)
Heartbeat CPU 0 instructions: 95000608 cycles: 51518142 heartbeat IPC: 2.656 cumulative IPC: 2.318 (Simulation time: 00 hr 14 min 36 sec)
Heartbeat CPU 0 instructions: 95500609 cycles: 51781542 heartbeat IPC: 1.898 cumulative IPC: 2.313 (Simulation time: 00 hr 14 min 40 sec)
Heartbeat CPU 0 instructions: 96000609 cycles: 51966092 heartbeat IPC: 2.709 cumulative IPC: 2.316 (Simulation time: 00 hr 14 min 44 sec)
Heartbeat CPU 0 instructions: 96500611 cycles: 52153192 heartbeat IPC: 2.672 cumulative IPC: 2.32 (Simulation time: 00 hr 14 min 47 sec)
Heartbeat CPU 0 instructions: 97000613 cycles: 52417148 heartbeat IPC: 1.894 cumulative IPC: 2.314 (Simulation time: 00 hr 14 min 51 sec)
Heartbeat CPU 0 instructions: 97500614 cycles: 52607564 heartbeat IPC: 2.626 cumulative IPC: 2.317 (Simulation time: 00 hr 14 min 55 sec)
Heartbeat CPU 0 instructions: 98000619 cycles: 52792165 heartbeat IPC: 2.709 cumulative IPC: 2.32 (Simulation time: 00 hr 14 min 58 sec)
Heartbeat CPU 0 instructions: 98500621 cycles: 53062543 heartbeat IPC: 1.849 cumulative IPC: 2.314 (Simulation time: 00 hr 15 min 02 sec)
Heartbeat CPU 0 instructions: 99000628 cycles: 53248636 heartbeat IPC: 2.687 cumulative IPC: 2.318 (Simulation time: 00 hr 15 min 06 sec)
Heartbeat CPU 0 instructions: 99500630 cycles: 53437410 heartbeat IPC: 2.649 cumulative IPC: 2.321 (Simulation time: 00 hr 15 min 09 sec)
Heartbeat CPU 0 instructions: 100000636 cycles: 53708917 heartbeat IPC: 1.842 cumulative IPC: 2.315 (Simulation time: 00 hr 15 min 13 sec)
Heartbeat CPU 0 instructions: 100500642 cycles: 53895312 heartbeat IPC: 2.683 cumulative IPC: 2.318 (Simulation time: 00 hr 15 min 16 sec)
Heartbeat CPU 0 instructions: 101000646 cycles: 54080158 heartbeat IPC: 2.705 cumulative IPC: 2.321 (Simulation time: 00 hr 15 min 20 sec)
Heartbeat CPU 0 instructions: 101500650 cycles: 54352694 heartbeat IPC: 1.835 cumulative IPC: 2.315 (Simulation time: 00 hr 15 min 24 sec)
Heartbeat CPU 0 instructions: 102000654 cycles: 54534201 heartbeat IPC: 2.755 cumulative IPC: 2.319 (Simulation time: 00 hr 15 min 27 sec)
Heartbeat CPU 0 instructions: 102500658 cycles: 54717899 heartbeat IPC: 2.722 cumulative IPC: 2.322 (Simulation time: 00 hr 15 min 31 sec)
Heartbeat CPU 0 instructions: 103000664 cycles: 54995851 heartbeat IPC: 1.799 cumulative IPC: 2.315 (Simulation time: 00 hr 15 min 35 sec)
Heartbeat CPU 0 instructions: 103500668 cycles: 55181945 heartbeat IPC: 2.687 cumulative IPC: 2.318 (Simulation time: 00 hr 15 min 38 sec)
Heartbeat CPU 0 instructions: 104000674 cycles: 55368991 heartbeat IPC: 2.673 cumulative IPC: 2.321 (Simulation time: 00 hr 15 min 42 sec)
Heartbeat CPU 0 instructions: 104500674 cycles: 55640316 heartbeat IPC: 1.843 cumulative IPC: 2.316 (Simulation time: 00 hr 15 min 46 sec)
Heartbeat CPU 0 instructions: 105000679 cycles: 55825933 heartbeat IPC: 2.694 cumulative IPC: 2.319 (Simulation time: 00 hr 15 min 49 sec)
Heartbeat CPU 0 instructions: 105500683 cycles: 56009882 heartbeat IPC: 2.718 cumulative IPC: 2.322 (Simulation time: 00 hr 15 min 53 sec)
Heartbeat CPU 0 instructions: 106000689 cycles: 56280271 heartbeat IPC: 1.849 cumulative IPC: 2.317 (Simulation time: 00 hr 15 min 57 sec)
Heartbeat CPU 0 instructions: 106500693 cycles: 56470571 heartbeat IPC: 2.627 cumulative IPC: 2.319 (Simulation time: 00 hr 16 min 00 sec)
Heartbeat CPU 0 instructions: 107000697 cycles: 56652785 heartbeat IPC: 2.744 cumulative IPC: 2.322 (Simulation time: 00 hr 16 min 03 sec)
Heartbeat CPU 0 instructions: 107500697 cycles: 56928510 heartbeat IPC: 1.813 cumulative IPC: 2.316 (Simulation time: 00 hr 16 min 08 sec)
Heartbeat CPU 0 instructions: 108000701 cycles: 57111843 heartbeat IPC: 2.727 cumulative IPC: 2.319 (Simulation time: 00 hr 16 min 11 sec)
Heartbeat CPU 0 instructions: 108500701 cycles: 57301072 heartbeat IPC: 2.642 cumulative IPC: 2.322 (Simulation time: 00 hr 16 min 14 sec)
Heartbeat CPU 0 instructions: 109000705 cycles: 57570450 heartbeat IPC: 1.856 cumulative IPC: 2.317 (Simulation time: 00 hr 16 min 19 sec)
Heartbeat CPU 0 instructions: 109500709 cycles: 57759908 heartbeat IPC: 2.639 cumulative IPC: 2.319 (Simulation time: 00 hr 16 min 22 sec)
Heartbeat CPU 0 instructions: 110000709 cycles: 57956725 heartbeat IPC: 2.54 cumulative IPC: 2.321 (Simulation time: 00 hr 16 min 25 sec)
Heartbeat CPU 0 instructions: 110500711 cycles: 58217027 heartbeat IPC: 1.921 cumulative IPC: 2.317 (Simulation time: 00 hr 16 min 30 sec)
Heartbeat CPU 0 instructions: 111000716 cycles: 58401898 heartbeat IPC: 2.705 cumulative IPC: 2.32 (Simulation time: 00 hr 16 min 33 sec)
Heartbeat CPU 0 instructions: 111500722 cycles: 58610878 heartbeat IPC: 2.393 cumulative IPC: 2.32 (Simulation time: 00 hr 16 min 36 sec)
Heartbeat CPU 0 instructions: 112000726 cycles: 58893969 heartbeat IPC: 1.766 cumulative IPC: 2.314 (Simulation time: 00 hr 16 min 41 sec)
Heartbeat CPU 0 instructions: 112500728 cycles: 59112819 heartbeat IPC: 2.285 cumulative IPC: 2.314 (Simulation time: 00 hr 16 min 44 sec)
Heartbeat CPU 0 instructions: 113000730 cycles: 59359624 heartbeat IPC: 2.026 cumulative IPC: 2.312 (Simulation time: 00 hr 16 min 48 sec)
Heartbeat CPU 0 instructions: 113500731 cycles: 59607063 heartbeat IPC: 2.021 cumulative IPC: 2.309 (Simulation time: 00 hr 16 min 52 sec)
Heartbeat CPU 0 instructions: 114000734 cycles: 59792844 heartbeat IPC: 2.691 cumulative IPC: 2.312 (Simulation time: 00 hr 16 min 56 sec)
Heartbeat CPU 0 instructions: 114500736 cycles: 60018089 heartbeat IPC: 2.22 cumulative IPC: 2.311 (Simulation time: 00 hr 17 min 00 sec)
Heartbeat CPU 0 instructions: 115000742 cycles: 60250574 heartbeat IPC: 2.151 cumulative IPC: 2.31 (Simulation time: 00 hr 17 min 03 sec)
Heartbeat CPU 0 instructions: 115500744 cycles: 60437465 heartbeat IPC: 2.675 cumulative IPC: 2.312 (Simulation time: 00 hr 17 min 07 sec)
Heartbeat CPU 0 instructions: 116000746 cycles: 60669128 heartbeat IPC: 2.158 cumulative IPC: 2.311 (Simulation time: 00 hr 17 min 11 sec)
Heartbeat CPU 0 instructions: 116500753 cycles: 60891127 heartbeat IPC: 2.252 cumulative IPC: 2.31 (Simulation time: 00 hr 17 min 14 sec)
Heartbeat CPU 0 instructions: 117000757 cycles: 61076837 heartbeat IPC: 2.692 cumulative IPC: 2.313 (Simulation time: 00 hr 17 min 18 sec)
Heartbeat CPU 0 instructions: 117500763 cycles: 61316557 heartbeat IPC: 2.086 cumulative IPC: 2.311 (Simulation time: 00 hr 17 min 22 sec)
Heartbeat CPU 0 instructions: 118000770 cycles: 61530094 heartbeat IPC: 2.342 cumulative IPC: 2.311 (Simulation time: 00 hr 17 min 25 sec)
Heartbeat CPU 0 instructions: 118500774 cycles: 61714604 heartbeat IPC: 2.71 cumulative IPC: 2.314 (Simulation time: 00 hr 17 min 29 sec)
Heartbeat CPU 0 instructions: 119000778 cycles: 61963382 heartbeat IPC: 2.01 cumulative IPC: 2.311 (Simulation time: 00 hr 17 min 33 sec)
Heartbeat CPU 0 instructions: 119500785 cycles: 62169389 heartbeat IPC: 2.427 cumulative IPC: 2.312 (Simulation time: 00 hr 17 min 36 sec)
Heartbeat CPU 0 instructions: 120000789 cycles: 62359955 heartbeat IPC: 2.624 cumulative IPC: 2.314 (Simulation time: 00 hr 17 min 40 sec)
Heartbeat CPU 0 instructions: 120500789 cycles: 62614907 heartbeat IPC: 1.961 cumulative IPC: 2.311 (Simulation time: 00 hr 17 min 44 sec)
Heartbeat CPU 0 instructions: 121000792 cycles: 62809469 heartbeat IPC: 2.57 cumulative IPC: 2.312 (Simulation time: 00 hr 17 min 47 sec)
Heartbeat CPU 0 instructions: 121500795 cycles: 62994525 heartbeat IPC: 2.702 cumulative IPC: 2.315 (Simulation time: 00 hr 17 min 50 sec)
Heartbeat CPU 0 instructions: 122000797 cycles: 63265585 heartbeat IPC: 1.845 cumulative IPC: 2.311 (Simulation time: 00 hr 17 min 55 sec)
Heartbeat CPU 0 instructions: 122500798 cycles: 63453870 heartbeat IPC: 2.656 cumulative IPC: 2.313 (Simulation time: 00 hr 17 min 58 sec)
Heartbeat CPU 0 instructions: 123000798 cycles: 63641238 heartbeat IPC: 2.669 cumulative IPC: 2.315 (Simulation time: 00 hr 18 min 01 sec)
Heartbeat CPU 0 instructions: 123500801 cycles: 63913657 heartbeat IPC: 1.835 cumulative IPC: 2.311 (Simulation time: 00 hr 18 min 06 sec)
Heartbeat CPU 0 instructions: 124000803 cycles: 64100110 heartbeat IPC: 2.682 cumulative IPC: 2.313 (Simulation time: 00 hr 18 min 09 sec)
Heartbeat CPU 0 instructions: 124500804 cycles: 64283950 heartbeat IPC: 2.72 cumulative IPC: 2.315 (Simulation time: 00 hr 18 min 12 sec)
Heartbeat CPU 0 instructions: 125000809 cycles: 64556877 heartbeat IPC: 1.832 cumulative IPC: 2.311 (Simulation time: 00 hr 18 min 17 sec)
Heartbeat CPU 0 instructions: 125500810 cycles: 64740718 heartbeat IPC: 2.72 cumulative IPC: 2.313 (Simulation time: 00 hr 18 min 20 sec)
Heartbeat CPU 0 instructions: 126000812 cycles: 64926545 heartbeat IPC: 2.691 cumulative IPC: 2.316 (Simulation time: 00 hr 18 min 23 sec)
Heartbeat CPU 0 instructions: 126500812 cycles: 65198416 heartbeat IPC: 1.839 cumulative IPC: 2.312 (Simulation time: 00 hr 18 min 27 sec)
Heartbeat CPU 0 instructions: 127000819 cycles: 65384777 heartbeat IPC: 2.683 cumulative IPC: 2.314 (Simulation time: 00 hr 18 min 31 sec)
Heartbeat CPU 0 instructions: 127500826 cycles: 65571214 heartbeat IPC: 2.682 cumulative IPC: 2.316 (Simulation time: 00 hr 18 min 34 sec)
Heartbeat CPU 0 instructions: 128000833 cycles: 65841417 heartbeat IPC: 1.85 cumulative IPC: 2.312 (Simulation time: 00 hr 18 min 38 sec)
Heartbeat CPU 0 instructions: 128500835 cycles: 66029520 heartbeat IPC: 2.658 cumulative IPC: 2.314 (Simulation time: 00 hr 18 min 42 sec)
Heartbeat CPU 0 instructions: 129000842 cycles: 66215716 heartbeat IPC: 2.685 cumulative IPC: 2.316 (Simulation time: 00 hr 18 min 45 sec)
Heartbeat CPU 0 instructions: 129500847 cycles: 66485330 heartbeat IPC: 1.855 cumulative IPC: 2.312 (Simulation time: 00 hr 18 min 49 sec)
Heartbeat CPU 0 instructions: 130000847 cycles: 66671169 heartbeat IPC: 2.691 cumulative IPC: 2.314 (Simulation time: 00 hr 18 min 53 sec)
Heartbeat CPU 0 instructions: 130500848 cycles: 66860982 heartbeat IPC: 2.634 cumulative IPC: 2.316 (Simulation time: 00 hr 18 min 56 sec)
Heartbeat CPU 0 instructions: 131000855 cycles: 67132050 heartbeat IPC: 1.845 cumulative IPC: 2.313 (Simulation time: 00 hr 19 min 00 sec)
Heartbeat CPU 0 instructions: 131500862 cycles: 67315812 heartbeat IPC: 2.721 cumulative IPC: 2.315 (Simulation time: 00 hr 19 min 03 sec)
Heartbeat CPU 0 instructions: 132000863 cycles: 67503959 heartbeat IPC: 2.658 cumulative IPC: 2.317 (Simulation time: 00 hr 19 min 07 sec)
Heartbeat CPU 0 instructions: 132500863 cycles: 67773401 heartbeat IPC: 1.856 cumulative IPC: 2.313 (Simulation time: 00 hr 19 min 11 sec)
Heartbeat CPU 0 instructions: 133000868 cycles: 67968575 heartbeat IPC: 2.562 cumulative IPC: 2.314 (Simulation time: 00 hr 19 min 14 sec)
Heartbeat CPU 0 instructions: 133500872 cycles: 68155743 heartbeat IPC: 2.671 cumulative IPC: 2.316 (Simulation time: 00 hr 19 min 18 sec)
Heartbeat CPU 0 instructions: 134000874 cycles: 68426610 heartbeat IPC: 1.846 cumulative IPC: 2.313 (Simulation time: 00 hr 19 min 22 sec)
Heartbeat CPU 0 instructions: 134500880 cycles: 68614017 heartbeat IPC: 2.668 cumulative IPC: 2.315 (Simulation time: 00 hr 19 min 25 sec)
Heartbeat CPU 0 instructions: 135000882 cycles: 68797838 heartbeat IPC: 2.72 cumulative IPC: 2.317 (Simulation time: 00 hr 19 min 28 sec)
Heartbeat CPU 0 instructions: 135500886 cycles: 69080846 heartbeat IPC: 1.767 cumulative IPC: 2.312 (Simulation time: 00 hr 19 min 33 sec)
Heartbeat CPU 0 instructions: 136000892 cycles: 69306040 heartbeat IPC: 2.22 cumulative IPC: 2.312 (Simulation time: 00 hr 19 min 36 sec)
Heartbeat CPU 0 instructions: 136500898 cycles: 69522722 heartbeat IPC: 2.308 cumulative IPC: 2.312 (Simulation time: 00 hr 19 min 40 sec)
Heartbeat CPU 0 instructions: 137000904 cycles: 69812892 heartbeat IPC: 1.723 cumulative IPC: 2.307 (Simulation time: 00 hr 19 min 44 sec)
Heartbeat CPU 0 instructions: 137500905 cycles: 69999571 heartbeat IPC: 2.678 cumulative IPC: 2.309 (Simulation time: 00 hr 19 min 48 sec)
Heartbeat CPU 0 instructions: 138000912 cycles: 70184981 heartbeat IPC: 2.697 cumulative IPC: 2.311 (Simulation time: 00 hr 19 min 51 sec)
Heartbeat CPU 0 instructions: 138500912 cycles: 70460003 heartbeat IPC: 1.818 cumulative IPC: 2.307 (Simulation time: 00 hr 19 min 55 sec)
Heartbeat CPU 0 instructions: 139000916 cycles: 70645127 heartbeat IPC: 2.701 cumulative IPC: 2.309 (Simulation time: 00 hr 19 min 58 sec)
Heartbeat CPU 0 instructions: 139500919 cycles: 70834115 heartbeat IPC: 2.646 cumulative IPC: 2.311 (Simulation time: 00 hr 20 min 02 sec)
Heartbeat CPU 0 instructions: 140000925 cycles: 71103382 heartbeat IPC: 1.857 cumulative IPC: 2.308 (Simulation time: 00 hr 20 min 06 sec)
Heartbeat CPU 0 instructions: 140500927 cycles: 71289063 heartbeat IPC: 2.693 cumulative IPC: 2.31 (Simulation time: 00 hr 20 min 09 sec)
Heartbeat CPU 0 instructions: 141000934 cycles: 71478756 heartbeat IPC: 2.636 cumulative IPC: 2.311 (Simulation time: 00 hr 20 min 12 sec)
Heartbeat CPU 0 instructions: 141500936 cycles: 71750165 heartbeat IPC: 1.842 cumulative IPC: 2.308 (Simulation time: 00 hr 20 min 17 sec)
Heartbeat CPU 0 instructions: 142000943 cycles: 71935436 heartbeat IPC: 2.699 cumulative IPC: 2.31 (Simulation time: 00 hr 20 min 20 sec)
Heartbeat CPU 0 instructions: 142500947 cycles: 72121127 heartbeat IPC: 2.693 cumulative IPC: 2.312 (Simulation time: 00 hr 20 min 23 sec)
Heartbeat CPU 0 instructions: 143000947 cycles: 72388296 heartbeat IPC: 1.871 cumulative IPC: 2.309 (Simulation time: 00 hr 20 min 27 sec)
Heartbeat CPU 0 instructions: 143500954 cycles: 72575595 heartbeat IPC: 2.67 cumulative IPC: 2.31 (Simulation time: 00 hr 20 min 31 sec)
Heartbeat CPU 0 instructions: 144000955 cycles: 72763344 heartbeat IPC: 2.663 cumulative IPC: 2.312 (Simulation time: 00 hr 20 min 34 sec)
Heartbeat CPU 0 instructions: 144500958 cycles: 73025981 heartbeat IPC: 1.904 cumulative IPC: 2.309 (Simulation time: 00 hr 20 min 38 sec)
Heartbeat CPU 0 instructions: 145000962 cycles: 73213313 heartbeat IPC: 2.669 cumulative IPC: 2.311 (Simulation time: 00 hr 20 min 41 sec)
Heartbeat CPU 0 instructions: 145500964 cycles: 73398525 heartbeat IPC: 2.7 cumulative IPC: 2.313 (Simulation time: 00 hr 20 min 45 sec)
Heartbeat CPU 0 instructions: 146000970 cycles: 73671670 heartbeat IPC: 1.831 cumulative IPC: 2.31 (Simulation time: 00 hr 20 min 49 sec)
Heartbeat CPU 0 instructions: 146500973 cycles: 73859526 heartbeat IPC: 2.662 cumulative IPC: 2.311 (Simulation time: 00 hr 20 min 52 sec)
Heartbeat CPU 0 instructions: 147000974 cycles: 74046801 heartbeat IPC: 2.67 cumulative IPC: 2.313 (Simulation time: 00 hr 20 min 55 sec)
Heartbeat CPU 0 instructions: 147500974 cycles: 74314705 heartbeat IPC: 1.866 cumulative IPC: 2.31 (Simulation time: 00 hr 20 min 59 sec)
Heartbeat CPU 0 instructions: 148000976 cycles: 74502013 heartbeat IPC: 2.669 cumulative IPC: 2.312 (Simulation time: 00 hr 21 min 03 sec)
Heartbeat CPU 0 instructions: 148500982 cycles: 74687833 heartbeat IPC: 2.691 cumulative IPC: 2.313 (Simulation time: 00 hr 21 min 06 sec)
Heartbeat CPU 0 instructions: 149000989 cycles: 74960113 heartbeat IPC: 1.836 cumulative IPC: 2.31 (Simulation time: 00 hr 21 min 10 sec)
Heartbeat CPU 0 instructions: 149500989 cycles: 75143973 heartbeat IPC: 2.719 cumulative IPC: 2.312 (Simulation time: 00 hr 21 min 13 sec)
Heartbeat CPU 0 instructions: 150000991 cycles: 75327561 heartbeat IPC: 2.724 cumulative IPC: 2.314 (Simulation time: 00 hr 21 min 17 sec)
Heartbeat CPU 0 instructions: 150500996 cycles: 75597447 heartbeat IPC: 1.853 cumulative IPC: 2.311 (Simulation time: 00 hr 21 min 21 sec)
Heartbeat CPU 0 instructions: 151001000 cycles: 75783163 heartbeat IPC: 2.692 cumulative IPC: 2.312 (Simulation time: 00 hr 21 min 24 sec)
Heartbeat CPU 0 instructions: 151501001 cycles: 75968946 heartbeat IPC: 2.691 cumulative IPC: 2.314 (Simulation time: 00 hr 21 min 27 sec)
Heartbeat CPU 0 instructions: 152001004 cycles: 76238307 heartbeat IPC: 1.856 cumulative IPC: 2.311 (Simulation time: 00 hr 21 min 31 sec)
Heartbeat CPU 0 instructions: 152501011 cycles: 76426999 heartbeat IPC: 2.65 cumulative IPC: 2.313 (Simulation time: 00 hr 21 min 35 sec)
Heartbeat CPU 0 instructions: 153001012 cycles: 76611963 heartbeat IPC: 2.703 cumulative IPC: 2.314 (Simulation time: 00 hr 21 min 38 sec)
Heartbeat CPU 0 instructions: 153501017 cycles: 76885285 heartbeat IPC: 1.829 cumulative IPC: 2.311 (Simulation time: 00 hr 21 min 42 sec)
Heartbeat CPU 0 instructions: 154001022 cycles: 77070344 heartbeat IPC: 2.702 cumulative IPC: 2.313 (Simulation time: 00 hr 21 min 45 sec)
Heartbeat CPU 0 instructions: 154501023 cycles: 77257017 heartbeat IPC: 2.678 cumulative IPC: 2.314 (Simulation time: 00 hr 21 min 48 sec)
Heartbeat CPU 0 instructions: 155001026 cycles: 77526910 heartbeat IPC: 1.853 cumulative IPC: 2.312 (Simulation time: 00 hr 21 min 53 sec)
Heartbeat CPU 0 instructions: 155501032 cycles: 77714408 heartbeat IPC: 2.667 cumulative IPC: 2.313 (Simulation time: 00 hr 21 min 56 sec)
Heartbeat CPU 0 instructions: 156001036 cycles: 77900520 heartbeat IPC: 2.687 cumulative IPC: 2.315 (Simulation time: 00 hr 21 min 59 sec)
Heartbeat CPU 0 instructions: 156501038 cycles: 78171241 heartbeat IPC: 1.847 cumulative IPC: 2.312 (Simulation time: 00 hr 22 min 03 sec)
Heartbeat CPU 0 instructions: 157001040 cycles: 78358875 heartbeat IPC: 2.665 cumulative IPC: 2.313 (Simulation time: 00 hr 22 min 06 sec)
Heartbeat CPU 0 instructions: 157501042 cycles: 78553683 heartbeat IPC: 2.567 cumulative IPC: 2.314 (Simulation time: 00 hr 22 min 10 sec)
Heartbeat CPU 0 instructions: 158001047 cycles: 78821628 heartbeat IPC: 1.866 cumulative IPC: 2.312 (Simulation time: 00 hr 22 min 14 sec)
Heartbeat CPU 0 instructions: 158501054 cycles: 79007057 heartbeat IPC: 2.696 cumulative IPC: 2.313 (Simulation time: 00 hr 22 min 17 sec)
Heartbeat CPU 0 instructions: 159001058 cycles: 79193120 heartbeat IPC: 2.687 cumulative IPC: 2.315 (Simulation time: 00 hr 22 min 20 sec)
Heartbeat CPU 0 instructions: 159501058 cycles: 79487574 heartbeat IPC: 1.698 cumulative IPC: 2.311 (Simulation time: 00 hr 22 min 24 sec)
Heartbeat CPU 0 instructions: 160001060 cycles: 79708737 heartbeat IPC: 2.261 cumulative IPC: 2.311 (Simulation time: 00 hr 22 min 28 sec)
Heartbeat CPU 0 instructions: 160501067 cycles: 79928508 heartbeat IPC: 2.275 cumulative IPC: 2.311 (Simulation time: 00 hr 22 min 31 sec)
Heartbeat CPU 0 instructions: 161001069 cycles: 80208229 heartbeat IPC: 1.788 cumulative IPC: 2.308 (Simulation time: 00 hr 22 min 35 sec)
Heartbeat CPU 0 instructions: 161501070 cycles: 80397080 heartbeat IPC: 2.648 cumulative IPC: 2.309 (Simulation time: 00 hr 22 min 39 sec)
Heartbeat CPU 0 instructions: 162001075 cycles: 80585098 heartbeat IPC: 2.659 cumulative IPC: 2.31 (Simulation time: 00 hr 22 min 42 sec)
Heartbeat CPU 0 instructions: 162501077 cycles: 80856038 heartbeat IPC: 1.845 cumulative IPC: 2.308 (Simulation time: 00 hr 22 min 46 sec)
Heartbeat CPU 0 instructions: 163001084 cycles: 81040580 heartbeat IPC: 2.709 cumulative IPC: 2.309 (Simulation time: 00 hr 22 min 49 sec)
Heartbeat CPU 0 instructions: 163501088 cycles: 81229786 heartbeat IPC: 2.643 cumulative IPC: 2.311 (Simulation time: 00 hr 22 min 52 sec)
Heartbeat CPU 0 instructions: 164001093 cycles: 81496263 heartbeat IPC: 1.876 cumulative IPC: 2.308 (Simulation time: 00 hr 22 min 56 sec)
Heartbeat CPU 0 instructions: 164501100 cycles: 81691931 heartbeat IPC: 2.555 cumulative IPC: 2.309 (Simulation time: 00 hr 22 min 59 sec)
Heartbeat CPU 0 instructions: 165001102 cycles: 81884369 heartbeat IPC: 2.598 cumulative IPC: 2.31 (Simulation time: 00 hr 23 min 03 sec)
Heartbeat CPU 0 instructions: 165501104 cycles: 82151387 heartbeat IPC: 1.873 cumulative IPC: 2.308 (Simulation time: 00 hr 23 min 07 sec)
Heartbeat CPU 0 instructions: 166001111 cycles: 82341055 heartbeat IPC: 2.636 cumulative IPC: 2.309 (Simulation time: 00 hr 23 min 10 sec)
Heartbeat CPU 0 instructions: 166501118 cycles: 82527207 heartbeat IPC: 2.686 cumulative IPC: 2.311 (Simulation time: 00 hr 23 min 13 sec)
Heartbeat CPU 0 instructions: 167001123 cycles: 82794908 heartbeat IPC: 1.868 cumulative IPC: 2.308 (Simulation time: 00 hr 23 min 17 sec)
Heartbeat CPU 0 instructions: 167501127 cycles: 82981659 heartbeat IPC: 2.677 cumulative IPC: 2.31 (Simulation time: 00 hr 23 min 20 sec)
Heartbeat CPU 0 instructions: 168001134 cycles: 83169949 heartbeat IPC: 2.656 cumulative IPC: 2.311 (Simulation time: 00 hr 23 min 23 sec)
Heartbeat CPU 0 instructions: 168501138 cycles: 83435247 heartbeat IPC: 1.885 cumulative IPC: 2.309 (Simulation time: 00 hr 23 min 27 sec)
Heartbeat CPU 0 instructions: 169001140 cycles: 83620846 heartbeat IPC: 2.694 cumulative IPC: 2.31 (Simulation time: 00 hr 23 min 30 sec)
Heartbeat CPU 0 instructions: 169501140 cycles: 83805404 heartbeat IPC: 2.709 cumulative IPC: 2.311 (Simulation time: 00 hr 23 min 33 sec)
Heartbeat CPU 0 instructions: 170001146 cycles: 84080988 heartbeat IPC: 1.814 cumulative IPC: 2.309 (Simulation time: 00 hr 23 min 37 sec)
Heartbeat CPU 0 instructions: 170501146 cycles: 84267583 heartbeat IPC: 2.68 cumulative IPC: 2.31 (Simulation time: 00 hr 23 min 41 sec)
Heartbeat CPU 0 instructions: 171001151 cycles: 84453783 heartbeat IPC: 2.685 cumulative IPC: 2.311 (Simulation time: 00 hr 23 min 44 sec)
Heartbeat CPU 0 instructions: 171501155 cycles: 84724429 heartbeat IPC: 1.847 cumulative IPC: 2.309 (Simulation time: 00 hr 23 min 48 sec)
Heartbeat CPU 0 instructions: 172001162 cycles: 84913874 heartbeat IPC: 2.639 cumulative IPC: 2.31 (Simulation time: 00 hr 23 min 51 sec)
Heartbeat CPU 0 instructions: 172501163 cycles: 85096182 heartbeat IPC: 2.743 cumulative IPC: 2.312 (Simulation time: 00 hr 23 min 54 sec)
Heartbeat CPU 0 instructions: 173001166 cycles: 85365954 heartbeat IPC: 1.853 cumulative IPC: 2.309 (Simulation time: 00 hr 23 min 58 sec)
Heartbeat CPU 0 instructions: 173501168 cycles: 85552477 heartbeat IPC: 2.681 cumulative IPC: 2.311 (Simulation time: 00 hr 24 min 01 sec)
Heartbeat CPU 0 instructions: 174001169 cycles: 85737738 heartbeat IPC: 2.699 cumulative IPC: 2.312 (Simulation time: 00 hr 24 min 04 sec)
Heartbeat CPU 0 instructions: 174501174 cycles: 86012747 heartbeat IPC: 1.818 cumulative IPC: 2.31 (Simulation time: 00 hr 24 min 08 sec)
Heartbeat CPU 0 instructions: 175001175 cycles: 86195781 heartbeat IPC: 2.732 cumulative IPC: 2.311 (Simulation time: 00 hr 24 min 11 sec)
Heartbeat CPU 0 instructions: 175501175 cycles: 86385251 heartbeat IPC: 2.639 cumulative IPC: 2.312 (Simulation time: 00 hr 24 min 14 sec)
Heartbeat CPU 0 instructions: 176001180 cycles: 86656363 heartbeat IPC: 1.844 cumulative IPC: 2.31 (Simulation time: 00 hr 24 min 18 sec)
Heartbeat CPU 0 instructions: 176501187 cycles: 86846444 heartbeat IPC: 2.63 cumulative IPC: 2.311 (Simulation time: 00 hr 24 min 21 sec)
Heartbeat CPU 0 instructions: 177001190 cycles: 87031064 heartbeat IPC: 2.708 cumulative IPC: 2.312 (Simulation time: 00 hr 24 min 24 sec)
Heartbeat CPU 0 instructions: 177501191 cycles: 87302082 heartbeat IPC: 1.845 cumulative IPC: 2.31 (Simulation time: 00 hr 24 min 28 sec)
Heartbeat CPU 0 instructions: 178001197 cycles: 87487119 heartbeat IPC: 2.702 cumulative IPC: 2.311 (Simulation time: 00 hr 24 min 31 sec)
Heartbeat CPU 0 instructions: 178501204 cycles: 87676997 heartbeat IPC: 2.633 cumulative IPC: 2.312 (Simulation time: 00 hr 24 min 34 sec)
Heartbeat CPU 0 instructions: 179001210 cycles: 87951986 heartbeat IPC: 1.818 cumulative IPC: 2.31 (Simulation time: 00 hr 24 min 38 sec)
Heartbeat CPU 0 instructions: 179501216 cycles: 88137281 heartbeat IPC: 2.698 cumulative IPC: 2.311 (Simulation time: 00 hr 24 min 41 sec)
Heartbeat CPU 0 instructions: 180001223 cycles: 88320978 heartbeat IPC: 2.722 cumulative IPC: 2.313 (Simulation time: 00 hr 24 min 45 sec)
Heartbeat CPU 0 instructions: 180501228 cycles: 88594132 heartbeat IPC: 1.83 cumulative IPC: 2.31 (Simulation time: 00 hr 24 min 48 sec)
Heartbeat CPU 0 instructions: 181001229 cycles: 88777358 heartbeat IPC: 2.729 cumulative IPC: 2.312 (Simulation time: 00 hr 24 min 51 sec)
Heartbeat CPU 0 instructions: 181501233 cycles: 88964513 heartbeat IPC: 2.672 cumulative IPC: 2.313 (Simulation time: 00 hr 24 min 55 sec)
Heartbeat CPU 0 instructions: 182001233 cycles: 89231456 heartbeat IPC: 1.873 cumulative IPC: 2.311 (Simulation time: 00 hr 24 min 59 sec)
Heartbeat CPU 0 instructions: 182501235 cycles: 89418058 heartbeat IPC: 2.68 cumulative IPC: 2.312 (Simulation time: 00 hr 25 min 02 sec)
Heartbeat CPU 0 instructions: 183001236 cycles: 89614297 heartbeat IPC: 2.548 cumulative IPC: 2.313 (Simulation time: 00 hr 25 min 05 sec)
Heartbeat CPU 0 instructions: 183501242 cycles: 89914617 heartbeat IPC: 1.665 cumulative IPC: 2.309 (Simulation time: 00 hr 25 min 09 sec)
Heartbeat CPU 0 instructions: 184001246 cycles: 90130531 heartbeat IPC: 2.316 cumulative IPC: 2.309 (Simulation time: 00 hr 25 min 12 sec)
Heartbeat CPU 0 instructions: 184501248 cycles: 90358070 heartbeat IPC: 2.197 cumulative IPC: 2.309 (Simulation time: 00 hr 25 min 16 sec)
Heartbeat CPU 0 instructions: 185001253 cycles: 90618354 heartbeat IPC: 1.921 cumulative IPC: 2.307 (Simulation time: 00 hr 25 min 20 sec)
Heartbeat CPU 0 instructions: 185501254 cycles: 90806034 heartbeat IPC: 2.664 cumulative IPC: 2.308 (Simulation time: 00 hr 25 min 23 sec)
Heartbeat CPU 0 instructions: 186001257 cycles: 91016997 heartbeat IPC: 2.37 cumulative IPC: 2.309 (Simulation time: 00 hr 25 min 26 sec)
Heartbeat CPU 0 instructions: 186501258 cycles: 91265549 heartbeat IPC: 2.012 cumulative IPC: 2.307 (Simulation time: 00 hr 25 min 30 sec)
Heartbeat CPU 0 instructions: 187001262 cycles: 91456540 heartbeat IPC: 2.618 cumulative IPC: 2.308 (Simulation time: 00 hr 25 min 33 sec)
Heartbeat CPU 0 instructions: 187501262 cycles: 91668041 heartbeat IPC: 2.364 cumulative IPC: 2.309 (Simulation time: 00 hr 25 min 36 sec)
Heartbeat CPU 0 instructions: 188001269 cycles: 91908050 heartbeat IPC: 2.083 cumulative IPC: 2.308 (Simulation time: 00 hr 25 min 40 sec)
Heartbeat CPU 0 instructions: 188501273 cycles: 92098262 heartbeat IPC: 2.629 cumulative IPC: 2.309 (Simulation time: 00 hr 25 min 43 sec)
Heartbeat CPU 0 instructions: 189001275 cycles: 92323581 heartbeat IPC: 2.219 cumulative IPC: 2.308 (Simulation time: 00 hr 25 min 46 sec)
Heartbeat CPU 0 instructions: 189501275 cycles: 92555252 heartbeat IPC: 2.158 cumulative IPC: 2.308 (Simulation time: 00 hr 25 min 50 sec)
Heartbeat CPU 0 instructions: 190001278 cycles: 92744253 heartbeat IPC: 2.646 cumulative IPC: 2.309 (Simulation time: 00 hr 25 min 53 sec)
Heartbeat CPU 0 instructions: 190501278 cycles: 92975236 heartbeat IPC: 2.165 cumulative IPC: 2.308 (Simulation time: 00 hr 25 min 56 sec)
Heartbeat CPU 0 instructions: 191001278 cycles: 93195086 heartbeat IPC: 2.274 cumulative IPC: 2.308 (Simulation time: 00 hr 26 min 00 sec)
Heartbeat CPU 0 instructions: 191501282 cycles: 93382501 heartbeat IPC: 2.668 cumulative IPC: 2.309 (Simulation time: 00 hr 26 min 03 sec)
Heartbeat CPU 0 instructions: 192001289 cycles: 93622719 heartbeat IPC: 2.081 cumulative IPC: 2.308 (Simulation time: 00 hr 26 min 06 sec)
Heartbeat CPU 0 instructions: 192501293 cycles: 93836188 heartbeat IPC: 2.342 cumulative IPC: 2.308 (Simulation time: 00 hr 26 min 10 sec)
Heartbeat CPU 0 instructions: 193001297 cycles: 94021460 heartbeat IPC: 2.699 cumulative IPC: 2.31 (Simulation time: 00 hr 26 min 13 sec)
Heartbeat CPU 0 instructions: 193501299 cycles: 94272763 heartbeat IPC: 1.99 cumulative IPC: 2.308 (Simulation time: 00 hr 26 min 16 sec)
Heartbeat CPU 0 instructions: 194001302 cycles: 94477410 heartbeat IPC: 2.443 cumulative IPC: 2.309 (Simulation time: 00 hr 26 min 20 sec)
Heartbeat CPU 0 instructions: 194501305 cycles: 94665097 heartbeat IPC: 2.664 cumulative IPC: 2.31 (Simulation time: 00 hr 26 min 23 sec)
Heartbeat CPU 0 instructions: 195001310 cycles: 94929139 heartbeat IPC: 1.894 cumulative IPC: 2.308 (Simulation time: 00 hr 26 min 26 sec)
Heartbeat CPU 0 instructions: 195501310 cycles: 95127310 heartbeat IPC: 2.523 cumulative IPC: 2.309 (Simulation time: 00 hr 26 min 29 sec)
Heartbeat CPU 0 instructions: 196001313 cycles: 95312166 heartbeat IPC: 2.705 cumulative IPC: 2.31 (Simulation time: 00 hr 26 min 32 sec)
Heartbeat CPU 0 instructions: 196501313 cycles: 95583970 heartbeat IPC: 1.84 cumulative IPC: 2.308 (Simulation time: 00 hr 26 min 36 sec)
Heartbeat CPU 0 instructions: 197001313 cycles: 95768585 heartbeat IPC: 2.708 cumulative IPC: 2.309 (Simulation time: 00 hr 26 min 39 sec)
Heartbeat CPU 0 instructions: 197501320 cycles: 95953578 heartbeat IPC: 2.703 cumulative IPC: 2.31 (Simulation time: 00 hr 26 min 42 sec)
Heartbeat CPU 0 instructions: 198001325 cycles: 96223475 heartbeat IPC: 1.853 cumulative IPC: 2.308 (Simulation time: 00 hr 26 min 46 sec)
Heartbeat CPU 0 instructions: 198501329 cycles: 96406642 heartbeat IPC: 2.73 cumulative IPC: 2.309 (Simulation time: 00 hr 26 min 49 sec)
Heartbeat CPU 0 instructions: 199001330 cycles: 96589813 heartbeat IPC: 2.73 cumulative IPC: 2.311 (Simulation time: 00 hr 26 min 52 sec)
Heartbeat CPU 0 instructions: 199501336 cycles: 96860800 heartbeat IPC: 1.845 cumulative IPC: 2.309 (Simulation time: 00 hr 26 min 56 sec)
Heartbeat CPU 0 instructions: 200001336 cycles: 97046823 heartbeat IPC: 2.688 cumulative IPC: 2.31 (Simulation time: 00 hr 26 min 59 sec)
Heartbeat CPU 0 instructions: 200501338 cycles: 97230504 heartbeat IPC: 2.722 cumulative IPC: 2.311 (Simulation time: 00 hr 27 min 02 sec)
Heartbeat CPU 0 instructions: 201001341 cycles: 97499651 heartbeat IPC: 1.858 cumulative IPC: 2.309 (Simulation time: 00 hr 27 min 06 sec)
Heartbeat CPU 0 instructions: 201501345 cycles: 97685035 heartbeat IPC: 2.697 cumulative IPC: 2.31 (Simulation time: 00 hr 27 min 09 sec)
Heartbeat CPU 0 instructions: 202001352 cycles: 97869719 heartbeat IPC: 2.707 cumulative IPC: 2.311 (Simulation time: 00 hr 27 min 12 sec)
Heartbeat CPU 0 instructions: 202501352 cycles: 98139564 heartbeat IPC: 1.853 cumulative IPC: 2.309 (Simulation time: 00 hr 27 min 15 sec)
Heartbeat CPU 0 instructions: 203001353 cycles: 98325253 heartbeat IPC: 2.693 cumulative IPC: 2.311 (Simulation time: 00 hr 27 min 18 sec)
Heartbeat CPU 0 instructions: 203501353 cycles: 98509096 heartbeat IPC: 2.72 cumulative IPC: 2.312 (Simulation time: 00 hr 27 min 21 sec)
Heartbeat CPU 0 instructions: 204001355 cycles: 98778475 heartbeat IPC: 1.856 cumulative IPC: 2.31 (Simulation time: 00 hr 27 min 25 sec)
Heartbeat CPU 0 instructions: 204501356 cycles: 98964470 heartbeat IPC: 2.688 cumulative IPC: 2.311 (Simulation time: 00 hr 27 min 28 sec)
Heartbeat CPU 0 instructions: 205001357 cycles: 99149535 heartbeat IPC: 2.702 cumulative IPC: 2.312 (Simulation time: 00 hr 27 min 31 sec)
Heartbeat CPU 0 instructions: 205501360 cycles: 99424665 heartbeat IPC: 1.817 cumulative IPC: 2.31 (Simulation time: 00 hr 27 min 35 sec)
Heartbeat CPU 0 instructions: 206001361 cycles: 99610201 heartbeat IPC: 2.695 cumulative IPC: 2.311 (Simulation time: 00 hr 27 min 38 sec)
Heartbeat CPU 0 instructions: 206501361 cycles: 99795688 heartbeat IPC: 2.696 cumulative IPC: 2.312 (Simulation time: 00 hr 27 min 41 sec)
Heartbeat CPU 0 instructions: 207001368 cycles: 100071662 heartbeat IPC: 1.812 cumulative IPC: 2.31 (Simulation time: 00 hr 27 min 45 sec)
Heartbeat CPU 0 instructions: 207501369 cycles: 100296252 heartbeat IPC: 2.226 cumulative IPC: 2.31 (Simulation time: 00 hr 27 min 48 sec)
Heartbeat CPU 0 instructions: 208001369 cycles: 100515189 heartbeat IPC: 2.284 cumulative IPC: 2.31 (Simulation time: 00 hr 27 min 52 sec)
Heartbeat CPU 0 instructions: 208501370 cycles: 100797986 heartbeat IPC: 1.768 cumulative IPC: 2.307 (Simulation time: 00 hr 27 min 56 sec)
Heartbeat CPU 0 instructions: 209001376 cycles: 100984906 heartbeat IPC: 2.675 cumulative IPC: 2.308 (Simulation time: 00 hr 27 min 59 sec)
Heartbeat CPU 0 instructions: 209501380 cycles: 101173201 heartbeat IPC: 2.655 cumulative IPC: 2.309 (Simulation time: 00 hr 28 min 02 sec)
Heartbeat CPU 0 instructions: 210001387 cycles: 101442549 heartbeat IPC: 1.856 cumulative IPC: 2.308 (Simulation time: 00 hr 28 min 05 sec)
Heartbeat CPU 0 instructions: 210501389 cycles: 101630131 heartbeat IPC: 2.666 cumulative IPC: 2.309 (Simulation time: 00 hr 28 min 08 sec)
Heartbeat CPU 0 instructions: 211001390 cycles: 101815990 heartbeat IPC: 2.69 cumulative IPC: 2.31 (Simulation time: 00 hr 28 min 11 sec)
Heartbeat CPU 0 instructions: 211501392 cycles: 102086343 heartbeat IPC: 1.849 cumulative IPC: 2.308 (Simulation time: 00 hr 28 min 15 sec)
Heartbeat CPU 0 instructions: 212001392 cycles: 102273224 heartbeat IPC: 2.675 cumulative IPC: 2.309 (Simulation time: 00 hr 28 min 18 sec)
Heartbeat CPU 0 instructions: 212501396 cycles: 102461182 heartbeat IPC: 2.66 cumulative IPC: 2.31 (Simulation time: 00 hr 28 min 21 sec)
Heartbeat CPU 0 instructions: 213001400 cycles: 102728540 heartbeat IPC: 1.87 cumulative IPC: 2.308 (Simulation time: 00 hr 28 min 25 sec)
Heartbeat CPU 0 instructions: 213501403 cycles: 102914519 heartbeat IPC: 2.688 cumulative IPC: 2.309 (Simulation time: 00 hr 28 min 28 sec)
Heartbeat CPU 0 instructions: 214001404 cycles: 103103452 heartbeat IPC: 2.646 cumulative IPC: 2.31 (Simulation time: 00 hr 28 min 31 sec)
Heartbeat CPU 0 instructions: 214501409 cycles: 103369359 heartbeat IPC: 1.88 cumulative IPC: 2.308 (Simulation time: 00 hr 28 min 35 sec)
Heartbeat CPU 0 instructions: 215001411 cycles: 103553703 heartbeat IPC: 2.712 cumulative IPC: 2.309 (Simulation time: 00 hr 28 min 38 sec)
Heartbeat CPU 0 instructions: 215501417 cycles: 103743706 heartbeat IPC: 2.632 cumulative IPC: 2.31 (Simulation time: 00 hr 28 min 41 sec)
Heartbeat CPU 0 instructions: 216001417 cycles: 104008289 heartbeat IPC: 1.89 cumulative IPC: 2.309 (Simulation time: 00 hr 28 min 44 sec)
Heartbeat CPU 0 instructions: 216501424 cycles: 104194642 heartbeat IPC: 2.683 cumulative IPC: 2.31 (Simulation time: 00 hr 28 min 47 sec)
Heartbeat CPU 0 instructions: 217001424 cycles: 104382781 heartbeat IPC: 2.658 cumulative IPC: 2.311 (Simulation time: 00 hr 28 min 50 sec)
Heartbeat CPU 0 instructions: 217501431 cycles: 104653549 heartbeat IPC: 1.847 cumulative IPC: 2.309 (Simulation time: 00 hr 28 min 54 sec)
Heartbeat CPU 0 instructions: 218001432 cycles: 104841353 heartbeat IPC: 2.662 cumulative IPC: 2.31 (Simulation time: 00 hr 28 min 57 sec)
Heartbeat CPU 0 instructions: 218501439 cycles: 105028801 heartbeat IPC: 2.667 cumulative IPC: 2.311 (Simulation time: 00 hr 29 min 00 sec)
Heartbeat CPU 0 instructions: 219001442 cycles: 105297707 heartbeat IPC: 1.859 cumulative IPC: 2.309 (Simulation time: 00 hr 29 min 04 sec)
Heartbeat CPU 0 instructions: 219501448 cycles: 105485057 heartbeat IPC: 2.669 cumulative IPC: 2.31 (Simulation time: 00 hr 29 min 07 sec)
Heartbeat CPU 0 instructions: 220001453 cycles: 105673192 heartbeat IPC: 2.658 cumulative IPC: 2.311 (Simulation time: 00 hr 29 min 10 sec)
Heartbeat CPU 0 instructions: 220501458 cycles: 105944315 heartbeat IPC: 1.844 cumulative IPC: 2.309 (Simulation time: 00 hr 29 min 14 sec)
Heartbeat CPU 0 instructions: 221001460 cycles: 106131474 heartbeat IPC: 2.672 cumulative IPC: 2.31 (Simulation time: 00 hr 29 min 17 sec)
Heartbeat CPU 0 instructions: 221501464 cycles: 106318280 heartbeat IPC: 2.677 cumulative IPC: 2.311 (Simulation time: 00 hr 29 min 19 sec)
Heartbeat CPU 0 instructions: 222001466 cycles: 106587655 heartbeat IPC: 1.856 cumulative IPC: 2.309 (Simulation time: 00 hr 29 min 23 sec)
Heartbeat CPU 0 instructions: 222501472 cycles: 106775112 heartbeat IPC: 2.667 cumulative IPC: 2.31 (Simulation time: 00 hr 29 min 26 sec)
Heartbeat CPU 0 instructions: 223001474 cycles: 106959868 heartbeat IPC: 2.706 cumulative IPC: 2.311 (Simulation time: 00 hr 29 min 29 sec)
Heartbeat CPU 0 instructions: 223501474 cycles: 107229258 heartbeat IPC: 1.856 cumulative IPC: 2.31 (Simulation time: 00 hr 29 min 33 sec)
Heartbeat CPU 0 instructions: 224001481 cycles: 107414399 heartbeat IPC: 2.701 cumulative IPC: 2.311 (Simulation time: 00 hr 29 min 36 sec)
Heartbeat CPU 0 instructions: 224501485 cycles: 107597731 heartbeat IPC: 2.727 cumulative IPC: 2.312 (Simulation time: 00 hr 29 min 39 sec)
Heartbeat CPU 0 instructions: 225001487 cycles: 107865008 heartbeat IPC: 1.871 cumulative IPC: 2.31 (Simulation time: 00 hr 29 min 43 sec)
Heartbeat CPU 0 instructions: 225501491 cycles: 108050934 heartbeat IPC: 2.689 cumulative IPC: 2.311 (Simulation time: 00 hr 29 min 46 sec)
Heartbeat CPU 0 instructions: 226001496 cycles: 108236581 heartbeat IPC: 2.693 cumulative IPC: 2.312 (Simulation time: 00 hr 29 min 49 sec)
Heartbeat CPU 0 instructions: 226501496 cycles: 108509309 heartbeat IPC: 1.833 cumulative IPC: 2.31 (Simulation time: 00 hr 29 min 52 sec)
Heartbeat CPU 0 instructions: 227001500 cycles: 108694439 heartbeat IPC: 2.701 cumulative IPC: 2.311 (Simulation time: 00 hr 29 min 55 sec)
Heartbeat CPU 0 instructions: 227501507 cycles: 108878381 heartbeat IPC: 2.718 cumulative IPC: 2.312 (Simulation time: 00 hr 29 min 58 sec)
Heartbeat CPU 0 instructions: 228001511 cycles: 109155011 heartbeat IPC: 1.807 cumulative IPC: 2.31 (Simulation time: 00 hr 30 min 02 sec)
Heartbeat CPU 0 instructions: 228501516 cycles: 109340218 heartbeat IPC: 2.7 cumulative IPC: 2.311 (Simulation time: 00 hr 30 min 05 sec)
Heartbeat CPU 0 instructions: 229001517 cycles: 109526429 heartbeat IPC: 2.685 cumulative IPC: 2.312 (Simulation time: 00 hr 30 min 08 sec)
Heartbeat CPU 0 instructions: 229501519 cycles: 109790199 heartbeat IPC: 1.896 cumulative IPC: 2.311 (Simulation time: 00 hr 30 min 12 sec)
Heartbeat CPU 0 instructions: 230001522 cycles: 109975622 heartbeat IPC: 2.697 cumulative IPC: 2.312 (Simulation time: 00 hr 30 min 15 sec)
Heartbeat CPU 0 instructions: 230501527 cycles: 110160351 heartbeat IPC: 2.707 cumulative IPC: 2.313 (Simulation time: 00 hr 30 min 18 sec)
Heartbeat CPU 0 instructions: 231001530 cycles: 110452379 heartbeat IPC: 1.712 cumulative IPC: 2.31 (Simulation time: 00 hr 30 min 22 sec)
Heartbeat CPU 0 instructions: 231501530 cycles: 110668617 heartbeat IPC: 2.312 cumulative IPC: 2.31 (Simulation time: 00 hr 30 min 25 sec)
Heartbeat CPU 0 instructions: 232001536 cycles: 110893630 heartbeat IPC: 2.222 cumulative IPC: 2.31 (Simulation time: 00 hr 30 min 28 sec)
Heartbeat CPU 0 instructions: 232501538 cycles: 111166631 heartbeat IPC: 1.832 cumulative IPC: 2.308 (Simulation time: 00 hr 30 min 32 sec)
Heartbeat CPU 0 instructions: 233001540 cycles: 111354927 heartbeat IPC: 2.655 cumulative IPC: 2.309 (Simulation time: 00 hr 30 min 35 sec)
Heartbeat CPU 0 instructions: 233501540 cycles: 111547657 heartbeat IPC: 2.594 cumulative IPC: 2.31 (Simulation time: 00 hr 30 min 38 sec)
Heartbeat CPU 0 instructions: 234001542 cycles: 111819186 heartbeat IPC: 1.841 cumulative IPC: 2.308 (Simulation time: 00 hr 30 min 42 sec)
Heartbeat CPU 0 instructions: 234501543 cycles: 112006800 heartbeat IPC: 2.665 cumulative IPC: 2.309 (Simulation time: 00 hr 30 min 45 sec)
Heartbeat CPU 0 instructions: 235001550 cycles: 112191620 heartbeat IPC: 2.705 cumulative IPC: 2.31 (Simulation time: 00 hr 30 min 48 sec)
Heartbeat CPU 0 instructions: 235501556 cycles: 112456893 heartbeat IPC: 1.885 cumulative IPC: 2.309 (Simulation time: 00 hr 30 min 52 sec)
Heartbeat CPU 0 instructions: 236001563 cycles: 112645074 heartbeat IPC: 2.657 cumulative IPC: 2.309 (Simulation time: 00 hr 30 min 55 sec)
Heartbeat CPU 0 instructions: 236501567 cycles: 112837662 heartbeat IPC: 2.596 cumulative IPC: 2.31 (Simulation time: 00 hr 30 min 58 sec)
Heartbeat CPU 0 instructions: 237001571 cycles: 113104303 heartbeat IPC: 1.875 cumulative IPC: 2.309 (Simulation time: 00 hr 31 min 01 sec)
Heartbeat CPU 0 instructions: 237501576 cycles: 113292050 heartbeat IPC: 2.663 cumulative IPC: 2.31 (Simulation time: 00 hr 31 min 04 sec)
Heartbeat CPU 0 instructions: 238001579 cycles: 113478610 heartbeat IPC: 2.68 cumulative IPC: 2.31 (Simulation time: 00 hr 31 min 07 sec)
Heartbeat CPU 0 instructions: 238501585 cycles: 113746218 heartbeat IPC: 1.868 cumulative IPC: 2.309 (Simulation time: 00 hr 31 min 11 sec)
Heartbeat CPU 0 instructions: 239001592 cycles: 113931653 heartbeat IPC: 2.696 cumulative IPC: 2.31 (Simulation time: 00 hr 31 min 14 sec)
Heartbeat CPU 0 instructions: 239501599 cycles: 114117701 heartbeat IPC: 2.688 cumulative IPC: 2.311 (Simulation time: 00 hr 31 min 17 sec)
Heartbeat CPU 0 instructions: 240001603 cycles: 114384221 heartbeat IPC: 1.876 cumulative IPC: 2.309 (Simulation time: 00 hr 31 min 21 sec)
Heartbeat CPU 0 instructions: 240501605 cycles: 114569381 heartbeat IPC: 2.7 cumulative IPC: 2.31 (Simulation time: 00 hr 31 min 24 sec)
Heartbeat CPU 0 instructions: 241001609 cycles: 114758068 heartbeat IPC: 2.65 cumulative IPC: 2.311 (Simulation time: 00 hr 31 min 27 sec)
Heartbeat CPU 0 instructions: 241501612 cycles: 115029415 heartbeat IPC: 1.843 cumulative IPC: 2.309 (Simulation time: 00 hr 31 min 31 sec)
Heartbeat CPU 0 instructions: 242001618 cycles: 115216141 heartbeat IPC: 2.678 cumulative IPC: 2.31 (Simulation time: 00 hr 31 min 34 sec)
Heartbeat CPU 0 instructions: 242501618 cycles: 115402012 heartbeat IPC: 2.69 cumulative IPC: 2.311 (Simulation time: 00 hr 31 min 36 sec)
Heartbeat CPU 0 instructions: 243001618 cycles: 115684028 heartbeat IPC: 1.773 cumulative IPC: 2.309 (Simulation time: 00 hr 31 min 40 sec)
Heartbeat CPU 0 instructions: 243501619 cycles: 115870021 heartbeat IPC: 2.688 cumulative IPC: 2.31 (Simulation time: 00 hr 31 min 43 sec)
Heartbeat CPU 0 instructions: 244001620 cycles: 116059835 heartbeat IPC: 2.634 cumulative IPC: 2.311 (Simulation time: 00 hr 31 min 46 sec)
Heartbeat CPU 0 instructions: 244501620 cycles: 116339272 heartbeat IPC: 1.789 cumulative IPC: 2.309 (Simulation time: 00 hr 31 min 50 sec)
Heartbeat CPU 0 instructions: 245001627 cycles: 116522980 heartbeat IPC: 2.722 cumulative IPC: 2.31 (Simulation time: 00 hr 31 min 53 sec)
Heartbeat CPU 0 instructions: 245501629 cycles: 116713018 heartbeat IPC: 2.631 cumulative IPC: 2.311 (Simulation time: 00 hr 31 min 56 sec)
Heartbeat CPU 0 instructions: 246001631 cycles: 116984081 heartbeat IPC: 1.845 cumulative IPC: 2.309 (Simulation time: 00 hr 32 min 00 sec)
Heartbeat CPU 0 instructions: 246501638 cycles: 117169404 heartbeat IPC: 2.698 cumulative IPC: 2.31 (Simulation time: 00 hr 32 min 03 sec)
Heartbeat CPU 0 instructions: 247001643 cycles: 117355218 heartbeat IPC: 2.691 cumulative IPC: 2.311 (Simulation time: 00 hr 32 min 06 sec)
Heartbeat CPU 0 instructions: 247501645 cycles: 117629331 heartbeat IPC: 1.824 cumulative IPC: 2.309 (Simulation time: 00 hr 32 min 10 sec)
Heartbeat CPU 0 instructions: 248001649 cycles: 117814568 heartbeat IPC: 2.699 cumulative IPC: 2.31 (Simulation time: 00 hr 32 min 13 sec)
Heartbeat CPU 0 instructions: 248501653 cycles: 117998519 heartbeat IPC: 2.718 cumulative IPC: 2.311 (Simulation time: 00 hr 32 min 16 sec)
Heartbeat CPU 0 instructions: 249001653 cycles: 118270743 heartbeat IPC: 1.837 cumulative IPC: 2.31 (Simulation time: 00 hr 32 min 19 sec)
Heartbeat CPU 0 instructions: 249501659 cycles: 118459137 heartbeat IPC: 2.654 cumulative IPC: 2.31 (Simulation time: 00 hr 32 min 22 sec)
Simulation finished CPU 0 instructions: 200000000 cycles: 86538841 cumulative IPC: 2.311 (Simulation time: 00 hr 32 min 25 sec)
Simulation complete CPU 0 instructions: 200000000 cycles: 86538841 cumulative IPC: 2.311 (Simulation time: 00 hr 32 min 25 sec)

ChampSim completed all CPUs

=== Simulation ===
CPU 0 runs /local-ssd/ben/dpc4-traces/ai-ml/stable-diffusion.cpp-sd-v1-4.ckpt.1.champsimtrace.gz

Region of Interest Statistics

CPU 0 cumulative IPC: 2.311 instructions: 200000000 cycles: 86538841
CPU 0 Branch Prediction Accuracy: 99.71% MPKI: 0.1832 Average ROB Occupancy at Mispredict: 523.3
Branch type MPKI
BRANCH_DIRECT_JUMP: 0
BRANCH_INDIRECT: 0
BRANCH_CONDITIONAL: 0.1832
BRANCH_DIRECT_CALL: 0
BRANCH_INDIRECT_CALL: 0
BRANCH_RETURN: 0

cpu0->cpu0_STLB TOTAL        ACCESS:     423740 HIT:     398132 MISS:      25608 MSHR_MERGE:          0
cpu0->cpu0_STLB LOAD         ACCESS:     423740 HIT:     398132 MISS:      25608 MSHR_MERGE:          0
cpu0->cpu0_STLB RFO          ACCESS:          0 HIT:          0 MISS:          0 MSHR_MERGE:          0
cpu0->cpu0_STLB PREFETCH     ACCESS:          0 HIT:          0 MISS:          0 MSHR_MERGE:          0
cpu0->cpu0_STLB WRITE        ACCESS:          0 HIT:          0 MISS:          0 MSHR_MERGE:          0
cpu0->cpu0_STLB TRANSLATION  ACCESS:          0 HIT:          0 MISS:          0 MSHR_MERGE:          0
cpu0->cpu0_STLB PREFETCH REQUESTED:          0 ISSUED:          0 USEFUL:          0 USELESS:          0
cpu0->cpu0_STLB AVERAGE MISS LATENCY: 61.02 cycles
cpu0->cpu0_L2C TOTAL        ACCESS:   65500462 HIT:   59893124 MISS:    5607338 MSHR_MERGE:    3155683
cpu0->cpu0_L2C LOAD         ACCESS:   31071809 HIT:   29204247 MISS:    1867562 MSHR_MERGE:     898866
cpu0->cpu0_L2C RFO          ACCESS:      35861 HIT:      33713 MISS:       2148 MSHR_MERGE:          0
cpu0->cpu0_L2C PREFETCH     ACCESS:   34313855 HIT:   30579457 MISS:    3734398 MSHR_MERGE:    2256817
cpu0->cpu0_L2C WRITE        ACCESS:      75457 HIT:      75457 MISS:          0 MSHR_MERGE:          0
cpu0->cpu0_L2C TRANSLATION  ACCESS:       3480 HIT:        250 MISS:       3230 MSHR_MERGE:          0
cpu0->cpu0_L2C PREFETCH REQUESTED:  106054292 ISSUED:   15314086 USEFUL:    1081314 USELESS:       1362
cpu0->cpu0_L2C AVERAGE MISS LATENCY: 115.2 cycles
cpu0->cpu0_L1I TOTAL        ACCESS:   49407126 HIT:   49407126 MISS:          0 MSHR_MERGE:          0
cpu0->cpu0_L1I LOAD         ACCESS:   49407126 HIT:   49407126 MISS:          0 MSHR_MERGE:          0
cpu0->cpu0_L1I RFO          ACCESS:          0 HIT:          0 MISS:          0 MSHR_MERGE:          0
cpu0->cpu0_L1I PREFETCH     ACCESS:          0 HIT:          0 MISS:          0 MSHR_MERGE:          0
cpu0->cpu0_L1I WRITE        ACCESS:          0 HIT:          0 MISS:          0 MSHR_MERGE:          0
cpu0->cpu0_L1I TRANSLATION  ACCESS:          0 HIT:          0 MISS:          0 MSHR_MERGE:          0
cpu0->cpu0_L1I PREFETCH REQUESTED:          0 ISSUED:          0 USEFUL:          0 USELESS:          0
cpu0->cpu0_L1I AVERAGE MISS LATENCY: - cycles
cpu0->cpu0_L1D TOTAL        ACCESS:   80995693 HIT:   27983222 MISS:   53012471 MSHR_MERGE:    2901533
cpu0->cpu0_L1D LOAD         ACCESS:   59587350 HIT:   26308334 MISS:   33279016 MSHR_MERGE:    2207202
cpu0->cpu0_L1D RFO          ACCESS:          0 HIT:          0 MISS:          0 MSHR_MERGE:          0
cpu0->cpu0_L1D PREFETCH     ACCESS:   21195799 HIT:    1504519 MISS:   19691280 MSHR_MERGE:     691497
cpu0->cpu0_L1D WRITE        ACCESS:     161332 HIT:     122645 MISS:      38687 MSHR_MERGE:       2826
cpu0->cpu0_L1D TRANSLATION  ACCESS:      51212 HIT:      47724 MISS:       3488 MSHR_MERGE:          8
cpu0->cpu0_L1D PREFETCH REQUESTED:   86854206 ISSUED:   21195800 USEFUL:   18527314 USELESS:     472547
cpu0->cpu0_L1D AVERAGE MISS LATENCY: 15.57 cycles
cpu0->cpu0_ITLB TOTAL        ACCESS:   33013087 HIT:   33013087 MISS:          0 MSHR_MERGE:          0
cpu0->cpu0_ITLB LOAD         ACCESS:   33013087 HIT:   33013087 MISS:          0 MSHR_MERGE:          0
cpu0->cpu0_ITLB RFO          ACCESS:          0 HIT:          0 MISS:          0 MSHR_MERGE:          0
cpu0->cpu0_ITLB PREFETCH     ACCESS:          0 HIT:          0 MISS:          0 MSHR_MERGE:          0
cpu0->cpu0_ITLB WRITE        ACCESS:          0 HIT:          0 MISS:          0 MSHR_MERGE:          0
cpu0->cpu0_ITLB TRANSLATION  ACCESS:          0 HIT:          0 MISS:          0 MSHR_MERGE:          0
cpu0->cpu0_ITLB PREFETCH REQUESTED:          0 ISSUED:          0 USEFUL:          0 USELESS:          0
cpu0->cpu0_ITLB AVERAGE MISS LATENCY: - cycles
cpu0->cpu0_DTLB TOTAL        ACCESS:   67171627 HIT:   66366798 MISS:     804829 MSHR_MERGE:     381089
cpu0->cpu0_DTLB LOAD         ACCESS:   67171627 HIT:   66366798 MISS:     804829 MSHR_MERGE:     381089
cpu0->cpu0_DTLB RFO          ACCESS:          0 HIT:          0 MISS:          0 MSHR_MERGE:          0
cpu0->cpu0_DTLB PREFETCH     ACCESS:          0 HIT:          0 MISS:          0 MSHR_MERGE:          0
cpu0->cpu0_DTLB WRITE        ACCESS:          0 HIT:          0 MISS:          0 MSHR_MERGE:          0
cpu0->cpu0_DTLB TRANSLATION  ACCESS:          0 HIT:          0 MISS:          0 MSHR_MERGE:          0
cpu0->cpu0_DTLB PREFETCH REQUESTED:          0 ISSUED:          0 USEFUL:          0 USELESS:          0
cpu0->cpu0_DTLB AVERAGE MISS LATENCY: 8.748 cycles
cpu0->LLC TOTAL        ACCESS:    4822563 HIT:    1502193 MISS:    3320370 MSHR_MERGE:    1587488
cpu0->LLC LOAD         ACCESS:     968696 HIT:     361992 MISS:     606704 MSHR_MERGE:     416389
cpu0->LLC RFO          ACCESS:       2148 HIT:          0 MISS:       2148 MSHR_MERGE:          0
cpu0->LLC PREFETCH     ACCESS:    3846311 HIT:    1138488 MISS:    2707823 MSHR_MERGE:    1171099
cpu0->LLC WRITE        ACCESS:       2178 HIT:       1706 MISS:        472 MSHR_MERGE:          0
cpu0->LLC TRANSLATION  ACCESS:       3230 HIT:          7 MISS:       3223 MSHR_MERGE:          0
cpu0->LLC PREFETCH REQUESTED:    2395543 ISSUED:    2368730 USEFUL:     502651 USELESS:     814644
cpu0->LLC AVERAGE MISS LATENCY: 154 cycles

DRAM Statistics

Channel 0 RQ ROW_BUFFER_HIT:     779012
  ROW_BUFFER_MISS:     953398
  AVG DBUS CONGESTED CYCLE: 4.062
Channel 0 WQ ROW_BUFFER_HIT:        529
  ROW_BUFFER_MISS:       1554
  FULL:          0
Channel 0 REFRESHES ISSUED:       7211
