[VMEM] WARNING: physical memory size is smaller than virtual memory size.

*** ChampSim Multicore Out-of-Order Simulator ***
Warmup Instructions: 50000000
Simulation Instructions: 200000000
Number of CPUs: 1
Page size: 4096
Core 0: /local-ssd/ben/dpc4-traces/ai-ml/rwkv_trace_2.champsimtrace.gz
Off-chip DRAM Size: 64 GiB Channels: 1 Width: 64-bit Data Rate: 4807 MT/s
Heartbeat CPU 0 instructions: 500003 cycles: 300958 heartbeat IPC: 1.661 cumulative IPC: 1.661 (Simulation time: 00 hr 00 min 05 sec)
Heartbeat CPU 0 instructions: 1000003 cycles: 555863 heartbeat IPC: 1.962 cumulative IPC: 1.799 (Simulation time: 00 hr 00 min 09 sec)
Heartbeat CPU 0 instructions: 1500008 cycles: 822607 heartbeat IPC: 1.874 cumulative IPC: 1.823 (Simulation time: 00 hr 00 min 13 sec)
Heartbeat CPU 0 instructions: 2000008 cycles: 1089647 heartbeat IPC: 1.872 cumulative IPC: 1.835 (Simulation time: 00 hr 00 min 18 sec)
Heartbeat CPU 0 instructions: 2500009 cycles: 1304820 heartbeat IPC: 2.324 cumulative IPC: 1.916 (Simulation time: 00 hr 00 min 22 sec)
Heartbeat CPU 0 instructions: 3000009 cycles: 1570581 heartbeat IPC: 1.881 cumulative IPC: 1.91 (Simulation time: 00 hr 00 min 26 sec)
Heartbeat CPU 0 instructions: 3500014 cycles: 1809078 heartbeat IPC: 2.096 cumulative IPC: 1.935 (Simulation time: 00 hr 00 min 30 sec)
Heartbeat CPU 0 instructions: 4000014 cycles: 2022636 heartbeat IPC: 2.341 cumulative IPC: 1.978 (Simulation time: 00 hr 00 min 34 sec)
Heartbeat CPU 0 instructions: 4500014 cycles: 2288662 heartbeat IPC: 1.88 cumulative IPC: 1.966 (Simulation time: 00 hr 00 min 38 sec)
Heartbeat CPU 0 instructions: 5000015 cycles: 2531087 heartbeat IPC: 2.062 cumulative IPC: 1.975 (Simulation time: 00 hr 00 min 42 sec)
Heartbeat CPU 0 instructions: 5500015 cycles: 2797299 heartbeat IPC: 1.878 cumulative IPC: 1.966 (Simulation time: 00 hr 00 min 47 sec)
Heartbeat CPU 0 instructions: 6000016 cycles: 3065480 heartbeat IPC: 1.864 cumulative IPC: 1.957 (Simulation time: 00 hr 00 min 51 sec)
Heartbeat CPU 0 instructions: 6500017 cycles: 3238039 heartbeat IPC: 2.898 cumulative IPC: 2.007 (Simulation time: 00 hr 00 min 54 sec)
Heartbeat CPU 0 instructions: 7000018 cycles: 3504258 heartbeat IPC: 1.878 cumulative IPC: 1.998 (Simulation time: 00 hr 00 min 59 sec)
Heartbeat CPU 0 instructions: 7500019 cycles: 3771304 heartbeat IPC: 1.872 cumulative IPC: 1.989 (Simulation time: 00 hr 01 min 03 sec)
Heartbeat CPU 0 instructions: 8000019 cycles: 3984818 heartbeat IPC: 2.342 cumulative IPC: 2.008 (Simulation time: 00 hr 01 min 07 sec)
Heartbeat CPU 0 instructions: 8500019 cycles: 4251398 heartbeat IPC: 1.876 cumulative IPC: 1.999 (Simulation time: 00 hr 01 min 11 sec)
Heartbeat CPU 0 instructions: 9000021 cycles: 4518042 heartbeat IPC: 1.875 cumulative IPC: 1.992 (Simulation time: 00 hr 01 min 16 sec)
Heartbeat CPU 0 instructions: 9500021 cycles: 4785454 heartbeat IPC: 1.87 cumulative IPC: 1.985 (Simulation time: 00 hr 01 min 21 sec)
Heartbeat CPU 0 instructions: 10000027 cycles: 5051224 heartbeat IPC: 1.881 cumulative IPC: 1.98 (Simulation time: 00 hr 01 min 25 sec)
Heartbeat CPU 0 instructions: 10500032 cycles: 5317240 heartbeat IPC: 1.88 cumulative IPC: 1.975 (Simulation time: 00 hr 01 min 30 sec)
Heartbeat CPU 0 instructions: 11000032 cycles: 5583788 heartbeat IPC: 1.876 cumulative IPC: 1.97 (Simulation time: 00 hr 01 min 35 sec)
Heartbeat CPU 0 instructions: 11500034 cycles: 5850339 heartbeat IPC: 1.876 cumulative IPC: 1.966 (Simulation time: 00 hr 01 min 39 sec)
Heartbeat CPU 0 instructions: 12000034 cycles: 6117502 heartbeat IPC: 1.872 cumulative IPC: 1.962 (Simulation time: 00 hr 01 min 44 sec)
Heartbeat CPU 0 instructions: 12500039 cycles: 6383946 heartbeat IPC: 1.877 cumulative IPC: 1.958 (Simulation time: 00 hr 01 min 49 sec)
Heartbeat CPU 0 instructions: 13000046 cycles: 6579174 heartbeat IPC: 2.561 cumulative IPC: 1.976 (Simulation time: 00 hr 01 min 52 sec)
Heartbeat CPU 0 instructions: 13500047 cycles: 6881065 heartbeat IPC: 1.656 cumulative IPC: 1.962 (Simulation time: 00 hr 01 min 57 sec)
Heartbeat CPU 0 instructions: 14000053 cycles: 7181213 heartbeat IPC: 1.666 cumulative IPC: 1.95 (Simulation time: 00 hr 02 min 02 sec)
Heartbeat CPU 0 instructions: 14500057 cycles: 7482476 heartbeat IPC: 1.66 cumulative IPC: 1.938 (Simulation time: 00 hr 02 min 07 sec)
Heartbeat CPU 0 instructions: 15000057 cycles: 7783204 heartbeat IPC: 1.663 cumulative IPC: 1.927 (Simulation time: 00 hr 02 min 12 sec)
Heartbeat CPU 0 instructions: 15500063 cycles: 8084423 heartbeat IPC: 1.66 cumulative IPC: 1.917 (Simulation time: 00 hr 02 min 17 sec)
Heartbeat CPU 0 instructions: 16000067 cycles: 8385675 heartbeat IPC: 1.66 cumulative IPC: 1.908 (Simulation time: 00 hr 02 min 22 sec)
Heartbeat CPU 0 instructions: 16500067 cycles: 8684234 heartbeat IPC: 1.675 cumulative IPC: 1.9 (Simulation time: 00 hr 02 min 27 sec)
Heartbeat CPU 0 instructions: 17000070 cycles: 8983867 heartbeat IPC: 1.669 cumulative IPC: 1.892 (Simulation time: 00 hr 02 min 33 sec)
Heartbeat CPU 0 instructions: 17500073 cycles: 9224490 heartbeat IPC: 2.078 cumulative IPC: 1.897 (Simulation time: 00 hr 02 min 37 sec)
Heartbeat CPU 0 instructions: 18000073 cycles: 9491934 heartbeat IPC: 1.87 cumulative IPC: 1.896 (Simulation time: 00 hr 02 min 41 sec)
Heartbeat CPU 0 instructions: 18500076 cycles: 9721665 heartbeat IPC: 2.176 cumulative IPC: 1.903 (Simulation time: 00 hr 02 min 45 sec)
Heartbeat CPU 0 instructions: 19000082 cycles: 9974019 heartbeat IPC: 1.981 cumulative IPC: 1.905 (Simulation time: 00 hr 02 min 50 sec)
Heartbeat CPU 0 instructions: 19500087 cycles: 10240209 heartbeat IPC: 1.878 cumulative IPC: 1.904 (Simulation time: 00 hr 02 min 54 sec)
Heartbeat CPU 0 instructions: 20000087 cycles: 10422747 heartbeat IPC: 2.739 cumulative IPC: 1.919 (Simulation time: 00 hr 02 min 57 sec)
Heartbeat CPU 0 instructions: 20500091 cycles: 10689448 heartbeat IPC: 1.875 cumulative IPC: 1.918 (Simulation time: 00 hr 03 min 02 sec)
Heartbeat CPU 0 instructions: 21000092 cycles: 10955730 heartbeat IPC: 1.878 cumulative IPC: 1.917 (Simulation time: 00 hr 03 min 07 sec)
Heartbeat CPU 0 instructions: 21500099 cycles: 11198809 heartbeat IPC: 2.057 cumulative IPC: 1.92 (Simulation time: 00 hr 03 min 11 sec)
Heartbeat CPU 0 instructions: 22000100 cycles: 11464143 heartbeat IPC: 1.884 cumulative IPC: 1.919 (Simulation time: 00 hr 03 min 15 sec)
Heartbeat CPU 0 instructions: 22500100 cycles: 11716583 heartbeat IPC: 1.981 cumulative IPC: 1.92 (Simulation time: 00 hr 03 min 20 sec)
Heartbeat CPU 0 instructions: 23000102 cycles: 11904440 heartbeat IPC: 2.662 cumulative IPC: 1.932 (Simulation time: 00 hr 03 min 23 sec)
Heartbeat CPU 0 instructions: 23500104 cycles: 12172203 heartbeat IPC: 1.867 cumulative IPC: 1.931 (Simulation time: 00 hr 03 min 28 sec)
Heartbeat CPU 0 instructions: 24000105 cycles: 12418289 heartbeat IPC: 2.032 cumulative IPC: 1.933 (Simulation time: 00 hr 03 min 32 sec)
Heartbeat CPU 0 instructions: 24500105 cycles: 12651945 heartbeat IPC: 2.14 cumulative IPC: 1.936 (Simulation time: 00 hr 03 min 36 sec)
Heartbeat CPU 0 instructions: 25000105 cycles: 12917948 heartbeat IPC: 1.88 cumulative IPC: 1.935 (Simulation time: 00 hr 03 min 41 sec)
Heartbeat CPU 0 instructions: 25500110 cycles: 13185786 heartbeat IPC: 1.867 cumulative IPC: 1.934 (Simulation time: 00 hr 03 min 45 sec)
Heartbeat CPU 0 instructions: 26000115 cycles: 13451642 heartbeat IPC: 1.881 cumulative IPC: 1.933 (Simulation time: 00 hr 03 min 50 sec)
Heartbeat CPU 0 instructions: 26500116 cycles: 13717840 heartbeat IPC: 1.878 cumulative IPC: 1.932 (Simulation time: 00 hr 03 min 55 sec)
Heartbeat CPU 0 instructions: 27000117 cycles: 13984414 heartbeat IPC: 1.876 cumulative IPC: 1.931 (Simulation time: 00 hr 03 min 59 sec)
Heartbeat CPU 0 instructions: 27500118 cycles: 14253023 heartbeat IPC: 1.861 cumulative IPC: 1.929 (Simulation time: 00 hr 04 min 04 sec)
Heartbeat CPU 0 instructions: 28000120 cycles: 14520355 heartbeat IPC: 1.87 cumulative IPC: 1.928 (Simulation time: 00 hr 04 min 09 sec)
Heartbeat CPU 0 instructions: 28500120 cycles: 14788530 heartbeat IPC: 1.864 cumulative IPC: 1.927 (Simulation time: 00 hr 04 min 14 sec)
Heartbeat CPU 0 instructions: 29000124 cycles: 14998717 heartbeat IPC: 2.379 cumulative IPC: 1.934 (Simulation time: 00 hr 04 min 17 sec)
Heartbeat CPU 0 instructions: 29500125 cycles: 15258500 heartbeat IPC: 1.925 cumulative IPC: 1.933 (Simulation time: 00 hr 04 min 21 sec)
Heartbeat CPU 0 instructions: 30000129 cycles: 15555463 heartbeat IPC: 1.684 cumulative IPC: 1.929 (Simulation time: 00 hr 04 min 27 sec)
Heartbeat CPU 0 instructions: 30500129 cycles: 15853890 heartbeat IPC: 1.675 cumulative IPC: 1.924 (Simulation time: 00 hr 04 min 32 sec)
Heartbeat CPU 0 instructions: 31000129 cycles: 16152526 heartbeat IPC: 1.674 cumulative IPC: 1.919 (Simulation time: 00 hr 04 min 37 sec)
Heartbeat CPU 0 instructions: 31500132 cycles: 16451092 heartbeat IPC: 1.675 cumulative IPC: 1.915 (Simulation time: 00 hr 04 min 42 sec)
Heartbeat CPU 0 instructions: 32000139 cycles: 16749308 heartbeat IPC: 1.677 cumulative IPC: 1.911 (Simulation time: 00 hr 04 min 47 sec)
Heartbeat CPU 0 instructions: 32500139 cycles: 17047318 heartbeat IPC: 1.678 cumulative IPC: 1.906 (Simulation time: 00 hr 04 min 52 sec)
Heartbeat CPU 0 instructions: 33000142 cycles: 17346492 heartbeat IPC: 1.671 cumulative IPC: 1.902 (Simulation time: 00 hr 04 min 58 sec)
Heartbeat CPU 0 instructions: 33500144 cycles: 17614027 heartbeat IPC: 1.869 cumulative IPC: 1.902 (Simulation time: 00 hr 05 min 02 sec)
Heartbeat CPU 0 instructions: 34000150 cycles: 17870546 heartbeat IPC: 1.949 cumulative IPC: 1.903 (Simulation time: 00 hr 05 min 07 sec)
Heartbeat CPU 0 instructions: 34500154 cycles: 18137357 heartbeat IPC: 1.874 cumulative IPC: 1.902 (Simulation time: 00 hr 05 min 11 sec)
Heartbeat CPU 0 instructions: 35000159 cycles: 18352245 heartbeat IPC: 2.327 cumulative IPC: 1.907 (Simulation time: 00 hr 05 min 15 sec)
Heartbeat CPU 0 instructions: 35500163 cycles: 18619534 heartbeat IPC: 1.871 cumulative IPC: 1.907 (Simulation time: 00 hr 05 min 20 sec)
Heartbeat CPU 0 instructions: 36000170 cycles: 18886844 heartbeat IPC: 1.871 cumulative IPC: 1.906 (Simulation time: 00 hr 05 min 25 sec)
Heartbeat CPU 0 instructions: 36500172 cycles: 19071131 heartbeat IPC: 2.713 cumulative IPC: 1.914 (Simulation time: 00 hr 05 min 28 sec)
Heartbeat CPU 0 instructions: 37000177 cycles: 19337617 heartbeat IPC: 1.876 cumulative IPC: 1.913 (Simulation time: 00 hr 05 min 32 sec)
Heartbeat CPU 0 instructions: 37500178 cycles: 19604012 heartbeat IPC: 1.877 cumulative IPC: 1.913 (Simulation time: 00 hr 05 min 37 sec)
Heartbeat CPU 0 instructions: 38000185 cycles: 19860585 heartbeat IPC: 1.949 cumulative IPC: 1.913 (Simulation time: 00 hr 05 min 42 sec)
Heartbeat CPU 0 instructions: 38500187 cycles: 20127879 heartbeat IPC: 1.871 cumulative IPC: 1.913 (Simulation time: 00 hr 05 min 46 sec)
Heartbeat CPU 0 instructions: 39000187 cycles: 20315956 heartbeat IPC: 2.658 cumulative IPC: 1.92 (Simulation time: 00 hr 05 min 49 sec)
Heartbeat CPU 0 instructions: 39500187 cycles: 20580761 heartbeat IPC: 1.888 cumulative IPC: 1.919 (Simulation time: 00 hr 05 min 54 sec)
Heartbeat CPU 0 instructions: 40000193 cycles: 20847846 heartbeat IPC: 1.872 cumulative IPC: 1.919 (Simulation time: 00 hr 05 min 59 sec)
Heartbeat CPU 0 instructions: 40500200 cycles: 21086971 heartbeat IPC: 2.091 cumulative IPC: 1.921 (Simulation time: 00 hr 06 min 03 sec)
Heartbeat CPU 0 instructions: 41000205 cycles: 21353867 heartbeat IPC: 1.873 cumulative IPC: 1.92 (Simulation time: 00 hr 06 min 08 sec)
Heartbeat CPU 0 instructions: 41500211 cycles: 21620637 heartbeat IPC: 1.874 cumulative IPC: 1.919 (Simulation time: 00 hr 06 min 12 sec)
Heartbeat CPU 0 instructions: 42000215 cycles: 21887446 heartbeat IPC: 1.874 cumulative IPC: 1.919 (Simulation time: 00 hr 06 min 17 sec)
Heartbeat CPU 0 instructions: 42500216 cycles: 22154992 heartbeat IPC: 1.869 cumulative IPC: 1.918 (Simulation time: 00 hr 06 min 22 sec)
Heartbeat CPU 0 instructions: 43000218 cycles: 22422473 heartbeat IPC: 1.869 cumulative IPC: 1.918 (Simulation time: 00 hr 06 min 27 sec)
Heartbeat CPU 0 instructions: 43500223 cycles: 22688547 heartbeat IPC: 1.879 cumulative IPC: 1.917 (Simulation time: 00 hr 06 min 32 sec)
Heartbeat CPU 0 instructions: 44000223 cycles: 22956002 heartbeat IPC: 1.869 cumulative IPC: 1.917 (Simulation time: 00 hr 06 min 36 sec)
Heartbeat CPU 0 instructions: 44500224 cycles: 23222140 heartbeat IPC: 1.879 cumulative IPC: 1.916 (Simulation time: 00 hr 06 min 41 sec)
Heartbeat CPU 0 instructions: 45000226 cycles: 23488577 heartbeat IPC: 1.877 cumulative IPC: 1.916 (Simulation time: 00 hr 06 min 46 sec)
Heartbeat CPU 0 instructions: 45500233 cycles: 23680925 heartbeat IPC: 2.599 cumulative IPC: 1.921 (Simulation time: 00 hr 06 min 49 sec)
Heartbeat CPU 0 instructions: 46000233 cycles: 23981104 heartbeat IPC: 1.666 cumulative IPC: 1.918 (Simulation time: 00 hr 06 min 54 sec)
Heartbeat CPU 0 instructions: 46500236 cycles: 24279115 heartbeat IPC: 1.678 cumulative IPC: 1.915 (Simulation time: 00 hr 06 min 59 sec)
Heartbeat CPU 0 instructions: 47000236 cycles: 24579178 heartbeat IPC: 1.666 cumulative IPC: 1.912 (Simulation time: 00 hr 07 min 05 sec)
Heartbeat CPU 0 instructions: 47500243 cycles: 24878915 heartbeat IPC: 1.668 cumulative IPC: 1.909 (Simulation time: 00 hr 07 min 10 sec)
Heartbeat CPU 0 instructions: 48000246 cycles: 25178818 heartbeat IPC: 1.667 cumulative IPC: 1.906 (Simulation time: 00 hr 07 min 15 sec)
Heartbeat CPU 0 instructions: 48500246 cycles: 25478166 heartbeat IPC: 1.67 cumulative IPC: 1.904 (Simulation time: 00 hr 07 min 21 sec)
Heartbeat CPU 0 instructions: 49000246 cycles: 25778848 heartbeat IPC: 1.663 cumulative IPC: 1.901 (Simulation time: 00 hr 07 min 26 sec)
Heartbeat CPU 0 instructions: 49500248 cycles: 26080079 heartbeat IPC: 1.66 cumulative IPC: 1.898 (Simulation time: 00 hr 07 min 31 sec)
Warmup halting CPU 0 at instruction 50000001 cycle 26334995 for remainder of phase
Warmup finished CPU 0 instructions: 50000001 cycles: 26334995 cumulative IPC: 1.899 (Simulation time: 00 hr 07 min 36 sec)
Warmup complete CPU 0 instructions: 50000001 cycles: 26334995 cumulative IPC: 1.899 (Simulation time: 00 hr 07 min 36 sec)
Heartbeat CPU 0 instructions: 50000251 cycles: 26335364 heartbeat IPC: 1.959 cumulative IPC: 0.6775 (Simulation time: 00 hr 07 min 36 sec)
Heartbeat CPU 0 instructions: 50500251 cycles: 27075406 heartbeat IPC: 0.6756 cumulative IPC: 0.6756 (Simulation time: 00 hr 07 min 45 sec)
Heartbeat CPU 0 instructions: 51000251 cycles: 27737744 heartbeat IPC: 0.7549 cumulative IPC: 0.7131 (Simulation time: 00 hr 07 min 53 sec)
Heartbeat CPU 0 instructions: 51500251 cycles: 28487252 heartbeat IPC: 0.6671 cumulative IPC: 0.6971 (Simulation time: 00 hr 08 min 03 sec)
Heartbeat CPU 0 instructions: 52000253 cycles: 29229772 heartbeat IPC: 0.6734 cumulative IPC: 0.691 (Simulation time: 00 hr 08 min 12 sec)
Heartbeat CPU 0 instructions: 52500253 cycles: 29776996 heartbeat IPC: 0.9137 cumulative IPC: 0.7264 (Simulation time: 00 hr 08 min 19 sec)
Heartbeat CPU 0 instructions: 53000254 cycles: 30519185 heartbeat IPC: 0.6737 cumulative IPC: 0.717 (Simulation time: 00 hr 08 min 28 sec)
Heartbeat CPU 0 instructions: 53500259 cycles: 31258755 heartbeat IPC: 0.6761 cumulative IPC: 0.7109 (Simulation time: 00 hr 08 min 37 sec)
Heartbeat CPU 0 instructions: 54000259 cycles: 31977712 heartbeat IPC: 0.6955 cumulative IPC: 0.7089 (Simulation time: 00 hr 08 min 46 sec)
Heartbeat CPU 0 instructions: 54500263 cycles: 32713601 heartbeat IPC: 0.6795 cumulative IPC: 0.7055 (Simulation time: 00 hr 08 min 55 sec)
Heartbeat CPU 0 instructions: 55000270 cycles: 33214481 heartbeat IPC: 0.9983 cumulative IPC: 0.7268 (Simulation time: 00 hr 09 min 01 sec)
Heartbeat CPU 0 instructions: 55500270 cycles: 33945982 heartbeat IPC: 0.6835 cumulative IPC: 0.7227 (Simulation time: 00 hr 09 min 10 sec)
Heartbeat CPU 0 instructions: 56000271 cycles: 34663164 heartbeat IPC: 0.6972 cumulative IPC: 0.7205 (Simulation time: 00 hr 09 min 19 sec)
Heartbeat CPU 0 instructions: 56500272 cycles: 35310979 heartbeat IPC: 0.7718 cumulative IPC: 0.7242 (Simulation time: 00 hr 09 min 28 sec)
Heartbeat CPU 0 instructions: 57000272 cycles: 36042093 heartbeat IPC: 0.6839 cumulative IPC: 0.7211 (Simulation time: 00 hr 09 min 37 sec)
Heartbeat CPU 0 instructions: 57500273 cycles: 36786926 heartbeat IPC: 0.6713 cumulative IPC: 0.7176 (Simulation time: 00 hr 09 min 46 sec)
Heartbeat CPU 0 instructions: 58000279 cycles: 37535124 heartbeat IPC: 0.6683 cumulative IPC: 0.7143 (Simulation time: 00 hr 09 min 55 sec)
Heartbeat CPU 0 instructions: 58500279 cycles: 38283917 heartbeat IPC: 0.6677 cumulative IPC: 0.7114 (Simulation time: 00 hr 10 min 05 sec)
Heartbeat CPU 0 instructions: 59000285 cycles: 39028320 heartbeat IPC: 0.6717 cumulative IPC: 0.7091 (Simulation time: 00 hr 10 min 14 sec)
Heartbeat CPU 0 instructions: 59500285 cycles: 39773565 heartbeat IPC: 0.6709 cumulative IPC: 0.7069 (Simulation time: 00 hr 10 min 23 sec)
Heartbeat CPU 0 instructions: 60000286 cycles: 40517507 heartbeat IPC: 0.6721 cumulative IPC: 0.7051 (Simulation time: 00 hr 10 min 32 sec)
Heartbeat CPU 0 instructions: 60500286 cycles: 41265346 heartbeat IPC: 0.6686 cumulative IPC: 0.7033 (Simulation time: 00 hr 10 min 41 sec)
Heartbeat CPU 0 instructions: 61000286 cycles: 42006819 heartbeat IPC: 0.6743 cumulative IPC: 0.7019 (Simulation time: 00 hr 10 min 51 sec)
Heartbeat CPU 0 instructions: 61500286 cycles: 42453343 heartbeat IPC: 1.12 cumulative IPC: 0.7135 (Simulation time: 00 hr 10 min 56 sec)
Heartbeat CPU 0 instructions: 62000290 cycles: 43252193 heartbeat IPC: 0.6259 cumulative IPC: 0.7094 (Simulation time: 00 hr 11 min 07 sec)
Heartbeat CPU 0 instructions: 62500293 cycles: 44058978 heartbeat IPC: 0.6197 cumulative IPC: 0.7053 (Simulation time: 00 hr 11 min 17 sec)
Heartbeat CPU 0 instructions: 63000293 cycles: 44872428 heartbeat IPC: 0.6147 cumulative IPC: 0.7013 (Simulation time: 00 hr 11 min 27 sec)
Heartbeat CPU 0 instructions: 63500293 cycles: 45684961 heartbeat IPC: 0.6154 cumulative IPC: 0.6977 (Simulation time: 00 hr 11 min 38 sec)
Heartbeat CPU 0 instructions: 64000296 cycles: 46497378 heartbeat IPC: 0.6155 cumulative IPC: 0.6944 (Simulation time: 00 hr 11 min 48 sec)
Heartbeat CPU 0 instructions: 64500298 cycles: 47310437 heartbeat IPC: 0.615 cumulative IPC: 0.6913 (Simulation time: 00 hr 11 min 58 sec)
Heartbeat CPU 0 instructions: 65000303 cycles: 48124397 heartbeat IPC: 0.6143 cumulative IPC: 0.6884 (Simulation time: 00 hr 12 min 09 sec)
Heartbeat CPU 0 instructions: 65500306 cycles: 48937377 heartbeat IPC: 0.615 cumulative IPC: 0.6858 (Simulation time: 00 hr 12 min 19 sec)
Heartbeat CPU 0 instructions: 66000309 cycles: 49627167 heartbeat IPC: 0.7249 cumulative IPC: 0.6869 (Simulation time: 00 hr 12 min 28 sec)
Heartbeat CPU 0 instructions: 66500309 cycles: 50361971 heartbeat IPC: 0.6805 cumulative IPC: 0.6867 (Simulation time: 00 hr 12 min 37 sec)
Heartbeat CPU 0 instructions: 67000309 cycles: 51009596 heartbeat IPC: 0.7721 cumulative IPC: 0.689 (Simulation time: 00 hr 12 min 45 sec)
Heartbeat CPU 0 instructions: 67500311 cycles: 51755000 heartbeat IPC: 0.6708 cumulative IPC: 0.6884 (Simulation time: 00 hr 12 min 54 sec)
Heartbeat CPU 0 instructions: 68000311 cycles: 52500783 heartbeat IPC: 0.6704 cumulative IPC: 0.6879 (Simulation time: 00 hr 13 min 04 sec)
Heartbeat CPU 0 instructions: 68500315 cycles: 53041665 heartbeat IPC: 0.9244 cumulative IPC: 0.6927 (Simulation time: 00 hr 13 min 10 sec)
Heartbeat CPU 0 instructions: 69000316 cycles: 53788763 heartbeat IPC: 0.6693 cumulative IPC: 0.6921 (Simulation time: 00 hr 13 min 20 sec)
Heartbeat CPU 0 instructions: 69500319 cycles: 54535605 heartbeat IPC: 0.6695 cumulative IPC: 0.6915 (Simulation time: 00 hr 13 min 29 sec)
Heartbeat CPU 0 instructions: 70000322 cycles: 55246759 heartbeat IPC: 0.7031 cumulative IPC: 0.6918 (Simulation time: 00 hr 13 min 38 sec)
Heartbeat CPU 0 instructions: 70500326 cycles: 55988921 heartbeat IPC: 0.6737 cumulative IPC: 0.6913 (Simulation time: 00 hr 13 min 47 sec)
Heartbeat CPU 0 instructions: 71000332 cycles: 56484276 heartbeat IPC: 1.009 cumulative IPC: 0.6965 (Simulation time: 00 hr 13 min 53 sec)
Heartbeat CPU 0 instructions: 71500337 cycles: 57226483 heartbeat IPC: 0.6737 cumulative IPC: 0.696 (Simulation time: 00 hr 14 min 03 sec)
Heartbeat CPU 0 instructions: 72000337 cycles: 57969011 heartbeat IPC: 0.6734 cumulative IPC: 0.6955 (Simulation time: 00 hr 14 min 12 sec)
Heartbeat CPU 0 instructions: 72500343 cycles: 58614903 heartbeat IPC: 0.7741 cumulative IPC: 0.697 (Simulation time: 00 hr 14 min 20 sec)
Heartbeat CPU 0 instructions: 73000347 cycles: 59361184 heartbeat IPC: 0.67 cumulative IPC: 0.6964 (Simulation time: 00 hr 14 min 29 sec)
Heartbeat CPU 0 instructions: 73500347 cycles: 60105849 heartbeat IPC: 0.6714 cumulative IPC: 0.6959 (Simulation time: 00 hr 14 min 39 sec)
Heartbeat CPU 0 instructions: 74000349 cycles: 60854261 heartbeat IPC: 0.6681 cumulative IPC: 0.6953 (Simulation time: 00 hr 14 min 48 sec)
Heartbeat CPU 0 instructions: 74500354 cycles: 61597926 heartbeat IPC: 0.6724 cumulative IPC: 0.6948 (Simulation time: 00 hr 14 min 57 sec)
Heartbeat CPU 0 instructions: 75000355 cycles: 62340618 heartbeat IPC: 0.6732 cumulative IPC: 0.6943 (Simulation time: 00 hr 15 min 07 sec)
Heartbeat CPU 0 instructions: 75500355 cycles: 63090629 heartbeat IPC: 0.6667 cumulative IPC: 0.6938 (Simulation time: 00 hr 15 min 16 sec)
Heartbeat CPU 0 instructions: 76000358 cycles: 63836448 heartbeat IPC: 0.6704 cumulative IPC: 0.6933 (Simulation time: 00 hr 15 min 25 sec)
Heartbeat CPU 0 instructions: 76500362 cycles: 64580541 heartbeat IPC: 0.672 cumulative IPC: 0.6929 (Simulation time: 00 hr 15 min 35 sec)
Heartbeat CPU 0 instructions: 77000365 cycles: 65297920 heartbeat IPC: 0.697 cumulative IPC: 0.693 (Simulation time: 00 hr 15 min 44 sec)
Heartbeat CPU 0 instructions: 77500365 cycles: 65767084 heartbeat IPC: 1.066 cumulative IPC: 0.6974 (Simulation time: 00 hr 15 min 50 sec)
Heartbeat CPU 0 instructions: 78000367 cycles: 66577797 heartbeat IPC: 0.6167 cumulative IPC: 0.6958 (Simulation time: 00 hr 16 min 00 sec)
Heartbeat CPU 0 instructions: 78500370 cycles: 67392341 heartbeat IPC: 0.6138 cumulative IPC: 0.6942 (Simulation time: 00 hr 16 min 10 sec)
Heartbeat CPU 0 instructions: 79000370 cycles: 68206528 heartbeat IPC: 0.6141 cumulative IPC: 0.6926 (Simulation time: 00 hr 16 min 21 sec)
Heartbeat CPU 0 instructions: 79500372 cycles: 69018620 heartbeat IPC: 0.6157 cumulative IPC: 0.6911 (Simulation time: 00 hr 16 min 31 sec)
Heartbeat CPU 0 instructions: 80000378 cycles: 69831072 heartbeat IPC: 0.6154 cumulative IPC: 0.6897 (Simulation time: 00 hr 16 min 42 sec)
Heartbeat CPU 0 instructions: 80500380 cycles: 70644212 heartbeat IPC: 0.6149 cumulative IPC: 0.6884 (Simulation time: 00 hr 16 min 52 sec)
Heartbeat CPU 0 instructions: 81000383 cycles: 71455451 heartbeat IPC: 0.6163 cumulative IPC: 0.6871 (Simulation time: 00 hr 17 min 03 sec)
Heartbeat CPU 0 instructions: 81500387 cycles: 72265479 heartbeat IPC: 0.6173 cumulative IPC: 0.6858 (Simulation time: 00 hr 17 min 13 sec)
Heartbeat CPU 0 instructions: 82000388 cycles: 72949126 heartbeat IPC: 0.7314 cumulative IPC: 0.6865 (Simulation time: 00 hr 17 min 21 sec)
Heartbeat CPU 0 instructions: 82500388 cycles: 73689681 heartbeat IPC: 0.6752 cumulative IPC: 0.6863 (Simulation time: 00 hr 17 min 31 sec)
Heartbeat CPU 0 instructions: 83000391 cycles: 74334755 heartbeat IPC: 0.7751 cumulative IPC: 0.6875 (Simulation time: 00 hr 17 min 39 sec)
Heartbeat CPU 0 instructions: 83500397 cycles: 75078193 heartbeat IPC: 0.6726 cumulative IPC: 0.6873 (Simulation time: 00 hr 17 min 48 sec)
Heartbeat CPU 0 instructions: 84000399 cycles: 75822611 heartbeat IPC: 0.6717 cumulative IPC: 0.687 (Simulation time: 00 hr 17 min 57 sec)
Heartbeat CPU 0 instructions: 84500401 cycles: 76357449 heartbeat IPC: 0.9349 cumulative IPC: 0.6897 (Simulation time: 00 hr 18 min 04 sec)
Heartbeat CPU 0 instructions: 85000404 cycles: 77102468 heartbeat IPC: 0.6711 cumulative IPC: 0.6894 (Simulation time: 00 hr 18 min 13 sec)
Heartbeat CPU 0 instructions: 85500411 cycles: 77836026 heartbeat IPC: 0.6816 cumulative IPC: 0.6893 (Simulation time: 00 hr 18 min 22 sec)
Heartbeat CPU 0 instructions: 86000411 cycles: 78560703 heartbeat IPC: 0.69 cumulative IPC: 0.6893 (Simulation time: 00 hr 18 min 32 sec)
Heartbeat CPU 0 instructions: 86500414 cycles: 79303073 heartbeat IPC: 0.6735 cumulative IPC: 0.6891 (Simulation time: 00 hr 18 min 41 sec)
Heartbeat CPU 0 instructions: 87000414 cycles: 79793110 heartbeat IPC: 1.02 cumulative IPC: 0.6921 (Simulation time: 00 hr 18 min 47 sec)
Heartbeat CPU 0 instructions: 87500419 cycles: 80538930 heartbeat IPC: 0.6704 cumulative IPC: 0.6918 (Simulation time: 00 hr 18 min 56 sec)
Heartbeat CPU 0 instructions: 88000424 cycles: 81274662 heartbeat IPC: 0.6796 cumulative IPC: 0.6917 (Simulation time: 00 hr 19 min 05 sec)
Heartbeat CPU 0 instructions: 88500428 cycles: 81921076 heartbeat IPC: 0.7735 cumulative IPC: 0.6926 (Simulation time: 00 hr 19 min 13 sec)
Heartbeat CPU 0 instructions: 89000435 cycles: 82664639 heartbeat IPC: 0.6724 cumulative IPC: 0.6924 (Simulation time: 00 hr 19 min 23 sec)
Heartbeat CPU 0 instructions: 89500437 cycles: 83404902 heartbeat IPC: 0.6754 cumulative IPC: 0.6921 (Simulation time: 00 hr 19 min 32 sec)
Heartbeat CPU 0 instructions: 90000440 cycles: 84151184 heartbeat IPC: 0.67 cumulative IPC: 0.6919 (Simulation time: 00 hr 19 min 41 sec)
Heartbeat CPU 0 instructions: 90500444 cycles: 84896442 heartbeat IPC: 0.6709 cumulative IPC: 0.6916 (Simulation time: 00 hr 19 min 50 sec)
Heartbeat CPU 0 instructions: 91000450 cycles: 85640240 heartbeat IPC: 0.6722 cumulative IPC: 0.6913 (Simulation time: 00 hr 19 min 59 sec)
Heartbeat CPU 0 instructions: 91500456 cycles: 86386039 heartbeat IPC: 0.6704 cumulative IPC: 0.6911 (Simulation time: 00 hr 20 min 08 sec)
Heartbeat CPU 0 instructions: 92000456 cycles: 87130370 heartbeat IPC: 0.6717 cumulative IPC: 0.6908 (Simulation time: 00 hr 20 min 18 sec)
Heartbeat CPU 0 instructions: 92500456 cycles: 87876912 heartbeat IPC: 0.6698 cumulative IPC: 0.6906 (Simulation time: 00 hr 20 min 27 sec)
Heartbeat CPU 0 instructions: 93000459 cycles: 88576504 heartbeat IPC: 0.7147 cumulative IPC: 0.6909 (Simulation time: 00 hr 20 min 35 sec)
Heartbeat CPU 0 instructions: 93500460 cycles: 89067708 heartbeat IPC: 1.018 cumulative IPC: 0.6934 (Simulation time: 00 hr 20 min 42 sec)
Heartbeat CPU 0 instructions: 94000465 cycles: 89881880 heartbeat IPC: 0.6141 cumulative IPC: 0.6924 (Simulation time: 00 hr 20 min 52 sec)
Heartbeat CPU 0 instructions: 94500467 cycles: 90695836 heartbeat IPC: 0.6143 cumulative IPC: 0.6914 (Simulation time: 00 hr 21 min 02 sec)
Heartbeat CPU 0 instructions: 95000467 cycles: 91509067 heartbeat IPC: 0.6148 cumulative IPC: 0.6905 (Simulation time: 00 hr 21 min 12 sec)
Heartbeat CPU 0 instructions: 95500470 cycles: 92321207 heartbeat IPC: 0.6157 cumulative IPC: 0.6895 (Simulation time: 00 hr 21 min 22 sec)
Heartbeat CPU 0 instructions: 96000470 cycles: 93133314 heartbeat IPC: 0.6157 cumulative IPC: 0.6886 (Simulation time: 00 hr 21 min 33 sec)
Heartbeat CPU 0 instructions: 96500470 cycles: 93945331 heartbeat IPC: 0.6158 cumulative IPC: 0.6878 (Simulation time: 00 hr 21 min 43 sec)
Heartbeat CPU 0 instructions: 97000470 cycles: 94756190 heartbeat IPC: 0.6166 cumulative IPC: 0.6869 (Simulation time: 00 hr 21 min 53 sec)
Heartbeat CPU 0 instructions: 97500472 cycles: 95568789 heartbeat IPC: 0.6153 cumulative IPC: 0.6861 (Simulation time: 00 hr 22 min 03 sec)
Heartbeat CPU 0 instructions: 98000478 cycles: 96252825 heartbeat IPC: 0.731 cumulative IPC: 0.6865 (Simulation time: 00 hr 22 min 11 sec)
Heartbeat CPU 0 instructions: 98500482 cycles: 96996233 heartbeat IPC: 0.6726 cumulative IPC: 0.6864 (Simulation time: 00 hr 22 min 20 sec)
Heartbeat CPU 0 instructions: 99000485 cycles: 97642388 heartbeat IPC: 0.7738 cumulative IPC: 0.6872 (Simulation time: 00 hr 22 min 28 sec)
Heartbeat CPU 0 instructions: 99500490 cycles: 98389427 heartbeat IPC: 0.6693 cumulative IPC: 0.687 (Simulation time: 00 hr 22 min 37 sec)
Heartbeat CPU 0 instructions: 100000495 cycles: 99135142 heartbeat IPC: 0.6705 cumulative IPC: 0.6868 (Simulation time: 00 hr 22 min 46 sec)
Heartbeat CPU 0 instructions: 100500501 cycles: 99671589 heartbeat IPC: 0.9321 cumulative IPC: 0.6886 (Simulation time: 00 hr 22 min 52 sec)
Heartbeat CPU 0 instructions: 101000501 cycles: 100413367 heartbeat IPC: 0.6741 cumulative IPC: 0.6885 (Simulation time: 00 hr 23 min 01 sec)
Heartbeat CPU 0 instructions: 101500508 cycles: 101125528 heartbeat IPC: 0.7021 cumulative IPC: 0.6886 (Simulation time: 00 hr 23 min 09 sec)
Heartbeat CPU 0 instructions: 102000509 cycles: 101868639 heartbeat IPC: 0.6728 cumulative IPC: 0.6884 (Simulation time: 00 hr 23 min 18 sec)
Heartbeat CPU 0 instructions: 102500510 cycles: 102610279 heartbeat IPC: 0.6742 cumulative IPC: 0.6883 (Simulation time: 00 hr 23 min 27 sec)
Heartbeat CPU 0 instructions: 103000512 cycles: 103100598 heartbeat IPC: 1.02 cumulative IPC: 0.6904 (Simulation time: 00 hr 23 min 32 sec)
Heartbeat CPU 0 instructions: 103500518 cycles: 103842171 heartbeat IPC: 0.6743 cumulative IPC: 0.6903 (Simulation time: 00 hr 23 min 41 sec)
Heartbeat CPU 0 instructions: 104000519 cycles: 104576161 heartbeat IPC: 0.6812 cumulative IPC: 0.6902 (Simulation time: 00 hr 23 min 50 sec)
Heartbeat CPU 0 instructions: 104500522 cycles: 105220182 heartbeat IPC: 0.7764 cumulative IPC: 0.6909 (Simulation time: 00 hr 23 min 57 sec)
Heartbeat CPU 0 instructions: 105000523 cycles: 105959941 heartbeat IPC: 0.6759 cumulative IPC: 0.6907 (Simulation time: 00 hr 24 min 06 sec)
Heartbeat CPU 0 instructions: 105500524 cycles: 106703762 heartbeat IPC: 0.6722 cumulative IPC: 0.6906 (Simulation time: 00 hr 24 min 15 sec)
Heartbeat CPU 0 instructions: 106000527 cycles: 107448930 heartbeat IPC: 0.671 cumulative IPC: 0.6904 (Simulation time: 00 hr 24 min 24 sec)
Heartbeat CPU 0 instructions: 106500532 cycles: 108196371 heartbeat IPC: 0.669 cumulative IPC: 0.6902 (Simulation time: 00 hr 24 min 32 sec)
Heartbeat CPU 0 instructions: 107000537 cycles: 108940257 heartbeat IPC: 0.6722 cumulative IPC: 0.69 (Simulation time: 00 hr 24 min 41 sec)
Heartbeat CPU 0 instructions: 107500542 cycles: 109684200 heartbeat IPC: 0.6721 cumulative IPC: 0.6899 (Simulation time: 00 hr 24 min 50 sec)
Heartbeat CPU 0 instructions: 108000542 cycles: 110433449 heartbeat IPC: 0.6673 cumulative IPC: 0.6897 (Simulation time: 00 hr 24 min 58 sec)
Heartbeat CPU 0 instructions: 108500547 cycles: 111178889 heartbeat IPC: 0.6708 cumulative IPC: 0.6895 (Simulation time: 00 hr 25 min 07 sec)
Heartbeat CPU 0 instructions: 109000553 cycles: 111853121 heartbeat IPC: 0.7416 cumulative IPC: 0.6899 (Simulation time: 00 hr 25 min 15 sec)
Heartbeat CPU 0 instructions: 109500555 cycles: 112366715 heartbeat IPC: 0.9735 cumulative IPC: 0.6916 (Simulation time: 00 hr 25 min 21 sec)
Heartbeat CPU 0 instructions: 110000557 cycles: 113178157 heartbeat IPC: 0.6162 cumulative IPC: 0.6909 (Simulation time: 00 hr 25 min 31 sec)
Heartbeat CPU 0 instructions: 110500557 cycles: 113991164 heartbeat IPC: 0.615 cumulative IPC: 0.6902 (Simulation time: 00 hr 25 min 40 sec)
Heartbeat CPU 0 instructions: 111000557 cycles: 114803769 heartbeat IPC: 0.6153 cumulative IPC: 0.6895 (Simulation time: 00 hr 25 min 50 sec)
Heartbeat CPU 0 instructions: 111500559 cycles: 115615171 heartbeat IPC: 0.6162 cumulative IPC: 0.6888 (Simulation time: 00 hr 25 min 59 sec)
Heartbeat CPU 0 instructions: 112000560 cycles: 116428853 heartbeat IPC: 0.6145 cumulative IPC: 0.6882 (Simulation time: 00 hr 26 min 09 sec)
Heartbeat CPU 0 instructions: 112500563 cycles: 117242626 heartbeat IPC: 0.6144 cumulative IPC: 0.6875 (Simulation time: 00 hr 26 min 18 sec)
Heartbeat CPU 0 instructions: 113000563 cycles: 118058798 heartbeat IPC: 0.6126 cumulative IPC: 0.6869 (Simulation time: 00 hr 26 min 28 sec)
Heartbeat CPU 0 instructions: 113500570 cycles: 118873923 heartbeat IPC: 0.6134 cumulative IPC: 0.6862 (Simulation time: 00 hr 26 min 37 sec)
Heartbeat CPU 0 instructions: 114000575 cycles: 119551807 heartbeat IPC: 0.7376 cumulative IPC: 0.6866 (Simulation time: 00 hr 26 min 45 sec)
Heartbeat CPU 0 instructions: 114500577 cycles: 120297125 heartbeat IPC: 0.6709 cumulative IPC: 0.6865 (Simulation time: 00 hr 26 min 53 sec)
Heartbeat CPU 0 instructions: 115000577 cycles: 120947585 heartbeat IPC: 0.7687 cumulative IPC: 0.687 (Simulation time: 00 hr 27 min 01 sec)
Heartbeat CPU 0 instructions: 115500583 cycles: 121689815 heartbeat IPC: 0.6737 cumulative IPC: 0.6869 (Simulation time: 00 hr 27 min 09 sec)
Heartbeat CPU 0 instructions: 116000586 cycles: 122437888 heartbeat IPC: 0.6684 cumulative IPC: 0.6868 (Simulation time: 00 hr 27 min 18 sec)
Heartbeat CPU 0 instructions: 116500590 cycles: 122969935 heartbeat IPC: 0.9398 cumulative IPC: 0.6882 (Simulation time: 00 hr 27 min 23 sec)
Heartbeat CPU 0 instructions: 117000591 cycles: 123711974 heartbeat IPC: 0.6738 cumulative IPC: 0.6881 (Simulation time: 00 hr 27 min 32 sec)
Heartbeat CPU 0 instructions: 117500595 cycles: 124419796 heartbeat IPC: 0.7064 cumulative IPC: 0.6882 (Simulation time: 00 hr 27 min 40 sec)
Heartbeat CPU 0 instructions: 118000595 cycles: 125167783 heartbeat IPC: 0.6685 cumulative IPC: 0.688 (Simulation time: 00 hr 27 min 48 sec)
Heartbeat CPU 0 instructions: 118500597 cycles: 125911890 heartbeat IPC: 0.6719 cumulative IPC: 0.6879 (Simulation time: 00 hr 27 min 57 sec)
Heartbeat CPU 0 instructions: 119000603 cycles: 126408819 heartbeat IPC: 1.006 cumulative IPC: 0.6895 (Simulation time: 00 hr 28 min 02 sec)
Heartbeat CPU 0 instructions: 119500603 cycles: 127145499 heartbeat IPC: 0.6787 cumulative IPC: 0.6894 (Simulation time: 00 hr 28 min 10 sec)
Heartbeat CPU 0 instructions: 120000605 cycles: 127886628 heartbeat IPC: 0.6746 cumulative IPC: 0.6893 (Simulation time: 00 hr 28 min 19 sec)
Heartbeat CPU 0 instructions: 120500605 cycles: 128530387 heartbeat IPC: 0.7767 cumulative IPC: 0.6899 (Simulation time: 00 hr 28 min 26 sec)
Heartbeat CPU 0 instructions: 121000611 cycles: 129270490 heartbeat IPC: 0.6756 cumulative IPC: 0.6898 (Simulation time: 00 hr 28 min 34 sec)
Heartbeat CPU 0 instructions: 121500615 cycles: 130010186 heartbeat IPC: 0.676 cumulative IPC: 0.6897 (Simulation time: 00 hr 28 min 43 sec)
Heartbeat CPU 0 instructions: 122000620 cycles: 130753613 heartbeat IPC: 0.6726 cumulative IPC: 0.6895 (Simulation time: 00 hr 28 min 51 sec)
Heartbeat CPU 0 instructions: 122500624 cycles: 131495013 heartbeat IPC: 0.6744 cumulative IPC: 0.6894 (Simulation time: 00 hr 28 min 59 sec)
Heartbeat CPU 0 instructions: 123000629 cycles: 132241495 heartbeat IPC: 0.6698 cumulative IPC: 0.6893 (Simulation time: 00 hr 29 min 07 sec)
Heartbeat CPU 0 instructions: 123500634 cycles: 132982293 heartbeat IPC: 0.675 cumulative IPC: 0.6892 (Simulation time: 00 hr 29 min 16 sec)
Heartbeat CPU 0 instructions: 124000639 cycles: 133727897 heartbeat IPC: 0.6706 cumulative IPC: 0.6891 (Simulation time: 00 hr 29 min 24 sec)
Heartbeat CPU 0 instructions: 124500644 cycles: 134475936 heartbeat IPC: 0.6684 cumulative IPC: 0.6889 (Simulation time: 00 hr 29 min 32 sec)
Heartbeat CPU 0 instructions: 125000644 cycles: 135128252 heartbeat IPC: 0.7665 cumulative IPC: 0.6894 (Simulation time: 00 hr 29 min 39 sec)
Heartbeat CPU 0 instructions: 125500650 cycles: 135662977 heartbeat IPC: 0.9351 cumulative IPC: 0.6906 (Simulation time: 00 hr 29 min 46 sec)
Heartbeat CPU 0 instructions: 126000654 cycles: 136474951 heartbeat IPC: 0.6158 cumulative IPC: 0.69 (Simulation time: 00 hr 29 min 55 sec)
Heartbeat CPU 0 instructions: 126500661 cycles: 137283408 heartbeat IPC: 0.6185 cumulative IPC: 0.6895 (Simulation time: 00 hr 30 min 04 sec)
Heartbeat CPU 0 instructions: 127000665 cycles: 138095986 heartbeat IPC: 0.6153 cumulative IPC: 0.689 (Simulation time: 00 hr 30 min 13 sec)
Heartbeat CPU 0 instructions: 127500668 cycles: 138908924 heartbeat IPC: 0.6151 cumulative IPC: 0.6884 (Simulation time: 00 hr 30 min 23 sec)
Heartbeat CPU 0 instructions: 128000669 cycles: 139722807 heartbeat IPC: 0.6143 cumulative IPC: 0.6879 (Simulation time: 00 hr 30 min 32 sec)
Heartbeat CPU 0 instructions: 128500670 cycles: 140536732 heartbeat IPC: 0.6143 cumulative IPC: 0.6874 (Simulation time: 00 hr 30 min 42 sec)
Heartbeat CPU 0 instructions: 129000670 cycles: 141350555 heartbeat IPC: 0.6144 cumulative IPC: 0.6869 (Simulation time: 00 hr 30 min 51 sec)
Heartbeat CPU 0 instructions: 129500670 cycles: 142163440 heartbeat IPC: 0.6151 cumulative IPC: 0.6864 (Simulation time: 00 hr 31 min 00 sec)
Heartbeat CPU 0 instructions: 130000674 cycles: 142838785 heartbeat IPC: 0.7404 cumulative IPC: 0.6867 (Simulation time: 00 hr 31 min 08 sec)
Heartbeat CPU 0 instructions: 130500675 cycles: 143582694 heartbeat IPC: 0.6721 cumulative IPC: 0.6866 (Simulation time: 00 hr 31 min 16 sec)
Heartbeat CPU 0 instructions: 131000679 cycles: 144228797 heartbeat IPC: 0.7739 cumulative IPC: 0.6871 (Simulation time: 00 hr 31 min 23 sec)
Heartbeat CPU 0 instructions: 131500680 cycles: 144974748 heartbeat IPC: 0.6703 cumulative IPC: 0.687 (Simulation time: 00 hr 31 min 32 sec)
Heartbeat CPU 0 instructions: 132000685 cycles: 145718428 heartbeat IPC: 0.6723 cumulative IPC: 0.6869 (Simulation time: 00 hr 31 min 40 sec)
Heartbeat CPU 0 instructions: 132500685 cycles: 146255849 heartbeat IPC: 0.9304 cumulative IPC: 0.688 (Simulation time: 00 hr 31 min 46 sec)
Heartbeat CPU 0 instructions: 133000691 cycles: 146994452 heartbeat IPC: 0.677 cumulative IPC: 0.6879 (Simulation time: 00 hr 31 min 54 sec)
Heartbeat CPU 0 instructions: 133500693 cycles: 147699728 heartbeat IPC: 0.7089 cumulative IPC: 0.688 (Simulation time: 00 hr 32 min 02 sec)
Heartbeat CPU 0 instructions: 134000695 cycles: 148446780 heartbeat IPC: 0.6693 cumulative IPC: 0.6879 (Simulation time: 00 hr 32 min 10 sec)
Heartbeat CPU 0 instructions: 134500695 cycles: 149184549 heartbeat IPC: 0.6777 cumulative IPC: 0.6878 (Simulation time: 00 hr 32 min 19 sec)
Heartbeat CPU 0 instructions: 135000701 cycles: 149678132 heartbeat IPC: 1.013 cumulative IPC: 0.6891 (Simulation time: 00 hr 32 min 24 sec)
Heartbeat CPU 0 instructions: 135500706 cycles: 150414836 heartbeat IPC: 0.6787 cumulative IPC: 0.6891 (Simulation time: 00 hr 32 min 32 sec)
Heartbeat CPU 0 instructions: 136000707 cycles: 151143080 heartbeat IPC: 0.6866 cumulative IPC: 0.6891 (Simulation time: 00 hr 32 min 40 sec)
Heartbeat CPU 0 instructions: 136500709 cycles: 151787904 heartbeat IPC: 0.7754 cumulative IPC: 0.6895 (Simulation time: 00 hr 32 min 48 sec)
Heartbeat CPU 0 instructions: 137000711 cycles: 152522370 heartbeat IPC: 0.6808 cumulative IPC: 0.6895 (Simulation time: 00 hr 32 min 56 sec)
Heartbeat CPU 0 instructions: 137500717 cycles: 153266422 heartbeat IPC: 0.672 cumulative IPC: 0.6894 (Simulation time: 00 hr 33 min 04 sec)
Heartbeat CPU 0 instructions: 138000718 cycles: 154005594 heartbeat IPC: 0.6764 cumulative IPC: 0.6893 (Simulation time: 00 hr 33 min 13 sec)
Heartbeat CPU 0 instructions: 138500724 cycles: 154748313 heartbeat IPC: 0.6732 cumulative IPC: 0.6892 (Simulation time: 00 hr 33 min 21 sec)
Heartbeat CPU 0 instructions: 139000729 cycles: 155491828 heartbeat IPC: 0.6725 cumulative IPC: 0.6891 (Simulation time: 00 hr 33 min 29 sec)
Heartbeat CPU 0 instructions: 139500729 cycles: 156234824 heartbeat IPC: 0.673 cumulative IPC: 0.689 (Simulation time: 00 hr 33 min 37 sec)
Heartbeat CPU 0 instructions: 140000730 cycles: 156976821 heartbeat IPC: 0.6739 cumulative IPC: 0.6889 (Simulation time: 00 hr 33 min 46 sec)
Heartbeat CPU 0 instructions: 140500736 cycles: 157721778 heartbeat IPC: 0.6712 cumulative IPC: 0.6888 (Simulation time: 00 hr 33 min 54 sec)
Heartbeat CPU 0 instructions: 141000740 cycles: 158350822 heartbeat IPC: 0.7949 cumulative IPC: 0.6893 (Simulation time: 00 hr 34 min 01 sec)
Heartbeat CPU 0 instructions: 141500744 cycles: 158909270 heartbeat IPC: 0.8953 cumulative IPC: 0.6902 (Simulation time: 00 hr 34 min 07 sec)
Heartbeat CPU 0 instructions: 142000750 cycles: 159722209 heartbeat IPC: 0.6151 cumulative IPC: 0.6897 (Simulation time: 00 hr 34 min 17 sec)
Heartbeat CPU 0 instructions: 142500756 cycles: 160535884 heartbeat IPC: 0.6145 cumulative IPC: 0.6893 (Simulation time: 00 hr 34 min 26 sec)
Heartbeat CPU 0 instructions: 143000757 cycles: 161347250 heartbeat IPC: 0.6162 cumulative IPC: 0.6888 (Simulation time: 00 hr 34 min 35 sec)
Heartbeat CPU 0 instructions: 143500760 cycles: 162159972 heartbeat IPC: 0.6152 cumulative IPC: 0.6884 (Simulation time: 00 hr 34 min 45 sec)
Heartbeat CPU 0 instructions: 144000765 cycles: 162974001 heartbeat IPC: 0.6142 cumulative IPC: 0.6879 (Simulation time: 00 hr 34 min 54 sec)
Heartbeat CPU 0 instructions: 144500765 cycles: 163785221 heartbeat IPC: 0.6164 cumulative IPC: 0.6875 (Simulation time: 00 hr 35 min 03 sec)
Heartbeat CPU 0 instructions: 145000769 cycles: 164596771 heartbeat IPC: 0.6161 cumulative IPC: 0.6871 (Simulation time: 00 hr 35 min 13 sec)
Heartbeat CPU 0 instructions: 145500770 cycles: 165406312 heartbeat IPC: 0.6176 cumulative IPC: 0.6867 (Simulation time: 00 hr 35 min 22 sec)
Heartbeat CPU 0 instructions: 146000772 cycles: 166084753 heartbeat IPC: 0.737 cumulative IPC: 0.6869 (Simulation time: 00 hr 35 min 30 sec)
Heartbeat CPU 0 instructions: 146500773 cycles: 166825789 heartbeat IPC: 0.6747 cumulative IPC: 0.6869 (Simulation time: 00 hr 35 min 38 sec)
Heartbeat CPU 0 instructions: 147000777 cycles: 167473689 heartbeat IPC: 0.7717 cumulative IPC: 0.6873 (Simulation time: 00 hr 35 min 45 sec)
Heartbeat CPU 0 instructions: 147500777 cycles: 168220424 heartbeat IPC: 0.6696 cumulative IPC: 0.6872 (Simulation time: 00 hr 35 min 54 sec)
Heartbeat CPU 0 instructions: 148000780 cycles: 168965650 heartbeat IPC: 0.6709 cumulative IPC: 0.6871 (Simulation time: 00 hr 36 min 02 sec)
Heartbeat CPU 0 instructions: 148500787 cycles: 169502667 heartbeat IPC: 0.9311 cumulative IPC: 0.688 (Simulation time: 00 hr 36 min 08 sec)
Heartbeat CPU 0 instructions: 149000788 cycles: 170244943 heartbeat IPC: 0.6736 cumulative IPC: 0.6879 (Simulation time: 00 hr 36 min 16 sec)
Heartbeat CPU 0 instructions: 149500792 cycles: 170952866 heartbeat IPC: 0.7063 cumulative IPC: 0.688 (Simulation time: 00 hr 36 min 24 sec)
Heartbeat CPU 0 instructions: 150000798 cycles: 171692235 heartbeat IPC: 0.6763 cumulative IPC: 0.688 (Simulation time: 00 hr 36 min 32 sec)
Heartbeat CPU 0 instructions: 150500801 cycles: 172437445 heartbeat IPC: 0.671 cumulative IPC: 0.6879 (Simulation time: 00 hr 36 min 41 sec)
Heartbeat CPU 0 instructions: 151000803 cycles: 172933039 heartbeat IPC: 1.009 cumulative IPC: 0.689 (Simulation time: 00 hr 36 min 46 sec)
Heartbeat CPU 0 instructions: 151500809 cycles: 173673466 heartbeat IPC: 0.6753 cumulative IPC: 0.6889 (Simulation time: 00 hr 36 min 54 sec)
Heartbeat CPU 0 instructions: 152000815 cycles: 174411716 heartbeat IPC: 0.6773 cumulative IPC: 0.6888 (Simulation time: 00 hr 37 min 03 sec)
Heartbeat CPU 0 instructions: 152500818 cycles: 175057216 heartbeat IPC: 0.7746 cumulative IPC: 0.6892 (Simulation time: 00 hr 37 min 10 sec)
Heartbeat CPU 0 instructions: 153000822 cycles: 175795264 heartbeat IPC: 0.6775 cumulative IPC: 0.6892 (Simulation time: 00 hr 37 min 18 sec)
Heartbeat CPU 0 instructions: 153500824 cycles: 176538448 heartbeat IPC: 0.6728 cumulative IPC: 0.6891 (Simulation time: 00 hr 37 min 27 sec)
Heartbeat CPU 0 instructions: 154000824 cycles: 177284751 heartbeat IPC: 0.67 cumulative IPC: 0.689 (Simulation time: 00 hr 37 min 35 sec)
Heartbeat CPU 0 instructions: 154500826 cycles: 178027812 heartbeat IPC: 0.6729 cumulative IPC: 0.6889 (Simulation time: 00 hr 37 min 43 sec)
Heartbeat CPU 0 instructions: 155000831 cycles: 178769831 heartbeat IPC: 0.6738 cumulative IPC: 0.6888 (Simulation time: 00 hr 37 min 52 sec)
Heartbeat CPU 0 instructions: 155500835 cycles: 179515812 heartbeat IPC: 0.6703 cumulative IPC: 0.6887 (Simulation time: 00 hr 38 min 00 sec)
Heartbeat CPU 0 instructions: 156000837 cycles: 180261581 heartbeat IPC: 0.6705 cumulative IPC: 0.6886 (Simulation time: 00 hr 38 min 08 sec)
Heartbeat CPU 0 instructions: 156500837 cycles: 181004172 heartbeat IPC: 0.6733 cumulative IPC: 0.6886 (Simulation time: 00 hr 38 min 16 sec)
Heartbeat CPU 0 instructions: 157000842 cycles: 181620431 heartbeat IPC: 0.8114 cumulative IPC: 0.6891 (Simulation time: 00 hr 38 min 23 sec)
Heartbeat CPU 0 instructions: 157500844 cycles: 182201066 heartbeat IPC: 0.8611 cumulative IPC: 0.6897 (Simulation time: 00 hr 38 min 30 sec)
Heartbeat CPU 0 instructions: 158000844 cycles: 183011893 heartbeat IPC: 0.6167 cumulative IPC: 0.6893 (Simulation time: 00 hr 38 min 39 sec)
Heartbeat CPU 0 instructions: 158500844 cycles: 183822622 heartbeat IPC: 0.6167 cumulative IPC: 0.6889 (Simulation time: 00 hr 38 min 49 sec)
Heartbeat CPU 0 instructions: 159000847 cycles: 184638000 heartbeat IPC: 0.6132 cumulative IPC: 0.6886 (Simulation time: 00 hr 38 min 58 sec)
Heartbeat CPU 0 instructions: 159500847 cycles: 185447970 heartbeat IPC: 0.6173 cumulative IPC: 0.6882 (Simulation time: 00 hr 39 min 07 sec)
Heartbeat CPU 0 instructions: 160000847 cycles: 186260371 heartbeat IPC: 0.6155 cumulative IPC: 0.6878 (Simulation time: 00 hr 39 min 17 sec)
Heartbeat CPU 0 instructions: 160500849 cycles: 187073298 heartbeat IPC: 0.6151 cumulative IPC: 0.6875 (Simulation time: 00 hr 39 min 26 sec)
Heartbeat CPU 0 instructions: 161000850 cycles: 187886820 heartbeat IPC: 0.6146 cumulative IPC: 0.6871 (Simulation time: 00 hr 39 min 35 sec)
Heartbeat CPU 0 instructions: 161500850 cycles: 188688506 heartbeat IPC: 0.6237 cumulative IPC: 0.6868 (Simulation time: 00 hr 39 min 45 sec)
Heartbeat CPU 0 instructions: 162000854 cycles: 189366697 heartbeat IPC: 0.7373 cumulative IPC: 0.687 (Simulation time: 00 hr 39 min 52 sec)
Heartbeat CPU 0 instructions: 162500856 cycles: 190104050 heartbeat IPC: 0.6781 cumulative IPC: 0.6869 (Simulation time: 00 hr 40 min 00 sec)
Heartbeat CPU 0 instructions: 163000857 cycles: 190747987 heartbeat IPC: 0.7765 cumulative IPC: 0.6873 (Simulation time: 00 hr 40 min 08 sec)
Heartbeat CPU 0 instructions: 163500862 cycles: 191482683 heartbeat IPC: 0.6806 cumulative IPC: 0.6873 (Simulation time: 00 hr 40 min 16 sec)
Heartbeat CPU 0 instructions: 164000867 cycles: 192227687 heartbeat IPC: 0.6711 cumulative IPC: 0.6872 (Simulation time: 00 hr 40 min 24 sec)
Heartbeat CPU 0 instructions: 164500873 cycles: 192765711 heartbeat IPC: 0.9293 cumulative IPC: 0.688 (Simulation time: 00 hr 40 min 30 sec)
Heartbeat CPU 0 instructions: 165000875 cycles: 193507361 heartbeat IPC: 0.6742 cumulative IPC: 0.6879 (Simulation time: 00 hr 40 min 38 sec)
Heartbeat CPU 0 instructions: 165500876 cycles: 194212253 heartbeat IPC: 0.7093 cumulative IPC: 0.688 (Simulation time: 00 hr 40 min 46 sec)
Heartbeat CPU 0 instructions: 166000879 cycles: 194944700 heartbeat IPC: 0.6826 cumulative IPC: 0.688 (Simulation time: 00 hr 40 min 55 sec)
Heartbeat CPU 0 instructions: 166500885 cycles: 195681956 heartbeat IPC: 0.6782 cumulative IPC: 0.6879 (Simulation time: 00 hr 41 min 03 sec)
Heartbeat CPU 0 instructions: 167000885 cycles: 196175939 heartbeat IPC: 1.012 cumulative IPC: 0.6889 (Simulation time: 00 hr 41 min 08 sec)
Heartbeat CPU 0 instructions: 167500887 cycles: 196917393 heartbeat IPC: 0.6744 cumulative IPC: 0.6888 (Simulation time: 00 hr 41 min 17 sec)
Heartbeat CPU 0 instructions: 168000894 cycles: 197656465 heartbeat IPC: 0.6765 cumulative IPC: 0.6888 (Simulation time: 00 hr 41 min 25 sec)
Heartbeat CPU 0 instructions: 168500900 cycles: 198305404 heartbeat IPC: 0.7705 cumulative IPC: 0.6891 (Simulation time: 00 hr 41 min 32 sec)
Heartbeat CPU 0 instructions: 169000900 cycles: 199046474 heartbeat IPC: 0.6747 cumulative IPC: 0.689 (Simulation time: 00 hr 41 min 40 sec)
Heartbeat CPU 0 instructions: 169500905 cycles: 199792624 heartbeat IPC: 0.6701 cumulative IPC: 0.6889 (Simulation time: 00 hr 41 min 49 sec)
Heartbeat CPU 0 instructions: 170000912 cycles: 200538290 heartbeat IPC: 0.6706 cumulative IPC: 0.6889 (Simulation time: 00 hr 41 min 57 sec)
Heartbeat CPU 0 instructions: 170500912 cycles: 201281751 heartbeat IPC: 0.6725 cumulative IPC: 0.6888 (Simulation time: 00 hr 42 min 05 sec)
Heartbeat CPU 0 instructions: 171000913 cycles: 202023408 heartbeat IPC: 0.6742 cumulative IPC: 0.6887 (Simulation time: 00 hr 42 min 14 sec)
Heartbeat CPU 0 instructions: 171500913 cycles: 202770328 heartbeat IPC: 0.6694 cumulative IPC: 0.6886 (Simulation time: 00 hr 42 min 22 sec)
Heartbeat CPU 0 instructions: 172000915 cycles: 203516682 heartbeat IPC: 0.6699 cumulative IPC: 0.6886 (Simulation time: 00 hr 42 min 30 sec)
Heartbeat CPU 0 instructions: 172500916 cycles: 204264053 heartbeat IPC: 0.669 cumulative IPC: 0.6885 (Simulation time: 00 hr 42 min 39 sec)
Heartbeat CPU 0 instructions: 173000920 cycles: 204852802 heartbeat IPC: 0.8493 cumulative IPC: 0.689 (Simulation time: 00 hr 42 min 45 sec)
Heartbeat CPU 0 instructions: 173500926 cycles: 205458402 heartbeat IPC: 0.8256 cumulative IPC: 0.6895 (Simulation time: 00 hr 42 min 52 sec)
Heartbeat CPU 0 instructions: 174000932 cycles: 206268364 heartbeat IPC: 0.6173 cumulative IPC: 0.6891 (Simulation time: 00 hr 43 min 01 sec)
Heartbeat CPU 0 instructions: 174500932 cycles: 207078876 heartbeat IPC: 0.6169 cumulative IPC: 0.6888 (Simulation time: 00 hr 43 min 11 sec)
Heartbeat CPU 0 instructions: 175000936 cycles: 207888996 heartbeat IPC: 0.6172 cumulative IPC: 0.6885 (Simulation time: 00 hr 43 min 20 sec)
Heartbeat CPU 0 instructions: 175500939 cycles: 208701517 heartbeat IPC: 0.6154 cumulative IPC: 0.6882 (Simulation time: 00 hr 43 min 29 sec)
Heartbeat CPU 0 instructions: 176000940 cycles: 209513038 heartbeat IPC: 0.6161 cumulative IPC: 0.6879 (Simulation time: 00 hr 43 min 39 sec)
Heartbeat CPU 0 instructions: 176500940 cycles: 210325500 heartbeat IPC: 0.6154 cumulative IPC: 0.6875 (Simulation time: 00 hr 43 min 48 sec)
Heartbeat CPU 0 instructions: 177000942 cycles: 211139318 heartbeat IPC: 0.6144 cumulative IPC: 0.6872 (Simulation time: 00 hr 43 min 57 sec)
Heartbeat CPU 0 instructions: 177500942 cycles: 211920161 heartbeat IPC: 0.6403 cumulative IPC: 0.687 (Simulation time: 00 hr 44 min 07 sec)
Heartbeat CPU 0 instructions: 178000946 cycles: 212623629 heartbeat IPC: 0.7108 cumulative IPC: 0.6871 (Simulation time: 00 hr 44 min 14 sec)
Heartbeat CPU 0 instructions: 178500951 cycles: 213367190 heartbeat IPC: 0.6724 cumulative IPC: 0.6871 (Simulation time: 00 hr 44 min 23 sec)
Heartbeat CPU 0 instructions: 179000954 cycles: 214008876 heartbeat IPC: 0.7792 cumulative IPC: 0.6874 (Simulation time: 00 hr 44 min 30 sec)
Heartbeat CPU 0 instructions: 179500955 cycles: 214748608 heartbeat IPC: 0.6759 cumulative IPC: 0.6873 (Simulation time: 00 hr 44 min 38 sec)
Heartbeat CPU 0 instructions: 180000957 cycles: 215492574 heartbeat IPC: 0.6721 cumulative IPC: 0.6873 (Simulation time: 00 hr 44 min 46 sec)
Heartbeat CPU 0 instructions: 180500959 cycles: 216023369 heartbeat IPC: 0.942 cumulative IPC: 0.688 (Simulation time: 00 hr 44 min 52 sec)
Heartbeat CPU 0 instructions: 181000962 cycles: 216762208 heartbeat IPC: 0.6767 cumulative IPC: 0.6879 (Simulation time: 00 hr 45 min 01 sec)
Heartbeat CPU 0 instructions: 181500964 cycles: 217468707 heartbeat IPC: 0.7077 cumulative IPC: 0.688 (Simulation time: 00 hr 45 min 08 sec)
Heartbeat CPU 0 instructions: 182000967 cycles: 218208280 heartbeat IPC: 0.6761 cumulative IPC: 0.688 (Simulation time: 00 hr 45 min 17 sec)
Heartbeat CPU 0 instructions: 182500972 cycles: 218951905 heartbeat IPC: 0.6724 cumulative IPC: 0.6879 (Simulation time: 00 hr 45 min 25 sec)
Heartbeat CPU 0 instructions: 183000972 cycles: 219448331 heartbeat IPC: 1.007 cumulative IPC: 0.6887 (Simulation time: 00 hr 45 min 30 sec)
Heartbeat CPU 0 instructions: 183500975 cycles: 220183850 heartbeat IPC: 0.6798 cumulative IPC: 0.6887 (Simulation time: 00 hr 45 min 39 sec)
Heartbeat CPU 0 instructions: 184000979 cycles: 220915119 heartbeat IPC: 0.6837 cumulative IPC: 0.6887 (Simulation time: 00 hr 45 min 47 sec)
Heartbeat CPU 0 instructions: 184500979 cycles: 221558247 heartbeat IPC: 0.7775 cumulative IPC: 0.689 (Simulation time: 00 hr 45 min 54 sec)
Heartbeat CPU 0 instructions: 185000979 cycles: 222298582 heartbeat IPC: 0.6754 cumulative IPC: 0.6889 (Simulation time: 00 hr 46 min 02 sec)
Heartbeat CPU 0 instructions: 185500982 cycles: 223041013 heartbeat IPC: 0.6735 cumulative IPC: 0.6889 (Simulation time: 00 hr 46 min 11 sec)
Heartbeat CPU 0 instructions: 186000984 cycles: 223780707 heartbeat IPC: 0.676 cumulative IPC: 0.6888 (Simulation time: 00 hr 46 min 19 sec)
Heartbeat CPU 0 instructions: 186500987 cycles: 224520876 heartbeat IPC: 0.6755 cumulative IPC: 0.6888 (Simulation time: 00 hr 46 min 27 sec)
Heartbeat CPU 0 instructions: 187000992 cycles: 225261586 heartbeat IPC: 0.675 cumulative IPC: 0.6887 (Simulation time: 00 hr 46 min 35 sec)
Heartbeat CPU 0 instructions: 187500992 cycles: 226004392 heartbeat IPC: 0.6731 cumulative IPC: 0.6886 (Simulation time: 00 hr 46 min 44 sec)
Heartbeat CPU 0 instructions: 188000994 cycles: 226746123 heartbeat IPC: 0.6741 cumulative IPC: 0.6886 (Simulation time: 00 hr 46 min 52 sec)
Heartbeat CPU 0 instructions: 188500994 cycles: 227488305 heartbeat IPC: 0.6737 cumulative IPC: 0.6885 (Simulation time: 00 hr 47 min 00 sec)
Heartbeat CPU 0 instructions: 189000998 cycles: 228062285 heartbeat IPC: 0.8711 cumulative IPC: 0.6891 (Simulation time: 00 hr 47 min 07 sec)
Heartbeat CPU 0 instructions: 189501005 cycles: 228689781 heartbeat IPC: 0.7968 cumulative IPC: 0.6894 (Simulation time: 00 hr 47 min 14 sec)
Heartbeat CPU 0 instructions: 190001010 cycles: 229495860 heartbeat IPC: 0.6203 cumulative IPC: 0.6891 (Simulation time: 00 hr 47 min 23 sec)
Heartbeat CPU 0 instructions: 190501010 cycles: 230306497 heartbeat IPC: 0.6168 cumulative IPC: 0.6888 (Simulation time: 00 hr 47 min 32 sec)
Heartbeat CPU 0 instructions: 191001013 cycles: 231118524 heartbeat IPC: 0.6157 cumulative IPC: 0.6885 (Simulation time: 00 hr 47 min 42 sec)
Heartbeat CPU 0 instructions: 191501013 cycles: 231928527 heartbeat IPC: 0.6173 cumulative IPC: 0.6883 (Simulation time: 00 hr 47 min 51 sec)
Heartbeat CPU 0 instructions: 192001013 cycles: 232741585 heartbeat IPC: 0.615 cumulative IPC: 0.688 (Simulation time: 00 hr 48 min 00 sec)
Heartbeat CPU 0 instructions: 192501015 cycles: 233554042 heartbeat IPC: 0.6154 cumulative IPC: 0.6877 (Simulation time: 00 hr 48 min 10 sec)
Heartbeat CPU 0 instructions: 193001015 cycles: 234364749 heartbeat IPC: 0.6167 cumulative IPC: 0.6874 (Simulation time: 00 hr 48 min 19 sec)
Heartbeat CPU 0 instructions: 193501015 cycles: 235130924 heartbeat IPC: 0.6526 cumulative IPC: 0.6873 (Simulation time: 00 hr 48 min 28 sec)
Heartbeat CPU 0 instructions: 194001017 cycles: 235844494 heartbeat IPC: 0.7007 cumulative IPC: 0.6873 (Simulation time: 00 hr 48 min 36 sec)
Heartbeat CPU 0 instructions: 194501017 cycles: 236591305 heartbeat IPC: 0.6695 cumulative IPC: 0.6873 (Simulation time: 00 hr 48 min 44 sec)
Heartbeat CPU 0 instructions: 195001017 cycles: 237236775 heartbeat IPC: 0.7746 cumulative IPC: 0.6875 (Simulation time: 00 hr 48 min 52 sec)
Heartbeat CPU 0 instructions: 195501023 cycles: 237979060 heartbeat IPC: 0.6736 cumulative IPC: 0.6875 (Simulation time: 00 hr 49 min 00 sec)
Heartbeat CPU 0 instructions: 196001026 cycles: 238705495 heartbeat IPC: 0.6883 cumulative IPC: 0.6875 (Simulation time: 00 hr 49 min 08 sec)
Heartbeat CPU 0 instructions: 196501027 cycles: 239251718 heartbeat IPC: 0.9154 cumulative IPC: 0.6881 (Simulation time: 00 hr 49 min 14 sec)
Heartbeat CPU 0 instructions: 197001032 cycles: 239989679 heartbeat IPC: 0.6775 cumulative IPC: 0.688 (Simulation time: 00 hr 49 min 22 sec)
Heartbeat CPU 0 instructions: 197501032 cycles: 240696305 heartbeat IPC: 0.7076 cumulative IPC: 0.6881 (Simulation time: 00 hr 49 min 30 sec)
Heartbeat CPU 0 instructions: 198001032 cycles: 241443162 heartbeat IPC: 0.6695 cumulative IPC: 0.688 (Simulation time: 00 hr 49 min 38 sec)
Heartbeat CPU 0 instructions: 198501038 cycles: 242187011 heartbeat IPC: 0.6722 cumulative IPC: 0.688 (Simulation time: 00 hr 49 min 47 sec)
Heartbeat CPU 0 instructions: 199001043 cycles: 242681985 heartbeat IPC: 1.01 cumulative IPC: 0.6887 (Simulation time: 00 hr 49 min 52 sec)
Heartbeat CPU 0 instructions: 199501048 cycles: 243421326 heartbeat IPC: 0.6763 cumulative IPC: 0.6887 (Simulation time: 00 hr 50 min 00 sec)
Heartbeat CPU 0 instructions: 200001048 cycles: 244159552 heartbeat IPC: 0.6773 cumulative IPC: 0.6886 (Simulation time: 00 hr 50 min 09 sec)
Heartbeat CPU 0 instructions: 200501054 cycles: 244808392 heartbeat IPC: 0.7706 cumulative IPC: 0.6889 (Simulation time: 00 hr 50 min 16 sec)
Heartbeat CPU 0 instructions: 201001058 cycles: 245549580 heartbeat IPC: 0.6746 cumulative IPC: 0.6888 (Simulation time: 00 hr 50 min 24 sec)
Heartbeat CPU 0 instructions: 201501064 cycles: 246291287 heartbeat IPC: 0.6741 cumulative IPC: 0.6888 (Simulation time: 00 hr 50 min 33 sec)
Heartbeat CPU 0 instructions: 202001068 cycles: 247035117 heartbeat IPC: 0.6722 cumulative IPC: 0.6887 (Simulation time: 00 hr 50 min 41 sec)
Heartbeat CPU 0 instructions: 202501073 cycles: 247774939 heartbeat IPC: 0.6758 cumulative IPC: 0.6887 (Simulation time: 00 hr 50 min 49 sec)
Heartbeat CPU 0 instructions: 203001073 cycles: 248516923 heartbeat IPC: 0.6739 cumulative IPC: 0.6886 (Simulation time: 00 hr 50 min 58 sec)
Heartbeat CPU 0 instructions: 203501075 cycles: 249261087 heartbeat IPC: 0.6719 cumulative IPC: 0.6886 (Simulation time: 00 hr 51 min 06 sec)
Heartbeat CPU 0 instructions: 204001076 cycles: 250005676 heartbeat IPC: 0.6715 cumulative IPC: 0.6885 (Simulation time: 00 hr 51 min 14 sec)
Heartbeat CPU 0 instructions: 204501076 cycles: 250749119 heartbeat IPC: 0.6725 cumulative IPC: 0.6885 (Simulation time: 00 hr 51 min 22 sec)
Heartbeat CPU 0 instructions: 205001076 cycles: 251302795 heartbeat IPC: 0.9031 cumulative IPC: 0.689 (Simulation time: 00 hr 51 min 29 sec)
Heartbeat CPU 0 instructions: 205501079 cycles: 251954586 heartbeat IPC: 0.7671 cumulative IPC: 0.6892 (Simulation time: 00 hr 51 min 36 sec)
Heartbeat CPU 0 instructions: 206001079 cycles: 252764830 heartbeat IPC: 0.6171 cumulative IPC: 0.689 (Simulation time: 00 hr 51 min 45 sec)
Heartbeat CPU 0 instructions: 206501079 cycles: 253572276 heartbeat IPC: 0.6192 cumulative IPC: 0.6887 (Simulation time: 00 hr 51 min 55 sec)
Heartbeat CPU 0 instructions: 207001079 cycles: 254382925 heartbeat IPC: 0.6168 cumulative IPC: 0.6885 (Simulation time: 00 hr 52 min 04 sec)
Heartbeat CPU 0 instructions: 207501079 cycles: 255194707 heartbeat IPC: 0.6159 cumulative IPC: 0.6882 (Simulation time: 00 hr 52 min 14 sec)
Heartbeat CPU 0 instructions: 208001084 cycles: 256005241 heartbeat IPC: 0.6169 cumulative IPC: 0.6879 (Simulation time: 00 hr 52 min 23 sec)
Heartbeat CPU 0 instructions: 208501084 cycles: 256813884 heartbeat IPC: 0.6183 cumulative IPC: 0.6877 (Simulation time: 00 hr 52 min 32 sec)
Heartbeat CPU 0 instructions: 209001088 cycles: 257624421 heartbeat IPC: 0.6169 cumulative IPC: 0.6875 (Simulation time: 00 hr 52 min 42 sec)
Heartbeat CPU 0 instructions: 209501092 cycles: 258371974 heartbeat IPC: 0.6689 cumulative IPC: 0.6874 (Simulation time: 00 hr 52 min 50 sec)
Heartbeat CPU 0 instructions: 210001093 cycles: 259096012 heartbeat IPC: 0.6906 cumulative IPC: 0.6874 (Simulation time: 00 hr 52 min 58 sec)
Heartbeat CPU 0 instructions: 210501099 cycles: 259835782 heartbeat IPC: 0.6759 cumulative IPC: 0.6874 (Simulation time: 00 hr 53 min 07 sec)
Heartbeat CPU 0 instructions: 211001104 cycles: 260479752 heartbeat IPC: 0.7764 cumulative IPC: 0.6876 (Simulation time: 00 hr 53 min 14 sec)
Heartbeat CPU 0 instructions: 211501111 cycles: 261226763 heartbeat IPC: 0.6693 cumulative IPC: 0.6876 (Simulation time: 00 hr 53 min 22 sec)
Heartbeat CPU 0 instructions: 212001115 cycles: 261935321 heartbeat IPC: 0.7057 cumulative IPC: 0.6876 (Simulation time: 00 hr 53 min 30 sec)
Heartbeat CPU 0 instructions: 212501121 cycles: 262513284 heartbeat IPC: 0.8651 cumulative IPC: 0.688 (Simulation time: 00 hr 53 min 37 sec)
Heartbeat CPU 0 instructions: 213001122 cycles: 263255325 heartbeat IPC: 0.6738 cumulative IPC: 0.688 (Simulation time: 00 hr 53 min 45 sec)
Heartbeat CPU 0 instructions: 213501126 cycles: 263962085 heartbeat IPC: 0.7075 cumulative IPC: 0.6881 (Simulation time: 00 hr 53 min 53 sec)
Heartbeat CPU 0 instructions: 214001126 cycles: 264708607 heartbeat IPC: 0.6698 cumulative IPC: 0.688 (Simulation time: 00 hr 54 min 01 sec)
Heartbeat CPU 0 instructions: 214501133 cycles: 265453354 heartbeat IPC: 0.6714 cumulative IPC: 0.6879 (Simulation time: 00 hr 54 min 10 sec)
Heartbeat CPU 0 instructions: 215001137 cycles: 265946889 heartbeat IPC: 1.013 cumulative IPC: 0.6886 (Simulation time: 00 hr 54 min 15 sec)
Heartbeat CPU 0 instructions: 215501144 cycles: 266674760 heartbeat IPC: 0.6869 cumulative IPC: 0.6886 (Simulation time: 00 hr 54 min 23 sec)
Heartbeat CPU 0 instructions: 216001149 cycles: 267410167 heartbeat IPC: 0.6799 cumulative IPC: 0.6886 (Simulation time: 00 hr 54 min 31 sec)
Heartbeat CPU 0 instructions: 216501150 cycles: 268053840 heartbeat IPC: 0.7768 cumulative IPC: 0.6888 (Simulation time: 00 hr 54 min 39 sec)
Heartbeat CPU 0 instructions: 217001153 cycles: 268795426 heartbeat IPC: 0.6742 cumulative IPC: 0.6888 (Simulation time: 00 hr 54 min 47 sec)
Heartbeat CPU 0 instructions: 217501159 cycles: 269533978 heartbeat IPC: 0.677 cumulative IPC: 0.6887 (Simulation time: 00 hr 54 min 55 sec)
Heartbeat CPU 0 instructions: 218001163 cycles: 270276626 heartbeat IPC: 0.6733 cumulative IPC: 0.6887 (Simulation time: 00 hr 55 min 04 sec)
Heartbeat CPU 0 instructions: 218501163 cycles: 271012605 heartbeat IPC: 0.6794 cumulative IPC: 0.6887 (Simulation time: 00 hr 55 min 12 sec)
Heartbeat CPU 0 instructions: 219001168 cycles: 271746895 heartbeat IPC: 0.6809 cumulative IPC: 0.6886 (Simulation time: 00 hr 55 min 20 sec)
Heartbeat CPU 0 instructions: 219501169 cycles: 272487892 heartbeat IPC: 0.6748 cumulative IPC: 0.6886 (Simulation time: 00 hr 55 min 29 sec)
Heartbeat CPU 0 instructions: 220001171 cycles: 273231144 heartbeat IPC: 0.6727 cumulative IPC: 0.6886 (Simulation time: 00 hr 55 min 37 sec)
Heartbeat CPU 0 instructions: 220501171 cycles: 273972749 heartbeat IPC: 0.6742 cumulative IPC: 0.6885 (Simulation time: 00 hr 55 min 45 sec)
Heartbeat CPU 0 instructions: 221001178 cycles: 274504893 heartbeat IPC: 0.9396 cumulative IPC: 0.689 (Simulation time: 00 hr 55 min 51 sec)
Heartbeat CPU 0 instructions: 221501181 cycles: 275176406 heartbeat IPC: 0.7446 cumulative IPC: 0.6892 (Simulation time: 00 hr 55 min 59 sec)
Heartbeat CPU 0 instructions: 222001184 cycles: 275986160 heartbeat IPC: 0.6175 cumulative IPC: 0.689 (Simulation time: 00 hr 56 min 09 sec)
Heartbeat CPU 0 instructions: 222501184 cycles: 276795889 heartbeat IPC: 0.6175 cumulative IPC: 0.6887 (Simulation time: 00 hr 56 min 18 sec)
Heartbeat CPU 0 instructions: 223001190 cycles: 277604871 heartbeat IPC: 0.6181 cumulative IPC: 0.6885 (Simulation time: 00 hr 56 min 27 sec)
Heartbeat CPU 0 instructions: 223501190 cycles: 278411273 heartbeat IPC: 0.62 cumulative IPC: 0.6883 (Simulation time: 00 hr 56 min 37 sec)
Heartbeat CPU 0 instructions: 224001194 cycles: 279220664 heartbeat IPC: 0.6178 cumulative IPC: 0.6881 (Simulation time: 00 hr 56 min 46 sec)
Heartbeat CPU 0 instructions: 224501200 cycles: 280027482 heartbeat IPC: 0.6197 cumulative IPC: 0.6878 (Simulation time: 00 hr 56 min 56 sec)
Heartbeat CPU 0 instructions: 225001200 cycles: 280837680 heartbeat IPC: 0.6171 cumulative IPC: 0.6876 (Simulation time: 00 hr 57 min 05 sec)
Heartbeat CPU 0 instructions: 225501204 cycles: 281568058 heartbeat IPC: 0.6846 cumulative IPC: 0.6876 (Simulation time: 00 hr 57 min 14 sec)
Heartbeat CPU 0 instructions: 226001209 cycles: 282308903 heartbeat IPC: 0.6749 cumulative IPC: 0.6876 (Simulation time: 00 hr 57 min 22 sec)
Heartbeat CPU 0 instructions: 226501214 cycles: 283046030 heartbeat IPC: 0.6783 cumulative IPC: 0.6875 (Simulation time: 00 hr 57 min 30 sec)
Heartbeat CPU 0 instructions: 227001214 cycles: 283691756 heartbeat IPC: 0.7743 cumulative IPC: 0.6878 (Simulation time: 00 hr 57 min 37 sec)
Heartbeat CPU 0 instructions: 227501214 cycles: 284427701 heartbeat IPC: 0.6794 cumulative IPC: 0.6877 (Simulation time: 00 hr 57 min 46 sec)
Heartbeat CPU 0 instructions: 228001219 cycles: 285116620 heartbeat IPC: 0.7258 cumulative IPC: 0.6878 (Simulation time: 00 hr 57 min 53 sec)
Heartbeat CPU 0 instructions: 228501221 cycles: 285709551 heartbeat IPC: 0.8433 cumulative IPC: 0.6882 (Simulation time: 00 hr 58 min 00 sec)
Heartbeat CPU 0 instructions: 229001226 cycles: 286447837 heartbeat IPC: 0.6773 cumulative IPC: 0.6882 (Simulation time: 00 hr 58 min 08 sec)
Heartbeat CPU 0 instructions: 229501227 cycles: 287148733 heartbeat IPC: 0.7134 cumulative IPC: 0.6882 (Simulation time: 00 hr 58 min 16 sec)
Heartbeat CPU 0 instructions: 230001230 cycles: 287889315 heartbeat IPC: 0.6751 cumulative IPC: 0.6882 (Simulation time: 00 hr 58 min 25 sec)
Heartbeat CPU 0 instructions: 230501235 cycles: 288626295 heartbeat IPC: 0.6785 cumulative IPC: 0.6882 (Simulation time: 00 hr 58 min 33 sec)
Heartbeat CPU 0 instructions: 231001235 cycles: 289119298 heartbeat IPC: 1.014 cumulative IPC: 0.6888 (Simulation time: 00 hr 58 min 38 sec)
Heartbeat CPU 0 instructions: 231501237 cycles: 289859010 heartbeat IPC: 0.6759 cumulative IPC: 0.6887 (Simulation time: 00 hr 58 min 47 sec)
Heartbeat CPU 0 instructions: 232001242 cycles: 290595124 heartbeat IPC: 0.6792 cumulative IPC: 0.6887 (Simulation time: 00 hr 58 min 55 sec)
Heartbeat CPU 0 instructions: 232501245 cycles: 291239714 heartbeat IPC: 0.7757 cumulative IPC: 0.6889 (Simulation time: 00 hr 59 min 02 sec)
Heartbeat CPU 0 instructions: 233001247 cycles: 291981122 heartbeat IPC: 0.6744 cumulative IPC: 0.6889 (Simulation time: 00 hr 59 min 11 sec)
Heartbeat CPU 0 instructions: 233501251 cycles: 292724728 heartbeat IPC: 0.6724 cumulative IPC: 0.6888 (Simulation time: 00 hr 59 min 19 sec)
Heartbeat CPU 0 instructions: 234001253 cycles: 293468835 heartbeat IPC: 0.6719 cumulative IPC: 0.6888 (Simulation time: 00 hr 59 min 27 sec)
Heartbeat CPU 0 instructions: 234501258 cycles: 294216382 heartbeat IPC: 0.6689 cumulative IPC: 0.6887 (Simulation time: 00 hr 59 min 36 sec)
Heartbeat CPU 0 instructions: 235001263 cycles: 294961190 heartbeat IPC: 0.6713 cumulative IPC: 0.6887 (Simulation time: 00 hr 59 min 44 sec)
Heartbeat CPU 0 instructions: 235501269 cycles: 295705469 heartbeat IPC: 0.6718 cumulative IPC: 0.6886 (Simulation time: 00 hr 59 min 52 sec)
Heartbeat CPU 0 instructions: 236001273 cycles: 296449398 heartbeat IPC: 0.6721 cumulative IPC: 0.6886 (Simulation time: 01 hr 00 min 01 sec)
Heartbeat CPU 0 instructions: 236501278 cycles: 297195854 heartbeat IPC: 0.6698 cumulative IPC: 0.6886 (Simulation time: 01 hr 00 min 09 sec)
Heartbeat CPU 0 instructions: 237001278 cycles: 297704176 heartbeat IPC: 0.9836 cumulative IPC: 0.6891 (Simulation time: 01 hr 00 min 15 sec)
Heartbeat CPU 0 instructions: 237501283 cycles: 298397799 heartbeat IPC: 0.7209 cumulative IPC: 0.6892 (Simulation time: 01 hr 00 min 23 sec)
Heartbeat CPU 0 instructions: 238001283 cycles: 299207161 heartbeat IPC: 0.6178 cumulative IPC: 0.689 (Simulation time: 01 hr 00 min 32 sec)
Heartbeat CPU 0 instructions: 238501284 cycles: 300017207 heartbeat IPC: 0.6173 cumulative IPC: 0.6888 (Simulation time: 01 hr 00 min 41 sec)
Heartbeat CPU 0 instructions: 239001284 cycles: 300828859 heartbeat IPC: 0.616 cumulative IPC: 0.6885 (Simulation time: 01 hr 00 min 51 sec)
Heartbeat CPU 0 instructions: 239501284 cycles: 301638427 heartbeat IPC: 0.6176 cumulative IPC: 0.6883 (Simulation time: 01 hr 01 min 00 sec)
Heartbeat CPU 0 instructions: 240001287 cycles: 302450542 heartbeat IPC: 0.6157 cumulative IPC: 0.6881 (Simulation time: 01 hr 01 min 10 sec)
Heartbeat CPU 0 instructions: 240501287 cycles: 303262488 heartbeat IPC: 0.6158 cumulative IPC: 0.6879 (Simulation time: 01 hr 01 min 19 sec)
Heartbeat CPU 0 instructions: 241001289 cycles: 304070968 heartbeat IPC: 0.6184 cumulative IPC: 0.6877 (Simulation time: 01 hr 01 min 28 sec)
Heartbeat CPU 0 instructions: 241501291 cycles: 304801918 heartbeat IPC: 0.684 cumulative IPC: 0.6877 (Simulation time: 01 hr 01 min 37 sec)
Heartbeat CPU 0 instructions: 242001294 cycles: 305545888 heartbeat IPC: 0.6721 cumulative IPC: 0.6877 (Simulation time: 01 hr 01 min 45 sec)
Heartbeat CPU 0 instructions: 242501300 cycles: 306287152 heartbeat IPC: 0.6745 cumulative IPC: 0.6876 (Simulation time: 01 hr 01 min 54 sec)
Heartbeat CPU 0 instructions: 243001305 cycles: 306933358 heartbeat IPC: 0.7738 cumulative IPC: 0.6878 (Simulation time: 01 hr 02 min 01 sec)
Heartbeat CPU 0 instructions: 243501309 cycles: 307670733 heartbeat IPC: 0.6781 cumulative IPC: 0.6878 (Simulation time: 01 hr 02 min 09 sec)
Heartbeat CPU 0 instructions: 244001313 cycles: 308349936 heartbeat IPC: 0.7362 cumulative IPC: 0.6879 (Simulation time: 01 hr 02 min 17 sec)
Heartbeat CPU 0 instructions: 244501315 cycles: 308946973 heartbeat IPC: 0.8375 cumulative IPC: 0.6882 (Simulation time: 01 hr 02 min 24 sec)
Heartbeat CPU 0 instructions: 245001319 cycles: 309688973 heartbeat IPC: 0.6739 cumulative IPC: 0.6882 (Simulation time: 01 hr 02 min 32 sec)
Heartbeat CPU 0 instructions: 245501322 cycles: 310394815 heartbeat IPC: 0.7084 cumulative IPC: 0.6882 (Simulation time: 01 hr 02 min 40 sec)
Heartbeat CPU 0 instructions: 246001323 cycles: 311138329 heartbeat IPC: 0.6725 cumulative IPC: 0.6882 (Simulation time: 01 hr 02 min 48 sec)
Heartbeat CPU 0 instructions: 246501324 cycles: 311881097 heartbeat IPC: 0.6732 cumulative IPC: 0.6882 (Simulation time: 01 hr 02 min 56 sec)
Heartbeat CPU 0 instructions: 247001326 cycles: 312372192 heartbeat IPC: 1.018 cumulative IPC: 0.6887 (Simulation time: 01 hr 03 min 02 sec)
Heartbeat CPU 0 instructions: 247501327 cycles: 313102069 heartbeat IPC: 0.685 cumulative IPC: 0.6887 (Simulation time: 01 hr 03 min 10 sec)
Heartbeat CPU 0 instructions: 248001331 cycles: 313822887 heartbeat IPC: 0.6937 cumulative IPC: 0.6887 (Simulation time: 01 hr 03 min 18 sec)
Heartbeat CPU 0 instructions: 248501338 cycles: 314483639 heartbeat IPC: 0.7567 cumulative IPC: 0.6889 (Simulation time: 01 hr 03 min 26 sec)
Heartbeat CPU 0 instructions: 249001340 cycles: 315229448 heartbeat IPC: 0.6704 cumulative IPC: 0.6888 (Simulation time: 01 hr 03 min 34 sec)
Heartbeat CPU 0 instructions: 249501343 cycles: 315972852 heartbeat IPC: 0.6726 cumulative IPC: 0.6888 (Simulation time: 01 hr 03 min 42 sec)
Simulation finished CPU 0 instructions: 200000000 cycles: 290376893 cumulative IPC: 0.6888 (Simulation time: 01 hr 03 min 51 sec)
Simulation complete CPU 0 instructions: 200000000 cycles: 290376893 cumulative IPC: 0.6888 (Simulation time: 01 hr 03 min 51 sec)

ChampSim completed all CPUs

=== Simulation ===
CPU 0 runs /local-ssd/ben/dpc4-traces/ai-ml/rwkv_trace_2.champsimtrace.gz

Region of Interest Statistics

CPU 0 cumulative IPC: 0.6888 instructions: 200000000 cycles: 290376893
CPU 0 Branch Prediction Accuracy: 98.1% MPKI: 1.407 Average ROB Occupancy at Mispredict: 516.3
Branch type MPKI
BRANCH_DIRECT_JUMP: 0
BRANCH_INDIRECT: 0.004615
BRANCH_CONDITIONAL: 1.402
BRANCH_DIRECT_CALL: 0
BRANCH_INDIRECT_CALL: 0
BRANCH_RETURN: 5e-06

cpu0->cpu0_STLB TOTAL        ACCESS:     367026 HIT:      30775 MISS:     336251 MSHR_MERGE:          0
cpu0->cpu0_STLB LOAD         ACCESS:     367026 HIT:      30775 MISS:     336251 MSHR_MERGE:          0
cpu0->cpu0_STLB RFO          ACCESS:          0 HIT:          0 MISS:          0 MSHR_MERGE:          0
cpu0->cpu0_STLB PREFETCH     ACCESS:          0 HIT:          0 MISS:          0 MSHR_MERGE:          0
cpu0->cpu0_STLB WRITE        ACCESS:          0 HIT:          0 MISS:          0 MSHR_MERGE:          0
cpu0->cpu0_STLB TRANSLATION  ACCESS:          0 HIT:          0 MISS:          0 MSHR_MERGE:          0
cpu0->cpu0_STLB PREFETCH REQUESTED:          0 ISSUED:          0 USEFUL:          0 USELESS:          0
cpu0->cpu0_STLB AVERAGE MISS LATENCY: 246.3 cycles
cpu0->cpu0_L2C TOTAL        ACCESS:  100074552 HIT:    8845571 MISS:   91228981 MSHR_MERGE:   69739713
cpu0->cpu0_L2C LOAD         ACCESS:   18611164 HIT:     859957 MISS:   17751207 MSHR_MERGE:   12323612
cpu0->cpu0_L2C RFO          ACCESS:     102999 HIT:      60503 MISS:      42496 MSHR_MERGE:          0
cpu0->cpu0_L2C PREFETCH     ACCESS:   81113044 HIT:    7728886 MISS:   73384158 MSHR_MERGE:   57416101
cpu0->cpu0_L2C WRITE        ACCESS:     202951 HIT:     195667 MISS:       7284 MSHR_MERGE:          0
cpu0->cpu0_L2C TRANSLATION  ACCESS:      44394 HIT:        558 MISS:      43836 MSHR_MERGE:          0
cpu0->cpu0_L2C PREFETCH REQUESTED:  100616695 ISSUED:   77691595 USEFUL:   13020595 USELESS:     894254
cpu0->cpu0_L2C AVERAGE MISS LATENCY: 137 cycles
cpu0->cpu0_L1I TOTAL        ACCESS:   38327220 HIT:   38327220 MISS:          0 MSHR_MERGE:          0
cpu0->cpu0_L1I LOAD         ACCESS:   38327220 HIT:   38327220 MISS:          0 MSHR_MERGE:          0
cpu0->cpu0_L1I RFO          ACCESS:          0 HIT:          0 MISS:          0 MSHR_MERGE:          0
cpu0->cpu0_L1I PREFETCH     ACCESS:          0 HIT:          0 MISS:          0 MSHR_MERGE:          0
cpu0->cpu0_L1I WRITE        ACCESS:          0 HIT:          0 MISS:          0 MSHR_MERGE:          0
cpu0->cpu0_L1I TRANSLATION  ACCESS:          0 HIT:          0 MISS:          0 MSHR_MERGE:          0
cpu0->cpu0_L1I PREFETCH REQUESTED:          0 ISSUED:          0 USEFUL:          0 USELESS:          0
cpu0->cpu0_L1I AVERAGE MISS LATENCY: - cycles
cpu0->cpu0_L1D TOTAL        ACCESS:   66428246 HIT:   38342970 MISS:   28085276 MSHR_MERGE:    5905253
cpu0->cpu0_L1D LOAD         ACCESS:   49852880 HIT:   27259849 MISS:   22593031 MSHR_MERGE:    3981866
cpu0->cpu0_L1D RFO          ACCESS:          0 HIT:          0 MISS:          0 MSHR_MERGE:          0
cpu0->cpu0_L1D PREFETCH     ACCESS:   13393741 HIT:    8188657 MISS:    5205084 MSHR_MERGE:    1783623
cpu0->cpu0_L1D WRITE        ACCESS:    2508362 HIT:    2265613 MISS:     242749 MSHR_MERGE:     139746
cpu0->cpu0_L1D TRANSLATION  ACCESS:     673263 HIT:     628851 MISS:      44412 MSHR_MERGE:         18
cpu0->cpu0_L1D PREFETCH REQUESTED:  290798994 ISSUED:   13393738 USEFUL:    2957009 USELESS:     464431
cpu0->cpu0_L1D AVERAGE MISS LATENCY: 138 cycles
cpu0->cpu0_ITLB TOTAL        ACCESS:   25709424 HIT:   25709424 MISS:          0 MSHR_MERGE:          0
cpu0->cpu0_ITLB LOAD         ACCESS:   25709424 HIT:   25709424 MISS:          0 MSHR_MERGE:          0
cpu0->cpu0_ITLB RFO          ACCESS:          0 HIT:          0 MISS:          0 MSHR_MERGE:          0
cpu0->cpu0_ITLB PREFETCH     ACCESS:          0 HIT:          0 MISS:          0 MSHR_MERGE:          0
cpu0->cpu0_ITLB WRITE        ACCESS:          0 HIT:          0 MISS:          0 MSHR_MERGE:          0
cpu0->cpu0_ITLB TRANSLATION  ACCESS:          0 HIT:          0 MISS:          0 MSHR_MERGE:          0
cpu0->cpu0_ITLB PREFETCH REQUESTED:          0 ISSUED:          0 USEFUL:          0 USELESS:          0
cpu0->cpu0_ITLB AVERAGE MISS LATENCY: - cycles
cpu0->cpu0_DTLB TOTAL        ACCESS:   60195993 HIT:   55162557 MISS:    5033436 MSHR_MERGE:    4666410
cpu0->cpu0_DTLB LOAD         ACCESS:   60195993 HIT:   55162557 MISS:    5033436 MSHR_MERGE:    4666410
cpu0->cpu0_DTLB RFO          ACCESS:          0 HIT:          0 MISS:          0 MSHR_MERGE:          0
cpu0->cpu0_DTLB PREFETCH     ACCESS:          0 HIT:          0 MISS:          0 MSHR_MERGE:          0
cpu0->cpu0_DTLB WRITE        ACCESS:          0 HIT:          0 MISS:          0 MSHR_MERGE:          0
cpu0->cpu0_DTLB TRANSLATION  ACCESS:          0 HIT:          0 MISS:          0 MSHR_MERGE:          0
cpu0->cpu0_DTLB PREFETCH REQUESTED:          0 ISSUED:          0 USEFUL:          0 USELESS:          0
cpu0->cpu0_DTLB AVERAGE MISS LATENCY: 231.6 cycles
cpu0->LLC TOTAL        ACCESS:   42259905 HIT:    1436772 MISS:   40823133 MSHR_MERGE:   19337486
cpu0->LLC LOAD         ACCESS:    5427595 HIT:     421583 MISS:    5006012 MSHR_MERGE:    1674019
cpu0->LLC RFO          ACCESS:      42496 HIT:      18574 MISS:      23922 MSHR_MERGE:          0
cpu0->LLC PREFETCH     ACCESS:   36667746 HIT:     942299 MISS:   35725447 MSHR_MERGE:   17663467
cpu0->LLC WRITE        ACCESS:      78232 HIT:      53906 MISS:      24326 MSHR_MERGE:          0
cpu0->LLC TRANSLATION  ACCESS:      43836 HIT:        410 MISS:      43426 MSHR_MERGE:          0
cpu0->LLC PREFETCH REQUESTED:   23776095 ISSUED:   20699693 USEFUL:    2908008 USELESS:   12220455
cpu0->LLC AVERAGE MISS LATENCY: 215.7 cycles

DRAM Statistics

Channel 0 RQ ROW_BUFFER_HIT:   10469026
  ROW_BUFFER_MISS:   10992218
  AVG DBUS CONGESTED CYCLE: 4.038
Channel 0 WQ ROW_BUFFER_HIT:        996
  ROW_BUFFER_MISS:      35523
  FULL:          0
Channel 0 REFRESHES ISSUED:      24196
