[VMEM] WARNING: physical memory size is smaller than virtual memory size.

*** ChampSim Multicore Out-of-Order Simulator ***
Warmup Instructions: 50000000
Simulation Instructions: 200000000
Number of CPUs: 1
Page size: 4096
Core 0: /local-ssd/ben/dpc4-traces/ai-ml/clip_trace_3.champsimtrace.gz
Off-chip DRAM Size: 64 GiB Channels: 1 Width: 64-bit Data Rate: 4807 MT/s
Heartbeat CPU 0 instructions: 500005 cycles: 149131 heartbeat IPC: 3.353 cumulative IPC: 3.353 (Simulation time: 00 hr 00 min 03 sec)
Heartbeat CPU 0 instructions: 1000008 cycles: 297562 heartbeat IPC: 3.369 cumulative IPC: 3.361 (Simulation time: 00 hr 00 min 05 sec)
Heartbeat CPU 0 instructions: 1500009 cycles: 444781 heartbeat IPC: 3.396 cumulative IPC: 3.372 (Simulation time: 00 hr 00 min 08 sec)
Heartbeat CPU 0 instructions: 2000013 cycles: 592689 heartbeat IPC: 3.381 cumulative IPC: 3.374 (Simulation time: 00 hr 00 min 10 sec)
Heartbeat CPU 0 instructions: 2500013 cycles: 732890 heartbeat IPC: 3.566 cumulative IPC: 3.411 (Simulation time: 00 hr 00 min 13 sec)
Heartbeat CPU 0 instructions: 3000016 cycles: 880481 heartbeat IPC: 3.388 cumulative IPC: 3.407 (Simulation time: 00 hr 00 min 15 sec)
Heartbeat CPU 0 instructions: 3500017 cycles: 1028934 heartbeat IPC: 3.368 cumulative IPC: 3.402 (Simulation time: 00 hr 00 min 18 sec)
Heartbeat CPU 0 instructions: 4000021 cycles: 1177578 heartbeat IPC: 3.364 cumulative IPC: 3.397 (Simulation time: 00 hr 00 min 21 sec)
Heartbeat CPU 0 instructions: 4500022 cycles: 1325837 heartbeat IPC: 3.372 cumulative IPC: 3.394 (Simulation time: 00 hr 00 min 23 sec)
Heartbeat CPU 0 instructions: 5000025 cycles: 1474431 heartbeat IPC: 3.365 cumulative IPC: 3.391 (Simulation time: 00 hr 00 min 26 sec)
Heartbeat CPU 0 instructions: 5500025 cycles: 1622142 heartbeat IPC: 3.385 cumulative IPC: 3.391 (Simulation time: 00 hr 00 min 29 sec)
Heartbeat CPU 0 instructions: 6000030 cycles: 1770536 heartbeat IPC: 3.369 cumulative IPC: 3.389 (Simulation time: 00 hr 00 min 31 sec)
Heartbeat CPU 0 instructions: 6500030 cycles: 1918688 heartbeat IPC: 3.375 cumulative IPC: 3.388 (Simulation time: 00 hr 00 min 34 sec)
Heartbeat CPU 0 instructions: 7000034 cycles: 2066890 heartbeat IPC: 3.374 cumulative IPC: 3.387 (Simulation time: 00 hr 00 min 37 sec)
Heartbeat CPU 0 instructions: 7500034 cycles: 2215095 heartbeat IPC: 3.374 cumulative IPC: 3.386 (Simulation time: 00 hr 00 min 39 sec)
Heartbeat CPU 0 instructions: 8000036 cycles: 2363632 heartbeat IPC: 3.366 cumulative IPC: 3.385 (Simulation time: 00 hr 00 min 42 sec)
Heartbeat CPU 0 instructions: 8500042 cycles: 2503018 heartbeat IPC: 3.587 cumulative IPC: 3.396 (Simulation time: 00 hr 00 min 45 sec)
Heartbeat CPU 0 instructions: 9000049 cycles: 2651440 heartbeat IPC: 3.369 cumulative IPC: 3.394 (Simulation time: 00 hr 00 min 47 sec)
Heartbeat CPU 0 instructions: 9500051 cycles: 2799830 heartbeat IPC: 3.37 cumulative IPC: 3.393 (Simulation time: 00 hr 00 min 50 sec)
Heartbeat CPU 0 instructions: 10000052 cycles: 2948396 heartbeat IPC: 3.366 cumulative IPC: 3.392 (Simulation time: 00 hr 00 min 52 sec)
Heartbeat CPU 0 instructions: 10500059 cycles: 3097014 heartbeat IPC: 3.364 cumulative IPC: 3.39 (Simulation time: 00 hr 00 min 55 sec)
Heartbeat CPU 0 instructions: 11000064 cycles: 3245286 heartbeat IPC: 3.372 cumulative IPC: 3.39 (Simulation time: 00 hr 00 min 58 sec)
Heartbeat CPU 0 instructions: 11500067 cycles: 3392970 heartbeat IPC: 3.386 cumulative IPC: 3.389 (Simulation time: 00 hr 01 min 00 sec)
Heartbeat CPU 0 instructions: 12000071 cycles: 3541313 heartbeat IPC: 3.371 cumulative IPC: 3.389 (Simulation time: 00 hr 01 min 03 sec)
Heartbeat CPU 0 instructions: 12500071 cycles: 3689390 heartbeat IPC: 3.377 cumulative IPC: 3.388 (Simulation time: 00 hr 01 min 06 sec)
Heartbeat CPU 0 instructions: 13000075 cycles: 3837764 heartbeat IPC: 3.37 cumulative IPC: 3.387 (Simulation time: 00 hr 01 min 08 sec)
Heartbeat CPU 0 instructions: 13500077 cycles: 3985950 heartbeat IPC: 3.374 cumulative IPC: 3.387 (Simulation time: 00 hr 01 min 11 sec)
Heartbeat CPU 0 instructions: 14000077 cycles: 4133739 heartbeat IPC: 3.383 cumulative IPC: 3.387 (Simulation time: 00 hr 01 min 14 sec)
Heartbeat CPU 0 instructions: 14500077 cycles: 4280715 heartbeat IPC: 3.402 cumulative IPC: 3.387 (Simulation time: 00 hr 01 min 16 sec)
Heartbeat CPU 0 instructions: 15000078 cycles: 4427368 heartbeat IPC: 3.409 cumulative IPC: 3.388 (Simulation time: 00 hr 01 min 19 sec)
Heartbeat CPU 0 instructions: 15500085 cycles: 4572561 heartbeat IPC: 3.444 cumulative IPC: 3.39 (Simulation time: 00 hr 01 min 22 sec)
Heartbeat CPU 0 instructions: 16000087 cycles: 4719382 heartbeat IPC: 3.406 cumulative IPC: 3.39 (Simulation time: 00 hr 01 min 24 sec)
Heartbeat CPU 0 instructions: 16500092 cycles: 4866220 heartbeat IPC: 3.405 cumulative IPC: 3.391 (Simulation time: 00 hr 01 min 27 sec)
Heartbeat CPU 0 instructions: 17000097 cycles: 5012961 heartbeat IPC: 3.407 cumulative IPC: 3.391 (Simulation time: 00 hr 01 min 29 sec)
Heartbeat CPU 0 instructions: 17500097 cycles: 5159894 heartbeat IPC: 3.403 cumulative IPC: 3.392 (Simulation time: 00 hr 01 min 32 sec)
Heartbeat CPU 0 instructions: 18000101 cycles: 5306887 heartbeat IPC: 3.402 cumulative IPC: 3.392 (Simulation time: 00 hr 01 min 35 sec)
Heartbeat CPU 0 instructions: 18500108 cycles: 5453714 heartbeat IPC: 3.405 cumulative IPC: 3.392 (Simulation time: 00 hr 01 min 37 sec)
Heartbeat CPU 0 instructions: 19000109 cycles: 5600537 heartbeat IPC: 3.405 cumulative IPC: 3.393 (Simulation time: 00 hr 01 min 40 sec)
Heartbeat CPU 0 instructions: 19500112 cycles: 5747433 heartbeat IPC: 3.404 cumulative IPC: 3.393 (Simulation time: 00 hr 01 min 43 sec)
Heartbeat CPU 0 instructions: 20000115 cycles: 5894110 heartbeat IPC: 3.409 cumulative IPC: 3.393 (Simulation time: 00 hr 01 min 45 sec)
Heartbeat CPU 0 instructions: 20500122 cycles: 6040724 heartbeat IPC: 3.41 cumulative IPC: 3.394 (Simulation time: 00 hr 01 min 48 sec)
Heartbeat CPU 0 instructions: 21000125 cycles: 6187677 heartbeat IPC: 3.402 cumulative IPC: 3.394 (Simulation time: 00 hr 01 min 51 sec)
Heartbeat CPU 0 instructions: 21500126 cycles: 6334627 heartbeat IPC: 3.403 cumulative IPC: 3.394 (Simulation time: 00 hr 01 min 53 sec)
Heartbeat CPU 0 instructions: 22000127 cycles: 6481446 heartbeat IPC: 3.406 cumulative IPC: 3.394 (Simulation time: 00 hr 01 min 56 sec)
Heartbeat CPU 0 instructions: 22500134 cycles: 6628466 heartbeat IPC: 3.401 cumulative IPC: 3.394 (Simulation time: 00 hr 01 min 59 sec)
Heartbeat CPU 0 instructions: 23000135 cycles: 6775457 heartbeat IPC: 3.402 cumulative IPC: 3.395 (Simulation time: 00 hr 02 min 01 sec)
Heartbeat CPU 0 instructions: 23500136 cycles: 6922354 heartbeat IPC: 3.404 cumulative IPC: 3.395 (Simulation time: 00 hr 02 min 04 sec)
Heartbeat CPU 0 instructions: 24000139 cycles: 7069337 heartbeat IPC: 3.402 cumulative IPC: 3.395 (Simulation time: 00 hr 02 min 07 sec)
Heartbeat CPU 0 instructions: 24500144 cycles: 7216235 heartbeat IPC: 3.404 cumulative IPC: 3.395 (Simulation time: 00 hr 02 min 09 sec)
Heartbeat CPU 0 instructions: 25000151 cycles: 7363112 heartbeat IPC: 3.404 cumulative IPC: 3.395 (Simulation time: 00 hr 02 min 12 sec)
Heartbeat CPU 0 instructions: 25500151 cycles: 7509637 heartbeat IPC: 3.412 cumulative IPC: 3.396 (Simulation time: 00 hr 02 min 14 sec)
Heartbeat CPU 0 instructions: 26000153 cycles: 7656631 heartbeat IPC: 3.402 cumulative IPC: 3.396 (Simulation time: 00 hr 02 min 17 sec)
Heartbeat CPU 0 instructions: 26500160 cycles: 7803565 heartbeat IPC: 3.403 cumulative IPC: 3.396 (Simulation time: 00 hr 02 min 20 sec)
Heartbeat CPU 0 instructions: 27000164 cycles: 7950406 heartbeat IPC: 3.405 cumulative IPC: 3.396 (Simulation time: 00 hr 02 min 22 sec)
Heartbeat CPU 0 instructions: 27500168 cycles: 8097473 heartbeat IPC: 3.4 cumulative IPC: 3.396 (Simulation time: 00 hr 02 min 25 sec)
Heartbeat CPU 0 instructions: 28000172 cycles: 8244160 heartbeat IPC: 3.409 cumulative IPC: 3.396 (Simulation time: 00 hr 02 min 28 sec)
Heartbeat CPU 0 instructions: 28500176 cycles: 8391141 heartbeat IPC: 3.402 cumulative IPC: 3.396 (Simulation time: 00 hr 02 min 30 sec)
Heartbeat CPU 0 instructions: 29000183 cycles: 8538016 heartbeat IPC: 3.404 cumulative IPC: 3.397 (Simulation time: 00 hr 02 min 33 sec)
Heartbeat CPU 0 instructions: 29500188 cycles: 8684727 heartbeat IPC: 3.408 cumulative IPC: 3.397 (Simulation time: 00 hr 02 min 36 sec)
Heartbeat CPU 0 instructions: 30000188 cycles: 8831738 heartbeat IPC: 3.401 cumulative IPC: 3.397 (Simulation time: 00 hr 02 min 38 sec)
Heartbeat CPU 0 instructions: 30500188 cycles: 8978672 heartbeat IPC: 3.403 cumulative IPC: 3.397 (Simulation time: 00 hr 02 min 41 sec)
Heartbeat CPU 0 instructions: 31000191 cycles: 9125439 heartbeat IPC: 3.407 cumulative IPC: 3.397 (Simulation time: 00 hr 02 min 44 sec)
Heartbeat CPU 0 instructions: 31500193 cycles: 9272424 heartbeat IPC: 3.402 cumulative IPC: 3.397 (Simulation time: 00 hr 02 min 46 sec)
Heartbeat CPU 0 instructions: 32000196 cycles: 9419433 heartbeat IPC: 3.401 cumulative IPC: 3.397 (Simulation time: 00 hr 02 min 49 sec)
Heartbeat CPU 0 instructions: 32500197 cycles: 9566165 heartbeat IPC: 3.408 cumulative IPC: 3.397 (Simulation time: 00 hr 02 min 52 sec)
Heartbeat CPU 0 instructions: 33000198 cycles: 9712983 heartbeat IPC: 3.406 cumulative IPC: 3.398 (Simulation time: 00 hr 02 min 54 sec)
Heartbeat CPU 0 instructions: 33500198 cycles: 9860002 heartbeat IPC: 3.401 cumulative IPC: 3.398 (Simulation time: 00 hr 02 min 57 sec)
Heartbeat CPU 0 instructions: 34000202 cycles: 10006965 heartbeat IPC: 3.402 cumulative IPC: 3.398 (Simulation time: 00 hr 03 min 00 sec)
Heartbeat CPU 0 instructions: 34500205 cycles: 10153722 heartbeat IPC: 3.407 cumulative IPC: 3.398 (Simulation time: 00 hr 03 min 02 sec)
Heartbeat CPU 0 instructions: 35000206 cycles: 10300430 heartbeat IPC: 3.408 cumulative IPC: 3.398 (Simulation time: 00 hr 03 min 05 sec)
Heartbeat CPU 0 instructions: 35500206 cycles: 10447377 heartbeat IPC: 3.403 cumulative IPC: 3.398 (Simulation time: 00 hr 03 min 07 sec)
Heartbeat CPU 0 instructions: 36000206 cycles: 10594295 heartbeat IPC: 3.403 cumulative IPC: 3.398 (Simulation time: 00 hr 03 min 10 sec)
Heartbeat CPU 0 instructions: 36500213 cycles: 10741277 heartbeat IPC: 3.402 cumulative IPC: 3.398 (Simulation time: 00 hr 03 min 13 sec)
Heartbeat CPU 0 instructions: 37000218 cycles: 10888136 heartbeat IPC: 3.405 cumulative IPC: 3.398 (Simulation time: 00 hr 03 min 15 sec)
Heartbeat CPU 0 instructions: 37500219 cycles: 11035355 heartbeat IPC: 3.396 cumulative IPC: 3.398 (Simulation time: 00 hr 03 min 18 sec)
Heartbeat CPU 0 instructions: 38000219 cycles: 11182096 heartbeat IPC: 3.407 cumulative IPC: 3.398 (Simulation time: 00 hr 03 min 21 sec)
Heartbeat CPU 0 instructions: 38500221 cycles: 11329052 heartbeat IPC: 3.402 cumulative IPC: 3.398 (Simulation time: 00 hr 03 min 23 sec)
Heartbeat CPU 0 instructions: 39000224 cycles: 11476018 heartbeat IPC: 3.402 cumulative IPC: 3.398 (Simulation time: 00 hr 03 min 26 sec)
Heartbeat CPU 0 instructions: 39500226 cycles: 11622900 heartbeat IPC: 3.404 cumulative IPC: 3.398 (Simulation time: 00 hr 03 min 29 sec)
Heartbeat CPU 0 instructions: 40000230 cycles: 11769791 heartbeat IPC: 3.404 cumulative IPC: 3.399 (Simulation time: 00 hr 03 min 31 sec)
Heartbeat CPU 0 instructions: 40500232 cycles: 11916576 heartbeat IPC: 3.406 cumulative IPC: 3.399 (Simulation time: 00 hr 03 min 34 sec)
Heartbeat CPU 0 instructions: 41000232 cycles: 12063709 heartbeat IPC: 3.398 cumulative IPC: 3.399 (Simulation time: 00 hr 03 min 37 sec)
Heartbeat CPU 0 instructions: 41500233 cycles: 12210433 heartbeat IPC: 3.408 cumulative IPC: 3.399 (Simulation time: 00 hr 03 min 39 sec)
Heartbeat CPU 0 instructions: 42000233 cycles: 12357516 heartbeat IPC: 3.399 cumulative IPC: 3.399 (Simulation time: 00 hr 03 min 42 sec)
Heartbeat CPU 0 instructions: 42500237 cycles: 12504469 heartbeat IPC: 3.402 cumulative IPC: 3.399 (Simulation time: 00 hr 03 min 44 sec)
Heartbeat CPU 0 instructions: 43000241 cycles: 12651230 heartbeat IPC: 3.407 cumulative IPC: 3.399 (Simulation time: 00 hr 03 min 47 sec)
Heartbeat CPU 0 instructions: 43500244 cycles: 12797916 heartbeat IPC: 3.409 cumulative IPC: 3.399 (Simulation time: 00 hr 03 min 50 sec)
Heartbeat CPU 0 instructions: 44000244 cycles: 12944938 heartbeat IPC: 3.401 cumulative IPC: 3.399 (Simulation time: 00 hr 03 min 52 sec)
Heartbeat CPU 0 instructions: 44500249 cycles: 13092019 heartbeat IPC: 3.4 cumulative IPC: 3.399 (Simulation time: 00 hr 03 min 55 sec)
Heartbeat CPU 0 instructions: 45000253 cycles: 13238946 heartbeat IPC: 3.403 cumulative IPC: 3.399 (Simulation time: 00 hr 03 min 58 sec)
Heartbeat CPU 0 instructions: 45500253 cycles: 13385871 heartbeat IPC: 3.403 cumulative IPC: 3.399 (Simulation time: 00 hr 04 min 00 sec)
Heartbeat CPU 0 instructions: 46000256 cycles: 13533010 heartbeat IPC: 3.398 cumulative IPC: 3.399 (Simulation time: 00 hr 04 min 03 sec)
Heartbeat CPU 0 instructions: 46500257 cycles: 13679871 heartbeat IPC: 3.405 cumulative IPC: 3.399 (Simulation time: 00 hr 04 min 05 sec)
Heartbeat CPU 0 instructions: 47000261 cycles: 13826880 heartbeat IPC: 3.401 cumulative IPC: 3.399 (Simulation time: 00 hr 04 min 08 sec)
Heartbeat CPU 0 instructions: 47500261 cycles: 13973717 heartbeat IPC: 3.405 cumulative IPC: 3.399 (Simulation time: 00 hr 04 min 11 sec)
Heartbeat CPU 0 instructions: 48000267 cycles: 14120339 heartbeat IPC: 3.41 cumulative IPC: 3.399 (Simulation time: 00 hr 04 min 13 sec)
Heartbeat CPU 0 instructions: 48500269 cycles: 14267191 heartbeat IPC: 3.405 cumulative IPC: 3.399 (Simulation time: 00 hr 04 min 16 sec)
Heartbeat CPU 0 instructions: 49000271 cycles: 14414089 heartbeat IPC: 3.404 cumulative IPC: 3.399 (Simulation time: 00 hr 04 min 18 sec)
Heartbeat CPU 0 instructions: 49500278 cycles: 14560909 heartbeat IPC: 3.406 cumulative IPC: 3.4 (Simulation time: 00 hr 04 min 21 sec)
Warmup halting CPU 0 at instruction 50000007 cycle 14707906 for remainder of phase
Warmup finished CPU 0 instructions: 50000007 cycles: 14707906 cumulative IPC: 3.4 (Simulation time: 00 hr 04 min 24 sec)
Warmup complete CPU 0 instructions: 50000007 cycles: 14707906 cumulative IPC: 3.4 (Simulation time: 00 hr 04 min 24 sec)
Heartbeat CPU 0 instructions: 50000279 cycles: 14707940 heartbeat IPC: 3.401 cumulative IPC: 8 (Simulation time: 00 hr 04 min 24 sec)
Heartbeat CPU 0 instructions: 50500279 cycles: 14842664 heartbeat IPC: 3.711 cumulative IPC: 3.712 (Simulation time: 00 hr 04 min 26 sec)
Heartbeat CPU 0 instructions: 51000280 cycles: 14977077 heartbeat IPC: 3.72 cumulative IPC: 3.716 (Simulation time: 00 hr 04 min 28 sec)
Heartbeat CPU 0 instructions: 51500285 cycles: 15112804 heartbeat IPC: 3.684 cumulative IPC: 3.705 (Simulation time: 00 hr 04 min 30 sec)
Heartbeat CPU 0 instructions: 52000290 cycles: 15246459 heartbeat IPC: 3.741 cumulative IPC: 3.714 (Simulation time: 00 hr 04 min 32 sec)
Heartbeat CPU 0 instructions: 52500292 cycles: 15383888 heartbeat IPC: 3.638 cumulative IPC: 3.699 (Simulation time: 00 hr 04 min 34 sec)
Heartbeat CPU 0 instructions: 53000296 cycles: 15521647 heartbeat IPC: 3.63 cumulative IPC: 3.687 (Simulation time: 00 hr 04 min 36 sec)
Heartbeat CPU 0 instructions: 53500298 cycles: 15656971 heartbeat IPC: 3.695 cumulative IPC: 3.688 (Simulation time: 00 hr 04 min 38 sec)
Heartbeat CPU 0 instructions: 54000299 cycles: 15794284 heartbeat IPC: 3.641 cumulative IPC: 3.682 (Simulation time: 00 hr 04 min 40 sec)
Heartbeat CPU 0 instructions: 54500306 cycles: 15929281 heartbeat IPC: 3.704 cumulative IPC: 3.685 (Simulation time: 00 hr 04 min 42 sec)
Heartbeat CPU 0 instructions: 55000312 cycles: 16061493 heartbeat IPC: 3.782 cumulative IPC: 3.694 (Simulation time: 00 hr 04 min 44 sec)
Heartbeat CPU 0 instructions: 55500315 cycles: 16194006 heartbeat IPC: 3.773 cumulative IPC: 3.701 (Simulation time: 00 hr 04 min 46 sec)
Heartbeat CPU 0 instructions: 56000317 cycles: 16326822 heartbeat IPC: 3.765 cumulative IPC: 3.706 (Simulation time: 00 hr 04 min 48 sec)
Heartbeat CPU 0 instructions: 56500317 cycles: 16462188 heartbeat IPC: 3.694 cumulative IPC: 3.705 (Simulation time: 00 hr 04 min 50 sec)
Heartbeat CPU 0 instructions: 57000322 cycles: 16594751 heartbeat IPC: 3.772 cumulative IPC: 3.71 (Simulation time: 00 hr 04 min 52 sec)
Heartbeat CPU 0 instructions: 57500323 cycles: 16739167 heartbeat IPC: 3.462 cumulative IPC: 3.692 (Simulation time: 00 hr 04 min 54 sec)
Heartbeat CPU 0 instructions: 58000328 cycles: 16919985 heartbeat IPC: 2.765 cumulative IPC: 3.617 (Simulation time: 00 hr 04 min 57 sec)
Heartbeat CPU 0 instructions: 58500330 cycles: 17950912 heartbeat IPC: 0.485 cumulative IPC: 2.621 (Simulation time: 00 hr 05 min 10 sec)
Heartbeat CPU 0 instructions: 59000335 cycles: 18750178 heartbeat IPC: 0.6256 cumulative IPC: 2.227 (Simulation time: 00 hr 05 min 20 sec)
Heartbeat CPU 0 instructions: 59500336 cycles: 18869769 heartbeat IPC: 4.181 cumulative IPC: 2.283 (Simulation time: 00 hr 05 min 22 sec)
Heartbeat CPU 0 instructions: 60000338 cycles: 18987990 heartbeat IPC: 4.229 cumulative IPC: 2.336 (Simulation time: 00 hr 05 min 24 sec)
Heartbeat CPU 0 instructions: 60500339 cycles: 19105108 heartbeat IPC: 4.269 cumulative IPC: 2.388 (Simulation time: 00 hr 05 min 25 sec)
Heartbeat CPU 0 instructions: 61000341 cycles: 19224455 heartbeat IPC: 4.189 cumulative IPC: 2.436 (Simulation time: 00 hr 05 min 27 sec)
Heartbeat CPU 0 instructions: 61500345 cycles: 19341230 heartbeat IPC: 4.282 cumulative IPC: 2.482 (Simulation time: 00 hr 05 min 29 sec)
Heartbeat CPU 0 instructions: 62000352 cycles: 19457922 heartbeat IPC: 4.285 cumulative IPC: 2.526 (Simulation time: 00 hr 05 min 30 sec)
Heartbeat CPU 0 instructions: 62500355 cycles: 19575279 heartbeat IPC: 4.261 cumulative IPC: 2.568 (Simulation time: 00 hr 05 min 32 sec)
Heartbeat CPU 0 instructions: 63000357 cycles: 19692772 heartbeat IPC: 4.256 cumulative IPC: 2.608 (Simulation time: 00 hr 05 min 33 sec)
Heartbeat CPU 0 instructions: 63500358 cycles: 19920791 heartbeat IPC: 2.193 cumulative IPC: 2.59 (Simulation time: 00 hr 05 min 36 sec)
Heartbeat CPU 0 instructions: 64000358 cycles: 21612051 heartbeat IPC: 0.2956 cumulative IPC: 2.028 (Simulation time: 00 hr 05 min 58 sec)
Heartbeat CPU 0 instructions: 64500359 cycles: 23392166 heartbeat IPC: 0.2809 cumulative IPC: 1.67 (Simulation time: 00 hr 06 min 20 sec)
Heartbeat CPU 0 instructions: 65000364 cycles: 23744553 heartbeat IPC: 1.419 cumulative IPC: 1.66 (Simulation time: 00 hr 06 min 25 sec)
Heartbeat CPU 0 instructions: 65500367 cycles: 23900001 heartbeat IPC: 3.217 cumulative IPC: 1.686 (Simulation time: 00 hr 06 min 27 sec)
Heartbeat CPU 0 instructions: 66000369 cycles: 24059860 heartbeat IPC: 3.128 cumulative IPC: 1.711 (Simulation time: 00 hr 06 min 30 sec)
Heartbeat CPU 0 instructions: 66500373 cycles: 24214562 heartbeat IPC: 3.232 cumulative IPC: 1.736 (Simulation time: 00 hr 06 min 32 sec)
Heartbeat CPU 0 instructions: 67000380 cycles: 24372171 heartbeat IPC: 3.172 cumulative IPC: 1.759 (Simulation time: 00 hr 06 min 34 sec)
Heartbeat CPU 0 instructions: 67500386 cycles: 24527454 heartbeat IPC: 3.22 cumulative IPC: 1.782 (Simulation time: 00 hr 06 min 36 sec)
Heartbeat CPU 0 instructions: 68000393 cycles: 24673795 heartbeat IPC: 3.417 cumulative IPC: 1.806 (Simulation time: 00 hr 06 min 39 sec)
Heartbeat CPU 0 instructions: 68500393 cycles: 24831100 heartbeat IPC: 3.179 cumulative IPC: 1.828 (Simulation time: 00 hr 06 min 41 sec)
Heartbeat CPU 0 instructions: 69000396 cycles: 24992799 heartbeat IPC: 3.092 cumulative IPC: 1.847 (Simulation time: 00 hr 06 min 43 sec)
Heartbeat CPU 0 instructions: 69500403 cycles: 25149293 heartbeat IPC: 3.195 cumulative IPC: 1.868 (Simulation time: 00 hr 06 min 45 sec)
Heartbeat CPU 0 instructions: 70000403 cycles: 25307151 heartbeat IPC: 3.167 cumulative IPC: 1.887 (Simulation time: 00 hr 06 min 48 sec)
Heartbeat CPU 0 instructions: 70500407 cycles: 25468848 heartbeat IPC: 3.092 cumulative IPC: 1.905 (Simulation time: 00 hr 06 min 50 sec)
Heartbeat CPU 0 instructions: 71000414 cycles: 25620675 heartbeat IPC: 3.293 cumulative IPC: 1.924 (Simulation time: 00 hr 06 min 52 sec)
Heartbeat CPU 0 instructions: 71500419 cycles: 25786469 heartbeat IPC: 3.016 cumulative IPC: 1.941 (Simulation time: 00 hr 06 min 55 sec)
Heartbeat CPU 0 instructions: 72000419 cycles: 25946181 heartbeat IPC: 3.131 cumulative IPC: 1.958 (Simulation time: 00 hr 06 min 57 sec)
Heartbeat CPU 0 instructions: 72500423 cycles: 26106023 heartbeat IPC: 3.128 cumulative IPC: 1.974 (Simulation time: 00 hr 06 min 59 sec)
Heartbeat CPU 0 instructions: 73000425 cycles: 26263139 heartbeat IPC: 3.182 cumulative IPC: 1.99 (Simulation time: 00 hr 07 min 02 sec)
Heartbeat CPU 0 instructions: 73500432 cycles: 26417165 heartbeat IPC: 3.246 cumulative IPC: 2.007 (Simulation time: 00 hr 07 min 04 sec)
Heartbeat CPU 0 instructions: 74000436 cycles: 26567190 heartbeat IPC: 3.333 cumulative IPC: 2.024 (Simulation time: 00 hr 07 min 06 sec)
Heartbeat CPU 0 instructions: 74500442 cycles: 26723631 heartbeat IPC: 3.196 cumulative IPC: 2.039 (Simulation time: 00 hr 07 min 08 sec)
Heartbeat CPU 0 instructions: 75000448 cycles: 26877357 heartbeat IPC: 3.253 cumulative IPC: 2.054 (Simulation time: 00 hr 07 min 11 sec)
Heartbeat CPU 0 instructions: 75500452 cycles: 27030928 heartbeat IPC: 3.256 cumulative IPC: 2.069 (Simulation time: 00 hr 07 min 13 sec)
Heartbeat CPU 0 instructions: 76000459 cycles: 27184552 heartbeat IPC: 3.255 cumulative IPC: 2.084 (Simulation time: 00 hr 07 min 15 sec)
Heartbeat CPU 0 instructions: 76500465 cycles: 27334440 heartbeat IPC: 3.336 cumulative IPC: 2.099 (Simulation time: 00 hr 07 min 17 sec)
Heartbeat CPU 0 instructions: 77000469 cycles: 27485551 heartbeat IPC: 3.309 cumulative IPC: 2.113 (Simulation time: 00 hr 07 min 20 sec)
Heartbeat CPU 0 instructions: 77500475 cycles: 27634179 heartbeat IPC: 3.364 cumulative IPC: 2.127 (Simulation time: 00 hr 07 min 22 sec)
Heartbeat CPU 0 instructions: 78000477 cycles: 27785267 heartbeat IPC: 3.309 cumulative IPC: 2.141 (Simulation time: 00 hr 07 min 24 sec)
Heartbeat CPU 0 instructions: 78500479 cycles: 27936129 heartbeat IPC: 3.314 cumulative IPC: 2.155 (Simulation time: 00 hr 07 min 26 sec)
Heartbeat CPU 0 instructions: 79000486 cycles: 28088386 heartbeat IPC: 3.284 cumulative IPC: 2.167 (Simulation time: 00 hr 07 min 28 sec)
Heartbeat CPU 0 instructions: 79500486 cycles: 28239039 heartbeat IPC: 3.319 cumulative IPC: 2.18 (Simulation time: 00 hr 07 min 31 sec)
Heartbeat CPU 0 instructions: 80000490 cycles: 28389249 heartbeat IPC: 3.329 cumulative IPC: 2.193 (Simulation time: 00 hr 07 min 33 sec)
Heartbeat CPU 0 instructions: 80500490 cycles: 28535229 heartbeat IPC: 3.425 cumulative IPC: 2.206 (Simulation time: 00 hr 07 min 35 sec)
Heartbeat CPU 0 instructions: 81000496 cycles: 28684166 heartbeat IPC: 3.357 cumulative IPC: 2.218 (Simulation time: 00 hr 07 min 37 sec)
Heartbeat CPU 0 instructions: 81500502 cycles: 28832928 heartbeat IPC: 3.361 cumulative IPC: 2.23 (Simulation time: 00 hr 07 min 39 sec)
Heartbeat CPU 0 instructions: 82000503 cycles: 28981658 heartbeat IPC: 3.362 cumulative IPC: 2.242 (Simulation time: 00 hr 07 min 41 sec)
Heartbeat CPU 0 instructions: 82500503 cycles: 29130767 heartbeat IPC: 3.353 cumulative IPC: 2.253 (Simulation time: 00 hr 07 min 44 sec)
Heartbeat CPU 0 instructions: 83000503 cycles: 29279690 heartbeat IPC: 3.357 cumulative IPC: 2.265 (Simulation time: 00 hr 07 min 46 sec)
Heartbeat CPU 0 instructions: 83500507 cycles: 29422877 heartbeat IPC: 3.492 cumulative IPC: 2.277 (Simulation time: 00 hr 07 min 48 sec)
Heartbeat CPU 0 instructions: 84000509 cycles: 29571619 heartbeat IPC: 3.362 cumulative IPC: 2.287 (Simulation time: 00 hr 07 min 50 sec)
Heartbeat CPU 0 instructions: 84500516 cycles: 29719740 heartbeat IPC: 3.376 cumulative IPC: 2.298 (Simulation time: 00 hr 07 min 52 sec)
Heartbeat CPU 0 instructions: 85000520 cycles: 29867451 heartbeat IPC: 3.385 cumulative IPC: 2.309 (Simulation time: 00 hr 07 min 54 sec)
Heartbeat CPU 0 instructions: 85500520 cycles: 30018415 heartbeat IPC: 3.312 cumulative IPC: 2.319 (Simulation time: 00 hr 07 min 57 sec)
Heartbeat CPU 0 instructions: 86000522 cycles: 30167550 heartbeat IPC: 3.353 cumulative IPC: 2.329 (Simulation time: 00 hr 07 min 59 sec)
Heartbeat CPU 0 instructions: 86500524 cycles: 30310590 heartbeat IPC: 3.496 cumulative IPC: 2.339 (Simulation time: 00 hr 08 min 01 sec)
Heartbeat CPU 0 instructions: 87000524 cycles: 30460408 heartbeat IPC: 3.337 cumulative IPC: 2.349 (Simulation time: 00 hr 08 min 03 sec)
Heartbeat CPU 0 instructions: 87500528 cycles: 30608532 heartbeat IPC: 3.376 cumulative IPC: 2.358 (Simulation time: 00 hr 08 min 05 sec)
Heartbeat CPU 0 instructions: 88000535 cycles: 30757819 heartbeat IPC: 3.349 cumulative IPC: 2.368 (Simulation time: 00 hr 08 min 08 sec)
Heartbeat CPU 0 instructions: 88500541 cycles: 30905276 heartbeat IPC: 3.391 cumulative IPC: 2.377 (Simulation time: 00 hr 08 min 10 sec)
Heartbeat CPU 0 instructions: 89000545 cycles: 31054427 heartbeat IPC: 3.352 cumulative IPC: 2.386 (Simulation time: 00 hr 08 min 12 sec)
Heartbeat CPU 0 instructions: 89500550 cycles: 31197937 heartbeat IPC: 3.484 cumulative IPC: 2.395 (Simulation time: 00 hr 08 min 14 sec)
Heartbeat CPU 0 instructions: 90000553 cycles: 31345831 heartbeat IPC: 3.381 cumulative IPC: 2.404 (Simulation time: 00 hr 08 min 16 sec)
Heartbeat CPU 0 instructions: 90500557 cycles: 31494184 heartbeat IPC: 3.37 cumulative IPC: 2.413 (Simulation time: 00 hr 08 min 18 sec)
Heartbeat CPU 0 instructions: 91000558 cycles: 31644503 heartbeat IPC: 3.326 cumulative IPC: 2.421 (Simulation time: 00 hr 08 min 21 sec)
Heartbeat CPU 0 instructions: 91500561 cycles: 31792969 heartbeat IPC: 3.368 cumulative IPC: 2.429 (Simulation time: 00 hr 08 min 23 sec)
Heartbeat CPU 0 instructions: 92000562 cycles: 31941752 heartbeat IPC: 3.361 cumulative IPC: 2.437 (Simulation time: 00 hr 08 min 25 sec)
Heartbeat CPU 0 instructions: 92500567 cycles: 32086853 heartbeat IPC: 3.446 cumulative IPC: 2.446 (Simulation time: 00 hr 08 min 27 sec)
Heartbeat CPU 0 instructions: 93000570 cycles: 32233065 heartbeat IPC: 3.42 cumulative IPC: 2.454 (Simulation time: 00 hr 08 min 29 sec)
Heartbeat CPU 0 instructions: 93500570 cycles: 32380899 heartbeat IPC: 3.382 cumulative IPC: 2.461 (Simulation time: 00 hr 08 min 31 sec)
Heartbeat CPU 0 instructions: 94000571 cycles: 32530967 heartbeat IPC: 3.332 cumulative IPC: 2.469 (Simulation time: 00 hr 08 min 34 sec)
Heartbeat CPU 0 instructions: 94500571 cycles: 32679633 heartbeat IPC: 3.363 cumulative IPC: 2.476 (Simulation time: 00 hr 08 min 36 sec)
Heartbeat CPU 0 instructions: 95000578 cycles: 32827922 heartbeat IPC: 3.372 cumulative IPC: 2.483 (Simulation time: 00 hr 08 min 38 sec)
Heartbeat CPU 0 instructions: 95500580 cycles: 32975744 heartbeat IPC: 3.382 cumulative IPC: 2.491 (Simulation time: 00 hr 08 min 40 sec)
Heartbeat CPU 0 instructions: 96000585 cycles: 33121390 heartbeat IPC: 3.433 cumulative IPC: 2.498 (Simulation time: 00 hr 08 min 42 sec)
Heartbeat CPU 0 instructions: 96500590 cycles: 33270082 heartbeat IPC: 3.363 cumulative IPC: 2.505 (Simulation time: 00 hr 08 min 44 sec)
Heartbeat CPU 0 instructions: 97000592 cycles: 33417932 heartbeat IPC: 3.382 cumulative IPC: 2.512 (Simulation time: 00 hr 08 min 47 sec)
Heartbeat CPU 0 instructions: 97500596 cycles: 33566406 heartbeat IPC: 3.368 cumulative IPC: 2.519 (Simulation time: 00 hr 08 min 49 sec)
Heartbeat CPU 0 instructions: 98000598 cycles: 33714637 heartbeat IPC: 3.373 cumulative IPC: 2.525 (Simulation time: 00 hr 08 min 51 sec)
Heartbeat CPU 0 instructions: 98500601 cycles: 33863077 heartbeat IPC: 3.368 cumulative IPC: 2.532 (Simulation time: 00 hr 08 min 53 sec)
Heartbeat CPU 0 instructions: 99000608 cycles: 34005764 heartbeat IPC: 3.504 cumulative IPC: 2.539 (Simulation time: 00 hr 08 min 55 sec)
Heartbeat CPU 0 instructions: 99500609 cycles: 34154520 heartbeat IPC: 3.361 cumulative IPC: 2.545 (Simulation time: 00 hr 08 min 57 sec)
Heartbeat CPU 0 instructions: 100000609 cycles: 34304010 heartbeat IPC: 3.345 cumulative IPC: 2.552 (Simulation time: 00 hr 09 min 00 sec)
Heartbeat CPU 0 instructions: 100500609 cycles: 34452282 heartbeat IPC: 3.372 cumulative IPC: 2.558 (Simulation time: 00 hr 09 min 02 sec)
Heartbeat CPU 0 instructions: 101000612 cycles: 34600813 heartbeat IPC: 3.366 cumulative IPC: 2.564 (Simulation time: 00 hr 09 min 04 sec)
Heartbeat CPU 0 instructions: 101500614 cycles: 34751008 heartbeat IPC: 3.329 cumulative IPC: 2.569 (Simulation time: 00 hr 09 min 06 sec)
Heartbeat CPU 0 instructions: 102000621 cycles: 34893446 heartbeat IPC: 3.51 cumulative IPC: 2.576 (Simulation time: 00 hr 09 min 08 sec)
Heartbeat CPU 0 instructions: 102500626 cycles: 35041821 heartbeat IPC: 3.37 cumulative IPC: 2.582 (Simulation time: 00 hr 09 min 10 sec)
Heartbeat CPU 0 instructions: 103000626 cycles: 35190250 heartbeat IPC: 3.369 cumulative IPC: 2.588 (Simulation time: 00 hr 09 min 13 sec)
Heartbeat CPU 0 instructions: 103500629 cycles: 35338864 heartbeat IPC: 3.364 cumulative IPC: 2.593 (Simulation time: 00 hr 09 min 15 sec)
Heartbeat CPU 0 instructions: 104000633 cycles: 35488097 heartbeat IPC: 3.35 cumulative IPC: 2.599 (Simulation time: 00 hr 09 min 17 sec)
Heartbeat CPU 0 instructions: 104500635 cycles: 35635663 heartbeat IPC: 3.388 cumulative IPC: 2.604 (Simulation time: 00 hr 09 min 19 sec)
Heartbeat CPU 0 instructions: 105000640 cycles: 35779401 heartbeat IPC: 3.479 cumulative IPC: 2.61 (Simulation time: 00 hr 09 min 21 sec)
Heartbeat CPU 0 instructions: 105500643 cycles: 35927883 heartbeat IPC: 3.367 cumulative IPC: 2.615 (Simulation time: 00 hr 09 min 23 sec)
Heartbeat CPU 0 instructions: 106000647 cycles: 36076110 heartbeat IPC: 3.373 cumulative IPC: 2.621 (Simulation time: 00 hr 09 min 26 sec)
Heartbeat CPU 0 instructions: 106500651 cycles: 36224884 heartbeat IPC: 3.361 cumulative IPC: 2.626 (Simulation time: 00 hr 09 min 28 sec)
Heartbeat CPU 0 instructions: 107000651 cycles: 36373767 heartbeat IPC: 3.358 cumulative IPC: 2.631 (Simulation time: 00 hr 09 min 30 sec)
Heartbeat CPU 0 instructions: 107500652 cycles: 36522452 heartbeat IPC: 3.363 cumulative IPC: 2.636 (Simulation time: 00 hr 09 min 32 sec)
Heartbeat CPU 0 instructions: 108000652 cycles: 36668361 heartbeat IPC: 3.427 cumulative IPC: 2.641 (Simulation time: 00 hr 09 min 34 sec)
Heartbeat CPU 0 instructions: 108500657 cycles: 36815587 heartbeat IPC: 3.396 cumulative IPC: 2.646 (Simulation time: 00 hr 09 min 36 sec)
Heartbeat CPU 0 instructions: 109000660 cycles: 36964488 heartbeat IPC: 3.358 cumulative IPC: 2.651 (Simulation time: 00 hr 09 min 39 sec)
Heartbeat CPU 0 instructions: 109500662 cycles: 37113014 heartbeat IPC: 3.366 cumulative IPC: 2.656 (Simulation time: 00 hr 09 min 41 sec)
Heartbeat CPU 0 instructions: 110000666 cycles: 37260912 heartbeat IPC: 3.381 cumulative IPC: 2.66 (Simulation time: 00 hr 09 min 43 sec)
Heartbeat CPU 0 instructions: 110500669 cycles: 37409713 heartbeat IPC: 3.36 cumulative IPC: 2.665 (Simulation time: 00 hr 09 min 45 sec)
Heartbeat CPU 0 instructions: 111000673 cycles: 37557082 heartbeat IPC: 3.393 cumulative IPC: 2.67 (Simulation time: 00 hr 09 min 47 sec)
Heartbeat CPU 0 instructions: 111500678 cycles: 37701612 heartbeat IPC: 3.46 cumulative IPC: 2.675 (Simulation time: 00 hr 09 min 49 sec)
Heartbeat CPU 0 instructions: 112000681 cycles: 37850276 heartbeat IPC: 3.363 cumulative IPC: 2.679 (Simulation time: 00 hr 09 min 52 sec)
Heartbeat CPU 0 instructions: 112500685 cycles: 37998445 heartbeat IPC: 3.375 cumulative IPC: 2.684 (Simulation time: 00 hr 09 min 54 sec)
Heartbeat CPU 0 instructions: 113000692 cycles: 38147746 heartbeat IPC: 3.349 cumulative IPC: 2.688 (Simulation time: 00 hr 09 min 56 sec)
Heartbeat CPU 0 instructions: 113500696 cycles: 38295369 heartbeat IPC: 3.387 cumulative IPC: 2.692 (Simulation time: 00 hr 09 min 58 sec)
Heartbeat CPU 0 instructions: 114000702 cycles: 38444121 heartbeat IPC: 3.361 cumulative IPC: 2.696 (Simulation time: 00 hr 10 min 00 sec)
Heartbeat CPU 0 instructions: 114500706 cycles: 38585726 heartbeat IPC: 3.531 cumulative IPC: 2.701 (Simulation time: 00 hr 10 min 02 sec)
Heartbeat CPU 0 instructions: 115000711 cycles: 38733430 heartbeat IPC: 3.385 cumulative IPC: 2.705 (Simulation time: 00 hr 10 min 04 sec)
Heartbeat CPU 0 instructions: 115500714 cycles: 38883040 heartbeat IPC: 3.342 cumulative IPC: 2.709 (Simulation time: 00 hr 10 min 07 sec)
Heartbeat CPU 0 instructions: 116000715 cycles: 39031984 heartbeat IPC: 3.357 cumulative IPC: 2.713 (Simulation time: 00 hr 10 min 09 sec)
Heartbeat CPU 0 instructions: 116500719 cycles: 39180416 heartbeat IPC: 3.369 cumulative IPC: 2.717 (Simulation time: 00 hr 10 min 11 sec)
Heartbeat CPU 0 instructions: 117000723 cycles: 39328602 heartbeat IPC: 3.374 cumulative IPC: 2.721 (Simulation time: 00 hr 10 min 13 sec)
Heartbeat CPU 0 instructions: 117500727 cycles: 39472246 heartbeat IPC: 3.481 cumulative IPC: 2.726 (Simulation time: 00 hr 10 min 15 sec)
Heartbeat CPU 0 instructions: 118000731 cycles: 39620358 heartbeat IPC: 3.376 cumulative IPC: 2.73 (Simulation time: 00 hr 10 min 17 sec)
Heartbeat CPU 0 instructions: 118500735 cycles: 39769499 heartbeat IPC: 3.353 cumulative IPC: 2.733 (Simulation time: 00 hr 10 min 20 sec)
Heartbeat CPU 0 instructions: 119000736 cycles: 39917679 heartbeat IPC: 3.374 cumulative IPC: 2.737 (Simulation time: 00 hr 10 min 22 sec)
Heartbeat CPU 0 instructions: 119500740 cycles: 40066000 heartbeat IPC: 3.371 cumulative IPC: 2.741 (Simulation time: 00 hr 10 min 24 sec)
Heartbeat CPU 0 instructions: 120000740 cycles: 40214773 heartbeat IPC: 3.361 cumulative IPC: 2.744 (Simulation time: 00 hr 10 min 26 sec)
Heartbeat CPU 0 instructions: 120500741 cycles: 40357482 heartbeat IPC: 3.504 cumulative IPC: 2.749 (Simulation time: 00 hr 10 min 28 sec)
Heartbeat CPU 0 instructions: 121000746 cycles: 40505981 heartbeat IPC: 3.367 cumulative IPC: 2.752 (Simulation time: 00 hr 10 min 30 sec)
Heartbeat CPU 0 instructions: 121500747 cycles: 40649804 heartbeat IPC: 3.477 cumulative IPC: 2.756 (Simulation time: 00 hr 10 min 33 sec)
Heartbeat CPU 0 instructions: 122000754 cycles: 40793760 heartbeat IPC: 3.473 cumulative IPC: 2.76 (Simulation time: 00 hr 10 min 35 sec)
Heartbeat CPU 0 instructions: 122500760 cycles: 40937197 heartbeat IPC: 3.486 cumulative IPC: 2.764 (Simulation time: 00 hr 10 min 37 sec)
Heartbeat CPU 0 instructions: 123000763 cycles: 41079006 heartbeat IPC: 3.526 cumulative IPC: 2.768 (Simulation time: 00 hr 10 min 39 sec)
Heartbeat CPU 0 instructions: 123500765 cycles: 41217466 heartbeat IPC: 3.611 cumulative IPC: 2.773 (Simulation time: 00 hr 10 min 41 sec)
Heartbeat CPU 0 instructions: 124000765 cycles: 41358588 heartbeat IPC: 3.543 cumulative IPC: 2.777 (Simulation time: 00 hr 10 min 43 sec)
Heartbeat CPU 0 instructions: 124500768 cycles: 41499689 heartbeat IPC: 3.544 cumulative IPC: 2.781 (Simulation time: 00 hr 10 min 45 sec)
Heartbeat CPU 0 instructions: 125000769 cycles: 41640658 heartbeat IPC: 3.547 cumulative IPC: 2.785 (Simulation time: 00 hr 10 min 47 sec)
Heartbeat CPU 0 instructions: 125500773 cycles: 41783628 heartbeat IPC: 3.497 cumulative IPC: 2.789 (Simulation time: 00 hr 10 min 49 sec)
Heartbeat CPU 0 instructions: 126000776 cycles: 41924660 heartbeat IPC: 3.545 cumulative IPC: 2.792 (Simulation time: 00 hr 10 min 51 sec)
Heartbeat CPU 0 instructions: 126500778 cycles: 42067451 heartbeat IPC: 3.502 cumulative IPC: 2.796 (Simulation time: 00 hr 10 min 54 sec)
Heartbeat CPU 0 instructions: 127000783 cycles: 42204689 heartbeat IPC: 3.643 cumulative IPC: 2.8 (Simulation time: 00 hr 10 min 56 sec)
Heartbeat CPU 0 instructions: 127500787 cycles: 42346808 heartbeat IPC: 3.518 cumulative IPC: 2.804 (Simulation time: 00 hr 10 min 58 sec)
Heartbeat CPU 0 instructions: 128000790 cycles: 42490160 heartbeat IPC: 3.488 cumulative IPC: 2.808 (Simulation time: 00 hr 11 min 00 sec)
Heartbeat CPU 0 instructions: 128500790 cycles: 42633302 heartbeat IPC: 3.493 cumulative IPC: 2.811 (Simulation time: 00 hr 11 min 02 sec)
Heartbeat CPU 0 instructions: 129000790 cycles: 42775461 heartbeat IPC: 3.517 cumulative IPC: 2.815 (Simulation time: 00 hr 11 min 04 sec)
Heartbeat CPU 0 instructions: 129500791 cycles: 42917805 heartbeat IPC: 3.513 cumulative IPC: 2.818 (Simulation time: 00 hr 11 min 06 sec)
Heartbeat CPU 0 instructions: 130000798 cycles: 43057012 heartbeat IPC: 3.592 cumulative IPC: 2.822 (Simulation time: 00 hr 11 min 08 sec)
Heartbeat CPU 0 instructions: 130500798 cycles: 43197620 heartbeat IPC: 3.556 cumulative IPC: 2.826 (Simulation time: 00 hr 11 min 10 sec)
Heartbeat CPU 0 instructions: 131000801 cycles: 43342304 heartbeat IPC: 3.456 cumulative IPC: 2.829 (Simulation time: 00 hr 11 min 13 sec)
Heartbeat CPU 0 instructions: 131500803 cycles: 43486347 heartbeat IPC: 3.471 cumulative IPC: 2.832 (Simulation time: 00 hr 11 min 15 sec)
Heartbeat CPU 0 instructions: 132000808 cycles: 43627992 heartbeat IPC: 3.53 cumulative IPC: 2.835 (Simulation time: 00 hr 11 min 17 sec)
Heartbeat CPU 0 instructions: 132500812 cycles: 43770623 heartbeat IPC: 3.506 cumulative IPC: 2.839 (Simulation time: 00 hr 11 min 19 sec)
Heartbeat CPU 0 instructions: 133000813 cycles: 43910779 heartbeat IPC: 3.567 cumulative IPC: 2.842 (Simulation time: 00 hr 11 min 21 sec)
Heartbeat CPU 0 instructions: 133500816 cycles: 44051085 heartbeat IPC: 3.564 cumulative IPC: 2.846 (Simulation time: 00 hr 11 min 23 sec)
Heartbeat CPU 0 instructions: 134000820 cycles: 44195013 heartbeat IPC: 3.474 cumulative IPC: 2.849 (Simulation time: 00 hr 11 min 25 sec)
Heartbeat CPU 0 instructions: 134500821 cycles: 44336164 heartbeat IPC: 3.542 cumulative IPC: 2.852 (Simulation time: 00 hr 11 min 27 sec)
Heartbeat CPU 0 instructions: 135000823 cycles: 44479200 heartbeat IPC: 3.496 cumulative IPC: 2.855 (Simulation time: 00 hr 11 min 29 sec)
Heartbeat CPU 0 instructions: 135500825 cycles: 44619895 heartbeat IPC: 3.554 cumulative IPC: 2.858 (Simulation time: 00 hr 11 min 32 sec)
Heartbeat CPU 0 instructions: 136000832 cycles: 44761097 heartbeat IPC: 3.541 cumulative IPC: 2.862 (Simulation time: 00 hr 11 min 34 sec)
Heartbeat CPU 0 instructions: 136500832 cycles: 44903408 heartbeat IPC: 3.513 cumulative IPC: 2.865 (Simulation time: 00 hr 11 min 36 sec)
Heartbeat CPU 0 instructions: 137000837 cycles: 45047436 heartbeat IPC: 3.472 cumulative IPC: 2.868 (Simulation time: 00 hr 11 min 38 sec)
Heartbeat CPU 0 instructions: 137500842 cycles: 45188802 heartbeat IPC: 3.537 cumulative IPC: 2.871 (Simulation time: 00 hr 11 min 40 sec)
Heartbeat CPU 0 instructions: 138000844 cycles: 45332140 heartbeat IPC: 3.488 cumulative IPC: 2.874 (Simulation time: 00 hr 11 min 42 sec)
Heartbeat CPU 0 instructions: 138500846 cycles: 45473786 heartbeat IPC: 3.53 cumulative IPC: 2.877 (Simulation time: 00 hr 11 min 44 sec)
Heartbeat CPU 0 instructions: 139000850 cycles: 45614631 heartbeat IPC: 3.55 cumulative IPC: 2.88 (Simulation time: 00 hr 11 min 46 sec)
Heartbeat CPU 0 instructions: 139500856 cycles: 45755936 heartbeat IPC: 3.538 cumulative IPC: 2.883 (Simulation time: 00 hr 11 min 48 sec)
Heartbeat CPU 0 instructions: 140000858 cycles: 45897576 heartbeat IPC: 3.53 cumulative IPC: 2.886 (Simulation time: 00 hr 11 min 51 sec)
Heartbeat CPU 0 instructions: 140500862 cycles: 46040594 heartbeat IPC: 3.496 cumulative IPC: 2.888 (Simulation time: 00 hr 11 min 53 sec)
Heartbeat CPU 0 instructions: 141000863 cycles: 46182738 heartbeat IPC: 3.518 cumulative IPC: 2.891 (Simulation time: 00 hr 11 min 55 sec)
Heartbeat CPU 0 instructions: 141500865 cycles: 46325764 heartbeat IPC: 3.496 cumulative IPC: 2.894 (Simulation time: 00 hr 11 min 57 sec)
Heartbeat CPU 0 instructions: 142000871 cycles: 46466536 heartbeat IPC: 3.552 cumulative IPC: 2.897 (Simulation time: 00 hr 11 min 59 sec)
Heartbeat CPU 0 instructions: 142500871 cycles: 46608060 heartbeat IPC: 3.533 cumulative IPC: 2.9 (Simulation time: 00 hr 12 min 01 sec)
Heartbeat CPU 0 instructions: 143000871 cycles: 46749197 heartbeat IPC: 3.543 cumulative IPC: 2.903 (Simulation time: 00 hr 12 min 03 sec)
Heartbeat CPU 0 instructions: 143500875 cycles: 46892564 heartbeat IPC: 3.488 cumulative IPC: 2.905 (Simulation time: 00 hr 12 min 05 sec)
Heartbeat CPU 0 instructions: 144000876 cycles: 47034182 heartbeat IPC: 3.531 cumulative IPC: 2.908 (Simulation time: 00 hr 12 min 07 sec)
Heartbeat CPU 0 instructions: 144500876 cycles: 47177955 heartbeat IPC: 3.478 cumulative IPC: 2.91 (Simulation time: 00 hr 12 min 10 sec)
Heartbeat CPU 0 instructions: 145000877 cycles: 47319027 heartbeat IPC: 3.544 cumulative IPC: 2.913 (Simulation time: 00 hr 12 min 12 sec)
Heartbeat CPU 0 instructions: 145500880 cycles: 47458238 heartbeat IPC: 3.592 cumulative IPC: 2.916 (Simulation time: 00 hr 12 min 14 sec)
Heartbeat CPU 0 instructions: 146000884 cycles: 47599192 heartbeat IPC: 3.547 cumulative IPC: 2.919 (Simulation time: 00 hr 12 min 16 sec)
Heartbeat CPU 0 instructions: 146500886 cycles: 47742053 heartbeat IPC: 3.5 cumulative IPC: 2.921 (Simulation time: 00 hr 12 min 18 sec)
Heartbeat CPU 0 instructions: 147000890 cycles: 47884768 heartbeat IPC: 3.504 cumulative IPC: 2.924 (Simulation time: 00 hr 12 min 20 sec)
Heartbeat CPU 0 instructions: 147500891 cycles: 48028677 heartbeat IPC: 3.474 cumulative IPC: 2.926 (Simulation time: 00 hr 12 min 22 sec)
Heartbeat CPU 0 instructions: 148000897 cycles: 48170838 heartbeat IPC: 3.517 cumulative IPC: 2.929 (Simulation time: 00 hr 12 min 24 sec)
Heartbeat CPU 0 instructions: 148500897 cycles: 48309846 heartbeat IPC: 3.597 cumulative IPC: 2.931 (Simulation time: 00 hr 12 min 26 sec)
Heartbeat CPU 0 instructions: 149000897 cycles: 48452135 heartbeat IPC: 3.514 cumulative IPC: 2.934 (Simulation time: 00 hr 12 min 28 sec)
Heartbeat CPU 0 instructions: 149500901 cycles: 48592178 heartbeat IPC: 3.57 cumulative IPC: 2.936 (Simulation time: 00 hr 12 min 31 sec)
Heartbeat CPU 0 instructions: 150000902 cycles: 48735815 heartbeat IPC: 3.481 cumulative IPC: 2.939 (Simulation time: 00 hr 12 min 33 sec)
Heartbeat CPU 0 instructions: 150500904 cycles: 48877639 heartbeat IPC: 3.526 cumulative IPC: 2.941 (Simulation time: 00 hr 12 min 35 sec)
Heartbeat CPU 0 instructions: 151000910 cycles: 49020853 heartbeat IPC: 3.491 cumulative IPC: 2.944 (Simulation time: 00 hr 12 min 37 sec)
Heartbeat CPU 0 instructions: 151500914 cycles: 49160083 heartbeat IPC: 3.591 cumulative IPC: 2.946 (Simulation time: 00 hr 12 min 39 sec)
Heartbeat CPU 0 instructions: 152000918 cycles: 49302818 heartbeat IPC: 3.503 cumulative IPC: 2.948 (Simulation time: 00 hr 12 min 41 sec)
Heartbeat CPU 0 instructions: 152500921 cycles: 49444755 heartbeat IPC: 3.523 cumulative IPC: 2.951 (Simulation time: 00 hr 12 min 43 sec)
Heartbeat CPU 0 instructions: 153000923 cycles: 49587875 heartbeat IPC: 3.494 cumulative IPC: 2.953 (Simulation time: 00 hr 12 min 45 sec)
Heartbeat CPU 0 instructions: 153500927 cycles: 49729293 heartbeat IPC: 3.536 cumulative IPC: 2.955 (Simulation time: 00 hr 12 min 47 sec)
Heartbeat CPU 0 instructions: 154000931 cycles: 49872413 heartbeat IPC: 3.494 cumulative IPC: 2.958 (Simulation time: 00 hr 12 min 50 sec)
Heartbeat CPU 0 instructions: 154500935 cycles: 50011747 heartbeat IPC: 3.589 cumulative IPC: 2.96 (Simulation time: 00 hr 12 min 52 sec)
Heartbeat CPU 0 instructions: 155000939 cycles: 50154086 heartbeat IPC: 3.513 cumulative IPC: 2.962 (Simulation time: 00 hr 12 min 54 sec)
Heartbeat CPU 0 instructions: 155500942 cycles: 50295801 heartbeat IPC: 3.528 cumulative IPC: 2.965 (Simulation time: 00 hr 12 min 56 sec)
Heartbeat CPU 0 instructions: 156000945 cycles: 50439069 heartbeat IPC: 3.49 cumulative IPC: 2.967 (Simulation time: 00 hr 12 min 58 sec)
Heartbeat CPU 0 instructions: 156500948 cycles: 50580961 heartbeat IPC: 3.524 cumulative IPC: 2.969 (Simulation time: 00 hr 13 min 00 sec)
Heartbeat CPU 0 instructions: 157000952 cycles: 50721518 heartbeat IPC: 3.557 cumulative IPC: 2.971 (Simulation time: 00 hr 13 min 02 sec)
Heartbeat CPU 0 instructions: 157500953 cycles: 50863104 heartbeat IPC: 3.531 cumulative IPC: 2.973 (Simulation time: 00 hr 13 min 04 sec)
Heartbeat CPU 0 instructions: 158000960 cycles: 51001898 heartbeat IPC: 3.603 cumulative IPC: 2.976 (Simulation time: 00 hr 13 min 06 sec)
Heartbeat CPU 0 instructions: 158500964 cycles: 51145753 heartbeat IPC: 3.476 cumulative IPC: 2.978 (Simulation time: 00 hr 13 min 09 sec)
Heartbeat CPU 0 instructions: 159000965 cycles: 51287097 heartbeat IPC: 3.537 cumulative IPC: 2.98 (Simulation time: 00 hr 13 min 11 sec)
Heartbeat CPU 0 instructions: 159500969 cycles: 51429197 heartbeat IPC: 3.519 cumulative IPC: 2.982 (Simulation time: 00 hr 13 min 13 sec)
Heartbeat CPU 0 instructions: 160000971 cycles: 51571132 heartbeat IPC: 3.523 cumulative IPC: 2.984 (Simulation time: 00 hr 13 min 15 sec)
Heartbeat CPU 0 instructions: 160500974 cycles: 51712961 heartbeat IPC: 3.525 cumulative IPC: 2.986 (Simulation time: 00 hr 13 min 17 sec)
Heartbeat CPU 0 instructions: 161000974 cycles: 51852874 heartbeat IPC: 3.574 cumulative IPC: 2.988 (Simulation time: 00 hr 13 min 19 sec)
Heartbeat CPU 0 instructions: 161500977 cycles: 51994232 heartbeat IPC: 3.537 cumulative IPC: 2.99 (Simulation time: 00 hr 13 min 21 sec)
Heartbeat CPU 0 instructions: 162000984 cycles: 52137894 heartbeat IPC: 3.48 cumulative IPC: 2.992 (Simulation time: 00 hr 13 min 23 sec)
Heartbeat CPU 0 instructions: 162500990 cycles: 52279111 heartbeat IPC: 3.541 cumulative IPC: 2.994 (Simulation time: 00 hr 13 min 25 sec)
Heartbeat CPU 0 instructions: 163000993 cycles: 52422751 heartbeat IPC: 3.481 cumulative IPC: 2.996 (Simulation time: 00 hr 13 min 28 sec)
Heartbeat CPU 0 instructions: 163500995 cycles: 52564370 heartbeat IPC: 3.531 cumulative IPC: 2.998 (Simulation time: 00 hr 13 min 30 sec)
Heartbeat CPU 0 instructions: 164000995 cycles: 52704282 heartbeat IPC: 3.574 cumulative IPC: 3 (Simulation time: 00 hr 13 min 32 sec)
Heartbeat CPU 0 instructions: 164500998 cycles: 52845985 heartbeat IPC: 3.529 cumulative IPC: 3.002 (Simulation time: 00 hr 13 min 34 sec)
Heartbeat CPU 0 instructions: 165000999 cycles: 52988988 heartbeat IPC: 3.496 cumulative IPC: 3.004 (Simulation time: 00 hr 13 min 36 sec)
Heartbeat CPU 0 instructions: 165501003 cycles: 53130922 heartbeat IPC: 3.523 cumulative IPC: 3.006 (Simulation time: 00 hr 13 min 38 sec)
Heartbeat CPU 0 instructions: 166001006 cycles: 53273984 heartbeat IPC: 3.495 cumulative IPC: 3.008 (Simulation time: 00 hr 13 min 40 sec)
Heartbeat CPU 0 instructions: 166501008 cycles: 53415635 heartbeat IPC: 3.53 cumulative IPC: 3.01 (Simulation time: 00 hr 13 min 42 sec)
Heartbeat CPU 0 instructions: 167001011 cycles: 53553570 heartbeat IPC: 3.625 cumulative IPC: 3.012 (Simulation time: 00 hr 13 min 44 sec)
Heartbeat CPU 0 instructions: 167501011 cycles: 53695861 heartbeat IPC: 3.514 cumulative IPC: 3.014 (Simulation time: 00 hr 13 min 47 sec)
Heartbeat CPU 0 instructions: 168001018 cycles: 53836588 heartbeat IPC: 3.553 cumulative IPC: 3.016 (Simulation time: 00 hr 13 min 49 sec)
Heartbeat CPU 0 instructions: 168501020 cycles: 53978866 heartbeat IPC: 3.514 cumulative IPC: 3.018 (Simulation time: 00 hr 13 min 51 sec)
Heartbeat CPU 0 instructions: 169001027 cycles: 54119641 heartbeat IPC: 3.552 cumulative IPC: 3.019 (Simulation time: 00 hr 13 min 53 sec)
Heartbeat CPU 0 instructions: 169501029 cycles: 54262164 heartbeat IPC: 3.508 cumulative IPC: 3.021 (Simulation time: 00 hr 13 min 55 sec)
Heartbeat CPU 0 instructions: 170001036 cycles: 54401079 heartbeat IPC: 3.599 cumulative IPC: 3.023 (Simulation time: 00 hr 13 min 57 sec)
Heartbeat CPU 0 instructions: 170501039 cycles: 54540391 heartbeat IPC: 3.589 cumulative IPC: 3.025 (Simulation time: 00 hr 13 min 59 sec)
Heartbeat CPU 0 instructions: 171001041 cycles: 54682946 heartbeat IPC: 3.507 cumulative IPC: 3.027 (Simulation time: 00 hr 14 min 01 sec)
Heartbeat CPU 0 instructions: 171501041 cycles: 54824543 heartbeat IPC: 3.531 cumulative IPC: 3.029 (Simulation time: 00 hr 14 min 03 sec)
Heartbeat CPU 0 instructions: 172001048 cycles: 54968357 heartbeat IPC: 3.477 cumulative IPC: 3.03 (Simulation time: 00 hr 14 min 05 sec)
Heartbeat CPU 0 instructions: 172501054 cycles: 55110624 heartbeat IPC: 3.515 cumulative IPC: 3.032 (Simulation time: 00 hr 14 min 08 sec)
Heartbeat CPU 0 instructions: 173001061 cycles: 55250662 heartbeat IPC: 3.571 cumulative IPC: 3.034 (Simulation time: 00 hr 14 min 10 sec)
Heartbeat CPU 0 instructions: 173501068 cycles: 55391887 heartbeat IPC: 3.54 cumulative IPC: 3.036 (Simulation time: 00 hr 14 min 12 sec)
Heartbeat CPU 0 instructions: 174001068 cycles: 55532790 heartbeat IPC: 3.549 cumulative IPC: 3.037 (Simulation time: 00 hr 14 min 14 sec)
Heartbeat CPU 0 instructions: 174501074 cycles: 55676644 heartbeat IPC: 3.476 cumulative IPC: 3.039 (Simulation time: 00 hr 14 min 16 sec)
Heartbeat CPU 0 instructions: 175001077 cycles: 55817490 heartbeat IPC: 3.55 cumulative IPC: 3.041 (Simulation time: 00 hr 14 min 18 sec)
Heartbeat CPU 0 instructions: 175501080 cycles: 55961428 heartbeat IPC: 3.474 cumulative IPC: 3.042 (Simulation time: 00 hr 14 min 20 sec)
Heartbeat CPU 0 instructions: 176001083 cycles: 56102969 heartbeat IPC: 3.533 cumulative IPC: 3.044 (Simulation time: 00 hr 14 min 22 sec)
Heartbeat CPU 0 instructions: 176501087 cycles: 56242980 heartbeat IPC: 3.571 cumulative IPC: 3.046 (Simulation time: 00 hr 14 min 24 sec)
Heartbeat CPU 0 instructions: 177001092 cycles: 56384794 heartbeat IPC: 3.526 cumulative IPC: 3.047 (Simulation time: 00 hr 14 min 27 sec)
Heartbeat CPU 0 instructions: 177501092 cycles: 56528829 heartbeat IPC: 3.471 cumulative IPC: 3.049 (Simulation time: 00 hr 14 min 29 sec)
Heartbeat CPU 0 instructions: 178001093 cycles: 56669743 heartbeat IPC: 3.548 cumulative IPC: 3.05 (Simulation time: 00 hr 14 min 31 sec)
Heartbeat CPU 0 instructions: 178501099 cycles: 56810469 heartbeat IPC: 3.553 cumulative IPC: 3.052 (Simulation time: 00 hr 14 min 33 sec)
Heartbeat CPU 0 instructions: 179001102 cycles: 56953116 heartbeat IPC: 3.505 cumulative IPC: 3.054 (Simulation time: 00 hr 14 min 35 sec)
Heartbeat CPU 0 instructions: 179501102 cycles: 57090571 heartbeat IPC: 3.638 cumulative IPC: 3.056 (Simulation time: 00 hr 14 min 37 sec)
Heartbeat CPU 0 instructions: 180001103 cycles: 57233057 heartbeat IPC: 3.509 cumulative IPC: 3.057 (Simulation time: 00 hr 14 min 39 sec)
Heartbeat CPU 0 instructions: 180501103 cycles: 57373379 heartbeat IPC: 3.563 cumulative IPC: 3.059 (Simulation time: 00 hr 14 min 41 sec)
Heartbeat CPU 0 instructions: 181001108 cycles: 57515283 heartbeat IPC: 3.524 cumulative IPC: 3.06 (Simulation time: 00 hr 14 min 43 sec)
Heartbeat CPU 0 instructions: 181501113 cycles: 57657373 heartbeat IPC: 3.519 cumulative IPC: 3.062 (Simulation time: 00 hr 14 min 46 sec)
Heartbeat CPU 0 instructions: 182001120 cycles: 57797589 heartbeat IPC: 3.566 cumulative IPC: 3.063 (Simulation time: 00 hr 14 min 48 sec)
Heartbeat CPU 0 instructions: 182501120 cycles: 57938229 heartbeat IPC: 3.555 cumulative IPC: 3.065 (Simulation time: 00 hr 14 min 50 sec)
Heartbeat CPU 0 instructions: 183001122 cycles: 58077917 heartbeat IPC: 3.579 cumulative IPC: 3.067 (Simulation time: 00 hr 14 min 52 sec)
Heartbeat CPU 0 instructions: 183501128 cycles: 58217436 heartbeat IPC: 3.584 cumulative IPC: 3.068 (Simulation time: 00 hr 14 min 54 sec)
Heartbeat CPU 0 instructions: 184001128 cycles: 58360151 heartbeat IPC: 3.503 cumulative IPC: 3.07 (Simulation time: 00 hr 14 min 56 sec)
Heartbeat CPU 0 instructions: 184501133 cycles: 58500025 heartbeat IPC: 3.575 cumulative IPC: 3.071 (Simulation time: 00 hr 14 min 58 sec)
Heartbeat CPU 0 instructions: 185001133 cycles: 58639998 heartbeat IPC: 3.572 cumulative IPC: 3.073 (Simulation time: 00 hr 15 min 00 sec)
Heartbeat CPU 0 instructions: 185501139 cycles: 58778754 heartbeat IPC: 3.603 cumulative IPC: 3.075 (Simulation time: 00 hr 15 min 02 sec)
Heartbeat CPU 0 instructions: 186001145 cycles: 58920021 heartbeat IPC: 3.539 cumulative IPC: 3.076 (Simulation time: 00 hr 15 min 04 sec)
Heartbeat CPU 0 instructions: 186501147 cycles: 59059421 heartbeat IPC: 3.587 cumulative IPC: 3.078 (Simulation time: 00 hr 15 min 06 sec)
Heartbeat CPU 0 instructions: 187001150 cycles: 59203071 heartbeat IPC: 3.481 cumulative IPC: 3.079 (Simulation time: 00 hr 15 min 09 sec)
Heartbeat CPU 0 instructions: 187501154 cycles: 59344488 heartbeat IPC: 3.536 cumulative IPC: 3.08 (Simulation time: 00 hr 15 min 11 sec)
Heartbeat CPU 0 instructions: 188001158 cycles: 59488341 heartbeat IPC: 3.476 cumulative IPC: 3.082 (Simulation time: 00 hr 15 min 13 sec)
Heartbeat CPU 0 instructions: 188501159 cycles: 59626677 heartbeat IPC: 3.614 cumulative IPC: 3.083 (Simulation time: 00 hr 15 min 15 sec)
Heartbeat CPU 0 instructions: 189001162 cycles: 59768960 heartbeat IPC: 3.514 cumulative IPC: 3.085 (Simulation time: 00 hr 15 min 17 sec)
Heartbeat CPU 0 instructions: 189501162 cycles: 59910649 heartbeat IPC: 3.529 cumulative IPC: 3.086 (Simulation time: 00 hr 15 min 19 sec)
Heartbeat CPU 0 instructions: 190001167 cycles: 60051975 heartbeat IPC: 3.538 cumulative IPC: 3.088 (Simulation time: 00 hr 15 min 21 sec)
Heartbeat CPU 0 instructions: 190501167 cycles: 60193486 heartbeat IPC: 3.533 cumulative IPC: 3.089 (Simulation time: 00 hr 15 min 23 sec)
Heartbeat CPU 0 instructions: 191001171 cycles: 60334291 heartbeat IPC: 3.551 cumulative IPC: 3.09 (Simulation time: 00 hr 15 min 25 sec)
Heartbeat CPU 0 instructions: 191501172 cycles: 60477064 heartbeat IPC: 3.502 cumulative IPC: 3.092 (Simulation time: 00 hr 15 min 28 sec)
Heartbeat CPU 0 instructions: 192001179 cycles: 60615310 heartbeat IPC: 3.617 cumulative IPC: 3.093 (Simulation time: 00 hr 15 min 30 sec)
Heartbeat CPU 0 instructions: 192501183 cycles: 60756912 heartbeat IPC: 3.531 cumulative IPC: 3.095 (Simulation time: 00 hr 15 min 32 sec)
Heartbeat CPU 0 instructions: 193001188 cycles: 60899042 heartbeat IPC: 3.518 cumulative IPC: 3.096 (Simulation time: 00 hr 15 min 34 sec)
Heartbeat CPU 0 instructions: 193501192 cycles: 61040194 heartbeat IPC: 3.542 cumulative IPC: 3.097 (Simulation time: 00 hr 15 min 36 sec)
Heartbeat CPU 0 instructions: 194001192 cycles: 61182770 heartbeat IPC: 3.507 cumulative IPC: 3.098 (Simulation time: 00 hr 15 min 38 sec)
Heartbeat CPU 0 instructions: 194501193 cycles: 61323093 heartbeat IPC: 3.563 cumulative IPC: 3.1 (Simulation time: 00 hr 15 min 40 sec)
Heartbeat CPU 0 instructions: 195001193 cycles: 61462287 heartbeat IPC: 3.592 cumulative IPC: 3.101 (Simulation time: 00 hr 15 min 42 sec)
Heartbeat CPU 0 instructions: 195501196 cycles: 61604620 heartbeat IPC: 3.513 cumulative IPC: 3.103 (Simulation time: 00 hr 15 min 44 sec)
Heartbeat CPU 0 instructions: 196001198 cycles: 61746762 heartbeat IPC: 3.518 cumulative IPC: 3.104 (Simulation time: 00 hr 15 min 46 sec)
Heartbeat CPU 0 instructions: 196501201 cycles: 61889598 heartbeat IPC: 3.501 cumulative IPC: 3.105 (Simulation time: 00 hr 15 min 49 sec)
Heartbeat CPU 0 instructions: 197001205 cycles: 62029533 heartbeat IPC: 3.573 cumulative IPC: 3.106 (Simulation time: 00 hr 15 min 51 sec)
Heartbeat CPU 0 instructions: 197501206 cycles: 62172767 heartbeat IPC: 3.491 cumulative IPC: 3.108 (Simulation time: 00 hr 15 min 53 sec)
Heartbeat CPU 0 instructions: 198001213 cycles: 62311472 heartbeat IPC: 3.605 cumulative IPC: 3.109 (Simulation time: 00 hr 15 min 55 sec)
Heartbeat CPU 0 instructions: 198501217 cycles: 62453924 heartbeat IPC: 3.51 cumulative IPC: 3.11 (Simulation time: 00 hr 15 min 57 sec)
Heartbeat CPU 0 instructions: 199001224 cycles: 62595800 heartbeat IPC: 3.524 cumulative IPC: 3.111 (Simulation time: 00 hr 15 min 59 sec)
Heartbeat CPU 0 instructions: 199501231 cycles: 62738352 heartbeat IPC: 3.508 cumulative IPC: 3.113 (Simulation time: 00 hr 16 min 01 sec)
Heartbeat CPU 0 instructions: 200001232 cycles: 62881032 heartbeat IPC: 3.504 cumulative IPC: 3.114 (Simulation time: 00 hr 16 min 03 sec)
Heartbeat CPU 0 instructions: 200501233 cycles: 63022040 heartbeat IPC: 3.546 cumulative IPC: 3.115 (Simulation time: 00 hr 16 min 05 sec)
Heartbeat CPU 0 instructions: 201001235 cycles: 63161730 heartbeat IPC: 3.579 cumulative IPC: 3.116 (Simulation time: 00 hr 16 min 08 sec)
Heartbeat CPU 0 instructions: 201501237 cycles: 63303649 heartbeat IPC: 3.523 cumulative IPC: 3.118 (Simulation time: 00 hr 16 min 10 sec)
Heartbeat CPU 0 instructions: 202001240 cycles: 63446582 heartbeat IPC: 3.498 cumulative IPC: 3.119 (Simulation time: 00 hr 16 min 12 sec)
Heartbeat CPU 0 instructions: 202501243 cycles: 63587279 heartbeat IPC: 3.554 cumulative IPC: 3.12 (Simulation time: 00 hr 16 min 14 sec)
Heartbeat CPU 0 instructions: 203001246 cycles: 63731312 heartbeat IPC: 3.471 cumulative IPC: 3.121 (Simulation time: 00 hr 16 min 16 sec)
Heartbeat CPU 0 instructions: 203501249 cycles: 63873034 heartbeat IPC: 3.528 cumulative IPC: 3.122 (Simulation time: 00 hr 16 min 18 sec)
Heartbeat CPU 0 instructions: 204001252 cycles: 64014054 heartbeat IPC: 3.546 cumulative IPC: 3.123 (Simulation time: 00 hr 16 min 20 sec)
Heartbeat CPU 0 instructions: 204501259 cycles: 64154412 heartbeat IPC: 3.562 cumulative IPC: 3.125 (Simulation time: 00 hr 16 min 22 sec)
Heartbeat CPU 0 instructions: 205001260 cycles: 64295860 heartbeat IPC: 3.535 cumulative IPC: 3.126 (Simulation time: 00 hr 16 min 24 sec)
Heartbeat CPU 0 instructions: 205501264 cycles: 64438532 heartbeat IPC: 3.505 cumulative IPC: 3.127 (Simulation time: 00 hr 16 min 26 sec)
Heartbeat CPU 0 instructions: 206001267 cycles: 64582211 heartbeat IPC: 3.48 cumulative IPC: 3.128 (Simulation time: 00 hr 16 min 29 sec)
Heartbeat CPU 0 instructions: 206501269 cycles: 64723657 heartbeat IPC: 3.535 cumulative IPC: 3.129 (Simulation time: 00 hr 16 min 31 sec)
Heartbeat CPU 0 instructions: 207001273 cycles: 64863243 heartbeat IPC: 3.582 cumulative IPC: 3.13 (Simulation time: 00 hr 16 min 33 sec)
Heartbeat CPU 0 instructions: 207501280 cycles: 65004606 heartbeat IPC: 3.537 cumulative IPC: 3.131 (Simulation time: 00 hr 16 min 35 sec)
Heartbeat CPU 0 instructions: 208001285 cycles: 65145171 heartbeat IPC: 3.557 cumulative IPC: 3.133 (Simulation time: 00 hr 16 min 37 sec)
Heartbeat CPU 0 instructions: 208501286 cycles: 65288814 heartbeat IPC: 3.481 cumulative IPC: 3.134 (Simulation time: 00 hr 16 min 39 sec)
Heartbeat CPU 0 instructions: 209001288 cycles: 65429797 heartbeat IPC: 3.547 cumulative IPC: 3.135 (Simulation time: 00 hr 16 min 41 sec)
Heartbeat CPU 0 instructions: 209501290 cycles: 65572772 heartbeat IPC: 3.497 cumulative IPC: 3.136 (Simulation time: 00 hr 16 min 43 sec)
Heartbeat CPU 0 instructions: 210001292 cycles: 65714724 heartbeat IPC: 3.522 cumulative IPC: 3.137 (Simulation time: 00 hr 16 min 45 sec)
Heartbeat CPU 0 instructions: 210501293 cycles: 65854190 heartbeat IPC: 3.585 cumulative IPC: 3.138 (Simulation time: 00 hr 16 min 48 sec)
Heartbeat CPU 0 instructions: 211001294 cycles: 65997620 heartbeat IPC: 3.486 cumulative IPC: 3.139 (Simulation time: 00 hr 16 min 50 sec)
Heartbeat CPU 0 instructions: 211501298 cycles: 66139606 heartbeat IPC: 3.522 cumulative IPC: 3.14 (Simulation time: 00 hr 16 min 52 sec)
Heartbeat CPU 0 instructions: 212001302 cycles: 66281826 heartbeat IPC: 3.516 cumulative IPC: 3.141 (Simulation time: 00 hr 16 min 54 sec)
Heartbeat CPU 0 instructions: 212501309 cycles: 66421939 heartbeat IPC: 3.569 cumulative IPC: 3.142 (Simulation time: 00 hr 16 min 56 sec)
Heartbeat CPU 0 instructions: 213001313 cycles: 66565577 heartbeat IPC: 3.481 cumulative IPC: 3.143 (Simulation time: 00 hr 16 min 58 sec)
Heartbeat CPU 0 instructions: 213501313 cycles: 66703484 heartbeat IPC: 3.626 cumulative IPC: 3.145 (Simulation time: 00 hr 17 min 00 sec)
Heartbeat CPU 0 instructions: 214001315 cycles: 66845391 heartbeat IPC: 3.523 cumulative IPC: 3.146 (Simulation time: 00 hr 17 min 02 sec)
Heartbeat CPU 0 instructions: 214501319 cycles: 66986770 heartbeat IPC: 3.537 cumulative IPC: 3.147 (Simulation time: 00 hr 17 min 04 sec)
Heartbeat CPU 0 instructions: 215001320 cycles: 67128603 heartbeat IPC: 3.525 cumulative IPC: 3.148 (Simulation time: 00 hr 17 min 07 sec)
Heartbeat CPU 0 instructions: 215501320 cycles: 67270775 heartbeat IPC: 3.517 cumulative IPC: 3.149 (Simulation time: 00 hr 17 min 09 sec)
Heartbeat CPU 0 instructions: 216001320 cycles: 67412244 heartbeat IPC: 3.534 cumulative IPC: 3.15 (Simulation time: 00 hr 17 min 11 sec)
Heartbeat CPU 0 instructions: 216501326 cycles: 67552893 heartbeat IPC: 3.555 cumulative IPC: 3.151 (Simulation time: 00 hr 17 min 13 sec)
Heartbeat CPU 0 instructions: 217001326 cycles: 67693772 heartbeat IPC: 3.549 cumulative IPC: 3.152 (Simulation time: 00 hr 17 min 15 sec)
Heartbeat CPU 0 instructions: 217501330 cycles: 67836214 heartbeat IPC: 3.51 cumulative IPC: 3.153 (Simulation time: 00 hr 17 min 17 sec)
Heartbeat CPU 0 instructions: 218001335 cycles: 67978288 heartbeat IPC: 3.519 cumulative IPC: 3.154 (Simulation time: 00 hr 17 min 19 sec)
Heartbeat CPU 0 instructions: 218501337 cycles: 68121279 heartbeat IPC: 3.497 cumulative IPC: 3.155 (Simulation time: 00 hr 17 min 21 sec)
Heartbeat CPU 0 instructions: 219001341 cycles: 68263389 heartbeat IPC: 3.518 cumulative IPC: 3.156 (Simulation time: 00 hr 17 min 23 sec)
Heartbeat CPU 0 instructions: 219501342 cycles: 68401489 heartbeat IPC: 3.621 cumulative IPC: 3.157 (Simulation time: 00 hr 17 min 26 sec)
Heartbeat CPU 0 instructions: 220001349 cycles: 68545410 heartbeat IPC: 3.474 cumulative IPC: 3.158 (Simulation time: 00 hr 17 min 28 sec)
Heartbeat CPU 0 instructions: 220501351 cycles: 68687191 heartbeat IPC: 3.527 cumulative IPC: 3.159 (Simulation time: 00 hr 17 min 30 sec)
Heartbeat CPU 0 instructions: 221001354 cycles: 68829209 heartbeat IPC: 3.521 cumulative IPC: 3.16 (Simulation time: 00 hr 17 min 32 sec)
Heartbeat CPU 0 instructions: 221501356 cycles: 68969677 heartbeat IPC: 3.56 cumulative IPC: 3.161 (Simulation time: 00 hr 17 min 34 sec)
Heartbeat CPU 0 instructions: 222001360 cycles: 69113582 heartbeat IPC: 3.475 cumulative IPC: 3.161 (Simulation time: 00 hr 17 min 36 sec)
Heartbeat CPU 0 instructions: 222501363 cycles: 69253917 heartbeat IPC: 3.563 cumulative IPC: 3.162 (Simulation time: 00 hr 17 min 38 sec)
Heartbeat CPU 0 instructions: 223001370 cycles: 69395524 heartbeat IPC: 3.531 cumulative IPC: 3.163 (Simulation time: 00 hr 17 min 40 sec)
Heartbeat CPU 0 instructions: 223501375 cycles: 69536107 heartbeat IPC: 3.557 cumulative IPC: 3.164 (Simulation time: 00 hr 17 min 42 sec)
Heartbeat CPU 0 instructions: 224001375 cycles: 69679816 heartbeat IPC: 3.479 cumulative IPC: 3.165 (Simulation time: 00 hr 17 min 45 sec)
Heartbeat CPU 0 instructions: 224501377 cycles: 69821211 heartbeat IPC: 3.536 cumulative IPC: 3.166 (Simulation time: 00 hr 17 min 47 sec)
Heartbeat CPU 0 instructions: 225001383 cycles: 69962815 heartbeat IPC: 3.531 cumulative IPC: 3.167 (Simulation time: 00 hr 17 min 49 sec)
Heartbeat CPU 0 instructions: 225501388 cycles: 70104539 heartbeat IPC: 3.528 cumulative IPC: 3.168 (Simulation time: 00 hr 17 min 51 sec)
Heartbeat CPU 0 instructions: 226001389 cycles: 70243477 heartbeat IPC: 3.599 cumulative IPC: 3.169 (Simulation time: 00 hr 17 min 53 sec)
Heartbeat CPU 0 instructions: 226501395 cycles: 70386803 heartbeat IPC: 3.489 cumulative IPC: 3.17 (Simulation time: 00 hr 17 min 55 sec)
Heartbeat CPU 0 instructions: 227001396 cycles: 70526667 heartbeat IPC: 3.575 cumulative IPC: 3.171 (Simulation time: 00 hr 17 min 57 sec)
Heartbeat CPU 0 instructions: 227501401 cycles: 70668004 heartbeat IPC: 3.538 cumulative IPC: 3.172 (Simulation time: 00 hr 17 min 59 sec)
Heartbeat CPU 0 instructions: 228001404 cycles: 70810706 heartbeat IPC: 3.504 cumulative IPC: 3.173 (Simulation time: 00 hr 18 min 01 sec)
Heartbeat CPU 0 instructions: 228501405 cycles: 70952184 heartbeat IPC: 3.534 cumulative IPC: 3.174 (Simulation time: 00 hr 18 min 04 sec)
Heartbeat CPU 0 instructions: 229001412 cycles: 71092470 heartbeat IPC: 3.564 cumulative IPC: 3.175 (Simulation time: 00 hr 18 min 06 sec)
Heartbeat CPU 0 instructions: 229501416 cycles: 71232722 heartbeat IPC: 3.565 cumulative IPC: 3.176 (Simulation time: 00 hr 18 min 08 sec)
Heartbeat CPU 0 instructions: 230001423 cycles: 71375298 heartbeat IPC: 3.507 cumulative IPC: 3.176 (Simulation time: 00 hr 18 min 10 sec)
Heartbeat CPU 0 instructions: 230501427 cycles: 71516590 heartbeat IPC: 3.539 cumulative IPC: 3.177 (Simulation time: 00 hr 18 min 12 sec)
Heartbeat CPU 0 instructions: 231001434 cycles: 71658184 heartbeat IPC: 3.531 cumulative IPC: 3.178 (Simulation time: 00 hr 18 min 14 sec)
Heartbeat CPU 0 instructions: 231501438 cycles: 71799958 heartbeat IPC: 3.527 cumulative IPC: 3.179 (Simulation time: 00 hr 18 min 16 sec)
Heartbeat CPU 0 instructions: 232001439 cycles: 71938782 heartbeat IPC: 3.602 cumulative IPC: 3.18 (Simulation time: 00 hr 18 min 18 sec)
Heartbeat CPU 0 instructions: 232501443 cycles: 72081912 heartbeat IPC: 3.493 cumulative IPC: 3.181 (Simulation time: 00 hr 18 min 20 sec)
Heartbeat CPU 0 instructions: 233001446 cycles: 72222966 heartbeat IPC: 3.545 cumulative IPC: 3.182 (Simulation time: 00 hr 18 min 22 sec)
Heartbeat CPU 0 instructions: 233501450 cycles: 72364515 heartbeat IPC: 3.532 cumulative IPC: 3.183 (Simulation time: 00 hr 18 min 25 sec)
Heartbeat CPU 0 instructions: 234001453 cycles: 72507162 heartbeat IPC: 3.505 cumulative IPC: 3.183 (Simulation time: 00 hr 18 min 27 sec)
Heartbeat CPU 0 instructions: 234501458 cycles: 72649863 heartbeat IPC: 3.504 cumulative IPC: 3.184 (Simulation time: 00 hr 18 min 29 sec)
Heartbeat CPU 0 instructions: 235001464 cycles: 72787505 heartbeat IPC: 3.633 cumulative IPC: 3.185 (Simulation time: 00 hr 18 min 31 sec)
Heartbeat CPU 0 instructions: 235501466 cycles: 72928213 heartbeat IPC: 3.553 cumulative IPC: 3.186 (Simulation time: 00 hr 18 min 33 sec)
Heartbeat CPU 0 instructions: 236001472 cycles: 73072016 heartbeat IPC: 3.477 cumulative IPC: 3.187 (Simulation time: 00 hr 18 min 35 sec)
Heartbeat CPU 0 instructions: 236501479 cycles: 73212310 heartbeat IPC: 3.564 cumulative IPC: 3.188 (Simulation time: 00 hr 18 min 37 sec)
Heartbeat CPU 0 instructions: 237001482 cycles: 73356187 heartbeat IPC: 3.475 cumulative IPC: 3.189 (Simulation time: 00 hr 18 min 39 sec)
Heartbeat CPU 0 instructions: 237501483 cycles: 73496193 heartbeat IPC: 3.571 cumulative IPC: 3.189 (Simulation time: 00 hr 18 min 41 sec)
Heartbeat CPU 0 instructions: 238001487 cycles: 73635985 heartbeat IPC: 3.577 cumulative IPC: 3.19 (Simulation time: 00 hr 18 min 43 sec)
Heartbeat CPU 0 instructions: 238501494 cycles: 73776853 heartbeat IPC: 3.549 cumulative IPC: 3.191 (Simulation time: 00 hr 18 min 45 sec)
Heartbeat CPU 0 instructions: 239001501 cycles: 73916937 heartbeat IPC: 3.569 cumulative IPC: 3.192 (Simulation time: 00 hr 18 min 48 sec)
Heartbeat CPU 0 instructions: 239501507 cycles: 74058179 heartbeat IPC: 3.54 cumulative IPC: 3.193 (Simulation time: 00 hr 18 min 50 sec)
Heartbeat CPU 0 instructions: 240001507 cycles: 74199312 heartbeat IPC: 3.543 cumulative IPC: 3.194 (Simulation time: 00 hr 18 min 52 sec)
Heartbeat CPU 0 instructions: 240501512 cycles: 74340522 heartbeat IPC: 3.541 cumulative IPC: 3.195 (Simulation time: 00 hr 18 min 54 sec)
Heartbeat CPU 0 instructions: 241001516 cycles: 74483331 heartbeat IPC: 3.501 cumulative IPC: 3.195 (Simulation time: 00 hr 18 min 56 sec)
Heartbeat CPU 0 instructions: 241501516 cycles: 74621126 heartbeat IPC: 3.629 cumulative IPC: 3.196 (Simulation time: 00 hr 18 min 58 sec)
Heartbeat CPU 0 instructions: 242001516 cycles: 74762885 heartbeat IPC: 3.527 cumulative IPC: 3.197 (Simulation time: 00 hr 19 min 00 sec)
Heartbeat CPU 0 instructions: 242501520 cycles: 74905614 heartbeat IPC: 3.503 cumulative IPC: 3.198 (Simulation time: 00 hr 19 min 02 sec)
Heartbeat CPU 0 instructions: 243001523 cycles: 75047270 heartbeat IPC: 3.53 cumulative IPC: 3.199 (Simulation time: 00 hr 19 min 04 sec)
Heartbeat CPU 0 instructions: 243501525 cycles: 75189645 heartbeat IPC: 3.512 cumulative IPC: 3.199 (Simulation time: 00 hr 19 min 06 sec)
Heartbeat CPU 0 instructions: 244001529 cycles: 75331843 heartbeat IPC: 3.516 cumulative IPC: 3.2 (Simulation time: 00 hr 19 min 08 sec)
Heartbeat CPU 0 instructions: 244501536 cycles: 75471573 heartbeat IPC: 3.578 cumulative IPC: 3.201 (Simulation time: 00 hr 19 min 10 sec)
Heartbeat CPU 0 instructions: 245001541 cycles: 75612165 heartbeat IPC: 3.556 cumulative IPC: 3.202 (Simulation time: 00 hr 19 min 13 sec)
Heartbeat CPU 0 instructions: 245501541 cycles: 75755131 heartbeat IPC: 3.497 cumulative IPC: 3.202 (Simulation time: 00 hr 19 min 15 sec)
Heartbeat CPU 0 instructions: 246001544 cycles: 75897127 heartbeat IPC: 3.521 cumulative IPC: 3.203 (Simulation time: 00 hr 19 min 17 sec)
Heartbeat CPU 0 instructions: 246501547 cycles: 76039610 heartbeat IPC: 3.509 cumulative IPC: 3.204 (Simulation time: 00 hr 19 min 19 sec)
Heartbeat CPU 0 instructions: 247001548 cycles: 76180185 heartbeat IPC: 3.557 cumulative IPC: 3.205 (Simulation time: 00 hr 19 min 21 sec)
Heartbeat CPU 0 instructions: 247501548 cycles: 76318246 heartbeat IPC: 3.622 cumulative IPC: 3.206 (Simulation time: 00 hr 19 min 23 sec)
Heartbeat CPU 0 instructions: 248001550 cycles: 76461492 heartbeat IPC: 3.491 cumulative IPC: 3.206 (Simulation time: 00 hr 19 min 25 sec)
Heartbeat CPU 0 instructions: 248501552 cycles: 76602265 heartbeat IPC: 3.552 cumulative IPC: 3.207 (Simulation time: 00 hr 19 min 27 sec)
Heartbeat CPU 0 instructions: 249001554 cycles: 76746364 heartbeat IPC: 3.47 cumulative IPC: 3.208 (Simulation time: 00 hr 19 min 29 sec)
Heartbeat CPU 0 instructions: 249501557 cycles: 76886342 heartbeat IPC: 3.572 cumulative IPC: 3.209 (Simulation time: 00 hr 19 min 31 sec)
Simulation finished CPU 0 instructions: 200000006 cycles: 62321153 cumulative IPC: 3.209 (Simulation time: 00 hr 19 min 33 sec)
Simulation complete CPU 0 instructions: 200000006 cycles: 62321153 cumulative IPC: 3.209 (Simulation time: 00 hr 19 min 33 sec)

ChampSim completed all CPUs

=== Simulation ===
CPU 0 runs /local-ssd/ben/dpc4-traces/ai-ml/clip_trace_3.champsimtrace.gz

Region of Interest Statistics

CPU 0 cumulative IPC: 3.209 instructions: 200000006 cycles: 62321153
CPU 0 Branch Prediction Accuracy: 97.85% MPKI: 1.513 Average ROB Occupancy at Mispredict: 296
Branch type MPKI
BRANCH_DIRECT_JUMP: 5e-05
BRANCH_INDIRECT: 6e-05
BRANCH_CONDITIONAL: 1.513
BRANCH_DIRECT_CALL: 1e-05
BRANCH_INDIRECT_CALL: 2e-05
BRANCH_RETURN: 3.5e-05

cpu0->cpu0_STLB TOTAL        ACCESS:      19171 HIT:       4886 MISS:      14285 MSHR_MERGE:          0
cpu0->cpu0_STLB LOAD         ACCESS:      19171 HIT:       4886 MISS:      14285 MSHR_MERGE:          0
cpu0->cpu0_STLB RFO          ACCESS:          0 HIT:          0 MISS:          0 MSHR_MERGE:          0
cpu0->cpu0_STLB PREFETCH     ACCESS:          0 HIT:          0 MISS:          0 MSHR_MERGE:          0
cpu0->cpu0_STLB WRITE        ACCESS:          0 HIT:          0 MISS:          0 MSHR_MERGE:          0
cpu0->cpu0_STLB TRANSLATION  ACCESS:          0 HIT:          0 MISS:          0 MSHR_MERGE:          0
cpu0->cpu0_STLB PREFETCH REQUESTED:          0 ISSUED:          0 USEFUL:          0 USELESS:          0
cpu0->cpu0_STLB AVERAGE MISS LATENCY: 156 cycles
cpu0->cpu0_L2C TOTAL        ACCESS:   19853470 HIT:   17212812 MISS:    2640658 MSHR_MERGE:    1522187
cpu0->cpu0_L2C LOAD         ACCESS:    2362934 HIT:    2103849 MISS:     259085 MSHR_MERGE:     171102
cpu0->cpu0_L2C RFO          ACCESS:     182340 HIT:      13282 MISS:     169058 MSHR_MERGE:          0
cpu0->cpu0_L2C PREFETCH     ACCESS:   17114566 HIT:   14904009 MISS:    2210557 MSHR_MERGE:    1351085
cpu0->cpu0_L2C WRITE        ACCESS:     190519 HIT:     190510 MISS:          9 MSHR_MERGE:          0
cpu0->cpu0_L2C TRANSLATION  ACCESS:       3111 HIT:       1162 MISS:       1949 MSHR_MERGE:          0
cpu0->cpu0_L2C PREFETCH REQUESTED:   15291520 ISSUED:   13992683 USEFUL:     582562 USELESS:      64698
cpu0->cpu0_L2C AVERAGE MISS LATENCY: 213.3 cycles
cpu0->cpu0_L1I TOTAL        ACCESS:   22480290 HIT:   22480153 MISS:        137 MSHR_MERGE:         19
cpu0->cpu0_L1I LOAD         ACCESS:   22480290 HIT:   22480153 MISS:        137 MSHR_MERGE:         19
cpu0->cpu0_L1I RFO          ACCESS:          0 HIT:          0 MISS:          0 MSHR_MERGE:          0
cpu0->cpu0_L1I PREFETCH     ACCESS:          0 HIT:          0 MISS:          0 MSHR_MERGE:          0
cpu0->cpu0_L1I WRITE        ACCESS:          0 HIT:          0 MISS:          0 MSHR_MERGE:          0
cpu0->cpu0_L1I TRANSLATION  ACCESS:          0 HIT:          0 MISS:          0 MSHR_MERGE:          0
cpu0->cpu0_L1I PREFETCH REQUESTED:          0 ISSUED:          0 USEFUL:          0 USELESS:          0
cpu0->cpu0_L1I AVERAGE MISS LATENCY: 298.4 cycles
cpu0->cpu0_L1D TOTAL        ACCESS:   59339330 HIT:   51905895 MISS:    7433435 MSHR_MERGE:    1763285
cpu0->cpu0_L1D LOAD         ACCESS:   42446149 HIT:   39172538 MISS:    3273611 MSHR_MERGE:     910793
cpu0->cpu0_L1D RFO          ACCESS:          0 HIT:          0 MISS:          0 MSHR_MERGE:          0
cpu0->cpu0_L1D PREFETCH     ACCESS:   15472706 HIT:   11939810 MISS:    3532896 MSHR_MERGE:     411015
cpu0->cpu0_L1D WRITE        ACCESS:    1391890 HIT:     768073 MISS:     623817 MSHR_MERGE:     441477
cpu0->cpu0_L1D TRANSLATION  ACCESS:      28585 HIT:      25474 MISS:       3111 MSHR_MERGE:          0
cpu0->cpu0_L1D PREFETCH REQUESTED:   48855287 ISSUED:   15472707 USEFUL:    2849327 USELESS:     272566
cpu0->cpu0_L1D AVERAGE MISS LATENCY: 46.24 cycles
cpu0->cpu0_ITLB TOTAL        ACCESS:   22377261 HIT:   22377247 MISS:         14 MSHR_MERGE:          4
cpu0->cpu0_ITLB LOAD         ACCESS:   22377261 HIT:   22377247 MISS:         14 MSHR_MERGE:          4
cpu0->cpu0_ITLB RFO          ACCESS:          0 HIT:          0 MISS:          0 MSHR_MERGE:          0
cpu0->cpu0_ITLB PREFETCH     ACCESS:          0 HIT:          0 MISS:          0 MSHR_MERGE:          0
cpu0->cpu0_ITLB WRITE        ACCESS:          0 HIT:          0 MISS:          0 MSHR_MERGE:          0
cpu0->cpu0_ITLB TRANSLATION  ACCESS:          0 HIT:          0 MISS:          0 MSHR_MERGE:          0
cpu0->cpu0_ITLB PREFETCH REQUESTED:          0 ISSUED:          0 USEFUL:          0 USELESS:          0
cpu0->cpu0_ITLB AVERAGE MISS LATENCY: 422.7 cycles
cpu0->cpu0_DTLB TOTAL        ACCESS:   49750226 HIT:   49615430 MISS:     134796 MSHR_MERGE:     115635
cpu0->cpu0_DTLB LOAD         ACCESS:   49750226 HIT:   49615430 MISS:     134796 MSHR_MERGE:     115635
cpu0->cpu0_DTLB RFO          ACCESS:          0 HIT:          0 MISS:          0 MSHR_MERGE:          0
cpu0->cpu0_DTLB PREFETCH     ACCESS:          0 HIT:          0 MISS:          0 MSHR_MERGE:          0
cpu0->cpu0_DTLB WRITE        ACCESS:          0 HIT:          0 MISS:          0 MSHR_MERGE:          0
cpu0->cpu0_DTLB TRANSLATION  ACCESS:          0 HIT:          0 MISS:          0 MSHR_MERGE:          0
cpu0->cpu0_DTLB PREFETCH REQUESTED:          0 ISSUED:          0 USEFUL:          0 USELESS:          0
cpu0->cpu0_DTLB AVERAGE MISS LATENCY: 121.9 cycles
cpu0->LLC TOTAL        ACCESS:    2204674 HIT:     445234 MISS:    1759440 MSHR_MERGE:     639308
cpu0->LLC LOAD         ACCESS:      87983 HIT:      52859 MISS:      35124 MSHR_MERGE:      29168
cpu0->LLC RFO          ACCESS:     169058 HIT:       1513 MISS:     167545 MSHR_MERGE:          0
cpu0->LLC PREFETCH     ACCESS:    1773898 HIT:     382705 MISS:    1391193 MSHR_MERGE:     610140
cpu0->LLC WRITE        ACCESS:     171786 HIT:       8150 MISS:     163636 MSHR_MERGE:          0
cpu0->LLC TRANSLATION  ACCESS:       1949 HIT:          7 MISS:       1942 MSHR_MERGE:          0
cpu0->LLC PREFETCH REQUESTED:     943379 ISSUED:     914426 USEFUL:     142670 USELESS:     420969
cpu0->LLC AVERAGE MISS LATENCY: 205.1 cycles

DRAM Statistics

Channel 0 RQ ROW_BUFFER_HIT:     337407
  ROW_BUFFER_MISS:     618693
  AVG DBUS CONGESTED CYCLE: 6.234
Channel 0 WQ ROW_BUFFER_HIT:       6732
  ROW_BUFFER_MISS:     154866
  FULL:      99189
Channel 0 REFRESHES ISSUED:       5193
