[VMEM] WARNING: physical memory size is smaller than virtual memory size.

*** ChampSim Multicore Out-of-Order Simulator ***
Warmup Instructions: 50000000
Simulation Instructions: 200000000
Number of CPUs: 1
Page size: 4096
Core 0: /local-ssd/ben/dpc4-traces/Graph/Ligra/ligra_Triangle.com-lj.ungraph.gcc_6.3.0_O3.drop_25000M.length_250M.champsimtrace.xz
Off-chip DRAM Size: 64 GiB Channels: 1 Width: 64-bit Data Rate: 4807 MT/s
Heartbeat CPU 0 instructions: 500002 cycles: 109307 heartbeat IPC: 4.574 cumulative IPC: 4.574 (Simulation time: 00 hr 00 min 02 sec)
Heartbeat CPU 0 instructions: 1000009 cycles: 209524 heartbeat IPC: 4.989 cumulative IPC: 4.773 (Simulation time: 00 hr 00 min 03 sec)
Heartbeat CPU 0 instructions: 1500015 cycles: 309523 heartbeat IPC: 5 cumulative IPC: 4.846 (Simulation time: 00 hr 00 min 05 sec)
Heartbeat CPU 0 instructions: 2000020 cycles: 409524 heartbeat IPC: 5 cumulative IPC: 4.884 (Simulation time: 00 hr 00 min 06 sec)
Heartbeat CPU 0 instructions: 2500020 cycles: 509534 heartbeat IPC: 5 cumulative IPC: 4.906 (Simulation time: 00 hr 00 min 08 sec)
Heartbeat CPU 0 instructions: 3000021 cycles: 609531 heartbeat IPC: 5 cumulative IPC: 4.922 (Simulation time: 00 hr 00 min 09 sec)
Heartbeat CPU 0 instructions: 3500028 cycles: 709529 heartbeat IPC: 5 cumulative IPC: 4.933 (Simulation time: 00 hr 00 min 11 sec)
Heartbeat CPU 0 instructions: 4000028 cycles: 809536 heartbeat IPC: 5 cumulative IPC: 4.941 (Simulation time: 00 hr 00 min 12 sec)
Heartbeat CPU 0 instructions: 4500034 cycles: 909531 heartbeat IPC: 5 cumulative IPC: 4.948 (Simulation time: 00 hr 00 min 14 sec)
Heartbeat CPU 0 instructions: 5000039 cycles: 1009534 heartbeat IPC: 5 cumulative IPC: 4.953 (Simulation time: 00 hr 00 min 15 sec)
Heartbeat CPU 0 instructions: 5500043 cycles: 1109536 heartbeat IPC: 5 cumulative IPC: 4.957 (Simulation time: 00 hr 00 min 17 sec)
Heartbeat CPU 0 instructions: 6000043 cycles: 1209578 heartbeat IPC: 4.998 cumulative IPC: 4.96 (Simulation time: 00 hr 00 min 19 sec)
Heartbeat CPU 0 instructions: 6500047 cycles: 1309681 heartbeat IPC: 4.995 cumulative IPC: 4.963 (Simulation time: 00 hr 00 min 20 sec)
Heartbeat CPU 0 instructions: 7000049 cycles: 1409883 heartbeat IPC: 4.99 cumulative IPC: 4.965 (Simulation time: 00 hr 00 min 22 sec)
Heartbeat CPU 0 instructions: 7500055 cycles: 1509880 heartbeat IPC: 5 cumulative IPC: 4.967 (Simulation time: 00 hr 00 min 23 sec)
Heartbeat CPU 0 instructions: 8000061 cycles: 1609876 heartbeat IPC: 5 cumulative IPC: 4.969 (Simulation time: 00 hr 00 min 25 sec)
Heartbeat CPU 0 instructions: 8500067 cycles: 1709888 heartbeat IPC: 4.999 cumulative IPC: 4.971 (Simulation time: 00 hr 00 min 27 sec)
Heartbeat CPU 0 instructions: 9000071 cycles: 1809874 heartbeat IPC: 5.001 cumulative IPC: 4.973 (Simulation time: 00 hr 00 min 28 sec)
Heartbeat CPU 0 instructions: 9500075 cycles: 1909889 heartbeat IPC: 4.999 cumulative IPC: 4.974 (Simulation time: 00 hr 00 min 30 sec)
Heartbeat CPU 0 instructions: 10000081 cycles: 2009884 heartbeat IPC: 5 cumulative IPC: 4.975 (Simulation time: 00 hr 00 min 31 sec)
Heartbeat CPU 0 instructions: 10500086 cycles: 2109892 heartbeat IPC: 5 cumulative IPC: 4.977 (Simulation time: 00 hr 00 min 33 sec)
Heartbeat CPU 0 instructions: 11000086 cycles: 2209888 heartbeat IPC: 5 cumulative IPC: 4.978 (Simulation time: 00 hr 00 min 35 sec)
Heartbeat CPU 0 instructions: 11500089 cycles: 2309888 heartbeat IPC: 5 cumulative IPC: 4.979 (Simulation time: 00 hr 00 min 36 sec)
Heartbeat CPU 0 instructions: 12000092 cycles: 2409886 heartbeat IPC: 5 cumulative IPC: 4.98 (Simulation time: 00 hr 00 min 38 sec)
Heartbeat CPU 0 instructions: 12500094 cycles: 2509893 heartbeat IPC: 5 cumulative IPC: 4.98 (Simulation time: 00 hr 00 min 40 sec)
Heartbeat CPU 0 instructions: 13000100 cycles: 2609894 heartbeat IPC: 5 cumulative IPC: 4.981 (Simulation time: 00 hr 00 min 41 sec)
Heartbeat CPU 0 instructions: 13500106 cycles: 2709987 heartbeat IPC: 4.995 cumulative IPC: 4.982 (Simulation time: 00 hr 00 min 43 sec)
Heartbeat CPU 0 instructions: 14000108 cycles: 2809999 heartbeat IPC: 4.999 cumulative IPC: 4.982 (Simulation time: 00 hr 00 min 45 sec)
Heartbeat CPU 0 instructions: 14500109 cycles: 2909990 heartbeat IPC: 5 cumulative IPC: 4.983 (Simulation time: 00 hr 00 min 46 sec)
Heartbeat CPU 0 instructions: 15000112 cycles: 3009992 heartbeat IPC: 5 cumulative IPC: 4.983 (Simulation time: 00 hr 00 min 48 sec)
Heartbeat CPU 0 instructions: 15500116 cycles: 3110006 heartbeat IPC: 4.999 cumulative IPC: 4.984 (Simulation time: 00 hr 00 min 50 sec)
Heartbeat CPU 0 instructions: 16000119 cycles: 3209997 heartbeat IPC: 5 cumulative IPC: 4.984 (Simulation time: 00 hr 00 min 51 sec)
Heartbeat CPU 0 instructions: 16500122 cycles: 3310009 heartbeat IPC: 4.999 cumulative IPC: 4.985 (Simulation time: 00 hr 00 min 53 sec)
Heartbeat CPU 0 instructions: 17000123 cycles: 3410005 heartbeat IPC: 5 cumulative IPC: 4.985 (Simulation time: 00 hr 00 min 55 sec)
Heartbeat CPU 0 instructions: 17500128 cycles: 3510011 heartbeat IPC: 5 cumulative IPC: 4.986 (Simulation time: 00 hr 00 min 57 sec)
Heartbeat CPU 0 instructions: 18000129 cycles: 3610015 heartbeat IPC: 5 cumulative IPC: 4.986 (Simulation time: 00 hr 00 min 58 sec)
Heartbeat CPU 0 instructions: 18500131 cycles: 3710011 heartbeat IPC: 5 cumulative IPC: 4.987 (Simulation time: 00 hr 01 min 00 sec)
Heartbeat CPU 0 instructions: 19000131 cycles: 3810117 heartbeat IPC: 4.995 cumulative IPC: 4.987 (Simulation time: 00 hr 01 min 02 sec)
Heartbeat CPU 0 instructions: 19500134 cycles: 3910107 heartbeat IPC: 5.001 cumulative IPC: 4.987 (Simulation time: 00 hr 01 min 03 sec)
Heartbeat CPU 0 instructions: 20000141 cycles: 4010212 heartbeat IPC: 4.995 cumulative IPC: 4.987 (Simulation time: 00 hr 01 min 05 sec)
Heartbeat CPU 0 instructions: 20500142 cycles: 4110217 heartbeat IPC: 5 cumulative IPC: 4.988 (Simulation time: 00 hr 01 min 07 sec)
Heartbeat CPU 0 instructions: 21000148 cycles: 4210211 heartbeat IPC: 5 cumulative IPC: 4.988 (Simulation time: 00 hr 01 min 08 sec)
Heartbeat CPU 0 instructions: 21500155 cycles: 4310219 heartbeat IPC: 5 cumulative IPC: 4.988 (Simulation time: 00 hr 01 min 10 sec)
Heartbeat CPU 0 instructions: 22000156 cycles: 4410213 heartbeat IPC: 5 cumulative IPC: 4.988 (Simulation time: 00 hr 01 min 12 sec)
Heartbeat CPU 0 instructions: 22500157 cycles: 4510221 heartbeat IPC: 5 cumulative IPC: 4.989 (Simulation time: 00 hr 01 min 13 sec)
Heartbeat CPU 0 instructions: 23000158 cycles: 4610208 heartbeat IPC: 5.001 cumulative IPC: 4.989 (Simulation time: 00 hr 01 min 15 sec)
Heartbeat CPU 0 instructions: 23500158 cycles: 4710216 heartbeat IPC: 5 cumulative IPC: 4.989 (Simulation time: 00 hr 01 min 17 sec)
Heartbeat CPU 0 instructions: 24000160 cycles: 4810224 heartbeat IPC: 5 cumulative IPC: 4.989 (Simulation time: 00 hr 01 min 18 sec)
Heartbeat CPU 0 instructions: 24500162 cycles: 4910222 heartbeat IPC: 5 cumulative IPC: 4.99 (Simulation time: 00 hr 01 min 20 sec)
Heartbeat CPU 0 instructions: 25000167 cycles: 5010221 heartbeat IPC: 5 cumulative IPC: 4.99 (Simulation time: 00 hr 01 min 22 sec)
Heartbeat CPU 0 instructions: 25500174 cycles: 5110215 heartbeat IPC: 5 cumulative IPC: 4.99 (Simulation time: 00 hr 01 min 23 sec)
Heartbeat CPU 0 instructions: 26000175 cycles: 5210218 heartbeat IPC: 5 cumulative IPC: 4.99 (Simulation time: 00 hr 01 min 25 sec)
Heartbeat CPU 0 instructions: 26500175 cycles: 5310325 heartbeat IPC: 4.995 cumulative IPC: 4.99 (Simulation time: 00 hr 01 min 27 sec)
Heartbeat CPU 0 instructions: 27000175 cycles: 5410322 heartbeat IPC: 5 cumulative IPC: 4.99 (Simulation time: 00 hr 01 min 28 sec)
Heartbeat CPU 0 instructions: 27500178 cycles: 5510329 heartbeat IPC: 5 cumulative IPC: 4.991 (Simulation time: 00 hr 01 min 30 sec)
Heartbeat CPU 0 instructions: 28000180 cycles: 5610327 heartbeat IPC: 5 cumulative IPC: 4.991 (Simulation time: 00 hr 01 min 32 sec)
Heartbeat CPU 0 instructions: 28500181 cycles: 5710331 heartbeat IPC: 5 cumulative IPC: 4.991 (Simulation time: 00 hr 01 min 34 sec)
Heartbeat CPU 0 instructions: 29000183 cycles: 5810524 heartbeat IPC: 4.99 cumulative IPC: 4.991 (Simulation time: 00 hr 01 min 35 sec)
Heartbeat CPU 0 instructions: 29500183 cycles: 5910537 heartbeat IPC: 4.999 cumulative IPC: 4.991 (Simulation time: 00 hr 01 min 37 sec)
Heartbeat CPU 0 instructions: 30000184 cycles: 6010547 heartbeat IPC: 5 cumulative IPC: 4.991 (Simulation time: 00 hr 01 min 38 sec)
Heartbeat CPU 0 instructions: 30500189 cycles: 6110537 heartbeat IPC: 5.001 cumulative IPC: 4.991 (Simulation time: 00 hr 01 min 40 sec)
Heartbeat CPU 0 instructions: 31000190 cycles: 6210531 heartbeat IPC: 5 cumulative IPC: 4.992 (Simulation time: 00 hr 01 min 42 sec)
Heartbeat CPU 0 instructions: 31500191 cycles: 6310644 heartbeat IPC: 4.994 cumulative IPC: 4.992 (Simulation time: 00 hr 01 min 43 sec)
Heartbeat CPU 0 instructions: 32000191 cycles: 6410645 heartbeat IPC: 5 cumulative IPC: 4.992 (Simulation time: 00 hr 01 min 45 sec)
Heartbeat CPU 0 instructions: 32500193 cycles: 6510651 heartbeat IPC: 5 cumulative IPC: 4.992 (Simulation time: 00 hr 01 min 47 sec)
Heartbeat CPU 0 instructions: 33000196 cycles: 6610745 heartbeat IPC: 4.995 cumulative IPC: 4.992 (Simulation time: 00 hr 01 min 48 sec)
Heartbeat CPU 0 instructions: 33500199 cycles: 6710749 heartbeat IPC: 5 cumulative IPC: 4.992 (Simulation time: 00 hr 01 min 50 sec)
Heartbeat CPU 0 instructions: 34000201 cycles: 6810749 heartbeat IPC: 5 cumulative IPC: 4.992 (Simulation time: 00 hr 01 min 52 sec)
Heartbeat CPU 0 instructions: 34500208 cycles: 6910738 heartbeat IPC: 5.001 cumulative IPC: 4.992 (Simulation time: 00 hr 01 min 53 sec)
Heartbeat CPU 0 instructions: 35000211 cycles: 7010740 heartbeat IPC: 5 cumulative IPC: 4.992 (Simulation time: 00 hr 01 min 55 sec)
Heartbeat CPU 0 instructions: 35500218 cycles: 7110752 heartbeat IPC: 4.999 cumulative IPC: 4.992 (Simulation time: 00 hr 01 min 57 sec)
Heartbeat CPU 0 instructions: 36000219 cycles: 7210751 heartbeat IPC: 5 cumulative IPC: 4.993 (Simulation time: 00 hr 01 min 58 sec)
Heartbeat CPU 0 instructions: 36500222 cycles: 7310753 heartbeat IPC: 5 cumulative IPC: 4.993 (Simulation time: 00 hr 02 min 00 sec)
Heartbeat CPU 0 instructions: 37000224 cycles: 7410753 heartbeat IPC: 5 cumulative IPC: 4.993 (Simulation time: 00 hr 02 min 02 sec)
Heartbeat CPU 0 instructions: 37500229 cycles: 7510746 heartbeat IPC: 5 cumulative IPC: 4.993 (Simulation time: 00 hr 02 min 03 sec)
Heartbeat CPU 0 instructions: 38000229 cycles: 7610754 heartbeat IPC: 5 cumulative IPC: 4.993 (Simulation time: 00 hr 02 min 05 sec)
Heartbeat CPU 0 instructions: 38500229 cycles: 7710762 heartbeat IPC: 5 cumulative IPC: 4.993 (Simulation time: 00 hr 02 min 07 sec)
Heartbeat CPU 0 instructions: 39000236 cycles: 7810755 heartbeat IPC: 5 cumulative IPC: 4.993 (Simulation time: 00 hr 02 min 09 sec)
Heartbeat CPU 0 instructions: 39500240 cycles: 7910854 heartbeat IPC: 4.995 cumulative IPC: 4.993 (Simulation time: 00 hr 02 min 10 sec)
Heartbeat CPU 0 instructions: 40000241 cycles: 8011166 heartbeat IPC: 4.984 cumulative IPC: 4.993 (Simulation time: 00 hr 02 min 12 sec)
Heartbeat CPU 0 instructions: 40500244 cycles: 8111167 heartbeat IPC: 5 cumulative IPC: 4.993 (Simulation time: 00 hr 02 min 14 sec)
Heartbeat CPU 0 instructions: 41000247 cycles: 8211167 heartbeat IPC: 5 cumulative IPC: 4.993 (Simulation time: 00 hr 02 min 15 sec)
Heartbeat CPU 0 instructions: 41500248 cycles: 8311167 heartbeat IPC: 5 cumulative IPC: 4.993 (Simulation time: 00 hr 02 min 17 sec)
Heartbeat CPU 0 instructions: 42000248 cycles: 8411166 heartbeat IPC: 5 cumulative IPC: 4.993 (Simulation time: 00 hr 02 min 19 sec)
Heartbeat CPU 0 instructions: 42500255 cycles: 8511275 heartbeat IPC: 4.995 cumulative IPC: 4.993 (Simulation time: 00 hr 02 min 20 sec)
Heartbeat CPU 0 instructions: 43000255 cycles: 8611274 heartbeat IPC: 5 cumulative IPC: 4.993 (Simulation time: 00 hr 02 min 22 sec)
Heartbeat CPU 0 instructions: 43500258 cycles: 8711268 heartbeat IPC: 5 cumulative IPC: 4.994 (Simulation time: 00 hr 02 min 24 sec)
Heartbeat CPU 0 instructions: 44000260 cycles: 8811275 heartbeat IPC: 5 cumulative IPC: 4.994 (Simulation time: 00 hr 02 min 26 sec)
Heartbeat CPU 0 instructions: 44500263 cycles: 8911265 heartbeat IPC: 5.001 cumulative IPC: 4.994 (Simulation time: 00 hr 02 min 27 sec)
Heartbeat CPU 0 instructions: 45000263 cycles: 9011272 heartbeat IPC: 5 cumulative IPC: 4.994 (Simulation time: 00 hr 02 min 29 sec)
Heartbeat CPU 0 instructions: 45500267 cycles: 9111276 heartbeat IPC: 5 cumulative IPC: 4.994 (Simulation time: 00 hr 02 min 31 sec)
Heartbeat CPU 0 instructions: 46000270 cycles: 9211275 heartbeat IPC: 5 cumulative IPC: 4.994 (Simulation time: 00 hr 02 min 32 sec)
Heartbeat CPU 0 instructions: 46500276 cycles: 9311485 heartbeat IPC: 4.99 cumulative IPC: 4.994 (Simulation time: 00 hr 02 min 34 sec)
Heartbeat CPU 0 instructions: 47000282 cycles: 9411491 heartbeat IPC: 5 cumulative IPC: 4.994 (Simulation time: 00 hr 02 min 36 sec)
Heartbeat CPU 0 instructions: 47500289 cycles: 9511489 heartbeat IPC: 5 cumulative IPC: 4.994 (Simulation time: 00 hr 02 min 37 sec)
Heartbeat CPU 0 instructions: 48000290 cycles: 9611518 heartbeat IPC: 4.999 cumulative IPC: 4.994 (Simulation time: 00 hr 02 min 39 sec)
Heartbeat CPU 0 instructions: 48500292 cycles: 9711511 heartbeat IPC: 5 cumulative IPC: 4.994 (Simulation time: 00 hr 02 min 41 sec)
Heartbeat CPU 0 instructions: 49000298 cycles: 9811503 heartbeat IPC: 5 cumulative IPC: 4.994 (Simulation time: 00 hr 02 min 42 sec)
Heartbeat CPU 0 instructions: 49500305 cycles: 9911514 heartbeat IPC: 5 cumulative IPC: 4.994 (Simulation time: 00 hr 02 min 44 sec)
Warmup halting CPU 0 at instruction 50000006 cycle 10011455 for remainder of phase
Warmup finished CPU 0 instructions: 50000006 cycles: 10011455 cumulative IPC: 4.994 (Simulation time: 00 hr 02 min 46 sec)
Warmup complete CPU 0 instructions: 50000006 cycles: 10011455 cumulative IPC: 4.994 (Simulation time: 00 hr 02 min 46 sec)
Heartbeat CPU 0 instructions: 50000311 cycles: 10011689 heartbeat IPC: 4.991 cumulative IPC: 1.303 (Simulation time: 00 hr 02 min 46 sec)
Heartbeat CPU 0 instructions: 50500312 cycles: 10328336 heartbeat IPC: 1.579 cumulative IPC: 1.579 (Simulation time: 00 hr 02 min 49 sec)
Heartbeat CPU 0 instructions: 51000312 cycles: 10700517 heartbeat IPC: 1.343 cumulative IPC: 1.452 (Simulation time: 00 hr 02 min 52 sec)
Heartbeat CPU 0 instructions: 51500313 cycles: 11043195 heartbeat IPC: 1.459 cumulative IPC: 1.454 (Simulation time: 00 hr 02 min 56 sec)
Heartbeat CPU 0 instructions: 52000314 cycles: 11373126 heartbeat IPC: 1.515 cumulative IPC: 1.469 (Simulation time: 00 hr 02 min 59 sec)
Heartbeat CPU 0 instructions: 52500319 cycles: 11735154 heartbeat IPC: 1.381 cumulative IPC: 1.451 (Simulation time: 00 hr 03 min 02 sec)
Heartbeat CPU 0 instructions: 53000319 cycles: 12063788 heartbeat IPC: 1.521 cumulative IPC: 1.462 (Simulation time: 00 hr 03 min 06 sec)
Heartbeat CPU 0 instructions: 53500322 cycles: 12460437 heartbeat IPC: 1.261 cumulative IPC: 1.429 (Simulation time: 00 hr 03 min 09 sec)
Heartbeat CPU 0 instructions: 54000327 cycles: 12820969 heartbeat IPC: 1.387 cumulative IPC: 1.424 (Simulation time: 00 hr 03 min 12 sec)
Heartbeat CPU 0 instructions: 54500327 cycles: 13142425 heartbeat IPC: 1.555 cumulative IPC: 1.437 (Simulation time: 00 hr 03 min 16 sec)
Heartbeat CPU 0 instructions: 55000332 cycles: 13462391 heartbeat IPC: 1.563 cumulative IPC: 1.449 (Simulation time: 00 hr 03 min 19 sec)
Heartbeat CPU 0 instructions: 55500337 cycles: 13771268 heartbeat IPC: 1.619 cumulative IPC: 1.463 (Simulation time: 00 hr 03 min 22 sec)
Heartbeat CPU 0 instructions: 56000340 cycles: 14084184 heartbeat IPC: 1.598 cumulative IPC: 1.473 (Simulation time: 00 hr 03 min 25 sec)
Heartbeat CPU 0 instructions: 56500340 cycles: 14352046 heartbeat IPC: 1.867 cumulative IPC: 1.498 (Simulation time: 00 hr 03 min 28 sec)
Heartbeat CPU 0 instructions: 57000340 cycles: 14694693 heartbeat IPC: 1.459 cumulative IPC: 1.495 (Simulation time: 00 hr 03 min 31 sec)
Heartbeat CPU 0 instructions: 57500340 cycles: 15016791 heartbeat IPC: 1.552 cumulative IPC: 1.498 (Simulation time: 00 hr 03 min 34 sec)
Heartbeat CPU 0 instructions: 58000340 cycles: 15344750 heartbeat IPC: 1.525 cumulative IPC: 1.5 (Simulation time: 00 hr 03 min 38 sec)
Heartbeat CPU 0 instructions: 58500342 cycles: 15660867 heartbeat IPC: 1.582 cumulative IPC: 1.505 (Simulation time: 00 hr 03 min 41 sec)
Heartbeat CPU 0 instructions: 59000346 cycles: 15992109 heartbeat IPC: 1.509 cumulative IPC: 1.505 (Simulation time: 00 hr 03 min 44 sec)
Heartbeat CPU 0 instructions: 59500351 cycles: 16315404 heartbeat IPC: 1.547 cumulative IPC: 1.507 (Simulation time: 00 hr 03 min 47 sec)
Heartbeat CPU 0 instructions: 60000352 cycles: 16639983 heartbeat IPC: 1.54 cumulative IPC: 1.509 (Simulation time: 00 hr 03 min 50 sec)
Heartbeat CPU 0 instructions: 60500352 cycles: 16986777 heartbeat IPC: 1.442 cumulative IPC: 1.505 (Simulation time: 00 hr 03 min 54 sec)
Heartbeat CPU 0 instructions: 61000353 cycles: 17316427 heartbeat IPC: 1.517 cumulative IPC: 1.506 (Simulation time: 00 hr 03 min 57 sec)
Heartbeat CPU 0 instructions: 61500354 cycles: 17645966 heartbeat IPC: 1.517 cumulative IPC: 1.506 (Simulation time: 00 hr 04 min 00 sec)
Heartbeat CPU 0 instructions: 62000354 cycles: 17989608 heartbeat IPC: 1.455 cumulative IPC: 1.504 (Simulation time: 00 hr 04 min 03 sec)
Heartbeat CPU 0 instructions: 62500355 cycles: 18327763 heartbeat IPC: 1.479 cumulative IPC: 1.503 (Simulation time: 00 hr 04 min 06 sec)
Heartbeat CPU 0 instructions: 63000356 cycles: 18644768 heartbeat IPC: 1.577 cumulative IPC: 1.506 (Simulation time: 00 hr 04 min 09 sec)
Heartbeat CPU 0 instructions: 63500356 cycles: 18999778 heartbeat IPC: 1.408 cumulative IPC: 1.502 (Simulation time: 00 hr 04 min 13 sec)
Heartbeat CPU 0 instructions: 64000356 cycles: 19342822 heartbeat IPC: 1.458 cumulative IPC: 1.5 (Simulation time: 00 hr 04 min 16 sec)
Heartbeat CPU 0 instructions: 64500358 cycles: 19671354 heartbeat IPC: 1.522 cumulative IPC: 1.501 (Simulation time: 00 hr 04 min 19 sec)
Heartbeat CPU 0 instructions: 65000359 cycles: 20007939 heartbeat IPC: 1.486 cumulative IPC: 1.501 (Simulation time: 00 hr 04 min 22 sec)
Heartbeat CPU 0 instructions: 65500359 cycles: 20393175 heartbeat IPC: 1.298 cumulative IPC: 1.493 (Simulation time: 00 hr 04 min 26 sec)
Heartbeat CPU 0 instructions: 66000361 cycles: 20740460 heartbeat IPC: 1.44 cumulative IPC: 1.491 (Simulation time: 00 hr 04 min 29 sec)
Heartbeat CPU 0 instructions: 66500363 cycles: 21084939 heartbeat IPC: 1.451 cumulative IPC: 1.49 (Simulation time: 00 hr 04 min 33 sec)
Heartbeat CPU 0 instructions: 67000363 cycles: 21408160 heartbeat IPC: 1.547 cumulative IPC: 1.492 (Simulation time: 00 hr 04 min 36 sec)
Heartbeat CPU 0 instructions: 67500365 cycles: 21773465 heartbeat IPC: 1.369 cumulative IPC: 1.488 (Simulation time: 00 hr 04 min 39 sec)
Heartbeat CPU 0 instructions: 68000366 cycles: 22115551 heartbeat IPC: 1.462 cumulative IPC: 1.487 (Simulation time: 00 hr 04 min 42 sec)
Heartbeat CPU 0 instructions: 68500368 cycles: 22511779 heartbeat IPC: 1.262 cumulative IPC: 1.48 (Simulation time: 00 hr 04 min 46 sec)
Heartbeat CPU 0 instructions: 69000369 cycles: 22944052 heartbeat IPC: 1.157 cumulative IPC: 1.469 (Simulation time: 00 hr 04 min 50 sec)
Heartbeat CPU 0 instructions: 69500374 cycles: 23314574 heartbeat IPC: 1.349 cumulative IPC: 1.466 (Simulation time: 00 hr 04 min 53 sec)
Heartbeat CPU 0 instructions: 70000375 cycles: 23654177 heartbeat IPC: 1.472 cumulative IPC: 1.466 (Simulation time: 00 hr 04 min 56 sec)
Heartbeat CPU 0 instructions: 70500378 cycles: 23957941 heartbeat IPC: 1.646 cumulative IPC: 1.47 (Simulation time: 00 hr 04 min 59 sec)
Heartbeat CPU 0 instructions: 71000378 cycles: 24336861 heartbeat IPC: 1.32 cumulative IPC: 1.466 (Simulation time: 00 hr 05 min 03 sec)
Heartbeat CPU 0 instructions: 71500379 cycles: 24683887 heartbeat IPC: 1.441 cumulative IPC: 1.465 (Simulation time: 00 hr 05 min 06 sec)
Heartbeat CPU 0 instructions: 72000384 cycles: 25005803 heartbeat IPC: 1.553 cumulative IPC: 1.467 (Simulation time: 00 hr 05 min 09 sec)
Heartbeat CPU 0 instructions: 72500386 cycles: 25354947 heartbeat IPC: 1.432 cumulative IPC: 1.466 (Simulation time: 00 hr 05 min 13 sec)
Heartbeat CPU 0 instructions: 73000388 cycles: 25693304 heartbeat IPC: 1.478 cumulative IPC: 1.467 (Simulation time: 00 hr 05 min 16 sec)
Heartbeat CPU 0 instructions: 73500390 cycles: 26037577 heartbeat IPC: 1.452 cumulative IPC: 1.466 (Simulation time: 00 hr 05 min 19 sec)
Heartbeat CPU 0 instructions: 74000390 cycles: 26353378 heartbeat IPC: 1.583 cumulative IPC: 1.469 (Simulation time: 00 hr 05 min 22 sec)
Heartbeat CPU 0 instructions: 74500391 cycles: 26712107 heartbeat IPC: 1.394 cumulative IPC: 1.467 (Simulation time: 00 hr 05 min 26 sec)
Heartbeat CPU 0 instructions: 75000395 cycles: 27060136 heartbeat IPC: 1.437 cumulative IPC: 1.466 (Simulation time: 00 hr 05 min 29 sec)
Heartbeat CPU 0 instructions: 75500397 cycles: 27416858 heartbeat IPC: 1.402 cumulative IPC: 1.465 (Simulation time: 00 hr 05 min 32 sec)
Heartbeat CPU 0 instructions: 76000398 cycles: 27767725 heartbeat IPC: 1.425 cumulative IPC: 1.464 (Simulation time: 00 hr 05 min 36 sec)
Heartbeat CPU 0 instructions: 76500400 cycles: 28085505 heartbeat IPC: 1.573 cumulative IPC: 1.466 (Simulation time: 00 hr 05 min 39 sec)
Heartbeat CPU 0 instructions: 77000400 cycles: 28475535 heartbeat IPC: 1.282 cumulative IPC: 1.462 (Simulation time: 00 hr 05 min 42 sec)
Heartbeat CPU 0 instructions: 77500401 cycles: 28846068 heartbeat IPC: 1.349 cumulative IPC: 1.46 (Simulation time: 00 hr 05 min 46 sec)
Heartbeat CPU 0 instructions: 78000401 cycles: 29283945 heartbeat IPC: 1.142 cumulative IPC: 1.453 (Simulation time: 00 hr 05 min 49 sec)
Heartbeat CPU 0 instructions: 78500401 cycles: 29642725 heartbeat IPC: 1.394 cumulative IPC: 1.452 (Simulation time: 00 hr 05 min 53 sec)
Heartbeat CPU 0 instructions: 79000402 cycles: 30012394 heartbeat IPC: 1.353 cumulative IPC: 1.45 (Simulation time: 00 hr 05 min 56 sec)
Heartbeat CPU 0 instructions: 79500403 cycles: 30385298 heartbeat IPC: 1.341 cumulative IPC: 1.448 (Simulation time: 00 hr 06 min 00 sec)
Heartbeat CPU 0 instructions: 80000403 cycles: 30600489 heartbeat IPC: 2.324 cumulative IPC: 1.457 (Simulation time: 00 hr 06 min 02 sec)
Heartbeat CPU 0 instructions: 80500404 cycles: 30993683 heartbeat IPC: 1.272 cumulative IPC: 1.454 (Simulation time: 00 hr 06 min 06 sec)
Heartbeat CPU 0 instructions: 81000405 cycles: 31339367 heartbeat IPC: 1.446 cumulative IPC: 1.454 (Simulation time: 00 hr 06 min 09 sec)
Heartbeat CPU 0 instructions: 81500409 cycles: 31716854 heartbeat IPC: 1.325 cumulative IPC: 1.451 (Simulation time: 00 hr 06 min 12 sec)
Heartbeat CPU 0 instructions: 82000414 cycles: 32055249 heartbeat IPC: 1.478 cumulative IPC: 1.452 (Simulation time: 00 hr 06 min 16 sec)
Heartbeat CPU 0 instructions: 82500416 cycles: 32409966 heartbeat IPC: 1.41 cumulative IPC: 1.451 (Simulation time: 00 hr 06 min 19 sec)
Heartbeat CPU 0 instructions: 83000416 cycles: 32778144 heartbeat IPC: 1.358 cumulative IPC: 1.45 (Simulation time: 00 hr 06 min 22 sec)
Heartbeat CPU 0 instructions: 83500417 cycles: 33149698 heartbeat IPC: 1.346 cumulative IPC: 1.448 (Simulation time: 00 hr 06 min 26 sec)
Heartbeat CPU 0 instructions: 84000418 cycles: 33515972 heartbeat IPC: 1.365 cumulative IPC: 1.447 (Simulation time: 00 hr 06 min 29 sec)
Heartbeat CPU 0 instructions: 84500418 cycles: 33884608 heartbeat IPC: 1.356 cumulative IPC: 1.445 (Simulation time: 00 hr 06 min 33 sec)
Heartbeat CPU 0 instructions: 85000418 cycles: 34245771 heartbeat IPC: 1.384 cumulative IPC: 1.444 (Simulation time: 00 hr 06 min 36 sec)
Heartbeat CPU 0 instructions: 85500419 cycles: 34681613 heartbeat IPC: 1.147 cumulative IPC: 1.439 (Simulation time: 00 hr 06 min 40 sec)
Heartbeat CPU 0 instructions: 86000425 cycles: 35089262 heartbeat IPC: 1.227 cumulative IPC: 1.436 (Simulation time: 00 hr 06 min 43 sec)
Heartbeat CPU 0 instructions: 86500425 cycles: 35433544 heartbeat IPC: 1.452 cumulative IPC: 1.436 (Simulation time: 00 hr 06 min 47 sec)
Heartbeat CPU 0 instructions: 87000426 cycles: 35840921 heartbeat IPC: 1.227 cumulative IPC: 1.432 (Simulation time: 00 hr 06 min 50 sec)
Heartbeat CPU 0 instructions: 87500427 cycles: 36215971 heartbeat IPC: 1.333 cumulative IPC: 1.431 (Simulation time: 00 hr 06 min 54 sec)
Heartbeat CPU 0 instructions: 88000428 cycles: 36438276 heartbeat IPC: 2.249 cumulative IPC: 1.438 (Simulation time: 00 hr 06 min 56 sec)
Heartbeat CPU 0 instructions: 88500429 cycles: 36824096 heartbeat IPC: 1.296 cumulative IPC: 1.436 (Simulation time: 00 hr 07 min 00 sec)
Heartbeat CPU 0 instructions: 89000434 cycles: 37213589 heartbeat IPC: 1.284 cumulative IPC: 1.434 (Simulation time: 00 hr 07 min 03 sec)
Heartbeat CPU 0 instructions: 89500434 cycles: 37616398 heartbeat IPC: 1.241 cumulative IPC: 1.431 (Simulation time: 00 hr 07 min 07 sec)
Heartbeat CPU 0 instructions: 90000434 cycles: 37957877 heartbeat IPC: 1.464 cumulative IPC: 1.431 (Simulation time: 00 hr 07 min 10 sec)
Heartbeat CPU 0 instructions: 90500434 cycles: 38380054 heartbeat IPC: 1.184 cumulative IPC: 1.428 (Simulation time: 00 hr 07 min 14 sec)
Heartbeat CPU 0 instructions: 91000438 cycles: 38787561 heartbeat IPC: 1.227 cumulative IPC: 1.425 (Simulation time: 00 hr 07 min 17 sec)
Heartbeat CPU 0 instructions: 91500440 cycles: 39163546 heartbeat IPC: 1.33 cumulative IPC: 1.424 (Simulation time: 00 hr 07 min 21 sec)
Heartbeat CPU 0 instructions: 92000444 cycles: 39577012 heartbeat IPC: 1.209 cumulative IPC: 1.421 (Simulation time: 00 hr 07 min 25 sec)
Heartbeat CPU 0 instructions: 92500447 cycles: 39963880 heartbeat IPC: 1.292 cumulative IPC: 1.419 (Simulation time: 00 hr 07 min 28 sec)
Heartbeat CPU 0 instructions: 93000452 cycles: 40343501 heartbeat IPC: 1.317 cumulative IPC: 1.418 (Simulation time: 00 hr 07 min 31 sec)
Heartbeat CPU 0 instructions: 93500452 cycles: 40706009 heartbeat IPC: 1.379 cumulative IPC: 1.417 (Simulation time: 00 hr 07 min 35 sec)
Heartbeat CPU 0 instructions: 94000453 cycles: 41083122 heartbeat IPC: 1.326 cumulative IPC: 1.416 (Simulation time: 00 hr 07 min 38 sec)
Heartbeat CPU 0 instructions: 94500454 cycles: 41479191 heartbeat IPC: 1.262 cumulative IPC: 1.414 (Simulation time: 00 hr 07 min 42 sec)
Heartbeat CPU 0 instructions: 95000457 cycles: 41873630 heartbeat IPC: 1.268 cumulative IPC: 1.412 (Simulation time: 00 hr 07 min 46 sec)
Heartbeat CPU 0 instructions: 95500457 cycles: 42235282 heartbeat IPC: 1.383 cumulative IPC: 1.412 (Simulation time: 00 hr 07 min 49 sec)
Heartbeat CPU 0 instructions: 96000457 cycles: 42603399 heartbeat IPC: 1.358 cumulative IPC: 1.411 (Simulation time: 00 hr 07 min 52 sec)
Heartbeat CPU 0 instructions: 96500461 cycles: 42959742 heartbeat IPC: 1.403 cumulative IPC: 1.411 (Simulation time: 00 hr 07 min 56 sec)
Heartbeat CPU 0 instructions: 97000465 cycles: 43426916 heartbeat IPC: 1.07 cumulative IPC: 1.407 (Simulation time: 00 hr 07 min 59 sec)
Heartbeat CPU 0 instructions: 97500465 cycles: 43655130 heartbeat IPC: 2.191 cumulative IPC: 1.412 (Simulation time: 00 hr 08 min 02 sec)
Heartbeat CPU 0 instructions: 98000470 cycles: 44103187 heartbeat IPC: 1.116 cumulative IPC: 1.408 (Simulation time: 00 hr 08 min 06 sec)
Heartbeat CPU 0 instructions: 98500471 cycles: 44472670 heartbeat IPC: 1.353 cumulative IPC: 1.407 (Simulation time: 00 hr 08 min 09 sec)
Heartbeat CPU 0 instructions: 99000471 cycles: 44805464 heartbeat IPC: 1.502 cumulative IPC: 1.408 (Simulation time: 00 hr 08 min 13 sec)
Heartbeat CPU 0 instructions: 99500473 cycles: 45257305 heartbeat IPC: 1.107 cumulative IPC: 1.404 (Simulation time: 00 hr 08 min 17 sec)
Heartbeat CPU 0 instructions: 100000478 cycles: 45648074 heartbeat IPC: 1.28 cumulative IPC: 1.403 (Simulation time: 00 hr 08 min 20 sec)
Heartbeat CPU 0 instructions: 100500478 cycles: 46039928 heartbeat IPC: 1.276 cumulative IPC: 1.402 (Simulation time: 00 hr 08 min 24 sec)
Heartbeat CPU 0 instructions: 101000478 cycles: 46456463 heartbeat IPC: 1.2 cumulative IPC: 1.399 (Simulation time: 00 hr 08 min 27 sec)
Heartbeat CPU 0 instructions: 101500478 cycles: 46852453 heartbeat IPC: 1.263 cumulative IPC: 1.398 (Simulation time: 00 hr 08 min 31 sec)
Heartbeat CPU 0 instructions: 102000478 cycles: 47254379 heartbeat IPC: 1.244 cumulative IPC: 1.396 (Simulation time: 00 hr 08 min 35 sec)
Heartbeat CPU 0 instructions: 102500482 cycles: 47678353 heartbeat IPC: 1.179 cumulative IPC: 1.394 (Simulation time: 00 hr 08 min 38 sec)
Heartbeat CPU 0 instructions: 103000482 cycles: 48078062 heartbeat IPC: 1.251 cumulative IPC: 1.392 (Simulation time: 00 hr 08 min 42 sec)
Heartbeat CPU 0 instructions: 103500484 cycles: 48436603 heartbeat IPC: 1.395 cumulative IPC: 1.392 (Simulation time: 00 hr 08 min 45 sec)
Heartbeat CPU 0 instructions: 104000484 cycles: 48862532 heartbeat IPC: 1.174 cumulative IPC: 1.39 (Simulation time: 00 hr 08 min 49 sec)
Heartbeat CPU 0 instructions: 104500488 cycles: 49256274 heartbeat IPC: 1.27 cumulative IPC: 1.389 (Simulation time: 00 hr 08 min 52 sec)
Heartbeat CPU 0 instructions: 105000489 cycles: 49635233 heartbeat IPC: 1.319 cumulative IPC: 1.388 (Simulation time: 00 hr 08 min 56 sec)
Heartbeat CPU 0 instructions: 105500494 cycles: 50050862 heartbeat IPC: 1.203 cumulative IPC: 1.386 (Simulation time: 00 hr 08 min 59 sec)
Heartbeat CPU 0 instructions: 106000495 cycles: 50442745 heartbeat IPC: 1.276 cumulative IPC: 1.385 (Simulation time: 00 hr 09 min 03 sec)
Heartbeat CPU 0 instructions: 106500495 cycles: 50870515 heartbeat IPC: 1.169 cumulative IPC: 1.383 (Simulation time: 00 hr 09 min 07 sec)
Heartbeat CPU 0 instructions: 107000500 cycles: 51230008 heartbeat IPC: 1.391 cumulative IPC: 1.383 (Simulation time: 00 hr 09 min 10 sec)
Heartbeat CPU 0 instructions: 107500502 cycles: 51524817 heartbeat IPC: 1.696 cumulative IPC: 1.385 (Simulation time: 00 hr 09 min 13 sec)
Heartbeat CPU 0 instructions: 108000502 cycles: 51961509 heartbeat IPC: 1.145 cumulative IPC: 1.383 (Simulation time: 00 hr 09 min 17 sec)
Heartbeat CPU 0 instructions: 108500503 cycles: 52356361 heartbeat IPC: 1.266 cumulative IPC: 1.382 (Simulation time: 00 hr 09 min 20 sec)
Heartbeat CPU 0 instructions: 109000504 cycles: 52584479 heartbeat IPC: 2.192 cumulative IPC: 1.386 (Simulation time: 00 hr 09 min 23 sec)
Heartbeat CPU 0 instructions: 109500505 cycles: 53044679 heartbeat IPC: 1.086 cumulative IPC: 1.383 (Simulation time: 00 hr 09 min 27 sec)
Heartbeat CPU 0 instructions: 110000506 cycles: 53457468 heartbeat IPC: 1.211 cumulative IPC: 1.381 (Simulation time: 00 hr 09 min 31 sec)
Heartbeat CPU 0 instructions: 110500506 cycles: 53808256 heartbeat IPC: 1.425 cumulative IPC: 1.381 (Simulation time: 00 hr 09 min 34 sec)
Heartbeat CPU 0 instructions: 111000506 cycles: 54224782 heartbeat IPC: 1.2 cumulative IPC: 1.38 (Simulation time: 00 hr 09 min 38 sec)
Heartbeat CPU 0 instructions: 111500508 cycles: 54666016 heartbeat IPC: 1.133 cumulative IPC: 1.377 (Simulation time: 00 hr 09 min 41 sec)
Heartbeat CPU 0 instructions: 112000513 cycles: 55088263 heartbeat IPC: 1.184 cumulative IPC: 1.375 (Simulation time: 00 hr 09 min 45 sec)
Heartbeat CPU 0 instructions: 112500517 cycles: 55518837 heartbeat IPC: 1.161 cumulative IPC: 1.373 (Simulation time: 00 hr 09 min 49 sec)
Heartbeat CPU 0 instructions: 113000517 cycles: 55944231 heartbeat IPC: 1.175 cumulative IPC: 1.372 (Simulation time: 00 hr 09 min 53 sec)
Heartbeat CPU 0 instructions: 113500520 cycles: 56340689 heartbeat IPC: 1.261 cumulative IPC: 1.371 (Simulation time: 00 hr 09 min 56 sec)
Heartbeat CPU 0 instructions: 114000520 cycles: 56764121 heartbeat IPC: 1.181 cumulative IPC: 1.369 (Simulation time: 00 hr 10 min 00 sec)
Heartbeat CPU 0 instructions: 114500520 cycles: 57188654 heartbeat IPC: 1.178 cumulative IPC: 1.367 (Simulation time: 00 hr 10 min 04 sec)
Heartbeat CPU 0 instructions: 115000520 cycles: 57640960 heartbeat IPC: 1.105 cumulative IPC: 1.365 (Simulation time: 00 hr 10 min 07 sec)
Heartbeat CPU 0 instructions: 115500520 cycles: 58070169 heartbeat IPC: 1.165 cumulative IPC: 1.363 (Simulation time: 00 hr 10 min 11 sec)
Heartbeat CPU 0 instructions: 116000525 cycles: 58523225 heartbeat IPC: 1.104 cumulative IPC: 1.361 (Simulation time: 00 hr 10 min 15 sec)
Heartbeat CPU 0 instructions: 116500525 cycles: 58971727 heartbeat IPC: 1.115 cumulative IPC: 1.358 (Simulation time: 00 hr 10 min 19 sec)
Heartbeat CPU 0 instructions: 117000525 cycles: 59320364 heartbeat IPC: 1.434 cumulative IPC: 1.359 (Simulation time: 00 hr 10 min 22 sec)
Heartbeat CPU 0 instructions: 117500527 cycles: 59757047 heartbeat IPC: 1.145 cumulative IPC: 1.357 (Simulation time: 00 hr 10 min 26 sec)
Heartbeat CPU 0 instructions: 118000528 cycles: 60220189 heartbeat IPC: 1.08 cumulative IPC: 1.354 (Simulation time: 00 hr 10 min 30 sec)
Heartbeat CPU 0 instructions: 118500528 cycles: 60690573 heartbeat IPC: 1.063 cumulative IPC: 1.352 (Simulation time: 00 hr 10 min 34 sec)
Heartbeat CPU 0 instructions: 119000528 cycles: 61125408 heartbeat IPC: 1.15 cumulative IPC: 1.35 (Simulation time: 00 hr 10 min 38 sec)
Heartbeat CPU 0 instructions: 119500529 cycles: 61651385 heartbeat IPC: 0.9506 cumulative IPC: 1.346 (Simulation time: 00 hr 10 min 42 sec)
Heartbeat CPU 0 instructions: 120000529 cycles: 62131495 heartbeat IPC: 1.041 cumulative IPC: 1.343 (Simulation time: 00 hr 10 min 46 sec)
Heartbeat CPU 0 instructions: 120500529 cycles: 62602431 heartbeat IPC: 1.062 cumulative IPC: 1.341 (Simulation time: 00 hr 10 min 50 sec)
Heartbeat CPU 0 instructions: 121000529 cycles: 63046716 heartbeat IPC: 1.125 cumulative IPC: 1.339 (Simulation time: 00 hr 10 min 54 sec)
Heartbeat CPU 0 instructions: 121500529 cycles: 63512494 heartbeat IPC: 1.073 cumulative IPC: 1.336 (Simulation time: 00 hr 10 min 58 sec)
Heartbeat CPU 0 instructions: 122000531 cycles: 63945895 heartbeat IPC: 1.154 cumulative IPC: 1.335 (Simulation time: 00 hr 11 min 01 sec)
Heartbeat CPU 0 instructions: 122500531 cycles: 64390655 heartbeat IPC: 1.124 cumulative IPC: 1.333 (Simulation time: 00 hr 11 min 05 sec)
Heartbeat CPU 0 instructions: 123000532 cycles: 64887615 heartbeat IPC: 1.006 cumulative IPC: 1.33 (Simulation time: 00 hr 11 min 09 sec)
Heartbeat CPU 0 instructions: 123500532 cycles: 65332427 heartbeat IPC: 1.124 cumulative IPC: 1.329 (Simulation time: 00 hr 11 min 13 sec)
Heartbeat CPU 0 instructions: 124000534 cycles: 65755133 heartbeat IPC: 1.183 cumulative IPC: 1.328 (Simulation time: 00 hr 11 min 17 sec)
Heartbeat CPU 0 instructions: 124500537 cycles: 66285000 heartbeat IPC: 0.9436 cumulative IPC: 1.324 (Simulation time: 00 hr 11 min 21 sec)
Heartbeat CPU 0 instructions: 125000538 cycles: 66769217 heartbeat IPC: 1.033 cumulative IPC: 1.321 (Simulation time: 00 hr 11 min 26 sec)
Heartbeat CPU 0 instructions: 125500538 cycles: 67233572 heartbeat IPC: 1.077 cumulative IPC: 1.319 (Simulation time: 00 hr 11 min 30 sec)
Heartbeat CPU 0 instructions: 126000539 cycles: 67662466 heartbeat IPC: 1.166 cumulative IPC: 1.318 (Simulation time: 00 hr 11 min 33 sec)
Heartbeat CPU 0 instructions: 126500542 cycles: 68106570 heartbeat IPC: 1.126 cumulative IPC: 1.317 (Simulation time: 00 hr 11 min 37 sec)
Heartbeat CPU 0 instructions: 127000547 cycles: 68483307 heartbeat IPC: 1.327 cumulative IPC: 1.317 (Simulation time: 00 hr 11 min 41 sec)
Heartbeat CPU 0 instructions: 127500547 cycles: 68819245 heartbeat IPC: 1.488 cumulative IPC: 1.318 (Simulation time: 00 hr 11 min 44 sec)
Heartbeat CPU 0 instructions: 128000551 cycles: 69342303 heartbeat IPC: 0.9559 cumulative IPC: 1.315 (Simulation time: 00 hr 11 min 48 sec)
Heartbeat CPU 0 instructions: 128500552 cycles: 69819646 heartbeat IPC: 1.047 cumulative IPC: 1.313 (Simulation time: 00 hr 11 min 52 sec)
Heartbeat CPU 0 instructions: 129000554 cycles: 70322139 heartbeat IPC: 0.995 cumulative IPC: 1.31 (Simulation time: 00 hr 11 min 56 sec)
Heartbeat CPU 0 instructions: 129500554 cycles: 70761049 heartbeat IPC: 1.139 cumulative IPC: 1.309 (Simulation time: 00 hr 12 min 00 sec)
Heartbeat CPU 0 instructions: 130000556 cycles: 71237160 heartbeat IPC: 1.05 cumulative IPC: 1.307 (Simulation time: 00 hr 12 min 04 sec)
Heartbeat CPU 0 instructions: 130500556 cycles: 71553786 heartbeat IPC: 1.579 cumulative IPC: 1.308 (Simulation time: 00 hr 12 min 07 sec)
Heartbeat CPU 0 instructions: 131000561 cycles: 72078899 heartbeat IPC: 0.9522 cumulative IPC: 1.305 (Simulation time: 00 hr 12 min 12 sec)
Heartbeat CPU 0 instructions: 131500564 cycles: 72498533 heartbeat IPC: 1.192 cumulative IPC: 1.304 (Simulation time: 00 hr 12 min 15 sec)
Heartbeat CPU 0 instructions: 132000565 cycles: 73014684 heartbeat IPC: 0.9687 cumulative IPC: 1.302 (Simulation time: 00 hr 12 min 19 sec)
Heartbeat CPU 0 instructions: 132500565 cycles: 73280467 heartbeat IPC: 1.881 cumulative IPC: 1.304 (Simulation time: 00 hr 12 min 22 sec)
Heartbeat CPU 0 instructions: 133000567 cycles: 73768495 heartbeat IPC: 1.025 cumulative IPC: 1.302 (Simulation time: 00 hr 12 min 26 sec)
Heartbeat CPU 0 instructions: 133500567 cycles: 74183509 heartbeat IPC: 1.205 cumulative IPC: 1.301 (Simulation time: 00 hr 12 min 30 sec)
Heartbeat CPU 0 instructions: 134000569 cycles: 74720919 heartbeat IPC: 0.9304 cumulative IPC: 1.298 (Simulation time: 00 hr 12 min 34 sec)
Heartbeat CPU 0 instructions: 134500571 cycles: 75222528 heartbeat IPC: 0.9968 cumulative IPC: 1.296 (Simulation time: 00 hr 12 min 39 sec)
Heartbeat CPU 0 instructions: 135000573 cycles: 75737183 heartbeat IPC: 0.9715 cumulative IPC: 1.293 (Simulation time: 00 hr 12 min 43 sec)
Heartbeat CPU 0 instructions: 135500574 cycles: 76191274 heartbeat IPC: 1.101 cumulative IPC: 1.292 (Simulation time: 00 hr 12 min 47 sec)
Heartbeat CPU 0 instructions: 136000574 cycles: 76738788 heartbeat IPC: 0.9132 cumulative IPC: 1.289 (Simulation time: 00 hr 12 min 51 sec)
Heartbeat CPU 0 instructions: 136500574 cycles: 77248987 heartbeat IPC: 0.98 cumulative IPC: 1.286 (Simulation time: 00 hr 12 min 55 sec)
Heartbeat CPU 0 instructions: 137000574 cycles: 77739432 heartbeat IPC: 1.019 cumulative IPC: 1.285 (Simulation time: 00 hr 12 min 59 sec)
Heartbeat CPU 0 instructions: 137500574 cycles: 78291122 heartbeat IPC: 0.9063 cumulative IPC: 1.282 (Simulation time: 00 hr 13 min 04 sec)
Heartbeat CPU 0 instructions: 138000574 cycles: 78840877 heartbeat IPC: 0.9095 cumulative IPC: 1.279 (Simulation time: 00 hr 13 min 08 sec)
Heartbeat CPU 0 instructions: 138500579 cycles: 79248193 heartbeat IPC: 1.228 cumulative IPC: 1.278 (Simulation time: 00 hr 13 min 12 sec)
Heartbeat CPU 0 instructions: 139000580 cycles: 79716779 heartbeat IPC: 1.067 cumulative IPC: 1.277 (Simulation time: 00 hr 13 min 16 sec)
Heartbeat CPU 0 instructions: 139500583 cycles: 80221136 heartbeat IPC: 0.9914 cumulative IPC: 1.275 (Simulation time: 00 hr 13 min 20 sec)
Heartbeat CPU 0 instructions: 140000584 cycles: 80781882 heartbeat IPC: 0.8917 cumulative IPC: 1.272 (Simulation time: 00 hr 13 min 24 sec)
Heartbeat CPU 0 instructions: 140500588 cycles: 81128393 heartbeat IPC: 1.443 cumulative IPC: 1.273 (Simulation time: 00 hr 13 min 27 sec)
Heartbeat CPU 0 instructions: 141000589 cycles: 81504519 heartbeat IPC: 1.329 cumulative IPC: 1.273 (Simulation time: 00 hr 13 min 31 sec)
Heartbeat CPU 0 instructions: 141500589 cycles: 82019559 heartbeat IPC: 0.9708 cumulative IPC: 1.271 (Simulation time: 00 hr 13 min 35 sec)
Heartbeat CPU 0 instructions: 142000591 cycles: 82563668 heartbeat IPC: 0.9189 cumulative IPC: 1.268 (Simulation time: 00 hr 13 min 39 sec)
Heartbeat CPU 0 instructions: 142500593 cycles: 83047653 heartbeat IPC: 1.033 cumulative IPC: 1.267 (Simulation time: 00 hr 13 min 43 sec)
Heartbeat CPU 0 instructions: 143000593 cycles: 83667838 heartbeat IPC: 0.8062 cumulative IPC: 1.263 (Simulation time: 00 hr 13 min 48 sec)
Heartbeat CPU 0 instructions: 143500597 cycles: 84178479 heartbeat IPC: 0.9792 cumulative IPC: 1.261 (Simulation time: 00 hr 13 min 52 sec)
Heartbeat CPU 0 instructions: 144000599 cycles: 84795007 heartbeat IPC: 0.811 cumulative IPC: 1.257 (Simulation time: 00 hr 13 min 57 sec)
Heartbeat CPU 0 instructions: 144500599 cycles: 85358682 heartbeat IPC: 0.887 cumulative IPC: 1.254 (Simulation time: 00 hr 14 min 02 sec)
Heartbeat CPU 0 instructions: 145000601 cycles: 85923613 heartbeat IPC: 0.8851 cumulative IPC: 1.251 (Simulation time: 00 hr 14 min 06 sec)
Heartbeat CPU 0 instructions: 145500601 cycles: 86460547 heartbeat IPC: 0.9312 cumulative IPC: 1.249 (Simulation time: 00 hr 14 min 10 sec)
Heartbeat CPU 0 instructions: 146000602 cycles: 87020678 heartbeat IPC: 0.8927 cumulative IPC: 1.247 (Simulation time: 00 hr 14 min 15 sec)
Heartbeat CPU 0 instructions: 146500602 cycles: 87593699 heartbeat IPC: 0.8726 cumulative IPC: 1.244 (Simulation time: 00 hr 14 min 19 sec)
Heartbeat CPU 0 instructions: 147000605 cycles: 88153274 heartbeat IPC: 0.8935 cumulative IPC: 1.241 (Simulation time: 00 hr 14 min 24 sec)
Heartbeat CPU 0 instructions: 147500607 cycles: 88678440 heartbeat IPC: 0.9521 cumulative IPC: 1.239 (Simulation time: 00 hr 14 min 28 sec)
Heartbeat CPU 0 instructions: 148000608 cycles: 89268842 heartbeat IPC: 0.8469 cumulative IPC: 1.236 (Simulation time: 00 hr 14 min 33 sec)
Heartbeat CPU 0 instructions: 148500610 cycles: 89842509 heartbeat IPC: 0.8716 cumulative IPC: 1.234 (Simulation time: 00 hr 14 min 37 sec)
Heartbeat CPU 0 instructions: 149000611 cycles: 90505209 heartbeat IPC: 0.7545 cumulative IPC: 1.23 (Simulation time: 00 hr 14 min 42 sec)
Heartbeat CPU 0 instructions: 149500612 cycles: 91080070 heartbeat IPC: 0.8698 cumulative IPC: 1.227 (Simulation time: 00 hr 14 min 47 sec)
Heartbeat CPU 0 instructions: 150000612 cycles: 91630961 heartbeat IPC: 0.9076 cumulative IPC: 1.225 (Simulation time: 00 hr 14 min 51 sec)
Heartbeat CPU 0 instructions: 150500616 cycles: 92239228 heartbeat IPC: 0.822 cumulative IPC: 1.222 (Simulation time: 00 hr 14 min 56 sec)
Heartbeat CPU 0 instructions: 151000618 cycles: 92824808 heartbeat IPC: 0.8539 cumulative IPC: 1.22 (Simulation time: 00 hr 15 min 01 sec)
Heartbeat CPU 0 instructions: 151500620 cycles: 93264439 heartbeat IPC: 1.137 cumulative IPC: 1.219 (Simulation time: 00 hr 15 min 04 sec)
Heartbeat CPU 0 instructions: 152000620 cycles: 93848502 heartbeat IPC: 0.8561 cumulative IPC: 1.217 (Simulation time: 00 hr 15 min 09 sec)
Heartbeat CPU 0 instructions: 152500622 cycles: 94484040 heartbeat IPC: 0.7867 cumulative IPC: 1.213 (Simulation time: 00 hr 15 min 14 sec)
Heartbeat CPU 0 instructions: 153000623 cycles: 95077726 heartbeat IPC: 0.8422 cumulative IPC: 1.211 (Simulation time: 00 hr 15 min 19 sec)
Heartbeat CPU 0 instructions: 153500625 cycles: 95396851 heartbeat IPC: 1.567 cumulative IPC: 1.212 (Simulation time: 00 hr 15 min 22 sec)
Heartbeat CPU 0 instructions: 154000627 cycles: 95542541 heartbeat IPC: 3.432 cumulative IPC: 1.216 (Simulation time: 00 hr 15 min 24 sec)
Heartbeat CPU 0 instructions: 154500632 cycles: 95969548 heartbeat IPC: 1.171 cumulative IPC: 1.216 (Simulation time: 00 hr 15 min 28 sec)
Heartbeat CPU 0 instructions: 155000632 cycles: 96644587 heartbeat IPC: 0.7407 cumulative IPC: 1.212 (Simulation time: 00 hr 15 min 33 sec)
Heartbeat CPU 0 instructions: 155500632 cycles: 97210073 heartbeat IPC: 0.8842 cumulative IPC: 1.21 (Simulation time: 00 hr 15 min 38 sec)
Heartbeat CPU 0 instructions: 156000634 cycles: 97841057 heartbeat IPC: 0.7924 cumulative IPC: 1.207 (Simulation time: 00 hr 15 min 42 sec)
Heartbeat CPU 0 instructions: 156500636 cycles: 98421729 heartbeat IPC: 0.8611 cumulative IPC: 1.205 (Simulation time: 00 hr 15 min 47 sec)
Heartbeat CPU 0 instructions: 157000639 cycles: 98570270 heartbeat IPC: 3.366 cumulative IPC: 1.208 (Simulation time: 00 hr 15 min 49 sec)
Heartbeat CPU 0 instructions: 157500641 cycles: 98716104 heartbeat IPC: 3.429 cumulative IPC: 1.212 (Simulation time: 00 hr 15 min 51 sec)
Heartbeat CPU 0 instructions: 158000641 cycles: 98868867 heartbeat IPC: 3.273 cumulative IPC: 1.215 (Simulation time: 00 hr 15 min 54 sec)
Heartbeat CPU 0 instructions: 158500646 cycles: 99488448 heartbeat IPC: 0.807 cumulative IPC: 1.213 (Simulation time: 00 hr 15 min 59 sec)
Heartbeat CPU 0 instructions: 159000647 cycles: 100172862 heartbeat IPC: 0.7306 cumulative IPC: 1.209 (Simulation time: 00 hr 16 min 04 sec)
Heartbeat CPU 0 instructions: 159500648 cycles: 100667058 heartbeat IPC: 1.012 cumulative IPC: 1.208 (Simulation time: 00 hr 16 min 08 sec)
Heartbeat CPU 0 instructions: 160000649 cycles: 101317595 heartbeat IPC: 0.7686 cumulative IPC: 1.205 (Simulation time: 00 hr 16 min 13 sec)
Heartbeat CPU 0 instructions: 160500649 cycles: 101974574 heartbeat IPC: 0.7611 cumulative IPC: 1.202 (Simulation time: 00 hr 16 min 18 sec)
Heartbeat CPU 0 instructions: 161000649 cycles: 102273017 heartbeat IPC: 1.675 cumulative IPC: 1.203 (Simulation time: 00 hr 16 min 21 sec)
Heartbeat CPU 0 instructions: 161500650 cycles: 102870755 heartbeat IPC: 0.8365 cumulative IPC: 1.201 (Simulation time: 00 hr 16 min 25 sec)
Heartbeat CPU 0 instructions: 162000654 cycles: 103544774 heartbeat IPC: 0.7418 cumulative IPC: 1.197 (Simulation time: 00 hr 16 min 31 sec)
Heartbeat CPU 0 instructions: 162500654 cycles: 104087446 heartbeat IPC: 0.9214 cumulative IPC: 1.196 (Simulation time: 00 hr 16 min 35 sec)
Heartbeat CPU 0 instructions: 163000655 cycles: 104738966 heartbeat IPC: 0.7674 cumulative IPC: 1.193 (Simulation time: 00 hr 16 min 40 sec)
Heartbeat CPU 0 instructions: 163500656 cycles: 105406177 heartbeat IPC: 0.7494 cumulative IPC: 1.19 (Simulation time: 00 hr 16 min 45 sec)
Heartbeat CPU 0 instructions: 164000661 cycles: 106049539 heartbeat IPC: 0.7772 cumulative IPC: 1.187 (Simulation time: 00 hr 16 min 50 sec)
Heartbeat CPU 0 instructions: 164500661 cycles: 106675679 heartbeat IPC: 0.7985 cumulative IPC: 1.185 (Simulation time: 00 hr 16 min 55 sec)
Heartbeat CPU 0 instructions: 165000661 cycles: 107332369 heartbeat IPC: 0.7614 cumulative IPC: 1.182 (Simulation time: 00 hr 17 min 00 sec)
Heartbeat CPU 0 instructions: 165500661 cycles: 107959122 heartbeat IPC: 0.7978 cumulative IPC: 1.179 (Simulation time: 00 hr 17 min 04 sec)
Heartbeat CPU 0 instructions: 166000666 cycles: 108608267 heartbeat IPC: 0.7703 cumulative IPC: 1.177 (Simulation time: 00 hr 17 min 09 sec)
Heartbeat CPU 0 instructions: 166500667 cycles: 109138139 heartbeat IPC: 0.9436 cumulative IPC: 1.175 (Simulation time: 00 hr 17 min 14 sec)
Heartbeat CPU 0 instructions: 167000669 cycles: 109786414 heartbeat IPC: 0.7713 cumulative IPC: 1.173 (Simulation time: 00 hr 17 min 19 sec)
Heartbeat CPU 0 instructions: 167500670 cycles: 110491293 heartbeat IPC: 0.7093 cumulative IPC: 1.169 (Simulation time: 00 hr 17 min 24 sec)
Heartbeat CPU 0 instructions: 168000670 cycles: 111185980 heartbeat IPC: 0.7197 cumulative IPC: 1.166 (Simulation time: 00 hr 17 min 29 sec)
Heartbeat CPU 0 instructions: 168500672 cycles: 111846035 heartbeat IPC: 0.7575 cumulative IPC: 1.164 (Simulation time: 00 hr 17 min 34 sec)
Heartbeat CPU 0 instructions: 169000672 cycles: 112516680 heartbeat IPC: 0.7456 cumulative IPC: 1.161 (Simulation time: 00 hr 17 min 39 sec)
Heartbeat CPU 0 instructions: 169500673 cycles: 113017098 heartbeat IPC: 0.9992 cumulative IPC: 1.16 (Simulation time: 00 hr 17 min 43 sec)
Heartbeat CPU 0 instructions: 170000673 cycles: 113491106 heartbeat IPC: 1.055 cumulative IPC: 1.16 (Simulation time: 00 hr 17 min 47 sec)
Heartbeat CPU 0 instructions: 170500675 cycles: 114144580 heartbeat IPC: 0.7651 cumulative IPC: 1.157 (Simulation time: 00 hr 17 min 52 sec)
Heartbeat CPU 0 instructions: 171000675 cycles: 114819891 heartbeat IPC: 0.7404 cumulative IPC: 1.154 (Simulation time: 00 hr 17 min 57 sec)
Heartbeat CPU 0 instructions: 171500675 cycles: 115518742 heartbeat IPC: 0.7155 cumulative IPC: 1.152 (Simulation time: 00 hr 18 min 02 sec)
Heartbeat CPU 0 instructions: 172000676 cycles: 116178053 heartbeat IPC: 0.7584 cumulative IPC: 1.149 (Simulation time: 00 hr 18 min 07 sec)
Heartbeat CPU 0 instructions: 172500676 cycles: 116884083 heartbeat IPC: 0.7082 cumulative IPC: 1.146 (Simulation time: 00 hr 18 min 13 sec)
Heartbeat CPU 0 instructions: 173000678 cycles: 117549640 heartbeat IPC: 0.7513 cumulative IPC: 1.144 (Simulation time: 00 hr 18 min 18 sec)
Heartbeat CPU 0 instructions: 173500679 cycles: 118214952 heartbeat IPC: 0.7515 cumulative IPC: 1.141 (Simulation time: 00 hr 18 min 23 sec)
Heartbeat CPU 0 instructions: 174000679 cycles: 118860750 heartbeat IPC: 0.7742 cumulative IPC: 1.139 (Simulation time: 00 hr 18 min 27 sec)
Heartbeat CPU 0 instructions: 174500681 cycles: 119580735 heartbeat IPC: 0.6945 cumulative IPC: 1.136 (Simulation time: 00 hr 18 min 33 sec)
Heartbeat CPU 0 instructions: 175000681 cycles: 120082011 heartbeat IPC: 0.9975 cumulative IPC: 1.136 (Simulation time: 00 hr 18 min 37 sec)
Heartbeat CPU 0 instructions: 175500681 cycles: 120785327 heartbeat IPC: 0.7109 cumulative IPC: 1.133 (Simulation time: 00 hr 18 min 42 sec)
Heartbeat CPU 0 instructions: 176000682 cycles: 121389480 heartbeat IPC: 0.8276 cumulative IPC: 1.131 (Simulation time: 00 hr 18 min 47 sec)
Heartbeat CPU 0 instructions: 176500687 cycles: 122090713 heartbeat IPC: 0.713 cumulative IPC: 1.129 (Simulation time: 00 hr 18 min 52 sec)
Heartbeat CPU 0 instructions: 177000688 cycles: 122738869 heartbeat IPC: 0.7714 cumulative IPC: 1.127 (Simulation time: 00 hr 18 min 57 sec)
Heartbeat CPU 0 instructions: 177500688 cycles: 123480353 heartbeat IPC: 0.6743 cumulative IPC: 1.124 (Simulation time: 00 hr 19 min 02 sec)
Heartbeat CPU 0 instructions: 178000691 cycles: 124259503 heartbeat IPC: 0.6417 cumulative IPC: 1.12 (Simulation time: 00 hr 19 min 08 sec)
Heartbeat CPU 0 instructions: 178500692 cycles: 124950282 heartbeat IPC: 0.7238 cumulative IPC: 1.118 (Simulation time: 00 hr 19 min 13 sec)
Heartbeat CPU 0 instructions: 179000694 cycles: 125582601 heartbeat IPC: 0.7907 cumulative IPC: 1.116 (Simulation time: 00 hr 19 min 17 sec)
Heartbeat CPU 0 instructions: 179500694 cycles: 126376074 heartbeat IPC: 0.6301 cumulative IPC: 1.113 (Simulation time: 00 hr 19 min 23 sec)
Heartbeat CPU 0 instructions: 180000694 cycles: 127047219 heartbeat IPC: 0.745 cumulative IPC: 1.111 (Simulation time: 00 hr 19 min 28 sec)
Heartbeat CPU 0 instructions: 180500697 cycles: 127830433 heartbeat IPC: 0.6384 cumulative IPC: 1.108 (Simulation time: 00 hr 19 min 34 sec)
Heartbeat CPU 0 instructions: 181000698 cycles: 128587253 heartbeat IPC: 0.6607 cumulative IPC: 1.105 (Simulation time: 00 hr 19 min 39 sec)
Heartbeat CPU 0 instructions: 181500698 cycles: 129338670 heartbeat IPC: 0.6654 cumulative IPC: 1.102 (Simulation time: 00 hr 19 min 44 sec)
Heartbeat CPU 0 instructions: 182000700 cycles: 130004175 heartbeat IPC: 0.7513 cumulative IPC: 1.1 (Simulation time: 00 hr 19 min 49 sec)
Heartbeat CPU 0 instructions: 182500701 cycles: 130624916 heartbeat IPC: 0.8055 cumulative IPC: 1.099 (Simulation time: 00 hr 19 min 54 sec)
Heartbeat CPU 0 instructions: 183000702 cycles: 131365421 heartbeat IPC: 0.6752 cumulative IPC: 1.096 (Simulation time: 00 hr 19 min 59 sec)
Heartbeat CPU 0 instructions: 183500702 cycles: 132118175 heartbeat IPC: 0.6642 cumulative IPC: 1.093 (Simulation time: 00 hr 20 min 05 sec)
Heartbeat CPU 0 instructions: 184000702 cycles: 132834082 heartbeat IPC: 0.6984 cumulative IPC: 1.091 (Simulation time: 00 hr 20 min 10 sec)
Heartbeat CPU 0 instructions: 184500703 cycles: 133627609 heartbeat IPC: 0.6301 cumulative IPC: 1.088 (Simulation time: 00 hr 20 min 15 sec)
Heartbeat CPU 0 instructions: 185000704 cycles: 134384317 heartbeat IPC: 0.6608 cumulative IPC: 1.085 (Simulation time: 00 hr 20 min 21 sec)
Heartbeat CPU 0 instructions: 185500704 cycles: 135195568 heartbeat IPC: 0.6163 cumulative IPC: 1.082 (Simulation time: 00 hr 20 min 26 sec)
Heartbeat CPU 0 instructions: 186000706 cycles: 135863493 heartbeat IPC: 0.7486 cumulative IPC: 1.081 (Simulation time: 00 hr 20 min 31 sec)
Heartbeat CPU 0 instructions: 186500708 cycles: 136630484 heartbeat IPC: 0.6519 cumulative IPC: 1.078 (Simulation time: 00 hr 20 min 37 sec)
Heartbeat CPU 0 instructions: 187000710 cycles: 137443066 heartbeat IPC: 0.6153 cumulative IPC: 1.075 (Simulation time: 00 hr 20 min 42 sec)
Heartbeat CPU 0 instructions: 187500711 cycles: 138262848 heartbeat IPC: 0.6099 cumulative IPC: 1.072 (Simulation time: 00 hr 20 min 48 sec)
Heartbeat CPU 0 instructions: 188000713 cycles: 139012387 heartbeat IPC: 0.6671 cumulative IPC: 1.07 (Simulation time: 00 hr 20 min 53 sec)
Heartbeat CPU 0 instructions: 188500714 cycles: 139585461 heartbeat IPC: 0.8725 cumulative IPC: 1.069 (Simulation time: 00 hr 20 min 58 sec)
Heartbeat CPU 0 instructions: 189000715 cycles: 140402088 heartbeat IPC: 0.6123 cumulative IPC: 1.066 (Simulation time: 00 hr 21 min 03 sec)
Heartbeat CPU 0 instructions: 189500718 cycles: 141226842 heartbeat IPC: 0.6062 cumulative IPC: 1.063 (Simulation time: 00 hr 21 min 09 sec)
Heartbeat CPU 0 instructions: 190000719 cycles: 142109609 heartbeat IPC: 0.5664 cumulative IPC: 1.06 (Simulation time: 00 hr 21 min 15 sec)
Heartbeat CPU 0 instructions: 190500721 cycles: 142954804 heartbeat IPC: 0.5916 cumulative IPC: 1.057 (Simulation time: 00 hr 21 min 21 sec)
Heartbeat CPU 0 instructions: 191000725 cycles: 143776372 heartbeat IPC: 0.6086 cumulative IPC: 1.054 (Simulation time: 00 hr 21 min 26 sec)
Heartbeat CPU 0 instructions: 191500726 cycles: 144607043 heartbeat IPC: 0.6019 cumulative IPC: 1.051 (Simulation time: 00 hr 21 min 32 sec)
Heartbeat CPU 0 instructions: 192000728 cycles: 145480126 heartbeat IPC: 0.5727 cumulative IPC: 1.048 (Simulation time: 00 hr 21 min 38 sec)
Heartbeat CPU 0 instructions: 192500733 cycles: 146277529 heartbeat IPC: 0.627 cumulative IPC: 1.046 (Simulation time: 00 hr 21 min 44 sec)
Heartbeat CPU 0 instructions: 193000735 cycles: 147108094 heartbeat IPC: 0.602 cumulative IPC: 1.043 (Simulation time: 00 hr 21 min 49 sec)
Heartbeat CPU 0 instructions: 193500736 cycles: 147912622 heartbeat IPC: 0.6215 cumulative IPC: 1.041 (Simulation time: 00 hr 21 min 55 sec)
Heartbeat CPU 0 instructions: 194000740 cycles: 148636492 heartbeat IPC: 0.6907 cumulative IPC: 1.039 (Simulation time: 00 hr 22 min 00 sec)
Heartbeat CPU 0 instructions: 194500741 cycles: 149501445 heartbeat IPC: 0.5781 cumulative IPC: 1.036 (Simulation time: 00 hr 22 min 05 sec)
Heartbeat CPU 0 instructions: 195000741 cycles: 150323818 heartbeat IPC: 0.608 cumulative IPC: 1.033 (Simulation time: 00 hr 22 min 11 sec)
Heartbeat CPU 0 instructions: 195500741 cycles: 151263232 heartbeat IPC: 0.5322 cumulative IPC: 1.03 (Simulation time: 00 hr 22 min 17 sec)
Heartbeat CPU 0 instructions: 196000744 cycles: 152109592 heartbeat IPC: 0.5908 cumulative IPC: 1.027 (Simulation time: 00 hr 22 min 23 sec)
Heartbeat CPU 0 instructions: 196500745 cycles: 152908168 heartbeat IPC: 0.6261 cumulative IPC: 1.025 (Simulation time: 00 hr 22 min 28 sec)
Heartbeat CPU 0 instructions: 197000749 cycles: 153660827 heartbeat IPC: 0.6643 cumulative IPC: 1.023 (Simulation time: 00 hr 22 min 33 sec)
Heartbeat CPU 0 instructions: 197500749 cycles: 154518213 heartbeat IPC: 0.5832 cumulative IPC: 1.021 (Simulation time: 00 hr 22 min 39 sec)
Heartbeat CPU 0 instructions: 198000753 cycles: 155360635 heartbeat IPC: 0.5935 cumulative IPC: 1.018 (Simulation time: 00 hr 22 min 45 sec)
Heartbeat CPU 0 instructions: 198500755 cycles: 155829712 heartbeat IPC: 1.066 cumulative IPC: 1.018 (Simulation time: 00 hr 22 min 48 sec)
Heartbeat CPU 0 instructions: 199000756 cycles: 156648491 heartbeat IPC: 0.6107 cumulative IPC: 1.016 (Simulation time: 00 hr 22 min 54 sec)
Heartbeat CPU 0 instructions: 199500756 cycles: 157488962 heartbeat IPC: 0.5949 cumulative IPC: 1.014 (Simulation time: 00 hr 22 min 59 sec)
Heartbeat CPU 0 instructions: 200000757 cycles: 158062100 heartbeat IPC: 0.8724 cumulative IPC: 1.013 (Simulation time: 00 hr 23 min 03 sec)
Heartbeat CPU 0 instructions: 200500758 cycles: 158897295 heartbeat IPC: 0.5987 cumulative IPC: 1.011 (Simulation time: 00 hr 23 min 09 sec)
Heartbeat CPU 0 instructions: 201000758 cycles: 159747986 heartbeat IPC: 0.5878 cumulative IPC: 1.008 (Simulation time: 00 hr 23 min 14 sec)
Heartbeat CPU 0 instructions: 201500758 cycles: 160565782 heartbeat IPC: 0.6114 cumulative IPC: 1.006 (Simulation time: 00 hr 23 min 20 sec)
Heartbeat CPU 0 instructions: 202000758 cycles: 161500650 heartbeat IPC: 0.5348 cumulative IPC: 1.003 (Simulation time: 00 hr 23 min 26 sec)
Heartbeat CPU 0 instructions: 202500760 cycles: 162208942 heartbeat IPC: 0.7059 cumulative IPC: 1.002 (Simulation time: 00 hr 23 min 30 sec)
Heartbeat CPU 0 instructions: 203000763 cycles: 163136447 heartbeat IPC: 0.5391 cumulative IPC: 0.9992 (Simulation time: 00 hr 23 min 36 sec)
Heartbeat CPU 0 instructions: 203500764 cycles: 164047173 heartbeat IPC: 0.549 cumulative IPC: 0.9965 (Simulation time: 00 hr 23 min 42 sec)
Heartbeat CPU 0 instructions: 204000770 cycles: 164968912 heartbeat IPC: 0.5425 cumulative IPC: 0.9938 (Simulation time: 00 hr 23 min 48 sec)
Heartbeat CPU 0 instructions: 204500770 cycles: 165818814 heartbeat IPC: 0.5883 cumulative IPC: 0.9916 (Simulation time: 00 hr 23 min 54 sec)
Heartbeat CPU 0 instructions: 205000772 cycles: 166758388 heartbeat IPC: 0.5322 cumulative IPC: 0.9889 (Simulation time: 00 hr 24 min 00 sec)
Heartbeat CPU 0 instructions: 205500775 cycles: 167722449 heartbeat IPC: 0.5186 cumulative IPC: 0.986 (Simulation time: 00 hr 24 min 06 sec)
Heartbeat CPU 0 instructions: 206000775 cycles: 168667364 heartbeat IPC: 0.5291 cumulative IPC: 0.9833 (Simulation time: 00 hr 24 min 12 sec)
Heartbeat CPU 0 instructions: 206500776 cycles: 169594839 heartbeat IPC: 0.5391 cumulative IPC: 0.9807 (Simulation time: 00 hr 24 min 18 sec)
Heartbeat CPU 0 instructions: 207000776 cycles: 170504664 heartbeat IPC: 0.5496 cumulative IPC: 0.9782 (Simulation time: 00 hr 24 min 24 sec)
Heartbeat CPU 0 instructions: 207500776 cycles: 171510492 heartbeat IPC: 0.4971 cumulative IPC: 0.9752 (Simulation time: 00 hr 24 min 30 sec)
Heartbeat CPU 0 instructions: 208000777 cycles: 172392718 heartbeat IPC: 0.5667 cumulative IPC: 0.973 (Simulation time: 00 hr 24 min 36 sec)
Heartbeat CPU 0 instructions: 208500777 cycles: 173164124 heartbeat IPC: 0.6482 cumulative IPC: 0.9715 (Simulation time: 00 hr 24 min 41 sec)
Heartbeat CPU 0 instructions: 209000777 cycles: 174067229 heartbeat IPC: 0.5536 cumulative IPC: 0.9692 (Simulation time: 00 hr 24 min 46 sec)
Heartbeat CPU 0 instructions: 209500777 cycles: 175027596 heartbeat IPC: 0.5206 cumulative IPC: 0.9666 (Simulation time: 00 hr 24 min 52 sec)
Heartbeat CPU 0 instructions: 210000779 cycles: 175987526 heartbeat IPC: 0.5209 cumulative IPC: 0.964 (Simulation time: 00 hr 24 min 59 sec)
Heartbeat CPU 0 instructions: 210500779 cycles: 176742202 heartbeat IPC: 0.6625 cumulative IPC: 0.9626 (Simulation time: 00 hr 25 min 04 sec)
Heartbeat CPU 0 instructions: 211000779 cycles: 177613325 heartbeat IPC: 0.574 cumulative IPC: 0.9606 (Simulation time: 00 hr 25 min 09 sec)
Heartbeat CPU 0 instructions: 211500779 cycles: 178601628 heartbeat IPC: 0.5059 cumulative IPC: 0.9579 (Simulation time: 00 hr 25 min 15 sec)
Heartbeat CPU 0 instructions: 212000779 cycles: 179608460 heartbeat IPC: 0.4966 cumulative IPC: 0.9552 (Simulation time: 00 hr 25 min 22 sec)
Heartbeat CPU 0 instructions: 212500780 cycles: 180426784 heartbeat IPC: 0.611 cumulative IPC: 0.9536 (Simulation time: 00 hr 25 min 27 sec)
Heartbeat CPU 0 instructions: 213000782 cycles: 181113424 heartbeat IPC: 0.7282 cumulative IPC: 0.9527 (Simulation time: 00 hr 25 min 32 sec)
Heartbeat CPU 0 instructions: 213500782 cycles: 182153083 heartbeat IPC: 0.4809 cumulative IPC: 0.9498 (Simulation time: 00 hr 25 min 38 sec)
Heartbeat CPU 0 instructions: 214000783 cycles: 183062186 heartbeat IPC: 0.55 cumulative IPC: 0.9477 (Simulation time: 00 hr 25 min 44 sec)
Heartbeat CPU 0 instructions: 214500785 cycles: 184057288 heartbeat IPC: 0.5025 cumulative IPC: 0.9452 (Simulation time: 00 hr 25 min 50 sec)
Heartbeat CPU 0 instructions: 215000786 cycles: 184998124 heartbeat IPC: 0.5314 cumulative IPC: 0.9429 (Simulation time: 00 hr 25 min 56 sec)
Heartbeat CPU 0 instructions: 215500787 cycles: 185878755 heartbeat IPC: 0.5678 cumulative IPC: 0.9411 (Simulation time: 00 hr 26 min 01 sec)
Heartbeat CPU 0 instructions: 216000787 cycles: 186787205 heartbeat IPC: 0.5504 cumulative IPC: 0.939 (Simulation time: 00 hr 26 min 07 sec)
Heartbeat CPU 0 instructions: 216500787 cycles: 187803204 heartbeat IPC: 0.4921 cumulative IPC: 0.9365 (Simulation time: 00 hr 26 min 13 sec)
Heartbeat CPU 0 instructions: 217000787 cycles: 188818367 heartbeat IPC: 0.4925 cumulative IPC: 0.934 (Simulation time: 00 hr 26 min 19 sec)
Heartbeat CPU 0 instructions: 217500790 cycles: 189689830 heartbeat IPC: 0.5738 cumulative IPC: 0.9322 (Simulation time: 00 hr 26 min 25 sec)
Heartbeat CPU 0 instructions: 218000793 cycles: 190561448 heartbeat IPC: 0.5736 cumulative IPC: 0.9305 (Simulation time: 00 hr 26 min 30 sec)
Heartbeat CPU 0 instructions: 218500793 cycles: 191536849 heartbeat IPC: 0.5126 cumulative IPC: 0.9282 (Simulation time: 00 hr 26 min 36 sec)
Heartbeat CPU 0 instructions: 219000793 cycles: 192622351 heartbeat IPC: 0.4606 cumulative IPC: 0.9255 (Simulation time: 00 hr 26 min 43 sec)
Heartbeat CPU 0 instructions: 219500793 cycles: 193382979 heartbeat IPC: 0.6574 cumulative IPC: 0.9244 (Simulation time: 00 hr 26 min 48 sec)
Heartbeat CPU 0 instructions: 220000793 cycles: 194365911 heartbeat IPC: 0.5087 cumulative IPC: 0.9221 (Simulation time: 00 hr 26 min 54 sec)
Heartbeat CPU 0 instructions: 220500799 cycles: 195381679 heartbeat IPC: 0.4922 cumulative IPC: 0.9198 (Simulation time: 00 hr 27 min 00 sec)
Heartbeat CPU 0 instructions: 221000799 cycles: 196332813 heartbeat IPC: 0.5257 cumulative IPC: 0.9178 (Simulation time: 00 hr 27 min 06 sec)
Heartbeat CPU 0 instructions: 221500804 cycles: 197138167 heartbeat IPC: 0.6209 cumulative IPC: 0.9165 (Simulation time: 00 hr 27 min 11 sec)
Heartbeat CPU 0 instructions: 222000810 cycles: 198165163 heartbeat IPC: 0.4869 cumulative IPC: 0.9142 (Simulation time: 00 hr 27 min 17 sec)
Heartbeat CPU 0 instructions: 222500811 cycles: 199028876 heartbeat IPC: 0.5789 cumulative IPC: 0.9126 (Simulation time: 00 hr 27 min 23 sec)
Heartbeat CPU 0 instructions: 223000813 cycles: 200107106 heartbeat IPC: 0.4637 cumulative IPC: 0.9101 (Simulation time: 00 hr 27 min 29 sec)
Heartbeat CPU 0 instructions: 223500818 cycles: 200987603 heartbeat IPC: 0.5679 cumulative IPC: 0.9085 (Simulation time: 00 hr 27 min 35 sec)
Heartbeat CPU 0 instructions: 224000818 cycles: 202003650 heartbeat IPC: 0.4921 cumulative IPC: 0.9063 (Simulation time: 00 hr 27 min 41 sec)
Heartbeat CPU 0 instructions: 224500818 cycles: 202956363 heartbeat IPC: 0.5248 cumulative IPC: 0.9044 (Simulation time: 00 hr 27 min 47 sec)
Heartbeat CPU 0 instructions: 225000819 cycles: 204012318 heartbeat IPC: 0.4735 cumulative IPC: 0.9021 (Simulation time: 00 hr 27 min 53 sec)
Heartbeat CPU 0 instructions: 225500824 cycles: 204915127 heartbeat IPC: 0.5538 cumulative IPC: 0.9004 (Simulation time: 00 hr 27 min 59 sec)
Heartbeat CPU 0 instructions: 226000826 cycles: 205877023 heartbeat IPC: 0.5198 cumulative IPC: 0.8986 (Simulation time: 00 hr 28 min 05 sec)
Heartbeat CPU 0 instructions: 226500826 cycles: 206801946 heartbeat IPC: 0.5406 cumulative IPC: 0.8969 (Simulation time: 00 hr 28 min 11 sec)
Heartbeat CPU 0 instructions: 227000827 cycles: 207785452 heartbeat IPC: 0.5084 cumulative IPC: 0.895 (Simulation time: 00 hr 28 min 17 sec)
Heartbeat CPU 0 instructions: 227500827 cycles: 208648533 heartbeat IPC: 0.5793 cumulative IPC: 0.8936 (Simulation time: 00 hr 28 min 22 sec)
Heartbeat CPU 0 instructions: 228000827 cycles: 209586483 heartbeat IPC: 0.5331 cumulative IPC: 0.8919 (Simulation time: 00 hr 28 min 28 sec)
Heartbeat CPU 0 instructions: 228500830 cycles: 210549531 heartbeat IPC: 0.5192 cumulative IPC: 0.8901 (Simulation time: 00 hr 28 min 34 sec)
Heartbeat CPU 0 instructions: 229000831 cycles: 211485956 heartbeat IPC: 0.5339 cumulative IPC: 0.8885 (Simulation time: 00 hr 28 min 40 sec)
Heartbeat CPU 0 instructions: 229500836 cycles: 212416134 heartbeat IPC: 0.5375 cumulative IPC: 0.8868 (Simulation time: 00 hr 28 min 46 sec)
Heartbeat CPU 0 instructions: 230000837 cycles: 213373319 heartbeat IPC: 0.5224 cumulative IPC: 0.8851 (Simulation time: 00 hr 28 min 52 sec)
Heartbeat CPU 0 instructions: 230500838 cycles: 214366318 heartbeat IPC: 0.5035 cumulative IPC: 0.8833 (Simulation time: 00 hr 28 min 58 sec)
Heartbeat CPU 0 instructions: 231000839 cycles: 215313543 heartbeat IPC: 0.5279 cumulative IPC: 0.8816 (Simulation time: 00 hr 29 min 04 sec)
Heartbeat CPU 0 instructions: 231500842 cycles: 216331163 heartbeat IPC: 0.4913 cumulative IPC: 0.8797 (Simulation time: 00 hr 29 min 10 sec)
Heartbeat CPU 0 instructions: 232000842 cycles: 217253890 heartbeat IPC: 0.5419 cumulative IPC: 0.8782 (Simulation time: 00 hr 29 min 16 sec)
Heartbeat CPU 0 instructions: 232500842 cycles: 218158808 heartbeat IPC: 0.5525 cumulative IPC: 0.8768 (Simulation time: 00 hr 29 min 22 sec)
Heartbeat CPU 0 instructions: 233000842 cycles: 219082283 heartbeat IPC: 0.5414 cumulative IPC: 0.8753 (Simulation time: 00 hr 29 min 27 sec)
Heartbeat CPU 0 instructions: 233500842 cycles: 219935938 heartbeat IPC: 0.5857 cumulative IPC: 0.8741 (Simulation time: 00 hr 29 min 33 sec)
Heartbeat CPU 0 instructions: 234000845 cycles: 220762636 heartbeat IPC: 0.6048 cumulative IPC: 0.8731 (Simulation time: 00 hr 29 min 38 sec)
Heartbeat CPU 0 instructions: 234500845 cycles: 221632566 heartbeat IPC: 0.5748 cumulative IPC: 0.8718 (Simulation time: 00 hr 29 min 44 sec)
Heartbeat CPU 0 instructions: 235000845 cycles: 222420508 heartbeat IPC: 0.6346 cumulative IPC: 0.871 (Simulation time: 00 hr 29 min 49 sec)
Heartbeat CPU 0 instructions: 235500846 cycles: 223214526 heartbeat IPC: 0.6297 cumulative IPC: 0.8701 (Simulation time: 00 hr 29 min 54 sec)
Heartbeat CPU 0 instructions: 236000847 cycles: 224071076 heartbeat IPC: 0.5837 cumulative IPC: 0.8689 (Simulation time: 00 hr 30 min 00 sec)
Heartbeat CPU 0 instructions: 236500852 cycles: 224822146 heartbeat IPC: 0.6657 cumulative IPC: 0.8682 (Simulation time: 00 hr 30 min 05 sec)
Heartbeat CPU 0 instructions: 237000854 cycles: 225630341 heartbeat IPC: 0.6187 cumulative IPC: 0.8673 (Simulation time: 00 hr 30 min 10 sec)
Heartbeat CPU 0 instructions: 237500854 cycles: 226426904 heartbeat IPC: 0.6277 cumulative IPC: 0.8664 (Simulation time: 00 hr 30 min 15 sec)
Heartbeat CPU 0 instructions: 238000855 cycles: 227160423 heartbeat IPC: 0.6816 cumulative IPC: 0.8658 (Simulation time: 00 hr 30 min 20 sec)
Heartbeat CPU 0 instructions: 238500858 cycles: 227779910 heartbeat IPC: 0.8071 cumulative IPC: 0.8656 (Simulation time: 00 hr 30 min 24 sec)
Heartbeat CPU 0 instructions: 239000862 cycles: 228299960 heartbeat IPC: 0.9615 cumulative IPC: 0.8658 (Simulation time: 00 hr 30 min 29 sec)
Heartbeat CPU 0 instructions: 239500862 cycles: 228821259 heartbeat IPC: 0.9591 cumulative IPC: 0.8661 (Simulation time: 00 hr 30 min 34 sec)
Heartbeat CPU 0 instructions: 240000862 cycles: 229340967 heartbeat IPC: 0.9621 cumulative IPC: 0.8663 (Simulation time: 00 hr 30 min 39 sec)
Heartbeat CPU 0 instructions: 240500862 cycles: 229861144 heartbeat IPC: 0.9612 cumulative IPC: 0.8665 (Simulation time: 00 hr 30 min 43 sec)
Heartbeat CPU 0 instructions: 241000862 cycles: 230382296 heartbeat IPC: 0.9594 cumulative IPC: 0.8667 (Simulation time: 00 hr 30 min 48 sec)
Heartbeat CPU 0 instructions: 241500862 cycles: 230902692 heartbeat IPC: 0.9608 cumulative IPC: 0.8669 (Simulation time: 00 hr 30 min 53 sec)
Heartbeat CPU 0 instructions: 242000862 cycles: 231423017 heartbeat IPC: 0.9609 cumulative IPC: 0.8672 (Simulation time: 00 hr 30 min 58 sec)
Heartbeat CPU 0 instructions: 242500862 cycles: 231944237 heartbeat IPC: 0.9593 cumulative IPC: 0.8674 (Simulation time: 00 hr 31 min 03 sec)
Heartbeat CPU 0 instructions: 243000862 cycles: 232464387 heartbeat IPC: 0.9613 cumulative IPC: 0.8676 (Simulation time: 00 hr 31 min 08 sec)
Heartbeat CPU 0 instructions: 243500862 cycles: 232983887 heartbeat IPC: 0.9625 cumulative IPC: 0.8678 (Simulation time: 00 hr 31 min 12 sec)
Heartbeat CPU 0 instructions: 244000862 cycles: 233504307 heartbeat IPC: 0.9608 cumulative IPC: 0.868 (Simulation time: 00 hr 31 min 17 sec)
Heartbeat CPU 0 instructions: 244500866 cycles: 234024363 heartbeat IPC: 0.9614 cumulative IPC: 0.8683 (Simulation time: 00 hr 31 min 22 sec)
Heartbeat CPU 0 instructions: 245000867 cycles: 234545659 heartbeat IPC: 0.9591 cumulative IPC: 0.8685 (Simulation time: 00 hr 31 min 27 sec)
Heartbeat CPU 0 instructions: 245500871 cycles: 235065949 heartbeat IPC: 0.961 cumulative IPC: 0.8687 (Simulation time: 00 hr 31 min 32 sec)
Heartbeat CPU 0 instructions: 246000872 cycles: 235586637 heartbeat IPC: 0.9603 cumulative IPC: 0.8689 (Simulation time: 00 hr 31 min 36 sec)
Heartbeat CPU 0 instructions: 246500876 cycles: 236106961 heartbeat IPC: 0.9609 cumulative IPC: 0.8691 (Simulation time: 00 hr 31 min 41 sec)
Heartbeat CPU 0 instructions: 247000877 cycles: 236627168 heartbeat IPC: 0.9612 cumulative IPC: 0.8693 (Simulation time: 00 hr 31 min 46 sec)
Heartbeat CPU 0 instructions: 247500881 cycles: 237147224 heartbeat IPC: 0.9614 cumulative IPC: 0.8695 (Simulation time: 00 hr 31 min 51 sec)
Heartbeat CPU 0 instructions: 248000882 cycles: 237667682 heartbeat IPC: 0.9607 cumulative IPC: 0.8697 (Simulation time: 00 hr 31 min 56 sec)
Heartbeat CPU 0 instructions: 248500886 cycles: 238187149 heartbeat IPC: 0.9625 cumulative IPC: 0.8699 (Simulation time: 00 hr 32 min 01 sec)
Heartbeat CPU 0 instructions: 249000887 cycles: 238708442 heartbeat IPC: 0.9592 cumulative IPC: 0.8702 (Simulation time: 00 hr 32 min 05 sec)
Heartbeat CPU 0 instructions: 249500891 cycles: 239228737 heartbeat IPC: 0.961 cumulative IPC: 0.8704 (Simulation time: 00 hr 32 min 10 sec)
*** Reached end of trace: (0, "/local-ssd/ben/dpc4-traces/Graph/Ligra/ligra_Triangle.com-lj.ungraph.gcc_6.3.0_O3.drop_25000M.length_250M.champsimtrace.xz")
Simulation finished CPU 0 instructions: 200000003 cycles: 229739539 cumulative IPC: 0.8706 (Simulation time: 00 hr 32 min 15 sec)
Simulation complete CPU 0 instructions: 200000003 cycles: 229739539 cumulative IPC: 0.8706 (Simulation time: 00 hr 32 min 15 sec)

ChampSim completed all CPUs

=== Simulation ===
CPU 0 runs /local-ssd/ben/dpc4-traces/Graph/Ligra/ligra_Triangle.com-lj.ungraph.gcc_6.3.0_O3.drop_25000M.length_250M.champsimtrace.xz

Region of Interest Statistics

CPU 0 cumulative IPC: 0.8706 instructions: 200000003 cycles: 229739539
CPU 0 Branch Prediction Accuracy: 95.27% MPKI: 12.33 Average ROB Occupancy at Mispredict: 41.81
Branch type MPKI
BRANCH_DIRECT_JUMP: 5.5e-05
BRANCH_INDIRECT: 0
BRANCH_CONDITIONAL: 12.33
BRANCH_DIRECT_CALL: 1.5e-05
BRANCH_INDIRECT_CALL: 0
BRANCH_RETURN: 2e-05

cpu0->cpu0_STLB TOTAL        ACCESS:    6177732 HIT:    6144566 MISS:      33166 MSHR_MERGE:          0
cpu0->cpu0_STLB LOAD         ACCESS:    6177732 HIT:    6144566 MISS:      33166 MSHR_MERGE:          0
cpu0->cpu0_STLB RFO          ACCESS:          0 HIT:          0 MISS:          0 MSHR_MERGE:          0
cpu0->cpu0_STLB PREFETCH     ACCESS:          0 HIT:          0 MISS:          0 MSHR_MERGE:          0
cpu0->cpu0_STLB WRITE        ACCESS:          0 HIT:          0 MISS:          0 MSHR_MERGE:          0
cpu0->cpu0_STLB TRANSLATION  ACCESS:          0 HIT:          0 MISS:          0 MSHR_MERGE:          0
cpu0->cpu0_STLB PREFETCH REQUESTED:          0 ISSUED:          0 USEFUL:          0 USELESS:          0
cpu0->cpu0_STLB AVERAGE MISS LATENCY: 251.3 cycles
cpu0->cpu0_L2C TOTAL        ACCESS:   31323686 HIT:   24899558 MISS:    6424128 MSHR_MERGE:     398379
cpu0->cpu0_L2C LOAD         ACCESS:    5116341 HIT:    4114034 MISS:    1002307 MSHR_MERGE:       3290
cpu0->cpu0_L2C RFO          ACCESS:      17366 HIT:      17103 MISS:        263 MSHR_MERGE:          0
cpu0->cpu0_L2C PREFETCH     ACCESS:   26152874 HIT:   20735627 MISS:    5417247 MSHR_MERGE:     395089
cpu0->cpu0_L2C WRITE        ACCESS:      17467 HIT:      17446 MISS:         21 MSHR_MERGE:          0
cpu0->cpu0_L2C TRANSLATION  ACCESS:      19638 HIT:      15348 MISS:       4290 MSHR_MERGE:          0
cpu0->cpu0_L2C PREFETCH REQUESTED:   19825616 ISSUED:   19621438 USEFUL:    2840968 USELESS:    1134200
cpu0->cpu0_L2C AVERAGE MISS LATENCY: 107.9 cycles
cpu0->cpu0_L1I TOTAL        ACCESS:    3534793 HIT:    3534747 MISS:         46 MSHR_MERGE:          2
cpu0->cpu0_L1I LOAD         ACCESS:    3534793 HIT:    3534747 MISS:         46 MSHR_MERGE:          2
cpu0->cpu0_L1I RFO          ACCESS:          0 HIT:          0 MISS:          0 MSHR_MERGE:          0
cpu0->cpu0_L1I PREFETCH     ACCESS:          0 HIT:          0 MISS:          0 MSHR_MERGE:          0
cpu0->cpu0_L1I WRITE        ACCESS:          0 HIT:          0 MISS:          0 MSHR_MERGE:          0
cpu0->cpu0_L1I TRANSLATION  ACCESS:          0 HIT:          0 MISS:          0 MSHR_MERGE:          0
cpu0->cpu0_L1I PREFETCH REQUESTED:          0 ISSUED:          0 USEFUL:          0 USELESS:          0
cpu0->cpu0_L1I AVERAGE MISS LATENCY: 236.8 cycles
cpu0->cpu0_L1D TOTAL        ACCESS:   81032004 HIT:   67168421 MISS:   13863583 MSHR_MERGE:    2178783
cpu0->cpu0_L1D LOAD         ACCESS:   39624006 HIT:   34296331 MISS:    5327675 MSHR_MERGE:     211379
cpu0->cpu0_L1D RFO          ACCESS:          0 HIT:          0 MISS:          0 MSHR_MERGE:          0
cpu0->cpu0_L1D PREFETCH     ACCESS:   36272773 HIT:   27774511 MISS:    8498262 MSHR_MERGE:    1966830
cpu0->cpu0_L1D WRITE        ACCESS:    5068814 HIT:    5050811 MISS:      18003 MSHR_MERGE:        569
cpu0->cpu0_L1D TRANSLATION  ACCESS:      66411 HIT:      46768 MISS:      19643 MSHR_MERGE:          5
cpu0->cpu0_L1D PREFETCH REQUESTED:   39665246 ISSUED:   36272765 USEFUL:    1971847 USELESS:    4559810
cpu0->cpu0_L1D AVERAGE MISS LATENCY: 29.38 cycles
cpu0->cpu0_ITLB TOTAL        ACCESS:    3533742 HIT:    3533735 MISS:          7 MSHR_MERGE:          0
cpu0->cpu0_ITLB LOAD         ACCESS:    3533742 HIT:    3533735 MISS:          7 MSHR_MERGE:          0
cpu0->cpu0_ITLB RFO          ACCESS:          0 HIT:          0 MISS:          0 MSHR_MERGE:          0
cpu0->cpu0_ITLB PREFETCH     ACCESS:          0 HIT:          0 MISS:          0 MSHR_MERGE:          0
cpu0->cpu0_ITLB WRITE        ACCESS:          0 HIT:          0 MISS:          0 MSHR_MERGE:          0
cpu0->cpu0_ITLB TRANSLATION  ACCESS:          0 HIT:          0 MISS:          0 MSHR_MERGE:          0
cpu0->cpu0_ITLB PREFETCH REQUESTED:          0 ISSUED:          0 USEFUL:          0 USELESS:          0
cpu0->cpu0_ITLB AVERAGE MISS LATENCY: 483 cycles
cpu0->cpu0_DTLB TOTAL        ACCESS:   77548149 HIT:   70867206 MISS:    6680943 MSHR_MERGE:     503218
cpu0->cpu0_DTLB LOAD         ACCESS:   77548149 HIT:   70867206 MISS:    6680943 MSHR_MERGE:     503218
cpu0->cpu0_DTLB RFO          ACCESS:          0 HIT:          0 MISS:          0 MSHR_MERGE:          0
cpu0->cpu0_DTLB PREFETCH     ACCESS:          0 HIT:          0 MISS:          0 MSHR_MERGE:          0
cpu0->cpu0_DTLB WRITE        ACCESS:          0 HIT:          0 MISS:          0 MSHR_MERGE:          0
cpu0->cpu0_DTLB TRANSLATION  ACCESS:          0 HIT:          0 MISS:          0 MSHR_MERGE:          0
cpu0->cpu0_DTLB PREFETCH REQUESTED:          0 ISSUED:          0 USEFUL:          0 USELESS:          0
cpu0->cpu0_DTLB AVERAGE MISS LATENCY: 6.376 cycles
cpu0->LLC TOTAL        ACCESS:   12073052 HIT:    7095957 MISS:    4977095 MSHR_MERGE:     541147
cpu0->LLC LOAD         ACCESS:     999017 HIT:     663646 MISS:     335371 MSHR_MERGE:        271
cpu0->LLC RFO          ACCESS:        263 HIT:          8 MISS:        255 MSHR_MERGE:          0
cpu0->LLC PREFETCH     ACCESS:   11069185 HIT:    6432184 MISS:    4637001 MSHR_MERGE:     540876
cpu0->LLC WRITE        ACCESS:        297 HIT:         91 MISS:        206 MSHR_MERGE:          0
cpu0->LLC TRANSLATION  ACCESS:       4290 HIT:         28 MISS:       4262 MSHR_MERGE:          0
cpu0->LLC PREFETCH REQUESTED:    6085714 ISSUED:    6047027 USEFUL:    1585364 USELESS:     922068
cpu0->LLC AVERAGE MISS LATENCY: 252 cycles

DRAM Statistics

Channel 0 RQ ROW_BUFFER_HIT:     380241
  ROW_BUFFER_MISS:    4055453
  AVG DBUS CONGESTED CYCLE: 3.961
Channel 0 WQ ROW_BUFFER_HIT:         11
  ROW_BUFFER_MISS:        247
  FULL:          0
Channel 0 REFRESHES ISSUED:      19143
