[VMEM] WARNING: physical memory size is smaller than virtual memory size.

*** ChampSim Multicore Out-of-Order Simulator ***
Warmup Instructions: 50000000
Simulation Instructions: 200000000
Number of CPUs: 1
Page size: 4096
Core 0: /local-ssd/ben/dpc4-traces/Graph/GAP/bc-12.trace.gz
Off-chip DRAM Size: 64 GiB Channels: 1 Width: 64-bit Data Rate: 4807 MT/s
Heartbeat CPU 0 instructions: 500001 cycles: 508447 heartbeat IPC: 0.9834 cumulative IPC: 0.9834 (Simulation time: 00 hr 00 min 04 sec)
Heartbeat CPU 0 instructions: 1000001 cycles: 1014657 heartbeat IPC: 0.9877 cumulative IPC: 0.9856 (Simulation time: 00 hr 00 min 08 sec)
Heartbeat CPU 0 instructions: 1500001 cycles: 1520635 heartbeat IPC: 0.9882 cumulative IPC: 0.9864 (Simulation time: 00 hr 00 min 11 sec)
Heartbeat CPU 0 instructions: 2000001 cycles: 1874017 heartbeat IPC: 1.415 cumulative IPC: 1.067 (Simulation time: 00 hr 00 min 15 sec)
Heartbeat CPU 0 instructions: 2500004 cycles: 1986314 heartbeat IPC: 4.453 cumulative IPC: 1.259 (Simulation time: 00 hr 00 min 17 sec)
Heartbeat CPU 0 instructions: 3000005 cycles: 2090111 heartbeat IPC: 4.817 cumulative IPC: 1.435 (Simulation time: 00 hr 00 min 19 sec)
Heartbeat CPU 0 instructions: 3500005 cycles: 2204540 heartbeat IPC: 4.37 cumulative IPC: 1.588 (Simulation time: 00 hr 00 min 21 sec)
Heartbeat CPU 0 instructions: 4000008 cycles: 2308921 heartbeat IPC: 4.79 cumulative IPC: 1.732 (Simulation time: 00 hr 00 min 23 sec)
Heartbeat CPU 0 instructions: 4500011 cycles: 2424338 heartbeat IPC: 4.332 cumulative IPC: 1.856 (Simulation time: 00 hr 00 min 25 sec)
Heartbeat CPU 0 instructions: 5000011 cycles: 2528955 heartbeat IPC: 4.779 cumulative IPC: 1.977 (Simulation time: 00 hr 00 min 27 sec)
Heartbeat CPU 0 instructions: 5500017 cycles: 2642209 heartbeat IPC: 4.415 cumulative IPC: 2.082 (Simulation time: 00 hr 00 min 29 sec)
Heartbeat CPU 0 instructions: 6000019 cycles: 2750741 heartbeat IPC: 4.607 cumulative IPC: 2.181 (Simulation time: 00 hr 00 min 32 sec)
Heartbeat CPU 0 instructions: 6500023 cycles: 2865456 heartbeat IPC: 4.359 cumulative IPC: 2.268 (Simulation time: 00 hr 00 min 34 sec)
Heartbeat CPU 0 instructions: 7000027 cycles: 2973057 heartbeat IPC: 4.647 cumulative IPC: 2.354 (Simulation time: 00 hr 00 min 36 sec)
Heartbeat CPU 0 instructions: 7500034 cycles: 3079769 heartbeat IPC: 4.686 cumulative IPC: 2.435 (Simulation time: 00 hr 00 min 38 sec)
Heartbeat CPU 0 instructions: 8000034 cycles: 3192853 heartbeat IPC: 4.421 cumulative IPC: 2.506 (Simulation time: 00 hr 00 min 41 sec)
Heartbeat CPU 0 instructions: 8500037 cycles: 3299849 heartbeat IPC: 4.673 cumulative IPC: 2.576 (Simulation time: 00 hr 00 min 43 sec)
Heartbeat CPU 0 instructions: 9000038 cycles: 3408809 heartbeat IPC: 4.589 cumulative IPC: 2.64 (Simulation time: 00 hr 00 min 45 sec)
Heartbeat CPU 0 instructions: 9500040 cycles: 3521394 heartbeat IPC: 4.441 cumulative IPC: 2.698 (Simulation time: 00 hr 00 min 47 sec)
Heartbeat CPU 0 instructions: 10000040 cycles: 3627489 heartbeat IPC: 4.713 cumulative IPC: 2.757 (Simulation time: 00 hr 00 min 49 sec)
Heartbeat CPU 0 instructions: 10500040 cycles: 3732239 heartbeat IPC: 4.773 cumulative IPC: 2.813 (Simulation time: 00 hr 00 min 52 sec)
Heartbeat CPU 0 instructions: 11000045 cycles: 3838116 heartbeat IPC: 4.723 cumulative IPC: 2.866 (Simulation time: 00 hr 00 min 54 sec)
Heartbeat CPU 0 instructions: 11500052 cycles: 3954713 heartbeat IPC: 4.288 cumulative IPC: 2.908 (Simulation time: 00 hr 00 min 56 sec)
Heartbeat CPU 0 instructions: 12000056 cycles: 4063163 heartbeat IPC: 4.61 cumulative IPC: 2.953 (Simulation time: 00 hr 00 min 59 sec)
Heartbeat CPU 0 instructions: 12500063 cycles: 4171980 heartbeat IPC: 4.595 cumulative IPC: 2.996 (Simulation time: 00 hr 01 min 01 sec)
Heartbeat CPU 0 instructions: 13000069 cycles: 4279087 heartbeat IPC: 4.668 cumulative IPC: 3.038 (Simulation time: 00 hr 01 min 03 sec)
Heartbeat CPU 0 instructions: 13500070 cycles: 4394633 heartbeat IPC: 4.327 cumulative IPC: 3.072 (Simulation time: 00 hr 01 min 06 sec)
Heartbeat CPU 0 instructions: 14000077 cycles: 4503741 heartbeat IPC: 4.583 cumulative IPC: 3.109 (Simulation time: 00 hr 01 min 08 sec)
Heartbeat CPU 0 instructions: 14500079 cycles: 4610271 heartbeat IPC: 4.694 cumulative IPC: 3.145 (Simulation time: 00 hr 01 min 10 sec)
Heartbeat CPU 0 instructions: 15000085 cycles: 4716591 heartbeat IPC: 4.703 cumulative IPC: 3.18 (Simulation time: 00 hr 01 min 12 sec)
Heartbeat CPU 0 instructions: 15500089 cycles: 4831470 heartbeat IPC: 4.352 cumulative IPC: 3.208 (Simulation time: 00 hr 01 min 15 sec)
Heartbeat CPU 0 instructions: 16000094 cycles: 4936260 heartbeat IPC: 4.771 cumulative IPC: 3.241 (Simulation time: 00 hr 01 min 17 sec)
Heartbeat CPU 0 instructions: 16500099 cycles: 5046785 heartbeat IPC: 4.524 cumulative IPC: 3.269 (Simulation time: 00 hr 01 min 19 sec)
Heartbeat CPU 0 instructions: 17000099 cycles: 5152359 heartbeat IPC: 4.736 cumulative IPC: 3.299 (Simulation time: 00 hr 01 min 22 sec)
Heartbeat CPU 0 instructions: 17500099 cycles: 5256920 heartbeat IPC: 4.782 cumulative IPC: 3.329 (Simulation time: 00 hr 01 min 24 sec)
Heartbeat CPU 0 instructions: 18000100 cycles: 5373058 heartbeat IPC: 4.305 cumulative IPC: 3.35 (Simulation time: 00 hr 01 min 26 sec)
Heartbeat CPU 0 instructions: 18500107 cycles: 5482468 heartbeat IPC: 4.57 cumulative IPC: 3.374 (Simulation time: 00 hr 01 min 29 sec)
Heartbeat CPU 0 instructions: 19000107 cycles: 5586671 heartbeat IPC: 4.798 cumulative IPC: 3.401 (Simulation time: 00 hr 01 min 31 sec)
Heartbeat CPU 0 instructions: 19500109 cycles: 5693912 heartbeat IPC: 4.662 cumulative IPC: 3.425 (Simulation time: 00 hr 01 min 33 sec)
Heartbeat CPU 0 instructions: 20000116 cycles: 5800696 heartbeat IPC: 4.682 cumulative IPC: 3.448 (Simulation time: 00 hr 01 min 36 sec)
Heartbeat CPU 0 instructions: 20500121 cycles: 5918103 heartbeat IPC: 4.259 cumulative IPC: 3.464 (Simulation time: 00 hr 01 min 38 sec)
Heartbeat CPU 0 instructions: 21000124 cycles: 6026832 heartbeat IPC: 4.599 cumulative IPC: 3.484 (Simulation time: 00 hr 01 min 40 sec)
Heartbeat CPU 0 instructions: 21500129 cycles: 6134146 heartbeat IPC: 4.659 cumulative IPC: 3.505 (Simulation time: 00 hr 01 min 43 sec)
Heartbeat CPU 0 instructions: 22000135 cycles: 6240565 heartbeat IPC: 4.698 cumulative IPC: 3.525 (Simulation time: 00 hr 01 min 45 sec)
Heartbeat CPU 0 instructions: 22500136 cycles: 6347657 heartbeat IPC: 4.669 cumulative IPC: 3.545 (Simulation time: 00 hr 01 min 47 sec)
Heartbeat CPU 0 instructions: 23000143 cycles: 6454664 heartbeat IPC: 4.673 cumulative IPC: 3.563 (Simulation time: 00 hr 01 min 50 sec)
Heartbeat CPU 0 instructions: 23500149 cycles: 6570054 heartbeat IPC: 4.333 cumulative IPC: 3.577 (Simulation time: 00 hr 01 min 52 sec)
Heartbeat CPU 0 instructions: 24000152 cycles: 6677017 heartbeat IPC: 4.675 cumulative IPC: 3.594 (Simulation time: 00 hr 01 min 54 sec)
Heartbeat CPU 0 instructions: 24500155 cycles: 6786238 heartbeat IPC: 4.578 cumulative IPC: 3.61 (Simulation time: 00 hr 01 min 57 sec)
Heartbeat CPU 0 instructions: 25000159 cycles: 6892673 heartbeat IPC: 4.698 cumulative IPC: 3.627 (Simulation time: 00 hr 01 min 59 sec)
Heartbeat CPU 0 instructions: 25500165 cycles: 6998587 heartbeat IPC: 4.721 cumulative IPC: 3.644 (Simulation time: 00 hr 02 min 01 sec)
Heartbeat CPU 0 instructions: 26000169 cycles: 7102649 heartbeat IPC: 4.805 cumulative IPC: 3.661 (Simulation time: 00 hr 02 min 04 sec)
Heartbeat CPU 0 instructions: 26500173 cycles: 7209683 heartbeat IPC: 4.671 cumulative IPC: 3.676 (Simulation time: 00 hr 02 min 06 sec)
Heartbeat CPU 0 instructions: 27000175 cycles: 7322599 heartbeat IPC: 4.428 cumulative IPC: 3.687 (Simulation time: 00 hr 02 min 08 sec)
Heartbeat CPU 0 instructions: 27500182 cycles: 7431000 heartbeat IPC: 4.613 cumulative IPC: 3.701 (Simulation time: 00 hr 02 min 11 sec)
Heartbeat CPU 0 instructions: 28000182 cycles: 7539665 heartbeat IPC: 4.601 cumulative IPC: 3.714 (Simulation time: 00 hr 02 min 13 sec)
Heartbeat CPU 0 instructions: 28500184 cycles: 7647305 heartbeat IPC: 4.645 cumulative IPC: 3.727 (Simulation time: 00 hr 02 min 16 sec)
Heartbeat CPU 0 instructions: 29000187 cycles: 7757720 heartbeat IPC: 4.528 cumulative IPC: 3.738 (Simulation time: 00 hr 02 min 18 sec)
Heartbeat CPU 0 instructions: 29500189 cycles: 7864630 heartbeat IPC: 4.677 cumulative IPC: 3.751 (Simulation time: 00 hr 02 min 20 sec)
Heartbeat CPU 0 instructions: 30000191 cycles: 7974029 heartbeat IPC: 4.57 cumulative IPC: 3.762 (Simulation time: 00 hr 02 min 23 sec)
Heartbeat CPU 0 instructions: 30500191 cycles: 8083370 heartbeat IPC: 4.573 cumulative IPC: 3.773 (Simulation time: 00 hr 02 min 25 sec)
Heartbeat CPU 0 instructions: 31000193 cycles: 8198671 heartbeat IPC: 4.336 cumulative IPC: 3.781 (Simulation time: 00 hr 02 min 28 sec)
Heartbeat CPU 0 instructions: 31500195 cycles: 8307122 heartbeat IPC: 4.61 cumulative IPC: 3.792 (Simulation time: 00 hr 02 min 30 sec)
Heartbeat CPU 0 instructions: 32000199 cycles: 8414025 heartbeat IPC: 4.677 cumulative IPC: 3.803 (Simulation time: 00 hr 02 min 32 sec)
Heartbeat CPU 0 instructions: 32500203 cycles: 8521225 heartbeat IPC: 4.664 cumulative IPC: 3.814 (Simulation time: 00 hr 02 min 35 sec)
Heartbeat CPU 0 instructions: 33000206 cycles: 8625372 heartbeat IPC: 4.801 cumulative IPC: 3.826 (Simulation time: 00 hr 02 min 37 sec)
Heartbeat CPU 0 instructions: 33500208 cycles: 8734182 heartbeat IPC: 4.595 cumulative IPC: 3.836 (Simulation time: 00 hr 02 min 39 sec)
Heartbeat CPU 0 instructions: 34000213 cycles: 8839717 heartbeat IPC: 4.738 cumulative IPC: 3.846 (Simulation time: 00 hr 02 min 42 sec)
Heartbeat CPU 0 instructions: 34500220 cycles: 8947203 heartbeat IPC: 4.652 cumulative IPC: 3.856 (Simulation time: 00 hr 02 min 44 sec)
Heartbeat CPU 0 instructions: 35000225 cycles: 9063717 heartbeat IPC: 4.291 cumulative IPC: 3.862 (Simulation time: 00 hr 02 min 46 sec)
Heartbeat CPU 0 instructions: 35500231 cycles: 9170982 heartbeat IPC: 4.661 cumulative IPC: 3.871 (Simulation time: 00 hr 02 min 49 sec)
Heartbeat CPU 0 instructions: 36000235 cycles: 9278757 heartbeat IPC: 4.639 cumulative IPC: 3.88 (Simulation time: 00 hr 02 min 51 sec)
Heartbeat CPU 0 instructions: 36500236 cycles: 9386786 heartbeat IPC: 4.628 cumulative IPC: 3.888 (Simulation time: 00 hr 02 min 54 sec)
Heartbeat CPU 0 instructions: 37000239 cycles: 9494534 heartbeat IPC: 4.64 cumulative IPC: 3.897 (Simulation time: 00 hr 02 min 56 sec)
Heartbeat CPU 0 instructions: 37500239 cycles: 9603986 heartbeat IPC: 4.568 cumulative IPC: 3.905 (Simulation time: 00 hr 02 min 58 sec)
Heartbeat CPU 0 instructions: 38000241 cycles: 9710118 heartbeat IPC: 4.711 cumulative IPC: 3.913 (Simulation time: 00 hr 03 min 01 sec)
Heartbeat CPU 0 instructions: 38500246 cycles: 9815864 heartbeat IPC: 4.728 cumulative IPC: 3.922 (Simulation time: 00 hr 03 min 03 sec)
Heartbeat CPU 0 instructions: 39000250 cycles: 9921665 heartbeat IPC: 4.726 cumulative IPC: 3.931 (Simulation time: 00 hr 03 min 05 sec)
Heartbeat CPU 0 instructions: 39500251 cycles: 10037175 heartbeat IPC: 4.329 cumulative IPC: 3.935 (Simulation time: 00 hr 03 min 08 sec)
Heartbeat CPU 0 instructions: 40000252 cycles: 10143634 heartbeat IPC: 4.697 cumulative IPC: 3.943 (Simulation time: 00 hr 03 min 10 sec)
Heartbeat CPU 0 instructions: 40500252 cycles: 10246449 heartbeat IPC: 4.863 cumulative IPC: 3.953 (Simulation time: 00 hr 03 min 12 sec)
Heartbeat CPU 0 instructions: 41000252 cycles: 10352976 heartbeat IPC: 4.694 cumulative IPC: 3.96 (Simulation time: 00 hr 03 min 14 sec)
Heartbeat CPU 0 instructions: 41500252 cycles: 10459443 heartbeat IPC: 4.696 cumulative IPC: 3.968 (Simulation time: 00 hr 03 min 17 sec)
Heartbeat CPU 0 instructions: 42000259 cycles: 10564280 heartbeat IPC: 4.769 cumulative IPC: 3.976 (Simulation time: 00 hr 03 min 19 sec)
Heartbeat CPU 0 instructions: 42500266 cycles: 10672702 heartbeat IPC: 4.612 cumulative IPC: 3.982 (Simulation time: 00 hr 03 min 21 sec)
Heartbeat CPU 0 instructions: 43000273 cycles: 10778179 heartbeat IPC: 4.74 cumulative IPC: 3.99 (Simulation time: 00 hr 03 min 23 sec)
Heartbeat CPU 0 instructions: 43500277 cycles: 10886526 heartbeat IPC: 4.615 cumulative IPC: 3.996 (Simulation time: 00 hr 03 min 26 sec)
Heartbeat CPU 0 instructions: 44000281 cycles: 11001212 heartbeat IPC: 4.36 cumulative IPC: 4 (Simulation time: 00 hr 03 min 28 sec)
Heartbeat CPU 0 instructions: 44500284 cycles: 11108099 heartbeat IPC: 4.678 cumulative IPC: 4.006 (Simulation time: 00 hr 03 min 31 sec)
Heartbeat CPU 0 instructions: 45000290 cycles: 11215181 heartbeat IPC: 4.669 cumulative IPC: 4.012 (Simulation time: 00 hr 03 min 33 sec)
Heartbeat CPU 0 instructions: 45500290 cycles: 11324628 heartbeat IPC: 4.568 cumulative IPC: 4.018 (Simulation time: 00 hr 03 min 35 sec)
Heartbeat CPU 0 instructions: 46000291 cycles: 11430958 heartbeat IPC: 4.702 cumulative IPC: 4.024 (Simulation time: 00 hr 03 min 38 sec)
Heartbeat CPU 0 instructions: 46500291 cycles: 11539871 heartbeat IPC: 4.591 cumulative IPC: 4.03 (Simulation time: 00 hr 03 min 40 sec)
Heartbeat CPU 0 instructions: 47000291 cycles: 11644062 heartbeat IPC: 4.799 cumulative IPC: 4.036 (Simulation time: 00 hr 03 min 42 sec)
Heartbeat CPU 0 instructions: 47500293 cycles: 11750155 heartbeat IPC: 4.713 cumulative IPC: 4.043 (Simulation time: 00 hr 03 min 44 sec)
Heartbeat CPU 0 instructions: 48000299 cycles: 11855404 heartbeat IPC: 4.751 cumulative IPC: 4.049 (Simulation time: 00 hr 03 min 47 sec)
Heartbeat CPU 0 instructions: 48500305 cycles: 11961978 heartbeat IPC: 4.692 cumulative IPC: 4.055 (Simulation time: 00 hr 03 min 49 sec)
Heartbeat CPU 0 instructions: 49000306 cycles: 12067616 heartbeat IPC: 4.733 cumulative IPC: 4.06 (Simulation time: 00 hr 03 min 51 sec)
Heartbeat CPU 0 instructions: 49500313 cycles: 12183034 heartbeat IPC: 4.332 cumulative IPC: 4.063 (Simulation time: 00 hr 03 min 54 sec)
Warmup halting CPU 0 at instruction 50000003 cycle 12289301 for remainder of phase
Warmup finished CPU 0 instructions: 50000003 cycles: 12289301 cumulative IPC: 4.069 (Simulation time: 00 hr 03 min 56 sec)
Warmup complete CPU 0 instructions: 50000003 cycles: 12289301 cumulative IPC: 4.069 (Simulation time: 00 hr 03 min 56 sec)
Heartbeat CPU 0 instructions: 50000319 cycles: 12290858 heartbeat IPC: 4.637 cumulative IPC: 0.203 (Simulation time: 00 hr 03 min 56 sec)
Heartbeat CPU 0 instructions: 50500320 cycles: 15338597 heartbeat IPC: 0.1641 cumulative IPC: 0.1641 (Simulation time: 00 hr 04 min 21 sec)
Heartbeat CPU 0 instructions: 51000320 cycles: 17364063 heartbeat IPC: 0.2469 cumulative IPC: 0.1971 (Simulation time: 00 hr 04 min 38 sec)
Heartbeat CPU 0 instructions: 51500320 cycles: 19840994 heartbeat IPC: 0.2019 cumulative IPC: 0.1987 (Simulation time: 00 hr 04 min 59 sec)
Heartbeat CPU 0 instructions: 52000320 cycles: 22757921 heartbeat IPC: 0.1714 cumulative IPC: 0.1911 (Simulation time: 00 hr 05 min 22 sec)
Heartbeat CPU 0 instructions: 52500320 cycles: 24813696 heartbeat IPC: 0.2432 cumulative IPC: 0.1996 (Simulation time: 00 hr 05 min 39 sec)
Heartbeat CPU 0 instructions: 53000327 cycles: 27103630 heartbeat IPC: 0.2183 cumulative IPC: 0.2025 (Simulation time: 00 hr 05 min 58 sec)
Heartbeat CPU 0 instructions: 53500327 cycles: 30089057 heartbeat IPC: 0.1675 cumulative IPC: 0.1967 (Simulation time: 00 hr 06 min 20 sec)
Heartbeat CPU 0 instructions: 54000328 cycles: 33107145 heartbeat IPC: 0.1657 cumulative IPC: 0.1922 (Simulation time: 00 hr 06 min 42 sec)
Heartbeat CPU 0 instructions: 54500330 cycles: 35963739 heartbeat IPC: 0.175 cumulative IPC: 0.1901 (Simulation time: 00 hr 07 min 04 sec)
Heartbeat CPU 0 instructions: 55000333 cycles: 38811939 heartbeat IPC: 0.1756 cumulative IPC: 0.1885 (Simulation time: 00 hr 07 min 28 sec)
Heartbeat CPU 0 instructions: 55500338 cycles: 41609663 heartbeat IPC: 0.1787 cumulative IPC: 0.1876 (Simulation time: 00 hr 07 min 50 sec)
Heartbeat CPU 0 instructions: 56000339 cycles: 44569062 heartbeat IPC: 0.169 cumulative IPC: 0.1859 (Simulation time: 00 hr 08 min 12 sec)
Heartbeat CPU 0 instructions: 56500341 cycles: 47505518 heartbeat IPC: 0.1703 cumulative IPC: 0.1846 (Simulation time: 00 hr 08 min 34 sec)
Heartbeat CPU 0 instructions: 57000341 cycles: 50350045 heartbeat IPC: 0.1758 cumulative IPC: 0.1839 (Simulation time: 00 hr 08 min 57 sec)
Heartbeat CPU 0 instructions: 57500345 cycles: 52942333 heartbeat IPC: 0.1929 cumulative IPC: 0.1845 (Simulation time: 00 hr 09 min 18 sec)
Heartbeat CPU 0 instructions: 58000347 cycles: 54620394 heartbeat IPC: 0.298 cumulative IPC: 0.189 (Simulation time: 00 hr 09 min 34 sec)
Heartbeat CPU 0 instructions: 58500348 cycles: 57519022 heartbeat IPC: 0.1725 cumulative IPC: 0.1879 (Simulation time: 00 hr 09 min 56 sec)
Heartbeat CPU 0 instructions: 59000354 cycles: 60423072 heartbeat IPC: 0.1722 cumulative IPC: 0.187 (Simulation time: 00 hr 10 min 18 sec)
Heartbeat CPU 0 instructions: 59500357 cycles: 63367490 heartbeat IPC: 0.1698 cumulative IPC: 0.186 (Simulation time: 00 hr 10 min 39 sec)
Heartbeat CPU 0 instructions: 60000360 cycles: 66343721 heartbeat IPC: 0.168 cumulative IPC: 0.185 (Simulation time: 00 hr 11 min 01 sec)
Heartbeat CPU 0 instructions: 60500362 cycles: 69290349 heartbeat IPC: 0.1697 cumulative IPC: 0.1842 (Simulation time: 00 hr 11 min 25 sec)
Heartbeat CPU 0 instructions: 61000363 cycles: 72244378 heartbeat IPC: 0.1693 cumulative IPC: 0.1835 (Simulation time: 00 hr 11 min 47 sec)
Heartbeat CPU 0 instructions: 61500363 cycles: 75134088 heartbeat IPC: 0.173 cumulative IPC: 0.183 (Simulation time: 00 hr 12 min 08 sec)
Heartbeat CPU 0 instructions: 62000365 cycles: 78081277 heartbeat IPC: 0.1697 cumulative IPC: 0.1824 (Simulation time: 00 hr 12 min 30 sec)
Heartbeat CPU 0 instructions: 62500371 cycles: 80986209 heartbeat IPC: 0.1721 cumulative IPC: 0.182 (Simulation time: 00 hr 12 min 53 sec)
Heartbeat CPU 0 instructions: 63000377 cycles: 83968964 heartbeat IPC: 0.1676 cumulative IPC: 0.1814 (Simulation time: 00 hr 13 min 15 sec)
Heartbeat CPU 0 instructions: 63500380 cycles: 86903035 heartbeat IPC: 0.1704 cumulative IPC: 0.1809 (Simulation time: 00 hr 13 min 37 sec)
Heartbeat CPU 0 instructions: 64000383 cycles: 89808942 heartbeat IPC: 0.1721 cumulative IPC: 0.1806 (Simulation time: 00 hr 14 min 00 sec)
Heartbeat CPU 0 instructions: 64500383 cycles: 92679758 heartbeat IPC: 0.1742 cumulative IPC: 0.1804 (Simulation time: 00 hr 14 min 23 sec)
Heartbeat CPU 0 instructions: 65000390 cycles: 95465891 heartbeat IPC: 0.1795 cumulative IPC: 0.1803 (Simulation time: 00 hr 14 min 45 sec)
Heartbeat CPU 0 instructions: 65500397 cycles: 98265580 heartbeat IPC: 0.1786 cumulative IPC: 0.1803 (Simulation time: 00 hr 15 min 08 sec)
Heartbeat CPU 0 instructions: 66000399 cycles: 101116202 heartbeat IPC: 0.1754 cumulative IPC: 0.1801 (Simulation time: 00 hr 15 min 29 sec)
Heartbeat CPU 0 instructions: 66500403 cycles: 104057366 heartbeat IPC: 0.17 cumulative IPC: 0.1798 (Simulation time: 00 hr 15 min 51 sec)
Heartbeat CPU 0 instructions: 67000403 cycles: 106943523 heartbeat IPC: 0.1732 cumulative IPC: 0.1796 (Simulation time: 00 hr 16 min 14 sec)
Heartbeat CPU 0 instructions: 67500410 cycles: 109861415 heartbeat IPC: 0.1714 cumulative IPC: 0.1794 (Simulation time: 00 hr 16 min 35 sec)
Heartbeat CPU 0 instructions: 68000415 cycles: 112790744 heartbeat IPC: 0.1707 cumulative IPC: 0.1791 (Simulation time: 00 hr 16 min 57 sec)
Heartbeat CPU 0 instructions: 68500416 cycles: 114394643 heartbeat IPC: 0.3117 cumulative IPC: 0.1812 (Simulation time: 00 hr 17 min 12 sec)
Heartbeat CPU 0 instructions: 69000421 cycles: 117314022 heartbeat IPC: 0.1713 cumulative IPC: 0.1809 (Simulation time: 00 hr 17 min 34 sec)
Heartbeat CPU 0 instructions: 69500426 cycles: 120255757 heartbeat IPC: 0.17 cumulative IPC: 0.1806 (Simulation time: 00 hr 17 min 57 sec)
Heartbeat CPU 0 instructions: 70000429 cycles: 123214120 heartbeat IPC: 0.169 cumulative IPC: 0.1803 (Simulation time: 00 hr 18 min 19 sec)
Heartbeat CPU 0 instructions: 70500432 cycles: 126221115 heartbeat IPC: 0.1663 cumulative IPC: 0.1799 (Simulation time: 00 hr 18 min 41 sec)
Heartbeat CPU 0 instructions: 71000434 cycles: 129226724 heartbeat IPC: 0.1664 cumulative IPC: 0.1796 (Simulation time: 00 hr 19 min 04 sec)
Heartbeat CPU 0 instructions: 71500438 cycles: 132121943 heartbeat IPC: 0.1727 cumulative IPC: 0.1794 (Simulation time: 00 hr 19 min 26 sec)
Heartbeat CPU 0 instructions: 72000438 cycles: 134987385 heartbeat IPC: 0.1745 cumulative IPC: 0.1793 (Simulation time: 00 hr 19 min 48 sec)
Heartbeat CPU 0 instructions: 72500439 cycles: 137864850 heartbeat IPC: 0.1738 cumulative IPC: 0.1792 (Simulation time: 00 hr 20 min 09 sec)
Heartbeat CPU 0 instructions: 73000446 cycles: 140737286 heartbeat IPC: 0.1741 cumulative IPC: 0.1791 (Simulation time: 00 hr 20 min 31 sec)
Heartbeat CPU 0 instructions: 73500447 cycles: 143706085 heartbeat IPC: 0.1684 cumulative IPC: 0.1788 (Simulation time: 00 hr 20 min 53 sec)
Heartbeat CPU 0 instructions: 74000447 cycles: 146643932 heartbeat IPC: 0.1702 cumulative IPC: 0.1786 (Simulation time: 00 hr 21 min 14 sec)
Heartbeat CPU 0 instructions: 74500447 cycles: 149543013 heartbeat IPC: 0.1725 cumulative IPC: 0.1785 (Simulation time: 00 hr 21 min 34 sec)
Heartbeat CPU 0 instructions: 75000453 cycles: 152390952 heartbeat IPC: 0.1756 cumulative IPC: 0.1784 (Simulation time: 00 hr 21 min 54 sec)
Heartbeat CPU 0 instructions: 75500458 cycles: 155325323 heartbeat IPC: 0.1704 cumulative IPC: 0.1783 (Simulation time: 00 hr 22 min 15 sec)
Heartbeat CPU 0 instructions: 76000462 cycles: 158274837 heartbeat IPC: 0.1695 cumulative IPC: 0.1781 (Simulation time: 00 hr 22 min 36 sec)
Heartbeat CPU 0 instructions: 76500463 cycles: 161008380 heartbeat IPC: 0.1829 cumulative IPC: 0.1782 (Simulation time: 00 hr 22 min 57 sec)
Heartbeat CPU 0 instructions: 77000463 cycles: 163292250 heartbeat IPC: 0.2189 cumulative IPC: 0.1788 (Simulation time: 00 hr 23 min 14 sec)
Heartbeat CPU 0 instructions: 77500463 cycles: 165319531 heartbeat IPC: 0.2466 cumulative IPC: 0.1797 (Simulation time: 00 hr 23 min 31 sec)
Heartbeat CPU 0 instructions: 78000468 cycles: 168278070 heartbeat IPC: 0.169 cumulative IPC: 0.1795 (Simulation time: 00 hr 23 min 50 sec)
Heartbeat CPU 0 instructions: 78500469 cycles: 171273556 heartbeat IPC: 0.1669 cumulative IPC: 0.1793 (Simulation time: 00 hr 24 min 11 sec)
Heartbeat CPU 0 instructions: 79000469 cycles: 174286042 heartbeat IPC: 0.166 cumulative IPC: 0.179 (Simulation time: 00 hr 24 min 31 sec)
Heartbeat CPU 0 instructions: 79500469 cycles: 177277154 heartbeat IPC: 0.1672 cumulative IPC: 0.1788 (Simulation time: 00 hr 24 min 51 sec)
Heartbeat CPU 0 instructions: 80000474 cycles: 180331019 heartbeat IPC: 0.1637 cumulative IPC: 0.1785 (Simulation time: 00 hr 25 min 12 sec)
Heartbeat CPU 0 instructions: 80500480 cycles: 183290920 heartbeat IPC: 0.1689 cumulative IPC: 0.1784 (Simulation time: 00 hr 25 min 32 sec)
Heartbeat CPU 0 instructions: 81000485 cycles: 186249794 heartbeat IPC: 0.169 cumulative IPC: 0.1782 (Simulation time: 00 hr 25 min 54 sec)
Heartbeat CPU 0 instructions: 81500491 cycles: 189104353 heartbeat IPC: 0.1752 cumulative IPC: 0.1782 (Simulation time: 00 hr 26 min 14 sec)
Heartbeat CPU 0 instructions: 82000492 cycles: 192047934 heartbeat IPC: 0.1699 cumulative IPC: 0.178 (Simulation time: 00 hr 26 min 34 sec)
Heartbeat CPU 0 instructions: 82500499 cycles: 194882200 heartbeat IPC: 0.1764 cumulative IPC: 0.178 (Simulation time: 00 hr 26 min 55 sec)
Heartbeat CPU 0 instructions: 83000501 cycles: 197766637 heartbeat IPC: 0.1733 cumulative IPC: 0.1779 (Simulation time: 00 hr 27 min 15 sec)
Heartbeat CPU 0 instructions: 83500505 cycles: 200696473 heartbeat IPC: 0.1707 cumulative IPC: 0.1778 (Simulation time: 00 hr 27 min 35 sec)
Heartbeat CPU 0 instructions: 84000511 cycles: 203658408 heartbeat IPC: 0.1688 cumulative IPC: 0.1777 (Simulation time: 00 hr 27 min 54 sec)
Heartbeat CPU 0 instructions: 84500515 cycles: 206632335 heartbeat IPC: 0.1681 cumulative IPC: 0.1775 (Simulation time: 00 hr 28 min 14 sec)
Heartbeat CPU 0 instructions: 85000515 cycles: 209568025 heartbeat IPC: 0.1703 cumulative IPC: 0.1774 (Simulation time: 00 hr 28 min 33 sec)
Heartbeat CPU 0 instructions: 85500521 cycles: 212475022 heartbeat IPC: 0.172 cumulative IPC: 0.1773 (Simulation time: 00 hr 28 min 53 sec)
Heartbeat CPU 0 instructions: 86000526 cycles: 215439315 heartbeat IPC: 0.1687 cumulative IPC: 0.1772 (Simulation time: 00 hr 29 min 13 sec)
Heartbeat CPU 0 instructions: 86500532 cycles: 218253713 heartbeat IPC: 0.1777 cumulative IPC: 0.1772 (Simulation time: 00 hr 29 min 33 sec)
Heartbeat CPU 0 instructions: 87000534 cycles: 221051128 heartbeat IPC: 0.1787 cumulative IPC: 0.1772 (Simulation time: 00 hr 29 min 51 sec)
Heartbeat CPU 0 instructions: 87500539 cycles: 223961247 heartbeat IPC: 0.1718 cumulative IPC: 0.1772 (Simulation time: 00 hr 30 min 11 sec)
Heartbeat CPU 0 instructions: 88000545 cycles: 226854210 heartbeat IPC: 0.1728 cumulative IPC: 0.1771 (Simulation time: 00 hr 30 min 31 sec)
Heartbeat CPU 0 instructions: 88500552 cycles: 229847115 heartbeat IPC: 0.1671 cumulative IPC: 0.177 (Simulation time: 00 hr 30 min 51 sec)
Heartbeat CPU 0 instructions: 89000558 cycles: 232723911 heartbeat IPC: 0.1738 cumulative IPC: 0.1769 (Simulation time: 00 hr 31 min 12 sec)
Heartbeat CPU 0 instructions: 89500563 cycles: 235667406 heartbeat IPC: 0.1699 cumulative IPC: 0.1768 (Simulation time: 00 hr 31 min 31 sec)
Heartbeat CPU 0 instructions: 90000570 cycles: 238568439 heartbeat IPC: 0.1724 cumulative IPC: 0.1768 (Simulation time: 00 hr 31 min 50 sec)
Heartbeat CPU 0 instructions: 90500576 cycles: 241380890 heartbeat IPC: 0.1778 cumulative IPC: 0.1768 (Simulation time: 00 hr 32 min 09 sec)
Heartbeat CPU 0 instructions: 91000580 cycles: 244297717 heartbeat IPC: 0.1714 cumulative IPC: 0.1767 (Simulation time: 00 hr 32 min 28 sec)
Heartbeat CPU 0 instructions: 91500587 cycles: 247177713 heartbeat IPC: 0.1736 cumulative IPC: 0.1767 (Simulation time: 00 hr 32 min 47 sec)
Heartbeat CPU 0 instructions: 92000587 cycles: 250093630 heartbeat IPC: 0.1715 cumulative IPC: 0.1766 (Simulation time: 00 hr 33 min 06 sec)
Heartbeat CPU 0 instructions: 92500589 cycles: 252927166 heartbeat IPC: 0.1765 cumulative IPC: 0.1766 (Simulation time: 00 hr 33 min 26 sec)
Heartbeat CPU 0 instructions: 93000593 cycles: 255854945 heartbeat IPC: 0.1708 cumulative IPC: 0.1765 (Simulation time: 00 hr 33 min 45 sec)
Heartbeat CPU 0 instructions: 93500593 cycles: 258826126 heartbeat IPC: 0.1683 cumulative IPC: 0.1764 (Simulation time: 00 hr 34 min 05 sec)
Heartbeat CPU 0 instructions: 94000594 cycles: 261788489 heartbeat IPC: 0.1688 cumulative IPC: 0.1764 (Simulation time: 00 hr 34 min 24 sec)
Heartbeat CPU 0 instructions: 94500595 cycles: 264721955 heartbeat IPC: 0.1704 cumulative IPC: 0.1763 (Simulation time: 00 hr 34 min 45 sec)
Heartbeat CPU 0 instructions: 95000596 cycles: 267622389 heartbeat IPC: 0.1724 cumulative IPC: 0.1762 (Simulation time: 00 hr 35 min 05 sec)
Heartbeat CPU 0 instructions: 95500596 cycles: 270461075 heartbeat IPC: 0.1761 cumulative IPC: 0.1762 (Simulation time: 00 hr 35 min 25 sec)
Heartbeat CPU 0 instructions: 96000596 cycles: 273375114 heartbeat IPC: 0.1716 cumulative IPC: 0.1762 (Simulation time: 00 hr 35 min 44 sec)
Heartbeat CPU 0 instructions: 96500597 cycles: 276221426 heartbeat IPC: 0.1757 cumulative IPC: 0.1762 (Simulation time: 00 hr 36 min 04 sec)
Heartbeat CPU 0 instructions: 97000599 cycles: 278930526 heartbeat IPC: 0.1846 cumulative IPC: 0.1763 (Simulation time: 00 hr 36 min 24 sec)
Heartbeat CPU 0 instructions: 97500602 cycles: 281905715 heartbeat IPC: 0.1681 cumulative IPC: 0.1762 (Simulation time: 00 hr 36 min 44 sec)
Heartbeat CPU 0 instructions: 98000602 cycles: 284817435 heartbeat IPC: 0.1717 cumulative IPC: 0.1761 (Simulation time: 00 hr 37 min 05 sec)
Heartbeat CPU 0 instructions: 98500603 cycles: 287676558 heartbeat IPC: 0.1749 cumulative IPC: 0.1761 (Simulation time: 00 hr 37 min 25 sec)
Heartbeat CPU 0 instructions: 99000607 cycles: 290517407 heartbeat IPC: 0.176 cumulative IPC: 0.1761 (Simulation time: 00 hr 37 min 45 sec)
Heartbeat CPU 0 instructions: 99500609 cycles: 293349741 heartbeat IPC: 0.1765 cumulative IPC: 0.1761 (Simulation time: 00 hr 38 min 05 sec)
Heartbeat CPU 0 instructions: 100000611 cycles: 296302077 heartbeat IPC: 0.1694 cumulative IPC: 0.1761 (Simulation time: 00 hr 38 min 24 sec)
Heartbeat CPU 0 instructions: 100500615 cycles: 299163774 heartbeat IPC: 0.1747 cumulative IPC: 0.176 (Simulation time: 00 hr 38 min 44 sec)
Heartbeat CPU 0 instructions: 101000615 cycles: 301996568 heartbeat IPC: 0.1765 cumulative IPC: 0.176 (Simulation time: 00 hr 39 min 04 sec)
Heartbeat CPU 0 instructions: 101500615 cycles: 304992194 heartbeat IPC: 0.1669 cumulative IPC: 0.1759 (Simulation time: 00 hr 39 min 23 sec)
Heartbeat CPU 0 instructions: 102000620 cycles: 307970090 heartbeat IPC: 0.1679 cumulative IPC: 0.1759 (Simulation time: 00 hr 39 min 43 sec)
Heartbeat CPU 0 instructions: 102500621 cycles: 310956088 heartbeat IPC: 0.1674 cumulative IPC: 0.1758 (Simulation time: 00 hr 40 min 03 sec)
Heartbeat CPU 0 instructions: 103000623 cycles: 313820174 heartbeat IPC: 0.1746 cumulative IPC: 0.1758 (Simulation time: 00 hr 40 min 23 sec)
Heartbeat CPU 0 instructions: 103500628 cycles: 316673632 heartbeat IPC: 0.1752 cumulative IPC: 0.1758 (Simulation time: 00 hr 40 min 43 sec)
Heartbeat CPU 0 instructions: 104000630 cycles: 319599345 heartbeat IPC: 0.1709 cumulative IPC: 0.1757 (Simulation time: 00 hr 41 min 02 sec)
Heartbeat CPU 0 instructions: 104500631 cycles: 322505853 heartbeat IPC: 0.172 cumulative IPC: 0.1757 (Simulation time: 00 hr 41 min 22 sec)
Heartbeat CPU 0 instructions: 105000637 cycles: 325355397 heartbeat IPC: 0.1755 cumulative IPC: 0.1757 (Simulation time: 00 hr 41 min 42 sec)
Heartbeat CPU 0 instructions: 105500637 cycles: 328275630 heartbeat IPC: 0.1712 cumulative IPC: 0.1756 (Simulation time: 00 hr 42 min 03 sec)
Heartbeat CPU 0 instructions: 106000644 cycles: 331165008 heartbeat IPC: 0.1731 cumulative IPC: 0.1756 (Simulation time: 00 hr 42 min 23 sec)
Heartbeat CPU 0 instructions: 106500647 cycles: 334056712 heartbeat IPC: 0.1729 cumulative IPC: 0.1756 (Simulation time: 00 hr 42 min 43 sec)
Heartbeat CPU 0 instructions: 107000647 cycles: 337015375 heartbeat IPC: 0.169 cumulative IPC: 0.1755 (Simulation time: 00 hr 43 min 03 sec)
Heartbeat CPU 0 instructions: 107500647 cycles: 339959942 heartbeat IPC: 0.1698 cumulative IPC: 0.1755 (Simulation time: 00 hr 43 min 22 sec)
Heartbeat CPU 0 instructions: 108000654 cycles: 342869159 heartbeat IPC: 0.1719 cumulative IPC: 0.1755 (Simulation time: 00 hr 43 min 41 sec)
Heartbeat CPU 0 instructions: 108500660 cycles: 345768566 heartbeat IPC: 0.1725 cumulative IPC: 0.1754 (Simulation time: 00 hr 44 min 00 sec)
Heartbeat CPU 0 instructions: 109000665 cycles: 348716838 heartbeat IPC: 0.1696 cumulative IPC: 0.1754 (Simulation time: 00 hr 44 min 19 sec)
Heartbeat CPU 0 instructions: 109500666 cycles: 351585938 heartbeat IPC: 0.1743 cumulative IPC: 0.1754 (Simulation time: 00 hr 44 min 39 sec)
Heartbeat CPU 0 instructions: 110000666 cycles: 354525829 heartbeat IPC: 0.1701 cumulative IPC: 0.1753 (Simulation time: 00 hr 44 min 58 sec)
Heartbeat CPU 0 instructions: 110500673 cycles: 357391095 heartbeat IPC: 0.1745 cumulative IPC: 0.1753 (Simulation time: 00 hr 45 min 17 sec)
Heartbeat CPU 0 instructions: 111000678 cycles: 360339800 heartbeat IPC: 0.1696 cumulative IPC: 0.1753 (Simulation time: 00 hr 45 min 37 sec)
Heartbeat CPU 0 instructions: 111500681 cycles: 363290155 heartbeat IPC: 0.1695 cumulative IPC: 0.1752 (Simulation time: 00 hr 45 min 56 sec)
Heartbeat CPU 0 instructions: 112000681 cycles: 366218177 heartbeat IPC: 0.1708 cumulative IPC: 0.1752 (Simulation time: 00 hr 46 min 15 sec)
Heartbeat CPU 0 instructions: 112500685 cycles: 369175912 heartbeat IPC: 0.169 cumulative IPC: 0.1751 (Simulation time: 00 hr 46 min 35 sec)
Heartbeat CPU 0 instructions: 113000692 cycles: 372035018 heartbeat IPC: 0.1749 cumulative IPC: 0.1751 (Simulation time: 00 hr 46 min 55 sec)
Heartbeat CPU 0 instructions: 113500692 cycles: 375034279 heartbeat IPC: 0.1667 cumulative IPC: 0.1751 (Simulation time: 00 hr 47 min 15 sec)
Heartbeat CPU 0 instructions: 114000699 cycles: 377845797 heartbeat IPC: 0.1778 cumulative IPC: 0.1751 (Simulation time: 00 hr 47 min 34 sec)
Heartbeat CPU 0 instructions: 114500703 cycles: 380756961 heartbeat IPC: 0.1718 cumulative IPC: 0.1751 (Simulation time: 00 hr 47 min 53 sec)
Heartbeat CPU 0 instructions: 115000703 cycles: 383635695 heartbeat IPC: 0.1737 cumulative IPC: 0.175 (Simulation time: 00 hr 48 min 13 sec)
Heartbeat CPU 0 instructions: 115500706 cycles: 386530413 heartbeat IPC: 0.1727 cumulative IPC: 0.175 (Simulation time: 00 hr 48 min 32 sec)
Heartbeat CPU 0 instructions: 116000706 cycles: 389321786 heartbeat IPC: 0.1791 cumulative IPC: 0.1751 (Simulation time: 00 hr 48 min 52 sec)
Heartbeat CPU 0 instructions: 116500711 cycles: 391511285 heartbeat IPC: 0.2284 cumulative IPC: 0.1754 (Simulation time: 00 hr 49 min 08 sec)
Heartbeat CPU 0 instructions: 117000718 cycles: 393757359 heartbeat IPC: 0.2226 cumulative IPC: 0.1756 (Simulation time: 00 hr 49 min 25 sec)
Heartbeat CPU 0 instructions: 117500725 cycles: 396806911 heartbeat IPC: 0.164 cumulative IPC: 0.1755 (Simulation time: 00 hr 49 min 44 sec)
Heartbeat CPU 0 instructions: 118000727 cycles: 399838403 heartbeat IPC: 0.1649 cumulative IPC: 0.1755 (Simulation time: 00 hr 50 min 04 sec)
Heartbeat CPU 0 instructions: 118500728 cycles: 402768626 heartbeat IPC: 0.1706 cumulative IPC: 0.1754 (Simulation time: 00 hr 50 min 23 sec)
Heartbeat CPU 0 instructions: 119000733 cycles: 405716523 heartbeat IPC: 0.1696 cumulative IPC: 0.1754 (Simulation time: 00 hr 50 min 43 sec)
Heartbeat CPU 0 instructions: 119500739 cycles: 407564811 heartbeat IPC: 0.2705 cumulative IPC: 0.1758 (Simulation time: 00 hr 50 min 57 sec)
Heartbeat CPU 0 instructions: 120000742 cycles: 410099068 heartbeat IPC: 0.1973 cumulative IPC: 0.176 (Simulation time: 00 hr 51 min 16 sec)
Heartbeat CPU 0 instructions: 120500747 cycles: 413083351 heartbeat IPC: 0.1675 cumulative IPC: 0.1759 (Simulation time: 00 hr 51 min 35 sec)
Heartbeat CPU 0 instructions: 121000751 cycles: 415908228 heartbeat IPC: 0.177 cumulative IPC: 0.1759 (Simulation time: 00 hr 51 min 54 sec)
Heartbeat CPU 0 instructions: 121500751 cycles: 418832820 heartbeat IPC: 0.171 cumulative IPC: 0.1759 (Simulation time: 00 hr 52 min 14 sec)
Heartbeat CPU 0 instructions: 122000758 cycles: 421601296 heartbeat IPC: 0.1806 cumulative IPC: 0.1759 (Simulation time: 00 hr 52 min 34 sec)
Heartbeat CPU 0 instructions: 122500762 cycles: 424481988 heartbeat IPC: 0.1736 cumulative IPC: 0.1759 (Simulation time: 00 hr 52 min 54 sec)
Heartbeat CPU 0 instructions: 123000763 cycles: 427332385 heartbeat IPC: 0.1754 cumulative IPC: 0.1759 (Simulation time: 00 hr 53 min 13 sec)
Heartbeat CPU 0 instructions: 123500764 cycles: 430285199 heartbeat IPC: 0.1693 cumulative IPC: 0.1758 (Simulation time: 00 hr 53 min 33 sec)
Heartbeat CPU 0 instructions: 124000765 cycles: 433092054 heartbeat IPC: 0.1781 cumulative IPC: 0.1759 (Simulation time: 00 hr 53 min 53 sec)
Heartbeat CPU 0 instructions: 124500772 cycles: 436017314 heartbeat IPC: 0.1709 cumulative IPC: 0.1758 (Simulation time: 00 hr 54 min 12 sec)
Heartbeat CPU 0 instructions: 125000774 cycles: 438949963 heartbeat IPC: 0.1705 cumulative IPC: 0.1758 (Simulation time: 00 hr 54 min 31 sec)
Heartbeat CPU 0 instructions: 125500774 cycles: 441877339 heartbeat IPC: 0.1708 cumulative IPC: 0.1758 (Simulation time: 00 hr 54 min 51 sec)
Heartbeat CPU 0 instructions: 126000776 cycles: 444786790 heartbeat IPC: 0.1719 cumulative IPC: 0.1757 (Simulation time: 00 hr 55 min 10 sec)
Heartbeat CPU 0 instructions: 126500781 cycles: 447793107 heartbeat IPC: 0.1663 cumulative IPC: 0.1757 (Simulation time: 00 hr 55 min 30 sec)
Heartbeat CPU 0 instructions: 127000786 cycles: 450783729 heartbeat IPC: 0.1672 cumulative IPC: 0.1756 (Simulation time: 00 hr 55 min 49 sec)
Heartbeat CPU 0 instructions: 127500790 cycles: 453689015 heartbeat IPC: 0.1721 cumulative IPC: 0.1756 (Simulation time: 00 hr 56 min 09 sec)
Heartbeat CPU 0 instructions: 128000796 cycles: 456536573 heartbeat IPC: 0.1756 cumulative IPC: 0.1756 (Simulation time: 00 hr 56 min 29 sec)
Heartbeat CPU 0 instructions: 128500803 cycles: 459422913 heartbeat IPC: 0.1732 cumulative IPC: 0.1756 (Simulation time: 00 hr 56 min 48 sec)
Heartbeat CPU 0 instructions: 129000804 cycles: 462371769 heartbeat IPC: 0.1696 cumulative IPC: 0.1755 (Simulation time: 00 hr 57 min 07 sec)
Heartbeat CPU 0 instructions: 129500810 cycles: 465338676 heartbeat IPC: 0.1685 cumulative IPC: 0.1755 (Simulation time: 00 hr 57 min 26 sec)
Heartbeat CPU 0 instructions: 130000814 cycles: 468274907 heartbeat IPC: 0.1703 cumulative IPC: 0.1754 (Simulation time: 00 hr 57 min 45 sec)
Heartbeat CPU 0 instructions: 130500814 cycles: 471015615 heartbeat IPC: 0.1824 cumulative IPC: 0.1755 (Simulation time: 00 hr 58 min 03 sec)
Heartbeat CPU 0 instructions: 131000815 cycles: 472739524 heartbeat IPC: 0.29 cumulative IPC: 0.1759 (Simulation time: 00 hr 58 min 18 sec)
Heartbeat CPU 0 instructions: 131500817 cycles: 475694012 heartbeat IPC: 0.1692 cumulative IPC: 0.1759 (Simulation time: 00 hr 58 min 37 sec)
Heartbeat CPU 0 instructions: 132000819 cycles: 478635130 heartbeat IPC: 0.17 cumulative IPC: 0.1758 (Simulation time: 00 hr 58 min 56 sec)
Heartbeat CPU 0 instructions: 132500825 cycles: 481648715 heartbeat IPC: 0.1659 cumulative IPC: 0.1758 (Simulation time: 00 hr 59 min 16 sec)
Heartbeat CPU 0 instructions: 133000829 cycles: 484610240 heartbeat IPC: 0.1688 cumulative IPC: 0.1757 (Simulation time: 00 hr 59 min 35 sec)
Heartbeat CPU 0 instructions: 133500832 cycles: 487481110 heartbeat IPC: 0.1742 cumulative IPC: 0.1757 (Simulation time: 00 hr 59 min 55 sec)
Heartbeat CPU 0 instructions: 134000834 cycles: 490203025 heartbeat IPC: 0.1837 cumulative IPC: 0.1758 (Simulation time: 01 hr 00 min 15 sec)
Heartbeat CPU 0 instructions: 134500834 cycles: 493139331 heartbeat IPC: 0.1703 cumulative IPC: 0.1757 (Simulation time: 01 hr 00 min 34 sec)
Heartbeat CPU 0 instructions: 135000835 cycles: 496013377 heartbeat IPC: 0.174 cumulative IPC: 0.1757 (Simulation time: 01 hr 00 min 52 sec)
Heartbeat CPU 0 instructions: 135500836 cycles: 498942006 heartbeat IPC: 0.1707 cumulative IPC: 0.1757 (Simulation time: 01 hr 01 min 12 sec)
Heartbeat CPU 0 instructions: 136000837 cycles: 501856825 heartbeat IPC: 0.1715 cumulative IPC: 0.1757 (Simulation time: 01 hr 01 min 32 sec)
Heartbeat CPU 0 instructions: 136500839 cycles: 504763802 heartbeat IPC: 0.172 cumulative IPC: 0.1756 (Simulation time: 01 hr 01 min 52 sec)
Heartbeat CPU 0 instructions: 137000844 cycles: 507488375 heartbeat IPC: 0.1835 cumulative IPC: 0.1757 (Simulation time: 01 hr 02 min 12 sec)
Heartbeat CPU 0 instructions: 137500848 cycles: 509377615 heartbeat IPC: 0.2647 cumulative IPC: 0.176 (Simulation time: 01 hr 02 min 26 sec)
Heartbeat CPU 0 instructions: 138000848 cycles: 511947142 heartbeat IPC: 0.1946 cumulative IPC: 0.1761 (Simulation time: 01 hr 02 min 44 sec)
Heartbeat CPU 0 instructions: 138500854 cycles: 514962992 heartbeat IPC: 0.1658 cumulative IPC: 0.1761 (Simulation time: 01 hr 03 min 04 sec)
Heartbeat CPU 0 instructions: 139000854 cycles: 517824135 heartbeat IPC: 0.1748 cumulative IPC: 0.1761 (Simulation time: 01 hr 03 min 23 sec)
Heartbeat CPU 0 instructions: 139500854 cycles: 520736678 heartbeat IPC: 0.1717 cumulative IPC: 0.176 (Simulation time: 01 hr 03 min 42 sec)
Heartbeat CPU 0 instructions: 140000854 cycles: 523575707 heartbeat IPC: 0.1761 cumulative IPC: 0.176 (Simulation time: 01 hr 04 min 01 sec)
Heartbeat CPU 0 instructions: 140500854 cycles: 526519971 heartbeat IPC: 0.1698 cumulative IPC: 0.176 (Simulation time: 01 hr 04 min 20 sec)
Heartbeat CPU 0 instructions: 141000855 cycles: 529472622 heartbeat IPC: 0.1693 cumulative IPC: 0.176 (Simulation time: 01 hr 04 min 39 sec)
Heartbeat CPU 0 instructions: 141500857 cycles: 532428286 heartbeat IPC: 0.1692 cumulative IPC: 0.1759 (Simulation time: 01 hr 04 min 59 sec)
Heartbeat CPU 0 instructions: 142000860 cycles: 535382551 heartbeat IPC: 0.1692 cumulative IPC: 0.1759 (Simulation time: 01 hr 05 min 18 sec)
Heartbeat CPU 0 instructions: 142500860 cycles: 538315382 heartbeat IPC: 0.1705 cumulative IPC: 0.1758 (Simulation time: 01 hr 05 min 37 sec)
Heartbeat CPU 0 instructions: 143000862 cycles: 541153074 heartbeat IPC: 0.1762 cumulative IPC: 0.1759 (Simulation time: 01 hr 05 min 57 sec)
Heartbeat CPU 0 instructions: 143500869 cycles: 544006036 heartbeat IPC: 0.1753 cumulative IPC: 0.1758 (Simulation time: 01 hr 06 min 17 sec)
Heartbeat CPU 0 instructions: 144000876 cycles: 546988151 heartbeat IPC: 0.1677 cumulative IPC: 0.1758 (Simulation time: 01 hr 06 min 36 sec)
Heartbeat CPU 0 instructions: 144500877 cycles: 549946869 heartbeat IPC: 0.169 cumulative IPC: 0.1758 (Simulation time: 01 hr 06 min 55 sec)
Heartbeat CPU 0 instructions: 145000879 cycles: 552943985 heartbeat IPC: 0.1668 cumulative IPC: 0.1757 (Simulation time: 01 hr 07 min 15 sec)
Heartbeat CPU 0 instructions: 145500879 cycles: 555810317 heartbeat IPC: 0.1744 cumulative IPC: 0.1757 (Simulation time: 01 hr 07 min 34 sec)
Heartbeat CPU 0 instructions: 146000882 cycles: 558769542 heartbeat IPC: 0.169 cumulative IPC: 0.1757 (Simulation time: 01 hr 07 min 54 sec)
Heartbeat CPU 0 instructions: 146500886 cycles: 561716789 heartbeat IPC: 0.1697 cumulative IPC: 0.1756 (Simulation time: 01 hr 08 min 14 sec)
Heartbeat CPU 0 instructions: 147000890 cycles: 564683592 heartbeat IPC: 0.1685 cumulative IPC: 0.1756 (Simulation time: 01 hr 08 min 33 sec)
Heartbeat CPU 0 instructions: 147500896 cycles: 567550994 heartbeat IPC: 0.1744 cumulative IPC: 0.1756 (Simulation time: 01 hr 08 min 53 sec)
Heartbeat CPU 0 instructions: 148000896 cycles: 570518871 heartbeat IPC: 0.1685 cumulative IPC: 0.1756 (Simulation time: 01 hr 09 min 12 sec)
Heartbeat CPU 0 instructions: 148500899 cycles: 573416183 heartbeat IPC: 0.1726 cumulative IPC: 0.1755 (Simulation time: 01 hr 09 min 32 sec)
Heartbeat CPU 0 instructions: 149000903 cycles: 576297831 heartbeat IPC: 0.1735 cumulative IPC: 0.1755 (Simulation time: 01 hr 09 min 52 sec)
Heartbeat CPU 0 instructions: 149500903 cycles: 579165130 heartbeat IPC: 0.1744 cumulative IPC: 0.1755 (Simulation time: 01 hr 10 min 12 sec)
Heartbeat CPU 0 instructions: 150000904 cycles: 582044427 heartbeat IPC: 0.1737 cumulative IPC: 0.1755 (Simulation time: 01 hr 10 min 31 sec)
Heartbeat CPU 0 instructions: 150500904 cycles: 584865429 heartbeat IPC: 0.1772 cumulative IPC: 0.1755 (Simulation time: 01 hr 10 min 51 sec)
Heartbeat CPU 0 instructions: 151000908 cycles: 587779581 heartbeat IPC: 0.1716 cumulative IPC: 0.1755 (Simulation time: 01 hr 11 min 10 sec)
Heartbeat CPU 0 instructions: 151500908 cycles: 590681642 heartbeat IPC: 0.1723 cumulative IPC: 0.1755 (Simulation time: 01 hr 11 min 28 sec)
Heartbeat CPU 0 instructions: 152000910 cycles: 593491242 heartbeat IPC: 0.178 cumulative IPC: 0.1755 (Simulation time: 01 hr 11 min 48 sec)
Heartbeat CPU 0 instructions: 152500913 cycles: 595560779 heartbeat IPC: 0.2416 cumulative IPC: 0.1757 (Simulation time: 01 hr 12 min 03 sec)
Heartbeat CPU 0 instructions: 153000914 cycles: 597237096 heartbeat IPC: 0.2983 cumulative IPC: 0.1761 (Simulation time: 01 hr 12 min 17 sec)
Heartbeat CPU 0 instructions: 153500914 cycles: 599323411 heartbeat IPC: 0.2397 cumulative IPC: 0.1763 (Simulation time: 01 hr 12 min 34 sec)
Heartbeat CPU 0 instructions: 154000921 cycles: 602277295 heartbeat IPC: 0.1693 cumulative IPC: 0.1763 (Simulation time: 01 hr 12 min 53 sec)
Heartbeat CPU 0 instructions: 154500926 cycles: 605184443 heartbeat IPC: 0.172 cumulative IPC: 0.1763 (Simulation time: 01 hr 13 min 12 sec)
Heartbeat CPU 0 instructions: 155000933 cycles: 608128970 heartbeat IPC: 0.1698 cumulative IPC: 0.1762 (Simulation time: 01 hr 13 min 31 sec)
Heartbeat CPU 0 instructions: 155500938 cycles: 611086951 heartbeat IPC: 0.169 cumulative IPC: 0.1762 (Simulation time: 01 hr 13 min 51 sec)
Heartbeat CPU 0 instructions: 156000944 cycles: 613954858 heartbeat IPC: 0.1743 cumulative IPC: 0.1762 (Simulation time: 01 hr 14 min 10 sec)
Heartbeat CPU 0 instructions: 156500945 cycles: 616811282 heartbeat IPC: 0.175 cumulative IPC: 0.1762 (Simulation time: 01 hr 14 min 30 sec)
Heartbeat CPU 0 instructions: 157000945 cycles: 619805249 heartbeat IPC: 0.167 cumulative IPC: 0.1761 (Simulation time: 01 hr 14 min 49 sec)
Heartbeat CPU 0 instructions: 157500945 cycles: 622764676 heartbeat IPC: 0.169 cumulative IPC: 0.1761 (Simulation time: 01 hr 15 min 08 sec)
Heartbeat CPU 0 instructions: 158000947 cycles: 625785290 heartbeat IPC: 0.1655 cumulative IPC: 0.176 (Simulation time: 01 hr 15 min 27 sec)
Heartbeat CPU 0 instructions: 158500948 cycles: 628680785 heartbeat IPC: 0.1727 cumulative IPC: 0.176 (Simulation time: 01 hr 15 min 47 sec)
Heartbeat CPU 0 instructions: 159000953 cycles: 630530556 heartbeat IPC: 0.2703 cumulative IPC: 0.1763 (Simulation time: 01 hr 16 min 01 sec)
Heartbeat CPU 0 instructions: 159500953 cycles: 633076672 heartbeat IPC: 0.1964 cumulative IPC: 0.1764 (Simulation time: 01 hr 16 min 20 sec)
Heartbeat CPU 0 instructions: 160000953 cycles: 635888209 heartbeat IPC: 0.1778 cumulative IPC: 0.1764 (Simulation time: 01 hr 16 min 41 sec)
Heartbeat CPU 0 instructions: 160500954 cycles: 638860278 heartbeat IPC: 0.1682 cumulative IPC: 0.1764 (Simulation time: 01 hr 17 min 03 sec)
Heartbeat CPU 0 instructions: 161000954 cycles: 641727551 heartbeat IPC: 0.1744 cumulative IPC: 0.1763 (Simulation time: 01 hr 17 min 26 sec)
Heartbeat CPU 0 instructions: 161500960 cycles: 644028885 heartbeat IPC: 0.2173 cumulative IPC: 0.1765 (Simulation time: 01 hr 17 min 45 sec)
Heartbeat CPU 0 instructions: 162000960 cycles: 646159058 heartbeat IPC: 0.2347 cumulative IPC: 0.1767 (Simulation time: 01 hr 18 min 04 sec)
Heartbeat CPU 0 instructions: 162500961 cycles: 649096770 heartbeat IPC: 0.1702 cumulative IPC: 0.1767 (Simulation time: 01 hr 18 min 26 sec)
Heartbeat CPU 0 instructions: 163000968 cycles: 651807820 heartbeat IPC: 0.1844 cumulative IPC: 0.1767 (Simulation time: 01 hr 18 min 50 sec)
Heartbeat CPU 0 instructions: 163500972 cycles: 654597011 heartbeat IPC: 0.1793 cumulative IPC: 0.1767 (Simulation time: 01 hr 19 min 12 sec)
Heartbeat CPU 0 instructions: 164000972 cycles: 657508029 heartbeat IPC: 0.1718 cumulative IPC: 0.1767 (Simulation time: 01 hr 19 min 34 sec)
Heartbeat CPU 0 instructions: 164500978 cycles: 659850499 heartbeat IPC: 0.2135 cumulative IPC: 0.1768 (Simulation time: 01 hr 19 min 52 sec)
Heartbeat CPU 0 instructions: 165000982 cycles: 661897622 heartbeat IPC: 0.2442 cumulative IPC: 0.177 (Simulation time: 01 hr 20 min 10 sec)
Heartbeat CPU 0 instructions: 165500984 cycles: 664926724 heartbeat IPC: 0.1651 cumulative IPC: 0.177 (Simulation time: 01 hr 20 min 33 sec)
Heartbeat CPU 0 instructions: 166000991 cycles: 667853221 heartbeat IPC: 0.1709 cumulative IPC: 0.1769 (Simulation time: 01 hr 20 min 56 sec)
Heartbeat CPU 0 instructions: 166500993 cycles: 669593067 heartbeat IPC: 0.2874 cumulative IPC: 0.1772 (Simulation time: 01 hr 21 min 12 sec)
Heartbeat CPU 0 instructions: 167000999 cycles: 672192206 heartbeat IPC: 0.1924 cumulative IPC: 0.1773 (Simulation time: 01 hr 21 min 34 sec)
Heartbeat CPU 0 instructions: 167501000 cycles: 675121196 heartbeat IPC: 0.1707 cumulative IPC: 0.1773 (Simulation time: 01 hr 21 min 56 sec)
Heartbeat CPU 0 instructions: 168001006 cycles: 677968600 heartbeat IPC: 0.1756 cumulative IPC: 0.1773 (Simulation time: 01 hr 22 min 18 sec)
Heartbeat CPU 0 instructions: 168501010 cycles: 680558781 heartbeat IPC: 0.193 cumulative IPC: 0.1773 (Simulation time: 01 hr 22 min 38 sec)
Heartbeat CPU 0 instructions: 169001013 cycles: 682447538 heartbeat IPC: 0.2647 cumulative IPC: 0.1776 (Simulation time: 01 hr 22 min 55 sec)
Heartbeat CPU 0 instructions: 169501013 cycles: 685442695 heartbeat IPC: 0.1669 cumulative IPC: 0.1775 (Simulation time: 01 hr 23 min 19 sec)
Heartbeat CPU 0 instructions: 170001014 cycles: 688426032 heartbeat IPC: 0.1676 cumulative IPC: 0.1775 (Simulation time: 01 hr 23 min 41 sec)
Heartbeat CPU 0 instructions: 170501021 cycles: 691295737 heartbeat IPC: 0.1742 cumulative IPC: 0.1775 (Simulation time: 01 hr 24 min 04 sec)
Heartbeat CPU 0 instructions: 171001022 cycles: 693682310 heartbeat IPC: 0.2095 cumulative IPC: 0.1776 (Simulation time: 01 hr 24 min 24 sec)
Heartbeat CPU 0 instructions: 171501022 cycles: 695741008 heartbeat IPC: 0.2429 cumulative IPC: 0.1778 (Simulation time: 01 hr 24 min 42 sec)
Heartbeat CPU 0 instructions: 172001025 cycles: 698670620 heartbeat IPC: 0.1707 cumulative IPC: 0.1777 (Simulation time: 01 hr 25 min 05 sec)
Heartbeat CPU 0 instructions: 172501026 cycles: 701699345 heartbeat IPC: 0.1651 cumulative IPC: 0.1777 (Simulation time: 01 hr 25 min 27 sec)
Heartbeat CPU 0 instructions: 173001027 cycles: 704516410 heartbeat IPC: 0.1775 cumulative IPC: 0.1777 (Simulation time: 01 hr 25 min 49 sec)
Heartbeat CPU 0 instructions: 173501028 cycles: 707414307 heartbeat IPC: 0.1725 cumulative IPC: 0.1777 (Simulation time: 01 hr 26 min 12 sec)
Heartbeat CPU 0 instructions: 174001035 cycles: 710369920 heartbeat IPC: 0.1692 cumulative IPC: 0.1776 (Simulation time: 01 hr 26 min 34 sec)
Heartbeat CPU 0 instructions: 174501037 cycles: 713309561 heartbeat IPC: 0.1701 cumulative IPC: 0.1776 (Simulation time: 01 hr 26 min 56 sec)
Heartbeat CPU 0 instructions: 175001037 cycles: 716157584 heartbeat IPC: 0.1756 cumulative IPC: 0.1776 (Simulation time: 01 hr 27 min 19 sec)
Heartbeat CPU 0 instructions: 175501038 cycles: 718996308 heartbeat IPC: 0.1761 cumulative IPC: 0.1776 (Simulation time: 01 hr 27 min 41 sec)
Heartbeat CPU 0 instructions: 176001041 cycles: 721934710 heartbeat IPC: 0.1702 cumulative IPC: 0.1776 (Simulation time: 01 hr 28 min 03 sec)
Heartbeat CPU 0 instructions: 176501043 cycles: 724836146 heartbeat IPC: 0.1723 cumulative IPC: 0.1775 (Simulation time: 01 hr 28 min 25 sec)
Heartbeat CPU 0 instructions: 177001047 cycles: 727673602 heartbeat IPC: 0.1762 cumulative IPC: 0.1775 (Simulation time: 01 hr 28 min 49 sec)
Heartbeat CPU 0 instructions: 177501048 cycles: 730574973 heartbeat IPC: 0.1723 cumulative IPC: 0.1775 (Simulation time: 01 hr 29 min 10 sec)
Heartbeat CPU 0 instructions: 178001048 cycles: 733357055 heartbeat IPC: 0.1797 cumulative IPC: 0.1775 (Simulation time: 01 hr 29 min 34 sec)
Heartbeat CPU 0 instructions: 178501049 cycles: 736277060 heartbeat IPC: 0.1712 cumulative IPC: 0.1775 (Simulation time: 01 hr 29 min 55 sec)
Heartbeat CPU 0 instructions: 179001051 cycles: 739137902 heartbeat IPC: 0.1748 cumulative IPC: 0.1775 (Simulation time: 01 hr 30 min 18 sec)
Heartbeat CPU 0 instructions: 179501055 cycles: 742110688 heartbeat IPC: 0.1682 cumulative IPC: 0.1774 (Simulation time: 01 hr 30 min 41 sec)
Heartbeat CPU 0 instructions: 180001055 cycles: 745047890 heartbeat IPC: 0.1702 cumulative IPC: 0.1774 (Simulation time: 01 hr 31 min 03 sec)
Heartbeat CPU 0 instructions: 180501057 cycles: 747781630 heartbeat IPC: 0.1829 cumulative IPC: 0.1774 (Simulation time: 01 hr 31 min 26 sec)
Heartbeat CPU 0 instructions: 181001059 cycles: 750754050 heartbeat IPC: 0.1682 cumulative IPC: 0.1774 (Simulation time: 01 hr 31 min 48 sec)
Heartbeat CPU 0 instructions: 181501063 cycles: 753616732 heartbeat IPC: 0.1747 cumulative IPC: 0.1774 (Simulation time: 01 hr 32 min 11 sec)
Heartbeat CPU 0 instructions: 182001069 cycles: 756589953 heartbeat IPC: 0.1682 cumulative IPC: 0.1773 (Simulation time: 01 hr 32 min 33 sec)
Heartbeat CPU 0 instructions: 182501069 cycles: 759453962 heartbeat IPC: 0.1746 cumulative IPC: 0.1773 (Simulation time: 01 hr 32 min 56 sec)
Heartbeat CPU 0 instructions: 183001069 cycles: 762199990 heartbeat IPC: 0.1821 cumulative IPC: 0.1774 (Simulation time: 01 hr 33 min 20 sec)
Heartbeat CPU 0 instructions: 183501069 cycles: 765045520 heartbeat IPC: 0.1757 cumulative IPC: 0.1773 (Simulation time: 01 hr 33 min 42 sec)
Heartbeat CPU 0 instructions: 184001069 cycles: 767863840 heartbeat IPC: 0.1774 cumulative IPC: 0.1773 (Simulation time: 01 hr 34 min 05 sec)
Heartbeat CPU 0 instructions: 184501074 cycles: 770751781 heartbeat IPC: 0.1731 cumulative IPC: 0.1773 (Simulation time: 01 hr 34 min 28 sec)
Heartbeat CPU 0 instructions: 185001076 cycles: 773544990 heartbeat IPC: 0.179 cumulative IPC: 0.1773 (Simulation time: 01 hr 34 min 51 sec)
Heartbeat CPU 0 instructions: 185501080 cycles: 776440739 heartbeat IPC: 0.1727 cumulative IPC: 0.1773 (Simulation time: 01 hr 35 min 12 sec)
Heartbeat CPU 0 instructions: 186001086 cycles: 778218729 heartbeat IPC: 0.2812 cumulative IPC: 0.1776 (Simulation time: 01 hr 35 min 28 sec)
Heartbeat CPU 0 instructions: 186501087 cycles: 778930584 heartbeat IPC: 0.7024 cumulative IPC: 0.1781 (Simulation time: 01 hr 35 min 35 sec)
Heartbeat CPU 0 instructions: 187001091 cycles: 779791062 heartbeat IPC: 0.5811 cumulative IPC: 0.1785 (Simulation time: 01 hr 35 min 45 sec)
Heartbeat CPU 0 instructions: 187501091 cycles: 782684857 heartbeat IPC: 0.1728 cumulative IPC: 0.1785 (Simulation time: 01 hr 36 min 07 sec)
Heartbeat CPU 0 instructions: 188001096 cycles: 785701601 heartbeat IPC: 0.1657 cumulative IPC: 0.1784 (Simulation time: 01 hr 36 min 30 sec)
Heartbeat CPU 0 instructions: 188501097 cycles: 788726539 heartbeat IPC: 0.1653 cumulative IPC: 0.1784 (Simulation time: 01 hr 36 min 52 sec)
Heartbeat CPU 0 instructions: 189001099 cycles: 791711152 heartbeat IPC: 0.1675 cumulative IPC: 0.1783 (Simulation time: 01 hr 37 min 14 sec)
Heartbeat CPU 0 instructions: 189501099 cycles: 794774933 heartbeat IPC: 0.1632 cumulative IPC: 0.1783 (Simulation time: 01 hr 37 min 36 sec)
Heartbeat CPU 0 instructions: 190001105 cycles: 797732541 heartbeat IPC: 0.1691 cumulative IPC: 0.1782 (Simulation time: 01 hr 37 min 57 sec)
Heartbeat CPU 0 instructions: 190501107 cycles: 800706322 heartbeat IPC: 0.1681 cumulative IPC: 0.1782 (Simulation time: 01 hr 38 min 18 sec)
Heartbeat CPU 0 instructions: 191001114 cycles: 803691319 heartbeat IPC: 0.1675 cumulative IPC: 0.1782 (Simulation time: 01 hr 38 min 39 sec)
Heartbeat CPU 0 instructions: 191501121 cycles: 806747379 heartbeat IPC: 0.1636 cumulative IPC: 0.1781 (Simulation time: 01 hr 39 min 02 sec)
Heartbeat CPU 0 instructions: 192001128 cycles: 809688040 heartbeat IPC: 0.17 cumulative IPC: 0.1781 (Simulation time: 01 hr 39 min 22 sec)
Heartbeat CPU 0 instructions: 192501129 cycles: 812680157 heartbeat IPC: 0.1671 cumulative IPC: 0.178 (Simulation time: 01 hr 39 min 44 sec)
Heartbeat CPU 0 instructions: 193001134 cycles: 815636096 heartbeat IPC: 0.1692 cumulative IPC: 0.178 (Simulation time: 01 hr 40 min 05 sec)
Heartbeat CPU 0 instructions: 193501136 cycles: 818594917 heartbeat IPC: 0.169 cumulative IPC: 0.178 (Simulation time: 01 hr 40 min 26 sec)
Heartbeat CPU 0 instructions: 194001142 cycles: 821592080 heartbeat IPC: 0.1668 cumulative IPC: 0.1779 (Simulation time: 01 hr 40 min 47 sec)
Heartbeat CPU 0 instructions: 194501142 cycles: 824517420 heartbeat IPC: 0.1709 cumulative IPC: 0.1779 (Simulation time: 01 hr 41 min 08 sec)
Heartbeat CPU 0 instructions: 195001146 cycles: 827490612 heartbeat IPC: 0.1682 cumulative IPC: 0.1779 (Simulation time: 01 hr 41 min 29 sec)
Heartbeat CPU 0 instructions: 195501146 cycles: 830431657 heartbeat IPC: 0.17 cumulative IPC: 0.1778 (Simulation time: 01 hr 41 min 50 sec)
Heartbeat CPU 0 instructions: 196001146 cycles: 833360834 heartbeat IPC: 0.1707 cumulative IPC: 0.1778 (Simulation time: 01 hr 42 min 10 sec)
Heartbeat CPU 0 instructions: 196501148 cycles: 836274722 heartbeat IPC: 0.1716 cumulative IPC: 0.1778 (Simulation time: 01 hr 42 min 30 sec)
Heartbeat CPU 0 instructions: 197001148 cycles: 839279358 heartbeat IPC: 0.1664 cumulative IPC: 0.1778 (Simulation time: 01 hr 42 min 51 sec)
Heartbeat CPU 0 instructions: 197501152 cycles: 842176024 heartbeat IPC: 0.1726 cumulative IPC: 0.1777 (Simulation time: 01 hr 43 min 11 sec)
Heartbeat CPU 0 instructions: 198001157 cycles: 845080473 heartbeat IPC: 0.1722 cumulative IPC: 0.1777 (Simulation time: 01 hr 43 min 31 sec)
Heartbeat CPU 0 instructions: 198501160 cycles: 848018703 heartbeat IPC: 0.1702 cumulative IPC: 0.1777 (Simulation time: 01 hr 43 min 52 sec)
Heartbeat CPU 0 instructions: 199001160 cycles: 851016507 heartbeat IPC: 0.1668 cumulative IPC: 0.1777 (Simulation time: 01 hr 44 min 12 sec)
Heartbeat CPU 0 instructions: 199501162 cycles: 853905613 heartbeat IPC: 0.1731 cumulative IPC: 0.1776 (Simulation time: 01 hr 44 min 32 sec)
Heartbeat CPU 0 instructions: 200001167 cycles: 856811308 heartbeat IPC: 0.1721 cumulative IPC: 0.1776 (Simulation time: 01 hr 44 min 51 sec)
Heartbeat CPU 0 instructions: 200501172 cycles: 859730476 heartbeat IPC: 0.1713 cumulative IPC: 0.1776 (Simulation time: 01 hr 45 min 11 sec)
Heartbeat CPU 0 instructions: 201001179 cycles: 862640989 heartbeat IPC: 0.1718 cumulative IPC: 0.1776 (Simulation time: 01 hr 45 min 31 sec)
Heartbeat CPU 0 instructions: 201501182 cycles: 865561069 heartbeat IPC: 0.1712 cumulative IPC: 0.1776 (Simulation time: 01 hr 45 min 50 sec)
Heartbeat CPU 0 instructions: 202001182 cycles: 868534332 heartbeat IPC: 0.1682 cumulative IPC: 0.1775 (Simulation time: 01 hr 46 min 10 sec)
Heartbeat CPU 0 instructions: 202501182 cycles: 871468056 heartbeat IPC: 0.1704 cumulative IPC: 0.1775 (Simulation time: 01 hr 46 min 30 sec)
Heartbeat CPU 0 instructions: 203001185 cycles: 874373816 heartbeat IPC: 0.1721 cumulative IPC: 0.1775 (Simulation time: 01 hr 46 min 49 sec)
Heartbeat CPU 0 instructions: 203501192 cycles: 877297426 heartbeat IPC: 0.171 cumulative IPC: 0.1775 (Simulation time: 01 hr 47 min 08 sec)
Heartbeat CPU 0 instructions: 204001198 cycles: 880250348 heartbeat IPC: 0.1693 cumulative IPC: 0.1774 (Simulation time: 01 hr 47 min 27 sec)
Heartbeat CPU 0 instructions: 204501198 cycles: 883198296 heartbeat IPC: 0.1696 cumulative IPC: 0.1774 (Simulation time: 01 hr 47 min 46 sec)
Heartbeat CPU 0 instructions: 205001205 cycles: 886064047 heartbeat IPC: 0.1745 cumulative IPC: 0.1774 (Simulation time: 01 hr 48 min 04 sec)
Heartbeat CPU 0 instructions: 205501205 cycles: 889007666 heartbeat IPC: 0.1699 cumulative IPC: 0.1774 (Simulation time: 01 hr 48 min 23 sec)
Heartbeat CPU 0 instructions: 206001206 cycles: 891917818 heartbeat IPC: 0.1718 cumulative IPC: 0.1773 (Simulation time: 01 hr 48 min 42 sec)
Heartbeat CPU 0 instructions: 206501213 cycles: 894797429 heartbeat IPC: 0.1736 cumulative IPC: 0.1773 (Simulation time: 01 hr 49 min 00 sec)
Heartbeat CPU 0 instructions: 207001220 cycles: 897682967 heartbeat IPC: 0.1733 cumulative IPC: 0.1773 (Simulation time: 01 hr 49 min 19 sec)
Heartbeat CPU 0 instructions: 207501221 cycles: 900633488 heartbeat IPC: 0.1695 cumulative IPC: 0.1773 (Simulation time: 01 hr 49 min 38 sec)
Heartbeat CPU 0 instructions: 208001224 cycles: 903535134 heartbeat IPC: 0.1723 cumulative IPC: 0.1773 (Simulation time: 01 hr 49 min 56 sec)
Heartbeat CPU 0 instructions: 208501225 cycles: 906398499 heartbeat IPC: 0.1746 cumulative IPC: 0.1773 (Simulation time: 01 hr 50 min 16 sec)
Heartbeat CPU 0 instructions: 209001226 cycles: 909377219 heartbeat IPC: 0.1679 cumulative IPC: 0.1772 (Simulation time: 01 hr 50 min 35 sec)
Heartbeat CPU 0 instructions: 209501230 cycles: 912281241 heartbeat IPC: 0.1722 cumulative IPC: 0.1772 (Simulation time: 01 hr 50 min 53 sec)
Heartbeat CPU 0 instructions: 210001236 cycles: 915166636 heartbeat IPC: 0.1733 cumulative IPC: 0.1772 (Simulation time: 01 hr 51 min 11 sec)
Heartbeat CPU 0 instructions: 210501238 cycles: 918076680 heartbeat IPC: 0.1718 cumulative IPC: 0.1772 (Simulation time: 01 hr 51 min 30 sec)
Heartbeat CPU 0 instructions: 211001238 cycles: 921001116 heartbeat IPC: 0.171 cumulative IPC: 0.1772 (Simulation time: 01 hr 51 min 49 sec)
Heartbeat CPU 0 instructions: 211501239 cycles: 923886999 heartbeat IPC: 0.1733 cumulative IPC: 0.1772 (Simulation time: 01 hr 52 min 07 sec)
Heartbeat CPU 0 instructions: 212001244 cycles: 926817159 heartbeat IPC: 0.1706 cumulative IPC: 0.1771 (Simulation time: 01 hr 52 min 26 sec)
Heartbeat CPU 0 instructions: 212501249 cycles: 929717627 heartbeat IPC: 0.1724 cumulative IPC: 0.1771 (Simulation time: 01 hr 52 min 44 sec)
Heartbeat CPU 0 instructions: 213001249 cycles: 932600917 heartbeat IPC: 0.1734 cumulative IPC: 0.1771 (Simulation time: 01 hr 53 min 03 sec)
Heartbeat CPU 0 instructions: 213501252 cycles: 935514972 heartbeat IPC: 0.1716 cumulative IPC: 0.1771 (Simulation time: 01 hr 53 min 21 sec)
Heartbeat CPU 0 instructions: 214001258 cycles: 938389652 heartbeat IPC: 0.1739 cumulative IPC: 0.1771 (Simulation time: 01 hr 53 min 40 sec)
Heartbeat CPU 0 instructions: 214501258 cycles: 941346252 heartbeat IPC: 0.1691 cumulative IPC: 0.1771 (Simulation time: 01 hr 53 min 58 sec)
Heartbeat CPU 0 instructions: 215001260 cycles: 944308290 heartbeat IPC: 0.1688 cumulative IPC: 0.177 (Simulation time: 01 hr 54 min 18 sec)
Heartbeat CPU 0 instructions: 215501260 cycles: 947354666 heartbeat IPC: 0.1641 cumulative IPC: 0.177 (Simulation time: 01 hr 54 min 38 sec)
Heartbeat CPU 0 instructions: 216001260 cycles: 950244836 heartbeat IPC: 0.173 cumulative IPC: 0.177 (Simulation time: 01 hr 54 min 56 sec)
Heartbeat CPU 0 instructions: 216501260 cycles: 953178285 heartbeat IPC: 0.1704 cumulative IPC: 0.177 (Simulation time: 01 hr 55 min 15 sec)
Heartbeat CPU 0 instructions: 217001267 cycles: 956132337 heartbeat IPC: 0.1693 cumulative IPC: 0.1769 (Simulation time: 01 hr 55 min 34 sec)
Heartbeat CPU 0 instructions: 217501267 cycles: 959069764 heartbeat IPC: 0.1702 cumulative IPC: 0.1769 (Simulation time: 01 hr 55 min 53 sec)
Heartbeat CPU 0 instructions: 218001272 cycles: 961931273 heartbeat IPC: 0.1747 cumulative IPC: 0.1769 (Simulation time: 01 hr 56 min 12 sec)
Heartbeat CPU 0 instructions: 218501274 cycles: 964831465 heartbeat IPC: 0.1724 cumulative IPC: 0.1769 (Simulation time: 01 hr 56 min 30 sec)
Heartbeat CPU 0 instructions: 219001277 cycles: 967773337 heartbeat IPC: 0.17 cumulative IPC: 0.1769 (Simulation time: 01 hr 56 min 49 sec)
Heartbeat CPU 0 instructions: 219501284 cycles: 970685115 heartbeat IPC: 0.1717 cumulative IPC: 0.1769 (Simulation time: 01 hr 57 min 08 sec)
Heartbeat CPU 0 instructions: 220001284 cycles: 973575810 heartbeat IPC: 0.173 cumulative IPC: 0.1768 (Simulation time: 01 hr 57 min 26 sec)
Heartbeat CPU 0 instructions: 220501287 cycles: 976486735 heartbeat IPC: 0.1718 cumulative IPC: 0.1768 (Simulation time: 01 hr 57 min 45 sec)
Heartbeat CPU 0 instructions: 221001288 cycles: 979412454 heartbeat IPC: 0.1709 cumulative IPC: 0.1768 (Simulation time: 01 hr 58 min 03 sec)
Heartbeat CPU 0 instructions: 221501291 cycles: 982325667 heartbeat IPC: 0.1716 cumulative IPC: 0.1768 (Simulation time: 01 hr 58 min 22 sec)
Heartbeat CPU 0 instructions: 222001292 cycles: 985244047 heartbeat IPC: 0.1713 cumulative IPC: 0.1768 (Simulation time: 01 hr 58 min 40 sec)
Heartbeat CPU 0 instructions: 222501292 cycles: 988150211 heartbeat IPC: 0.172 cumulative IPC: 0.1768 (Simulation time: 01 hr 58 min 59 sec)
Heartbeat CPU 0 instructions: 223001299 cycles: 991045332 heartbeat IPC: 0.1727 cumulative IPC: 0.1768 (Simulation time: 01 hr 59 min 17 sec)
Heartbeat CPU 0 instructions: 223501299 cycles: 993902925 heartbeat IPC: 0.175 cumulative IPC: 0.1768 (Simulation time: 01 hr 59 min 35 sec)
Heartbeat CPU 0 instructions: 224001299 cycles: 996825615 heartbeat IPC: 0.1711 cumulative IPC: 0.1767 (Simulation time: 01 hr 59 min 54 sec)
Heartbeat CPU 0 instructions: 224501304 cycles: 999752369 heartbeat IPC: 0.1708 cumulative IPC: 0.1767 (Simulation time: 02 hr 00 min 12 sec)
Heartbeat CPU 0 instructions: 225001304 cycles: 1002670023 heartbeat IPC: 0.1714 cumulative IPC: 0.1767 (Simulation time: 02 hr 00 min 31 sec)
Heartbeat CPU 0 instructions: 225501304 cycles: 1005640111 heartbeat IPC: 0.1683 cumulative IPC: 0.1767 (Simulation time: 02 hr 00 min 50 sec)
Heartbeat CPU 0 instructions: 226001306 cycles: 1008654528 heartbeat IPC: 0.1659 cumulative IPC: 0.1766 (Simulation time: 02 hr 01 min 09 sec)
Heartbeat CPU 0 instructions: 226501312 cycles: 1011563273 heartbeat IPC: 0.1719 cumulative IPC: 0.1766 (Simulation time: 02 hr 01 min 28 sec)
Heartbeat CPU 0 instructions: 227001317 cycles: 1014500518 heartbeat IPC: 0.1702 cumulative IPC: 0.1766 (Simulation time: 02 hr 01 min 46 sec)
Heartbeat CPU 0 instructions: 227501318 cycles: 1017402873 heartbeat IPC: 0.1723 cumulative IPC: 0.1766 (Simulation time: 02 hr 02 min 05 sec)
Heartbeat CPU 0 instructions: 228001318 cycles: 1020309619 heartbeat IPC: 0.172 cumulative IPC: 0.1766 (Simulation time: 02 hr 02 min 23 sec)
Heartbeat CPU 0 instructions: 228501325 cycles: 1023248542 heartbeat IPC: 0.1701 cumulative IPC: 0.1766 (Simulation time: 02 hr 02 min 42 sec)
Heartbeat CPU 0 instructions: 229001325 cycles: 1026180459 heartbeat IPC: 0.1705 cumulative IPC: 0.1765 (Simulation time: 02 hr 03 min 00 sec)
Heartbeat CPU 0 instructions: 229501332 cycles: 1029128631 heartbeat IPC: 0.1696 cumulative IPC: 0.1765 (Simulation time: 02 hr 03 min 19 sec)
Heartbeat CPU 0 instructions: 230001335 cycles: 1032024821 heartbeat IPC: 0.1726 cumulative IPC: 0.1765 (Simulation time: 02 hr 03 min 37 sec)
Heartbeat CPU 0 instructions: 230501340 cycles: 1034942618 heartbeat IPC: 0.1714 cumulative IPC: 0.1765 (Simulation time: 02 hr 03 min 56 sec)
Heartbeat CPU 0 instructions: 231001344 cycles: 1037866125 heartbeat IPC: 0.171 cumulative IPC: 0.1765 (Simulation time: 02 hr 04 min 14 sec)
Heartbeat CPU 0 instructions: 231501346 cycles: 1040805324 heartbeat IPC: 0.1701 cumulative IPC: 0.1765 (Simulation time: 02 hr 04 min 33 sec)
Heartbeat CPU 0 instructions: 232001346 cycles: 1043745317 heartbeat IPC: 0.1701 cumulative IPC: 0.1765 (Simulation time: 02 hr 04 min 52 sec)
Heartbeat CPU 0 instructions: 232501348 cycles: 1046639047 heartbeat IPC: 0.1728 cumulative IPC: 0.1764 (Simulation time: 02 hr 05 min 10 sec)
Heartbeat CPU 0 instructions: 233001348 cycles: 1049496492 heartbeat IPC: 0.175 cumulative IPC: 0.1764 (Simulation time: 02 hr 05 min 28 sec)
Heartbeat CPU 0 instructions: 233501353 cycles: 1052451153 heartbeat IPC: 0.1692 cumulative IPC: 0.1764 (Simulation time: 02 hr 05 min 47 sec)
Heartbeat CPU 0 instructions: 234001354 cycles: 1055449600 heartbeat IPC: 0.1668 cumulative IPC: 0.1764 (Simulation time: 02 hr 06 min 06 sec)
Heartbeat CPU 0 instructions: 234501354 cycles: 1058382408 heartbeat IPC: 0.1705 cumulative IPC: 0.1764 (Simulation time: 02 hr 06 min 25 sec)
Heartbeat CPU 0 instructions: 235001358 cycles: 1061291288 heartbeat IPC: 0.1719 cumulative IPC: 0.1764 (Simulation time: 02 hr 06 min 43 sec)
Heartbeat CPU 0 instructions: 235501362 cycles: 1064247841 heartbeat IPC: 0.1691 cumulative IPC: 0.1763 (Simulation time: 02 hr 07 min 02 sec)
Heartbeat CPU 0 instructions: 236001367 cycles: 1067187275 heartbeat IPC: 0.1701 cumulative IPC: 0.1763 (Simulation time: 02 hr 07 min 21 sec)
Heartbeat CPU 0 instructions: 236501374 cycles: 1070151701 heartbeat IPC: 0.1687 cumulative IPC: 0.1763 (Simulation time: 02 hr 07 min 40 sec)
Heartbeat CPU 0 instructions: 237001374 cycles: 1073060486 heartbeat IPC: 0.1719 cumulative IPC: 0.1763 (Simulation time: 02 hr 07 min 58 sec)
Heartbeat CPU 0 instructions: 237501379 cycles: 1075990425 heartbeat IPC: 0.1707 cumulative IPC: 0.1763 (Simulation time: 02 hr 08 min 16 sec)
Heartbeat CPU 0 instructions: 238001379 cycles: 1078942394 heartbeat IPC: 0.1694 cumulative IPC: 0.1763 (Simulation time: 02 hr 08 min 35 sec)
Heartbeat CPU 0 instructions: 238501384 cycles: 1081882985 heartbeat IPC: 0.17 cumulative IPC: 0.1762 (Simulation time: 02 hr 08 min 54 sec)
Heartbeat CPU 0 instructions: 239001389 cycles: 1084808185 heartbeat IPC: 0.1709 cumulative IPC: 0.1762 (Simulation time: 02 hr 09 min 12 sec)
Heartbeat CPU 0 instructions: 239501393 cycles: 1087724695 heartbeat IPC: 0.1714 cumulative IPC: 0.1762 (Simulation time: 02 hr 09 min 31 sec)
Heartbeat CPU 0 instructions: 240001398 cycles: 1090677453 heartbeat IPC: 0.1693 cumulative IPC: 0.1762 (Simulation time: 02 hr 09 min 50 sec)
Heartbeat CPU 0 instructions: 240501405 cycles: 1093595418 heartbeat IPC: 0.1714 cumulative IPC: 0.1762 (Simulation time: 02 hr 10 min 08 sec)
Heartbeat CPU 0 instructions: 241001410 cycles: 1096481758 heartbeat IPC: 0.1732 cumulative IPC: 0.1762 (Simulation time: 02 hr 10 min 26 sec)
Heartbeat CPU 0 instructions: 241501412 cycles: 1099357952 heartbeat IPC: 0.1738 cumulative IPC: 0.1762 (Simulation time: 02 hr 10 min 44 sec)
Heartbeat CPU 0 instructions: 242001418 cycles: 1102232839 heartbeat IPC: 0.1739 cumulative IPC: 0.1762 (Simulation time: 02 hr 11 min 03 sec)
Heartbeat CPU 0 instructions: 242501422 cycles: 1105102407 heartbeat IPC: 0.1742 cumulative IPC: 0.1762 (Simulation time: 02 hr 11 min 20 sec)
Heartbeat CPU 0 instructions: 243001425 cycles: 1108046176 heartbeat IPC: 0.1699 cumulative IPC: 0.1761 (Simulation time: 02 hr 11 min 39 sec)
Heartbeat CPU 0 instructions: 243501425 cycles: 1110944068 heartbeat IPC: 0.1725 cumulative IPC: 0.1761 (Simulation time: 02 hr 11 min 58 sec)
Heartbeat CPU 0 instructions: 244001428 cycles: 1113854691 heartbeat IPC: 0.1718 cumulative IPC: 0.1761 (Simulation time: 02 hr 12 min 16 sec)
Heartbeat CPU 0 instructions: 244501430 cycles: 1116778675 heartbeat IPC: 0.171 cumulative IPC: 0.1761 (Simulation time: 02 hr 12 min 35 sec)
Heartbeat CPU 0 instructions: 245001435 cycles: 1119671038 heartbeat IPC: 0.1729 cumulative IPC: 0.1761 (Simulation time: 02 hr 12 min 53 sec)
Heartbeat CPU 0 instructions: 245501438 cycles: 1122533692 heartbeat IPC: 0.1747 cumulative IPC: 0.1761 (Simulation time: 02 hr 13 min 11 sec)
Heartbeat CPU 0 instructions: 246001438 cycles: 1125403223 heartbeat IPC: 0.1742 cumulative IPC: 0.1761 (Simulation time: 02 hr 13 min 29 sec)
Heartbeat CPU 0 instructions: 246501438 cycles: 1128308920 heartbeat IPC: 0.1721 cumulative IPC: 0.1761 (Simulation time: 02 hr 13 min 48 sec)
Heartbeat CPU 0 instructions: 247001444 cycles: 1131245353 heartbeat IPC: 0.1703 cumulative IPC: 0.1761 (Simulation time: 02 hr 14 min 06 sec)
Heartbeat CPU 0 instructions: 247501445 cycles: 1134170776 heartbeat IPC: 0.1709 cumulative IPC: 0.176 (Simulation time: 02 hr 14 min 25 sec)
Heartbeat CPU 0 instructions: 248001447 cycles: 1137034692 heartbeat IPC: 0.1746 cumulative IPC: 0.176 (Simulation time: 02 hr 14 min 43 sec)
Heartbeat CPU 0 instructions: 248501449 cycles: 1139902285 heartbeat IPC: 0.1744 cumulative IPC: 0.176 (Simulation time: 02 hr 15 min 01 sec)
Heartbeat CPU 0 instructions: 249001455 cycles: 1142854984 heartbeat IPC: 0.1693 cumulative IPC: 0.176 (Simulation time: 02 hr 15 min 19 sec)
Heartbeat CPU 0 instructions: 249501456 cycles: 1145753889 heartbeat IPC: 0.1725 cumulative IPC: 0.176 (Simulation time: 02 hr 15 min 38 sec)
Simulation finished CPU 0 instructions: 200000007 cycles: 1136329589 cumulative IPC: 0.176 (Simulation time: 02 hr 15 min 56 sec)
Simulation complete CPU 0 instructions: 200000007 cycles: 1136329589 cumulative IPC: 0.176 (Simulation time: 02 hr 15 min 56 sec)

ChampSim completed all CPUs

=== Simulation ===
CPU 0 runs /local-ssd/ben/dpc4-traces/Graph/GAP/bc-12.trace.gz

Region of Interest Statistics

CPU 0 cumulative IPC: 0.176 instructions: 200000007 cycles: 1136329589
CPU 0 Branch Prediction Accuracy: 84.19% MPKI: 27.85 Average ROB Occupancy at Mispredict: 39.92
Branch type MPKI
BRANCH_DIRECT_JUMP: 0
BRANCH_INDIRECT: 0
BRANCH_CONDITIONAL: 27.85
BRANCH_DIRECT_CALL: 0
BRANCH_INDIRECT_CALL: 0
BRANCH_RETURN: 0

cpu0->cpu0_STLB TOTAL        ACCESS:   10579224 HIT:    5908771 MISS:    4670453 MSHR_MERGE:          0
cpu0->cpu0_STLB LOAD         ACCESS:   10579224 HIT:    5908771 MISS:    4670453 MSHR_MERGE:          0
cpu0->cpu0_STLB RFO          ACCESS:          0 HIT:          0 MISS:          0 MSHR_MERGE:          0
cpu0->cpu0_STLB PREFETCH     ACCESS:          0 HIT:          0 MISS:          0 MSHR_MERGE:          0
cpu0->cpu0_STLB WRITE        ACCESS:          0 HIT:          0 MISS:          0 MSHR_MERGE:          0
cpu0->cpu0_STLB TRANSLATION  ACCESS:          0 HIT:          0 MISS:          0 MSHR_MERGE:          0
cpu0->cpu0_STLB PREFETCH REQUESTED:          0 ISSUED:          0 USEFUL:          0 USELESS:          0
cpu0->cpu0_STLB AVERAGE MISS LATENCY: 24.41 cycles
cpu0->cpu0_L2C TOTAL        ACCESS:   96843584 HIT:   39309656 MISS:   57533928 MSHR_MERGE:    3920022
cpu0->cpu0_L2C LOAD         ACCESS:   16616595 HIT:    6165621 MISS:   10450974 MSHR_MERGE:     390915
cpu0->cpu0_L2C RFO          ACCESS:      58754 HIT:      29743 MISS:      29011 MSHR_MERGE:          0
cpu0->cpu0_L2C PREFETCH     ACCESS:   72940086 HIT:   25990026 MISS:   46950060 MSHR_MERGE:    3529107
cpu0->cpu0_L2C WRITE        ACCESS:    5576105 HIT:    5576054 MISS:         51 MSHR_MERGE:          0
cpu0->cpu0_L2C TRANSLATION  ACCESS:    1652044 HIT:    1548212 MISS:     103832 MSHR_MERGE:          0
cpu0->cpu0_L2C PREFETCH REQUESTED:   59209619 ISSUED:   56810731 USEFUL:    5043119 USELESS:   27886691
cpu0->cpu0_L2C AVERAGE MISS LATENCY: 199.4 cycles
cpu0->cpu0_L1I TOTAL        ACCESS:     459147 HIT:     459147 MISS:          0 MSHR_MERGE:          0
cpu0->cpu0_L1I LOAD         ACCESS:     459147 HIT:     459147 MISS:          0 MSHR_MERGE:          0
cpu0->cpu0_L1I RFO          ACCESS:          0 HIT:          0 MISS:          0 MSHR_MERGE:          0
cpu0->cpu0_L1I PREFETCH     ACCESS:          0 HIT:          0 MISS:          0 MSHR_MERGE:          0
cpu0->cpu0_L1I WRITE        ACCESS:          0 HIT:          0 MISS:          0 MSHR_MERGE:          0
cpu0->cpu0_L1I TRANSLATION  ACCESS:          0 HIT:          0 MISS:          0 MSHR_MERGE:          0
cpu0->cpu0_L1I PREFETCH REQUESTED:          0 ISSUED:          0 USEFUL:          0 USELESS:          0
cpu0->cpu0_L1I AVERAGE MISS LATENCY: - cycles
cpu0->cpu0_L1D TOTAL        ACCESS:  123508136 HIT:   87368671 MISS:   36139465 MSHR_MERGE:    1682726
cpu0->cpu0_L1D LOAD         ACCESS:   52854908 HIT:   35546833 MISS:   17308075 MSHR_MERGE:     691481
cpu0->cpu0_L1D RFO          ACCESS:          0 HIT:          0 MISS:          0 MSHR_MERGE:          0
cpu0->cpu0_L1D PREFETCH     ACCESS:   50267077 HIT:   33292236 MISS:   16974841 MSHR_MERGE:     845502
cpu0->cpu0_L1D WRITE        ACCESS:   11237560 HIT:   11134165 MISS:     103395 MSHR_MERGE:      44633
cpu0->cpu0_L1D TRANSLATION  ACCESS:    9148591 HIT:    7395437 MISS:    1753154 MSHR_MERGE:     101110
cpu0->cpu0_L1D PREFETCH REQUESTED:   54714437 ISSUED:   50267069 USEFUL:     672448 USELESS:   15456700
cpu0->cpu0_L1D AVERAGE MISS LATENCY: 125.1 cycles
cpu0->cpu0_ITLB TOTAL        ACCESS:     442951 HIT:     442951 MISS:          0 MSHR_MERGE:          0
cpu0->cpu0_ITLB LOAD         ACCESS:     442951 HIT:     442951 MISS:          0 MSHR_MERGE:          0
cpu0->cpu0_ITLB RFO          ACCESS:          0 HIT:          0 MISS:          0 MSHR_MERGE:          0
cpu0->cpu0_ITLB PREFETCH     ACCESS:          0 HIT:          0 MISS:          0 MSHR_MERGE:          0
cpu0->cpu0_ITLB WRITE        ACCESS:          0 HIT:          0 MISS:          0 MSHR_MERGE:          0
cpu0->cpu0_ITLB TRANSLATION  ACCESS:          0 HIT:          0 MISS:          0 MSHR_MERGE:          0
cpu0->cpu0_ITLB PREFETCH REQUESTED:          0 ISSUED:          0 USEFUL:          0 USELESS:          0
cpu0->cpu0_ITLB AVERAGE MISS LATENCY: - cycles
cpu0->cpu0_DTLB TOTAL        ACCESS:  107246463 HIT:   94905714 MISS:   12340749 MSHR_MERGE:    1761525
cpu0->cpu0_DTLB LOAD         ACCESS:  107246463 HIT:   94905714 MISS:   12340749 MSHR_MERGE:    1761525
cpu0->cpu0_DTLB RFO          ACCESS:          0 HIT:          0 MISS:          0 MSHR_MERGE:          0
cpu0->cpu0_DTLB PREFETCH     ACCESS:          0 HIT:          0 MISS:          0 MSHR_MERGE:          0
cpu0->cpu0_DTLB WRITE        ACCESS:          0 HIT:          0 MISS:          0 MSHR_MERGE:          0
cpu0->cpu0_DTLB TRANSLATION  ACCESS:          0 HIT:          0 MISS:          0 MSHR_MERGE:          0
cpu0->cpu0_DTLB PREFETCH REQUESTED:          0 ISSUED:          0 USEFUL:          0 USELESS:          0
cpu0->cpu0_DTLB AVERAGE MISS LATENCY: 16.22 cycles
cpu0->LLC TOTAL        ACCESS:  102479815 HIT:   38396025 MISS:   64083790 MSHR_MERGE:    9713155
cpu0->LLC LOAD         ACCESS:   10060059 HIT:    4263409 MISS:    5796650 MSHR_MERGE:     227484
cpu0->LLC RFO          ACCESS:      29011 HIT:        173 MISS:      28838 MSHR_MERGE:          0
cpu0->LLC PREFETCH     ACCESS:   87031834 HIT:   32043522 MISS:   54988312 MSHR_MERGE:    9485671
cpu0->LLC WRITE        ACCESS:    5255079 HIT:    2088390 MISS:    3166689 MSHR_MERGE:          0
cpu0->LLC TRANSLATION  ACCESS:     103832 HIT:        531 MISS:     103301 MSHR_MERGE:          0
cpu0->LLC PREFETCH REQUESTED:   44257645 ISSUED:   43610856 USEFUL:    3433896 USELESS:   18063994
cpu0->LLC AVERAGE MISS LATENCY: 202.1 cycles

DRAM Statistics

Channel 0 RQ ROW_BUFFER_HIT:    3687629
  ROW_BUFFER_MISS:   47487631
  AVG DBUS CONGESTED CYCLE: 6.539
Channel 0 WQ ROW_BUFFER_HIT:     304645
  ROW_BUFFER_MISS:    3659234
  FULL:          5
Channel 0 REFRESHES ISSUED:      94688
