[VMEM] WARNING: physical memory size is smaller than virtual memory size.

*** ChampSim Multicore Out-of-Order Simulator ***
Warmup Instructions: 50000000
Simulation Instructions: 200000000
Number of CPUs: 1
Page size: 4096
Core 0: /local-ssd/ben/dpc4-traces/gtraces_v2/charlie_0003.champsim.gz
Off-chip DRAM Size: 64 GiB Channels: 1 Width: 64-bit Data Rate: 4807 MT/s
[BTB] WARNING: target of return is a lower address than the corresponding call. This is usually a problem with your trace.
Heartbeat CPU 0 instructions: 500002 cycles: 252591 heartbeat IPC: 1.979 cumulative IPC: 1.979 (Simulation time: 00 hr 00 min 04 sec)
Heartbeat CPU 0 instructions: 1000006 cycles: 513486 heartbeat IPC: 1.916 cumulative IPC: 1.947 (Simulation time: 00 hr 00 min 07 sec)
[BTB] WARNING: target of return is a lower address than the corresponding call. This is usually a problem with your trace.
Heartbeat CPU 0 instructions: 1500013 cycles: 696070 heartbeat IPC: 2.739 cumulative IPC: 2.155 (Simulation time: 00 hr 00 min 10 sec)
[BTB] WARNING: target of return is a lower address than the corresponding call. This is usually a problem with your trace.
Heartbeat CPU 0 instructions: 2000015 cycles: 839558 heartbeat IPC: 3.485 cumulative IPC: 2.382 (Simulation time: 00 hr 00 min 12 sec)
[BTB] WARNING: target of return is a lower address than the corresponding call. This is usually a problem with your trace.
Heartbeat CPU 0 instructions: 2500017 cycles: 987906 heartbeat IPC: 3.37 cumulative IPC: 2.531 (Simulation time: 00 hr 00 min 14 sec)
[BTB] WARNING: target of return is a lower address than the corresponding call. This is usually a problem with your trace.
Heartbeat CPU 0 instructions: 3000021 cycles: 1100367 heartbeat IPC: 4.446 cumulative IPC: 2.726 (Simulation time: 00 hr 00 min 16 sec)
[BTB] WARNING: target of return is a lower address than the corresponding call. This is usually a problem with your trace.
[BTB] WARNING: target of return is a lower address than the corresponding call. This is usually a problem with your trace.
[BTB] WARNING: target of return is a lower address than the corresponding call. This is usually a problem with your trace.
[BTB] WARNING: target of return is a lower address than the corresponding call. This is usually a problem with your trace.
[BTB] WARNING: target of return is a lower address than the corresponding call. This is usually a problem with your trace.
Heartbeat CPU 0 instructions: 3500024 cycles: 1217191 heartbeat IPC: 4.28 cumulative IPC: 2.875 (Simulation time: 00 hr 00 min 18 sec)
Heartbeat CPU 0 instructions: 4000027 cycles: 1321314 heartbeat IPC: 4.802 cumulative IPC: 3.027 (Simulation time: 00 hr 00 min 19 sec)
Heartbeat CPU 0 instructions: 4500027 cycles: 1455632 heartbeat IPC: 3.723 cumulative IPC: 3.091 (Simulation time: 00 hr 00 min 21 sec)
Heartbeat CPU 0 instructions: 5000031 cycles: 1655216 heartbeat IPC: 2.505 cumulative IPC: 3.021 (Simulation time: 00 hr 00 min 24 sec)
Heartbeat CPU 0 instructions: 5500034 cycles: 1795305 heartbeat IPC: 3.569 cumulative IPC: 3.064 (Simulation time: 00 hr 00 min 26 sec)
Heartbeat CPU 0 instructions: 6000035 cycles: 1901513 heartbeat IPC: 4.708 cumulative IPC: 3.155 (Simulation time: 00 hr 00 min 28 sec)
Heartbeat CPU 0 instructions: 6500038 cycles: 2005819 heartbeat IPC: 4.794 cumulative IPC: 3.241 (Simulation time: 00 hr 00 min 29 sec)
Heartbeat CPU 0 instructions: 7000045 cycles: 2111465 heartbeat IPC: 4.733 cumulative IPC: 3.315 (Simulation time: 00 hr 00 min 31 sec)
Heartbeat CPU 0 instructions: 7500045 cycles: 2216374 heartbeat IPC: 4.766 cumulative IPC: 3.384 (Simulation time: 00 hr 00 min 33 sec)
Heartbeat CPU 0 instructions: 8000052 cycles: 2321264 heartbeat IPC: 4.767 cumulative IPC: 3.446 (Simulation time: 00 hr 00 min 34 sec)
Heartbeat CPU 0 instructions: 8500055 cycles: 2425491 heartbeat IPC: 4.797 cumulative IPC: 3.504 (Simulation time: 00 hr 00 min 36 sec)
Heartbeat CPU 0 instructions: 9000062 cycles: 2529186 heartbeat IPC: 4.822 cumulative IPC: 3.558 (Simulation time: 00 hr 00 min 38 sec)
Heartbeat CPU 0 instructions: 9500064 cycles: 2633433 heartbeat IPC: 4.796 cumulative IPC: 3.607 (Simulation time: 00 hr 00 min 39 sec)
Heartbeat CPU 0 instructions: 10000067 cycles: 2737600 heartbeat IPC: 4.8 cumulative IPC: 3.653 (Simulation time: 00 hr 00 min 41 sec)
Heartbeat CPU 0 instructions: 10500070 cycles: 2842610 heartbeat IPC: 4.761 cumulative IPC: 3.694 (Simulation time: 00 hr 00 min 42 sec)
Heartbeat CPU 0 instructions: 11000075 cycles: 2946304 heartbeat IPC: 4.822 cumulative IPC: 3.734 (Simulation time: 00 hr 00 min 44 sec)
Heartbeat CPU 0 instructions: 11500075 cycles: 3050282 heartbeat IPC: 4.809 cumulative IPC: 3.77 (Simulation time: 00 hr 00 min 46 sec)
Heartbeat CPU 0 instructions: 12000081 cycles: 3153953 heartbeat IPC: 4.823 cumulative IPC: 3.805 (Simulation time: 00 hr 00 min 47 sec)
Heartbeat CPU 0 instructions: 12500083 cycles: 3258352 heartbeat IPC: 4.789 cumulative IPC: 3.836 (Simulation time: 00 hr 00 min 49 sec)
Heartbeat CPU 0 instructions: 13000086 cycles: 3362861 heartbeat IPC: 4.784 cumulative IPC: 3.866 (Simulation time: 00 hr 00 min 50 sec)
Heartbeat CPU 0 instructions: 13500086 cycles: 3466325 heartbeat IPC: 4.833 cumulative IPC: 3.895 (Simulation time: 00 hr 00 min 52 sec)
Heartbeat CPU 0 instructions: 14000087 cycles: 3570029 heartbeat IPC: 4.821 cumulative IPC: 3.922 (Simulation time: 00 hr 00 min 54 sec)
Heartbeat CPU 0 instructions: 14500094 cycles: 3673016 heartbeat IPC: 4.855 cumulative IPC: 3.948 (Simulation time: 00 hr 00 min 55 sec)
Heartbeat CPU 0 instructions: 15000096 cycles: 3819059 heartbeat IPC: 3.424 cumulative IPC: 3.928 (Simulation time: 00 hr 00 min 57 sec)
Heartbeat CPU 0 instructions: 15500096 cycles: 3925361 heartbeat IPC: 4.704 cumulative IPC: 3.949 (Simulation time: 00 hr 00 min 59 sec)
Heartbeat CPU 0 instructions: 16000103 cycles: 4037379 heartbeat IPC: 4.464 cumulative IPC: 3.963 (Simulation time: 00 hr 01 min 00 sec)
Heartbeat CPU 0 instructions: 16500105 cycles: 4141136 heartbeat IPC: 4.819 cumulative IPC: 3.984 (Simulation time: 00 hr 01 min 02 sec)
Heartbeat CPU 0 instructions: 17000108 cycles: 4245074 heartbeat IPC: 4.811 cumulative IPC: 4.005 (Simulation time: 00 hr 01 min 04 sec)
Heartbeat CPU 0 instructions: 17500115 cycles: 4348865 heartbeat IPC: 4.817 cumulative IPC: 4.024 (Simulation time: 00 hr 01 min 05 sec)
Heartbeat CPU 0 instructions: 18000117 cycles: 4455478 heartbeat IPC: 4.69 cumulative IPC: 4.04 (Simulation time: 00 hr 01 min 07 sec)
Heartbeat CPU 0 instructions: 18500122 cycles: 4558729 heartbeat IPC: 4.843 cumulative IPC: 4.058 (Simulation time: 00 hr 01 min 08 sec)
Heartbeat CPU 0 instructions: 19000123 cycles: 4660662 heartbeat IPC: 4.905 cumulative IPC: 4.077 (Simulation time: 00 hr 01 min 10 sec)
Heartbeat CPU 0 instructions: 19500124 cycles: 4765615 heartbeat IPC: 4.764 cumulative IPC: 4.092 (Simulation time: 00 hr 01 min 12 sec)
Heartbeat CPU 0 instructions: 20000124 cycles: 4869222 heartbeat IPC: 4.826 cumulative IPC: 4.107 (Simulation time: 00 hr 01 min 13 sec)
Heartbeat CPU 0 instructions: 20500126 cycles: 4974783 heartbeat IPC: 4.737 cumulative IPC: 4.121 (Simulation time: 00 hr 01 min 15 sec)
Heartbeat CPU 0 instructions: 21000132 cycles: 5078536 heartbeat IPC: 4.819 cumulative IPC: 4.135 (Simulation time: 00 hr 01 min 16 sec)
Heartbeat CPU 0 instructions: 21500135 cycles: 5182460 heartbeat IPC: 4.811 cumulative IPC: 4.149 (Simulation time: 00 hr 01 min 18 sec)
Heartbeat CPU 0 instructions: 22000135 cycles: 5288965 heartbeat IPC: 4.695 cumulative IPC: 4.16 (Simulation time: 00 hr 01 min 20 sec)
Heartbeat CPU 0 instructions: 22500135 cycles: 5391013 heartbeat IPC: 4.9 cumulative IPC: 4.174 (Simulation time: 00 hr 01 min 21 sec)
Heartbeat CPU 0 instructions: 23000140 cycles: 5493114 heartbeat IPC: 4.897 cumulative IPC: 4.187 (Simulation time: 00 hr 01 min 23 sec)
Heartbeat CPU 0 instructions: 23500145 cycles: 5597074 heartbeat IPC: 4.81 cumulative IPC: 4.199 (Simulation time: 00 hr 01 min 25 sec)
Heartbeat CPU 0 instructions: 24000149 cycles: 5699306 heartbeat IPC: 4.891 cumulative IPC: 4.211 (Simulation time: 00 hr 01 min 26 sec)
Heartbeat CPU 0 instructions: 24500153 cycles: 5802529 heartbeat IPC: 4.844 cumulative IPC: 4.222 (Simulation time: 00 hr 01 min 28 sec)
Heartbeat CPU 0 instructions: 25000153 cycles: 5905202 heartbeat IPC: 4.87 cumulative IPC: 4.234 (Simulation time: 00 hr 01 min 29 sec)
Heartbeat CPU 0 instructions: 25500159 cycles: 6006875 heartbeat IPC: 4.918 cumulative IPC: 4.245 (Simulation time: 00 hr 01 min 31 sec)
Heartbeat CPU 0 instructions: 26000165 cycles: 6113726 heartbeat IPC: 4.679 cumulative IPC: 4.253 (Simulation time: 00 hr 01 min 32 sec)
Heartbeat CPU 0 instructions: 26500171 cycles: 6221547 heartbeat IPC: 4.637 cumulative IPC: 4.259 (Simulation time: 00 hr 01 min 34 sec)
Heartbeat CPU 0 instructions: 27000171 cycles: 6326943 heartbeat IPC: 4.744 cumulative IPC: 4.267 (Simulation time: 00 hr 01 min 36 sec)
Heartbeat CPU 0 instructions: 27500173 cycles: 6436060 heartbeat IPC: 4.582 cumulative IPC: 4.273 (Simulation time: 00 hr 01 min 37 sec)
Heartbeat CPU 0 instructions: 28000178 cycles: 6545944 heartbeat IPC: 4.55 cumulative IPC: 4.277 (Simulation time: 00 hr 01 min 39 sec)
Heartbeat CPU 0 instructions: 28500185 cycles: 6652521 heartbeat IPC: 4.692 cumulative IPC: 4.284 (Simulation time: 00 hr 01 min 41 sec)
Heartbeat CPU 0 instructions: 29000189 cycles: 6756594 heartbeat IPC: 4.804 cumulative IPC: 4.292 (Simulation time: 00 hr 01 min 42 sec)
Heartbeat CPU 0 instructions: 29500195 cycles: 7011924 heartbeat IPC: 1.958 cumulative IPC: 4.207 (Simulation time: 00 hr 01 min 46 sec)
Heartbeat CPU 0 instructions: 30000199 cycles: 7120126 heartbeat IPC: 4.621 cumulative IPC: 4.213 (Simulation time: 00 hr 01 min 48 sec)
Heartbeat CPU 0 instructions: 30500203 cycles: 7223600 heartbeat IPC: 4.832 cumulative IPC: 4.222 (Simulation time: 00 hr 01 min 49 sec)
Heartbeat CPU 0 instructions: 31000206 cycles: 7325308 heartbeat IPC: 4.916 cumulative IPC: 4.232 (Simulation time: 00 hr 01 min 51 sec)
Heartbeat CPU 0 instructions: 31500207 cycles: 7426358 heartbeat IPC: 4.948 cumulative IPC: 4.242 (Simulation time: 00 hr 01 min 52 sec)
Heartbeat CPU 0 instructions: 32000208 cycles: 7526358 heartbeat IPC: 5 cumulative IPC: 4.252 (Simulation time: 00 hr 01 min 54 sec)
Heartbeat CPU 0 instructions: 32500215 cycles: 7626457 heartbeat IPC: 4.995 cumulative IPC: 4.262 (Simulation time: 00 hr 01 min 56 sec)
Heartbeat CPU 0 instructions: 33000222 cycles: 7726554 heartbeat IPC: 4.995 cumulative IPC: 4.271 (Simulation time: 00 hr 01 min 57 sec)
Heartbeat CPU 0 instructions: 33500225 cycles: 7826554 heartbeat IPC: 5 cumulative IPC: 4.28 (Simulation time: 00 hr 01 min 59 sec)
Heartbeat CPU 0 instructions: 34000225 cycles: 7926652 heartbeat IPC: 4.995 cumulative IPC: 4.289 (Simulation time: 00 hr 02 min 00 sec)
Heartbeat CPU 0 instructions: 34500227 cycles: 8026748 heartbeat IPC: 4.995 cumulative IPC: 4.298 (Simulation time: 00 hr 02 min 02 sec)
Heartbeat CPU 0 instructions: 35000232 cycles: 8126846 heartbeat IPC: 4.995 cumulative IPC: 4.307 (Simulation time: 00 hr 02 min 04 sec)
Heartbeat CPU 0 instructions: 35500232 cycles: 8226946 heartbeat IPC: 4.995 cumulative IPC: 4.315 (Simulation time: 00 hr 02 min 05 sec)
Heartbeat CPU 0 instructions: 36000237 cycles: 8326946 heartbeat IPC: 5 cumulative IPC: 4.323 (Simulation time: 00 hr 02 min 07 sec)
Heartbeat CPU 0 instructions: 36500238 cycles: 8426949 heartbeat IPC: 5 cumulative IPC: 4.331 (Simulation time: 00 hr 02 min 09 sec)
Heartbeat CPU 0 instructions: 37000244 cycles: 8527057 heartbeat IPC: 4.995 cumulative IPC: 4.339 (Simulation time: 00 hr 02 min 10 sec)
Heartbeat CPU 0 instructions: 37500249 cycles: 8627058 heartbeat IPC: 5 cumulative IPC: 4.347 (Simulation time: 00 hr 02 min 12 sec)
Heartbeat CPU 0 instructions: 38000255 cycles: 8727058 heartbeat IPC: 5 cumulative IPC: 4.354 (Simulation time: 00 hr 02 min 13 sec)
Heartbeat CPU 0 instructions: 38500259 cycles: 8827058 heartbeat IPC: 5 cumulative IPC: 4.362 (Simulation time: 00 hr 02 min 15 sec)
Heartbeat CPU 0 instructions: 39000265 cycles: 8927061 heartbeat IPC: 5 cumulative IPC: 4.369 (Simulation time: 00 hr 02 min 17 sec)
Heartbeat CPU 0 instructions: 39500266 cycles: 9028300 heartbeat IPC: 4.939 cumulative IPC: 4.375 (Simulation time: 00 hr 02 min 18 sec)
Heartbeat CPU 0 instructions: 40000269 cycles: 9144367 heartbeat IPC: 4.308 cumulative IPC: 4.374 (Simulation time: 00 hr 02 min 20 sec)
Heartbeat CPU 0 instructions: 40500272 cycles: 9246080 heartbeat IPC: 4.916 cumulative IPC: 4.38 (Simulation time: 00 hr 02 min 21 sec)
Heartbeat CPU 0 instructions: 41000273 cycles: 9348867 heartbeat IPC: 4.864 cumulative IPC: 4.386 (Simulation time: 00 hr 02 min 23 sec)
Heartbeat CPU 0 instructions: 41500276 cycles: 9449413 heartbeat IPC: 4.973 cumulative IPC: 4.392 (Simulation time: 00 hr 02 min 25 sec)
Heartbeat CPU 0 instructions: 42000280 cycles: 9552695 heartbeat IPC: 4.841 cumulative IPC: 4.397 (Simulation time: 00 hr 02 min 26 sec)
Heartbeat CPU 0 instructions: 42500286 cycles: 9655177 heartbeat IPC: 4.879 cumulative IPC: 4.402 (Simulation time: 00 hr 02 min 28 sec)
Heartbeat CPU 0 instructions: 43000286 cycles: 9757420 heartbeat IPC: 4.89 cumulative IPC: 4.407 (Simulation time: 00 hr 02 min 29 sec)
Heartbeat CPU 0 instructions: 43500289 cycles: 9859064 heartbeat IPC: 4.919 cumulative IPC: 4.412 (Simulation time: 00 hr 02 min 31 sec)
Heartbeat CPU 0 instructions: 44000294 cycles: 9960946 heartbeat IPC: 4.908 cumulative IPC: 4.417 (Simulation time: 00 hr 02 min 32 sec)
Heartbeat CPU 0 instructions: 44500301 cycles: 10063048 heartbeat IPC: 4.897 cumulative IPC: 4.422 (Simulation time: 00 hr 02 min 34 sec)
Heartbeat CPU 0 instructions: 45000306 cycles: 10164425 heartbeat IPC: 4.932 cumulative IPC: 4.427 (Simulation time: 00 hr 02 min 35 sec)
Heartbeat CPU 0 instructions: 45500306 cycles: 10265042 heartbeat IPC: 4.969 cumulative IPC: 4.433 (Simulation time: 00 hr 02 min 37 sec)
Heartbeat CPU 0 instructions: 46000312 cycles: 10365683 heartbeat IPC: 4.968 cumulative IPC: 4.438 (Simulation time: 00 hr 02 min 39 sec)
Heartbeat CPU 0 instructions: 46500319 cycles: 10465973 heartbeat IPC: 4.986 cumulative IPC: 4.443 (Simulation time: 00 hr 02 min 40 sec)
Heartbeat CPU 0 instructions: 47000319 cycles: 10566796 heartbeat IPC: 4.959 cumulative IPC: 4.448 (Simulation time: 00 hr 02 min 42 sec)
Heartbeat CPU 0 instructions: 47500321 cycles: 10668300 heartbeat IPC: 4.926 cumulative IPC: 4.452 (Simulation time: 00 hr 02 min 43 sec)
Heartbeat CPU 0 instructions: 48000323 cycles: 10769361 heartbeat IPC: 4.948 cumulative IPC: 4.457 (Simulation time: 00 hr 02 min 45 sec)
Heartbeat CPU 0 instructions: 48500323 cycles: 10869622 heartbeat IPC: 4.987 cumulative IPC: 4.462 (Simulation time: 00 hr 02 min 46 sec)
Heartbeat CPU 0 instructions: 49000325 cycles: 10970372 heartbeat IPC: 4.963 cumulative IPC: 4.467 (Simulation time: 00 hr 02 min 48 sec)
Heartbeat CPU 0 instructions: 49500326 cycles: 11072296 heartbeat IPC: 4.906 cumulative IPC: 4.471 (Simulation time: 00 hr 02 min 50 sec)
Warmup halting CPU 0 at instruction 50000004 cycle 11186976 for remainder of phase
Warmup finished CPU 0 instructions: 50000004 cycles: 11186976 cumulative IPC: 4.469 (Simulation time: 00 hr 02 min 52 sec)
Warmup complete CPU 0 instructions: 50000004 cycles: 11186976 cumulative IPC: 4.469 (Simulation time: 00 hr 02 min 52 sec)
Heartbeat CPU 0 instructions: 50000327 cycles: 11187122 heartbeat IPC: 4.354 cumulative IPC: 2.212 (Simulation time: 00 hr 02 min 52 sec)
Heartbeat CPU 0 instructions: 50500332 cycles: 11673402 heartbeat IPC: 1.028 cumulative IPC: 1.029 (Simulation time: 00 hr 02 min 56 sec)
Heartbeat CPU 0 instructions: 51000334 cycles: 12112227 heartbeat IPC: 1.139 cumulative IPC: 1.081 (Simulation time: 00 hr 03 min 00 sec)
Heartbeat CPU 0 instructions: 51500335 cycles: 12555489 heartbeat IPC: 1.128 cumulative IPC: 1.096 (Simulation time: 00 hr 03 min 04 sec)
Heartbeat CPU 0 instructions: 52000339 cycles: 12975457 heartbeat IPC: 1.191 cumulative IPC: 1.118 (Simulation time: 00 hr 03 min 07 sec)
Heartbeat CPU 0 instructions: 52500339 cycles: 13407957 heartbeat IPC: 1.156 cumulative IPC: 1.126 (Simulation time: 00 hr 03 min 11 sec)
Heartbeat CPU 0 instructions: 53000342 cycles: 13819957 heartbeat IPC: 1.214 cumulative IPC: 1.14 (Simulation time: 00 hr 03 min 15 sec)
Heartbeat CPU 0 instructions: 53500342 cycles: 14244174 heartbeat IPC: 1.179 cumulative IPC: 1.145 (Simulation time: 00 hr 03 min 19 sec)
Heartbeat CPU 0 instructions: 54000345 cycles: 14705983 heartbeat IPC: 1.083 cumulative IPC: 1.137 (Simulation time: 00 hr 03 min 23 sec)
Heartbeat CPU 0 instructions: 54500345 cycles: 15174506 heartbeat IPC: 1.067 cumulative IPC: 1.129 (Simulation time: 00 hr 03 min 27 sec)
Heartbeat CPU 0 instructions: 55000345 cycles: 15635235 heartbeat IPC: 1.085 cumulative IPC: 1.124 (Simulation time: 00 hr 03 min 31 sec)
Heartbeat CPU 0 instructions: 55500352 cycles: 16086604 heartbeat IPC: 1.108 cumulative IPC: 1.123 (Simulation time: 00 hr 03 min 35 sec)
Heartbeat CPU 0 instructions: 56000354 cycles: 17429935 heartbeat IPC: 0.3722 cumulative IPC: 0.9611 (Simulation time: 00 hr 03 min 46 sec)
Heartbeat CPU 0 instructions: 56500360 cycles: 20684269 heartbeat IPC: 0.1536 cumulative IPC: 0.6844 (Simulation time: 00 hr 04 min 10 sec)
Heartbeat CPU 0 instructions: 57000360 cycles: 21136868 heartbeat IPC: 1.105 cumulative IPC: 0.7036 (Simulation time: 00 hr 04 min 14 sec)
Heartbeat CPU 0 instructions: 57500363 cycles: 21592527 heartbeat IPC: 1.097 cumulative IPC: 0.7208 (Simulation time: 00 hr 04 min 18 sec)
Heartbeat CPU 0 instructions: 58000364 cycles: 22010773 heartbeat IPC: 1.195 cumulative IPC: 0.7391 (Simulation time: 00 hr 04 min 21 sec)
Heartbeat CPU 0 instructions: 58500367 cycles: 22445383 heartbeat IPC: 1.15 cumulative IPC: 0.755 (Simulation time: 00 hr 04 min 25 sec)
Heartbeat CPU 0 instructions: 59000367 cycles: 22884985 heartbeat IPC: 1.137 cumulative IPC: 0.7694 (Simulation time: 00 hr 04 min 29 sec)
Heartbeat CPU 0 instructions: 59500370 cycles: 23313208 heartbeat IPC: 1.168 cumulative IPC: 0.7835 (Simulation time: 00 hr 04 min 33 sec)
Heartbeat CPU 0 instructions: 60000372 cycles: 23744427 heartbeat IPC: 1.16 cumulative IPC: 0.7964 (Simulation time: 00 hr 04 min 37 sec)
Heartbeat CPU 0 instructions: 60500372 cycles: 24174599 heartbeat IPC: 1.162 cumulative IPC: 0.8085 (Simulation time: 00 hr 04 min 41 sec)
Heartbeat CPU 0 instructions: 61000372 cycles: 24669898 heartbeat IPC: 1.009 cumulative IPC: 0.8159 (Simulation time: 00 hr 04 min 46 sec)
Heartbeat CPU 0 instructions: 61500375 cycles: 25164936 heartbeat IPC: 1.01 cumulative IPC: 0.8228 (Simulation time: 00 hr 04 min 50 sec)
Heartbeat CPU 0 instructions: 62000379 cycles: 26573244 heartbeat IPC: 0.355 cumulative IPC: 0.7799 (Simulation time: 00 hr 05 min 00 sec)
Heartbeat CPU 0 instructions: 62500383 cycles: 28282440 heartbeat IPC: 0.2925 cumulative IPC: 0.7312 (Simulation time: 00 hr 05 min 12 sec)
Heartbeat CPU 0 instructions: 63000383 cycles: 29793860 heartbeat IPC: 0.3308 cumulative IPC: 0.6987 (Simulation time: 00 hr 05 min 22 sec)
Heartbeat CPU 0 instructions: 63500386 cycles: 31689947 heartbeat IPC: 0.2637 cumulative IPC: 0.6585 (Simulation time: 00 hr 05 min 33 sec)
Heartbeat CPU 0 instructions: 64000387 cycles: 32610278 heartbeat IPC: 0.5433 cumulative IPC: 0.6535 (Simulation time: 00 hr 05 min 40 sec)
Heartbeat CPU 0 instructions: 64500391 cycles: 33388757 heartbeat IPC: 0.6423 cumulative IPC: 0.6531 (Simulation time: 00 hr 05 min 46 sec)
Heartbeat CPU 0 instructions: 65000393 cycles: 34567047 heartbeat IPC: 0.4243 cumulative IPC: 0.6416 (Simulation time: 00 hr 05 min 54 sec)
Heartbeat CPU 0 instructions: 65500395 cycles: 34714667 heartbeat IPC: 3.387 cumulative IPC: 0.6588 (Simulation time: 00 hr 05 min 57 sec)
Heartbeat CPU 0 instructions: 66000397 cycles: 34882022 heartbeat IPC: 2.988 cumulative IPC: 0.6753 (Simulation time: 00 hr 05 min 59 sec)
Heartbeat CPU 0 instructions: 66500398 cycles: 35128838 heartbeat IPC: 2.026 cumulative IPC: 0.6892 (Simulation time: 00 hr 06 min 02 sec)
Heartbeat CPU 0 instructions: 67000400 cycles: 35345806 heartbeat IPC: 2.304 cumulative IPC: 0.7037 (Simulation time: 00 hr 06 min 04 sec)
Heartbeat CPU 0 instructions: 67500401 cycles: 35491666 heartbeat IPC: 3.428 cumulative IPC: 0.72 (Simulation time: 00 hr 06 min 06 sec)
Heartbeat CPU 0 instructions: 68000405 cycles: 35649067 heartbeat IPC: 3.177 cumulative IPC: 0.7358 (Simulation time: 00 hr 06 min 09 sec)
Heartbeat CPU 0 instructions: 68500406 cycles: 35845457 heartbeat IPC: 2.546 cumulative IPC: 0.7503 (Simulation time: 00 hr 06 min 11 sec)
Heartbeat CPU 0 instructions: 69000409 cycles: 36019224 heartbeat IPC: 2.877 cumulative IPC: 0.7652 (Simulation time: 00 hr 06 min 14 sec)
Heartbeat CPU 0 instructions: 69500416 cycles: 36201796 heartbeat IPC: 2.739 cumulative IPC: 0.7796 (Simulation time: 00 hr 06 min 16 sec)
Heartbeat CPU 0 instructions: 70000423 cycles: 36394378 heartbeat IPC: 2.596 cumulative IPC: 0.7934 (Simulation time: 00 hr 06 min 18 sec)
Heartbeat CPU 0 instructions: 70500425 cycles: 36561701 heartbeat IPC: 2.988 cumulative IPC: 0.8079 (Simulation time: 00 hr 06 min 21 sec)
Heartbeat CPU 0 instructions: 71000432 cycles: 36672991 heartbeat IPC: 4.493 cumulative IPC: 0.824 (Simulation time: 00 hr 06 min 23 sec)
Heartbeat CPU 0 instructions: 71500434 cycles: 36870501 heartbeat IPC: 2.532 cumulative IPC: 0.8371 (Simulation time: 00 hr 06 min 25 sec)
Heartbeat CPU 0 instructions: 72000436 cycles: 37095733 heartbeat IPC: 2.22 cumulative IPC: 0.8492 (Simulation time: 00 hr 06 min 28 sec)
Heartbeat CPU 0 instructions: 72500436 cycles: 37244402 heartbeat IPC: 3.363 cumulative IPC: 0.8635 (Simulation time: 00 hr 06 min 30 sec)
Heartbeat CPU 0 instructions: 73000437 cycles: 37431240 heartbeat IPC: 2.676 cumulative IPC: 0.8764 (Simulation time: 00 hr 06 min 33 sec)
Heartbeat CPU 0 instructions: 73500439 cycles: 37613335 heartbeat IPC: 2.746 cumulative IPC: 0.8893 (Simulation time: 00 hr 06 min 35 sec)
Heartbeat CPU 0 instructions: 74000442 cycles: 37782914 heartbeat IPC: 2.948 cumulative IPC: 0.9024 (Simulation time: 00 hr 06 min 37 sec)
Heartbeat CPU 0 instructions: 74500442 cycles: 37992769 heartbeat IPC: 2.383 cumulative IPC: 0.914 (Simulation time: 00 hr 06 min 40 sec)
Heartbeat CPU 0 instructions: 75000444 cycles: 39786020 heartbeat IPC: 0.2788 cumulative IPC: 0.8742 (Simulation time: 00 hr 06 min 53 sec)
Heartbeat CPU 0 instructions: 75500444 cycles: 42380689 heartbeat IPC: 0.1927 cumulative IPC: 0.8175 (Simulation time: 00 hr 07 min 12 sec)
Heartbeat CPU 0 instructions: 76000446 cycles: 43682698 heartbeat IPC: 0.384 cumulative IPC: 0.8001 (Simulation time: 00 hr 07 min 21 sec)
Heartbeat CPU 0 instructions: 76500447 cycles: 45516862 heartbeat IPC: 0.2726 cumulative IPC: 0.7719 (Simulation time: 00 hr 07 min 33 sec)
Heartbeat CPU 0 instructions: 77000451 cycles: 47250966 heartbeat IPC: 0.2883 cumulative IPC: 0.7487 (Simulation time: 00 hr 07 min 44 sec)
Heartbeat CPU 0 instructions: 77500454 cycles: 49082728 heartbeat IPC: 0.273 cumulative IPC: 0.7257 (Simulation time: 00 hr 07 min 56 sec)
Heartbeat CPU 0 instructions: 78000456 cycles: 50713742 heartbeat IPC: 0.3066 cumulative IPC: 0.7084 (Simulation time: 00 hr 08 min 07 sec)
Heartbeat CPU 0 instructions: 78500462 cycles: 52790048 heartbeat IPC: 0.2408 cumulative IPC: 0.6851 (Simulation time: 00 hr 08 min 21 sec)
Heartbeat CPU 0 instructions: 79000465 cycles: 54651187 heartbeat IPC: 0.2687 cumulative IPC: 0.6672 (Simulation time: 00 hr 08 min 32 sec)
Heartbeat CPU 0 instructions: 79500465 cycles: 55735650 heartbeat IPC: 0.4611 cumulative IPC: 0.6622 (Simulation time: 00 hr 08 min 41 sec)
Heartbeat CPU 0 instructions: 80000469 cycles: 56161975 heartbeat IPC: 1.173 cumulative IPC: 0.667 (Simulation time: 00 hr 08 min 45 sec)
Heartbeat CPU 0 instructions: 80500469 cycles: 56587190 heartbeat IPC: 1.176 cumulative IPC: 0.6718 (Simulation time: 00 hr 08 min 49 sec)
Heartbeat CPU 0 instructions: 81000471 cycles: 57009206 heartbeat IPC: 1.185 cumulative IPC: 0.6765 (Simulation time: 00 hr 08 min 53 sec)
Heartbeat CPU 0 instructions: 81500473 cycles: 57449205 heartbeat IPC: 1.136 cumulative IPC: 0.6809 (Simulation time: 00 hr 08 min 58 sec)
Heartbeat CPU 0 instructions: 82000478 cycles: 57836238 heartbeat IPC: 1.292 cumulative IPC: 0.686 (Simulation time: 00 hr 09 min 02 sec)
Heartbeat CPU 0 instructions: 82500479 cycles: 58225340 heartbeat IPC: 1.285 cumulative IPC: 0.6909 (Simulation time: 00 hr 09 min 07 sec)
Heartbeat CPU 0 instructions: 83000479 cycles: 58585332 heartbeat IPC: 1.389 cumulative IPC: 0.6962 (Simulation time: 00 hr 09 min 11 sec)
Heartbeat CPU 0 instructions: 83500485 cycles: 58953310 heartbeat IPC: 1.359 cumulative IPC: 0.7013 (Simulation time: 00 hr 09 min 15 sec)
Heartbeat CPU 0 instructions: 84000491 cycles: 59313486 heartbeat IPC: 1.388 cumulative IPC: 0.7065 (Simulation time: 00 hr 09 min 20 sec)
Heartbeat CPU 0 instructions: 84500492 cycles: 59659757 heartbeat IPC: 1.444 cumulative IPC: 0.7117 (Simulation time: 00 hr 09 min 24 sec)
Heartbeat CPU 0 instructions: 85000492 cycles: 60053437 heartbeat IPC: 1.27 cumulative IPC: 0.7162 (Simulation time: 00 hr 09 min 29 sec)
Heartbeat CPU 0 instructions: 85500492 cycles: 62555820 heartbeat IPC: 0.1998 cumulative IPC: 0.6911 (Simulation time: 00 hr 09 min 47 sec)
Heartbeat CPU 0 instructions: 86000494 cycles: 65358171 heartbeat IPC: 0.1784 cumulative IPC: 0.6646 (Simulation time: 00 hr 10 min 06 sec)
Heartbeat CPU 0 instructions: 86500498 cycles: 67424443 heartbeat IPC: 0.242 cumulative IPC: 0.649 (Simulation time: 00 hr 10 min 18 sec)
Heartbeat CPU 0 instructions: 87000498 cycles: 69142546 heartbeat IPC: 0.291 cumulative IPC: 0.6384 (Simulation time: 00 hr 10 min 30 sec)
Heartbeat CPU 0 instructions: 87500498 cycles: 70559638 heartbeat IPC: 0.3528 cumulative IPC: 0.6316 (Simulation time: 00 hr 10 min 39 sec)
Heartbeat CPU 0 instructions: 88000499 cycles: 71916826 heartbeat IPC: 0.3684 cumulative IPC: 0.6257 (Simulation time: 00 hr 10 min 47 sec)
Heartbeat CPU 0 instructions: 88500499 cycles: 74049652 heartbeat IPC: 0.2344 cumulative IPC: 0.6125 (Simulation time: 00 hr 11 min 02 sec)
Heartbeat CPU 0 instructions: 89000503 cycles: 75094587 heartbeat IPC: 0.4785 cumulative IPC: 0.6103 (Simulation time: 00 hr 11 min 10 sec)
Heartbeat CPU 0 instructions: 89500510 cycles: 79012900 heartbeat IPC: 0.1276 cumulative IPC: 0.5824 (Simulation time: 00 hr 11 min 37 sec)
Heartbeat CPU 0 instructions: 90000512 cycles: 79536900 heartbeat IPC: 0.9542 cumulative IPC: 0.5852 (Simulation time: 00 hr 11 min 42 sec)
Heartbeat CPU 0 instructions: 90500512 cycles: 79963414 heartbeat IPC: 1.172 cumulative IPC: 0.5889 (Simulation time: 00 hr 11 min 45 sec)
Heartbeat CPU 0 instructions: 91000512 cycles: 80389707 heartbeat IPC: 1.173 cumulative IPC: 0.5925 (Simulation time: 00 hr 11 min 49 sec)
Heartbeat CPU 0 instructions: 91500512 cycles: 80856342 heartbeat IPC: 1.072 cumulative IPC: 0.5957 (Simulation time: 00 hr 11 min 53 sec)
Heartbeat CPU 0 instructions: 92000512 cycles: 81308920 heartbeat IPC: 1.105 cumulative IPC: 0.599 (Simulation time: 00 hr 11 min 57 sec)
Heartbeat CPU 0 instructions: 92500512 cycles: 81761890 heartbeat IPC: 1.104 cumulative IPC: 0.6022 (Simulation time: 00 hr 12 min 01 sec)
Heartbeat CPU 0 instructions: 93000513 cycles: 83096699 heartbeat IPC: 0.3746 cumulative IPC: 0.598 (Simulation time: 00 hr 12 min 11 sec)
Heartbeat CPU 0 instructions: 93500513 cycles: 85744052 heartbeat IPC: 0.1889 cumulative IPC: 0.5835 (Simulation time: 00 hr 12 min 32 sec)
Heartbeat CPU 0 instructions: 94000517 cycles: 85856420 heartbeat IPC: 4.45 cumulative IPC: 0.5893 (Simulation time: 00 hr 12 min 34 sec)
Heartbeat CPU 0 instructions: 94500520 cycles: 85968406 heartbeat IPC: 4.465 cumulative IPC: 0.5951 (Simulation time: 00 hr 12 min 36 sec)
Heartbeat CPU 0 instructions: 95000522 cycles: 86088377 heartbeat IPC: 4.168 cumulative IPC: 0.6008 (Simulation time: 00 hr 12 min 38 sec)
Heartbeat CPU 0 instructions: 95500524 cycles: 86296645 heartbeat IPC: 2.401 cumulative IPC: 0.6058 (Simulation time: 00 hr 12 min 41 sec)
Heartbeat CPU 0 instructions: 96000527 cycles: 86451198 heartbeat IPC: 3.235 cumulative IPC: 0.6112 (Simulation time: 00 hr 12 min 43 sec)
Heartbeat CPU 0 instructions: 96500528 cycles: 86579945 heartbeat IPC: 3.884 cumulative IPC: 0.6168 (Simulation time: 00 hr 12 min 45 sec)
Heartbeat CPU 0 instructions: 97000531 cycles: 86709541 heartbeat IPC: 3.858 cumulative IPC: 0.6223 (Simulation time: 00 hr 12 min 48 sec)
Heartbeat CPU 0 instructions: 97500532 cycles: 86834085 heartbeat IPC: 4.015 cumulative IPC: 0.6279 (Simulation time: 00 hr 12 min 50 sec)
Heartbeat CPU 0 instructions: 98000536 cycles: 86965849 heartbeat IPC: 3.795 cumulative IPC: 0.6334 (Simulation time: 00 hr 12 min 52 sec)
Heartbeat CPU 0 instructions: 98500538 cycles: 87098992 heartbeat IPC: 3.755 cumulative IPC: 0.6389 (Simulation time: 00 hr 12 min 54 sec)
Heartbeat CPU 0 instructions: 99000541 cycles: 87266052 heartbeat IPC: 2.993 cumulative IPC: 0.6441 (Simulation time: 00 hr 12 min 56 sec)
Heartbeat CPU 0 instructions: 99500545 cycles: 87466613 heartbeat IPC: 2.493 cumulative IPC: 0.6489 (Simulation time: 00 hr 12 min 59 sec)
Heartbeat CPU 0 instructions: 100000550 cycles: 87659827 heartbeat IPC: 2.588 cumulative IPC: 0.6538 (Simulation time: 00 hr 13 min 01 sec)
Heartbeat CPU 0 instructions: 100500553 cycles: 87870378 heartbeat IPC: 2.375 cumulative IPC: 0.6586 (Simulation time: 00 hr 13 min 04 sec)
Heartbeat CPU 0 instructions: 101000553 cycles: 88017655 heartbeat IPC: 3.395 cumulative IPC: 0.6638 (Simulation time: 00 hr 13 min 06 sec)
Heartbeat CPU 0 instructions: 101500557 cycles: 88219752 heartbeat IPC: 2.474 cumulative IPC: 0.6686 (Simulation time: 00 hr 13 min 09 sec)
Heartbeat CPU 0 instructions: 102000559 cycles: 88399566 heartbeat IPC: 2.781 cumulative IPC: 0.6735 (Simulation time: 00 hr 13 min 11 sec)
Heartbeat CPU 0 instructions: 102500559 cycles: 88603386 heartbeat IPC: 2.453 cumulative IPC: 0.6782 (Simulation time: 00 hr 13 min 14 sec)
Heartbeat CPU 0 instructions: 103000561 cycles: 88773141 heartbeat IPC: 2.945 cumulative IPC: 0.6831 (Simulation time: 00 hr 13 min 16 sec)
Heartbeat CPU 0 instructions: 103500562 cycles: 89657802 heartbeat IPC: 0.5652 cumulative IPC: 0.6818 (Simulation time: 00 hr 13 min 23 sec)
Heartbeat CPU 0 instructions: 104000566 cycles: 90442986 heartbeat IPC: 0.6368 cumulative IPC: 0.6813 (Simulation time: 00 hr 13 min 28 sec)
Heartbeat CPU 0 instructions: 104500566 cycles: 90813672 heartbeat IPC: 1.349 cumulative IPC: 0.6845 (Simulation time: 00 hr 13 min 31 sec)
Heartbeat CPU 0 instructions: 105000567 cycles: 91247971 heartbeat IPC: 1.151 cumulative IPC: 0.687 (Simulation time: 00 hr 13 min 35 sec)
Heartbeat CPU 0 instructions: 105500570 cycles: 91632617 heartbeat IPC: 1.3 cumulative IPC: 0.6899 (Simulation time: 00 hr 13 min 38 sec)
Heartbeat CPU 0 instructions: 106000572 cycles: 92018739 heartbeat IPC: 1.295 cumulative IPC: 0.6928 (Simulation time: 00 hr 13 min 42 sec)
Heartbeat CPU 0 instructions: 106500579 cycles: 92352381 heartbeat IPC: 1.499 cumulative IPC: 0.6961 (Simulation time: 00 hr 13 min 45 sec)
Heartbeat CPU 0 instructions: 107000579 cycles: 92761440 heartbeat IPC: 1.222 cumulative IPC: 0.6988 (Simulation time: 00 hr 13 min 48 sec)
Heartbeat CPU 0 instructions: 107500582 cycles: 93104105 heartbeat IPC: 1.459 cumulative IPC: 0.7019 (Simulation time: 00 hr 13 min 51 sec)
Heartbeat CPU 0 instructions: 108000582 cycles: 93445191 heartbeat IPC: 1.466 cumulative IPC: 0.7051 (Simulation time: 00 hr 13 min 54 sec)
Heartbeat CPU 0 instructions: 108500583 cycles: 93797651 heartbeat IPC: 1.419 cumulative IPC: 0.7081 (Simulation time: 00 hr 13 min 57 sec)
Heartbeat CPU 0 instructions: 109000583 cycles: 94082647 heartbeat IPC: 1.754 cumulative IPC: 0.7117 (Simulation time: 00 hr 14 min 00 sec)
Heartbeat CPU 0 instructions: 109500586 cycles: 94403578 heartbeat IPC: 1.558 cumulative IPC: 0.715 (Simulation time: 00 hr 14 min 03 sec)
Heartbeat CPU 0 instructions: 110000589 cycles: 94666504 heartbeat IPC: 1.902 cumulative IPC: 0.7187 (Simulation time: 00 hr 14 min 06 sec)
Heartbeat CPU 0 instructions: 110500589 cycles: 95092661 heartbeat IPC: 1.173 cumulative IPC: 0.7211 (Simulation time: 00 hr 14 min 09 sec)
Heartbeat CPU 0 instructions: 111000590 cycles: 95412016 heartbeat IPC: 1.566 cumulative IPC: 0.7243 (Simulation time: 00 hr 14 min 12 sec)
Heartbeat CPU 0 instructions: 111500596 cycles: 95701026 heartbeat IPC: 1.73 cumulative IPC: 0.7277 (Simulation time: 00 hr 14 min 15 sec)
Heartbeat CPU 0 instructions: 112000596 cycles: 96058929 heartbeat IPC: 1.397 cumulative IPC: 0.7305 (Simulation time: 00 hr 14 min 18 sec)
Heartbeat CPU 0 instructions: 112500597 cycles: 96353532 heartbeat IPC: 1.697 cumulative IPC: 0.7339 (Simulation time: 00 hr 14 min 21 sec)
Heartbeat CPU 0 instructions: 113000598 cycles: 96665949 heartbeat IPC: 1.6 cumulative IPC: 0.737 (Simulation time: 00 hr 14 min 24 sec)
Heartbeat CPU 0 instructions: 113500605 cycles: 97713316 heartbeat IPC: 0.4774 cumulative IPC: 0.7339 (Simulation time: 00 hr 14 min 32 sec)
Heartbeat CPU 0 instructions: 114000607 cycles: 100899159 heartbeat IPC: 0.1569 cumulative IPC: 0.7134 (Simulation time: 00 hr 14 min 56 sec)
Heartbeat CPU 0 instructions: 114500607 cycles: 101927286 heartbeat IPC: 0.4863 cumulative IPC: 0.7108 (Simulation time: 00 hr 15 min 04 sec)
Heartbeat CPU 0 instructions: 115000614 cycles: 103371332 heartbeat IPC: 0.3463 cumulative IPC: 0.7051 (Simulation time: 00 hr 15 min 14 sec)
Heartbeat CPU 0 instructions: 115500616 cycles: 103606710 heartbeat IPC: 2.124 cumulative IPC: 0.7087 (Simulation time: 00 hr 15 min 16 sec)
Heartbeat CPU 0 instructions: 116000622 cycles: 103812111 heartbeat IPC: 2.434 cumulative IPC: 0.7126 (Simulation time: 00 hr 15 min 19 sec)
Heartbeat CPU 0 instructions: 116500623 cycles: 104049438 heartbeat IPC: 2.107 cumulative IPC: 0.7161 (Simulation time: 00 hr 15 min 22 sec)
Heartbeat CPU 0 instructions: 117000625 cycles: 104319372 heartbeat IPC: 1.852 cumulative IPC: 0.7194 (Simulation time: 00 hr 15 min 24 sec)
Heartbeat CPU 0 instructions: 117500629 cycles: 104649934 heartbeat IPC: 1.513 cumulative IPC: 0.7222 (Simulation time: 00 hr 15 min 27 sec)
Heartbeat CPU 0 instructions: 118000631 cycles: 104957852 heartbeat IPC: 1.624 cumulative IPC: 0.7252 (Simulation time: 00 hr 15 min 30 sec)
Heartbeat CPU 0 instructions: 118500631 cycles: 105173240 heartbeat IPC: 2.321 cumulative IPC: 0.7288 (Simulation time: 00 hr 15 min 33 sec)
Heartbeat CPU 0 instructions: 119000634 cycles: 105317333 heartbeat IPC: 3.47 cumulative IPC: 0.733 (Simulation time: 00 hr 15 min 35 sec)
Heartbeat CPU 0 instructions: 119500636 cycles: 105432008 heartbeat IPC: 4.36 cumulative IPC: 0.7374 (Simulation time: 00 hr 15 min 37 sec)
Heartbeat CPU 0 instructions: 120000639 cycles: 105557254 heartbeat IPC: 3.992 cumulative IPC: 0.7418 (Simulation time: 00 hr 15 min 39 sec)
Heartbeat CPU 0 instructions: 120500641 cycles: 105766907 heartbeat IPC: 2.385 cumulative IPC: 0.7454 (Simulation time: 00 hr 15 min 42 sec)
Heartbeat CPU 0 instructions: 121000645 cycles: 105901032 heartbeat IPC: 3.728 cumulative IPC: 0.7496 (Simulation time: 00 hr 15 min 44 sec)
Heartbeat CPU 0 instructions: 121500647 cycles: 106036863 heartbeat IPC: 3.681 cumulative IPC: 0.7538 (Simulation time: 00 hr 15 min 46 sec)
Heartbeat CPU 0 instructions: 122000647 cycles: 106165744 heartbeat IPC: 3.88 cumulative IPC: 0.7581 (Simulation time: 00 hr 15 min 48 sec)
Heartbeat CPU 0 instructions: 122500654 cycles: 106294730 heartbeat IPC: 3.876 cumulative IPC: 0.7623 (Simulation time: 00 hr 15 min 50 sec)
Heartbeat CPU 0 instructions: 123000660 cycles: 106409418 heartbeat IPC: 4.36 cumulative IPC: 0.7666 (Simulation time: 00 hr 15 min 53 sec)
Heartbeat CPU 0 instructions: 123500662 cycles: 106537293 heartbeat IPC: 3.91 cumulative IPC: 0.7708 (Simulation time: 00 hr 15 min 55 sec)
Heartbeat CPU 0 instructions: 124000662 cycles: 106669034 heartbeat IPC: 3.795 cumulative IPC: 0.775 (Simulation time: 00 hr 15 min 57 sec)
Heartbeat CPU 0 instructions: 124500665 cycles: 106797740 heartbeat IPC: 3.885 cumulative IPC: 0.7792 (Simulation time: 00 hr 15 min 59 sec)
Heartbeat CPU 0 instructions: 125000665 cycles: 108330756 heartbeat IPC: 0.3262 cumulative IPC: 0.7721 (Simulation time: 00 hr 16 min 11 sec)
Heartbeat CPU 0 instructions: 125500665 cycles: 110447280 heartbeat IPC: 0.2362 cumulative IPC: 0.7606 (Simulation time: 00 hr 16 min 26 sec)
Heartbeat CPU 0 instructions: 126000670 cycles: 111041208 heartbeat IPC: 0.8419 cumulative IPC: 0.7611 (Simulation time: 00 hr 16 min 30 sec)
Heartbeat CPU 0 instructions: 126500670 cycles: 111334112 heartbeat IPC: 1.707 cumulative IPC: 0.7639 (Simulation time: 00 hr 16 min 33 sec)
Heartbeat CPU 0 instructions: 127000670 cycles: 111619452 heartbeat IPC: 1.752 cumulative IPC: 0.7667 (Simulation time: 00 hr 16 min 36 sec)
Heartbeat CPU 0 instructions: 127500673 cycles: 111910527 heartbeat IPC: 1.718 cumulative IPC: 0.7694 (Simulation time: 00 hr 16 min 39 sec)
Heartbeat CPU 0 instructions: 128000678 cycles: 112225560 heartbeat IPC: 1.587 cumulative IPC: 0.772 (Simulation time: 00 hr 16 min 42 sec)
Heartbeat CPU 0 instructions: 128500682 cycles: 112541101 heartbeat IPC: 1.585 cumulative IPC: 0.7745 (Simulation time: 00 hr 16 min 45 sec)
Heartbeat CPU 0 instructions: 129000686 cycles: 112914526 heartbeat IPC: 1.339 cumulative IPC: 0.7766 (Simulation time: 00 hr 16 min 48 sec)
Heartbeat CPU 0 instructions: 129500690 cycles: 113214171 heartbeat IPC: 1.669 cumulative IPC: 0.7792 (Simulation time: 00 hr 16 min 51 sec)
Heartbeat CPU 0 instructions: 130000696 cycles: 113572370 heartbeat IPC: 1.396 cumulative IPC: 0.7814 (Simulation time: 00 hr 16 min 54 sec)
Heartbeat CPU 0 instructions: 130500702 cycles: 113900936 heartbeat IPC: 1.522 cumulative IPC: 0.7837 (Simulation time: 00 hr 16 min 57 sec)
Heartbeat CPU 0 instructions: 131000702 cycles: 114186610 heartbeat IPC: 1.75 cumulative IPC: 0.7864 (Simulation time: 00 hr 17 min 00 sec)
Heartbeat CPU 0 instructions: 131500703 cycles: 114531264 heartbeat IPC: 1.451 cumulative IPC: 0.7886 (Simulation time: 00 hr 17 min 03 sec)
Heartbeat CPU 0 instructions: 132000705 cycles: 114825376 heartbeat IPC: 1.7 cumulative IPC: 0.7912 (Simulation time: 00 hr 17 min 06 sec)
Heartbeat CPU 0 instructions: 132500710 cycles: 115178153 heartbeat IPC: 1.417 cumulative IPC: 0.7933 (Simulation time: 00 hr 17 min 09 sec)
Heartbeat CPU 0 instructions: 133000713 cycles: 115547235 heartbeat IPC: 1.355 cumulative IPC: 0.7953 (Simulation time: 00 hr 17 min 12 sec)
Heartbeat CPU 0 instructions: 133500713 cycles: 115814793 heartbeat IPC: 1.869 cumulative IPC: 0.7981 (Simulation time: 00 hr 17 min 15 sec)
Heartbeat CPU 0 instructions: 134000713 cycles: 116143666 heartbeat IPC: 1.52 cumulative IPC: 0.8003 (Simulation time: 00 hr 17 min 18 sec)
Heartbeat CPU 0 instructions: 134500715 cycles: 116549282 heartbeat IPC: 1.233 cumulative IPC: 0.802 (Simulation time: 00 hr 17 min 21 sec)
Heartbeat CPU 0 instructions: 135000722 cycles: 116963364 heartbeat IPC: 1.208 cumulative IPC: 0.8036 (Simulation time: 00 hr 17 min 25 sec)
Heartbeat CPU 0 instructions: 135500725 cycles: 120182489 heartbeat IPC: 0.1553 cumulative IPC: 0.7844 (Simulation time: 00 hr 17 min 49 sec)
Heartbeat CPU 0 instructions: 136000731 cycles: 120501497 heartbeat IPC: 1.567 cumulative IPC: 0.7867 (Simulation time: 00 hr 17 min 53 sec)
Heartbeat CPU 0 instructions: 136500733 cycles: 120631171 heartbeat IPC: 3.856 cumulative IPC: 0.7904 (Simulation time: 00 hr 17 min 55 sec)
Heartbeat CPU 0 instructions: 137000737 cycles: 120755855 heartbeat IPC: 4.01 cumulative IPC: 0.794 (Simulation time: 00 hr 17 min 58 sec)
Heartbeat CPU 0 instructions: 137500738 cycles: 120892204 heartbeat IPC: 3.667 cumulative IPC: 0.7976 (Simulation time: 00 hr 18 min 00 sec)
Heartbeat CPU 0 instructions: 138000739 cycles: 121142181 heartbeat IPC: 2 cumulative IPC: 0.8003 (Simulation time: 00 hr 18 min 02 sec)
Heartbeat CPU 0 instructions: 138500739 cycles: 121499460 heartbeat IPC: 1.399 cumulative IPC: 0.8023 (Simulation time: 00 hr 18 min 05 sec)
Heartbeat CPU 0 instructions: 139000739 cycles: 121844387 heartbeat IPC: 1.45 cumulative IPC: 0.8043 (Simulation time: 00 hr 18 min 08 sec)
Heartbeat CPU 0 instructions: 139500741 cycles: 122148391 heartbeat IPC: 1.645 cumulative IPC: 0.8066 (Simulation time: 00 hr 18 min 11 sec)
Heartbeat CPU 0 instructions: 140000744 cycles: 122472170 heartbeat IPC: 1.544 cumulative IPC: 0.8087 (Simulation time: 00 hr 18 min 14 sec)
Heartbeat CPU 0 instructions: 140500750 cycles: 122785467 heartbeat IPC: 1.596 cumulative IPC: 0.8109 (Simulation time: 00 hr 18 min 17 sec)
Heartbeat CPU 0 instructions: 141000752 cycles: 123091020 heartbeat IPC: 1.636 cumulative IPC: 0.8132 (Simulation time: 00 hr 18 min 20 sec)
Heartbeat CPU 0 instructions: 141500752 cycles: 123461192 heartbeat IPC: 1.351 cumulative IPC: 0.815 (Simulation time: 00 hr 18 min 23 sec)
Heartbeat CPU 0 instructions: 142000752 cycles: 123796476 heartbeat IPC: 1.491 cumulative IPC: 0.817 (Simulation time: 00 hr 18 min 26 sec)
Heartbeat CPU 0 instructions: 142500753 cycles: 124067270 heartbeat IPC: 1.846 cumulative IPC: 0.8195 (Simulation time: 00 hr 18 min 28 sec)
Heartbeat CPU 0 instructions: 143000755 cycles: 124313328 heartbeat IPC: 2.032 cumulative IPC: 0.8221 (Simulation time: 00 hr 18 min 31 sec)
Heartbeat CPU 0 instructions: 143500755 cycles: 124650356 heartbeat IPC: 1.484 cumulative IPC: 0.8241 (Simulation time: 00 hr 18 min 34 sec)
Heartbeat CPU 0 instructions: 144000757 cycles: 125030813 heartbeat IPC: 1.314 cumulative IPC: 0.8257 (Simulation time: 00 hr 18 min 37 sec)
Heartbeat CPU 0 instructions: 144500759 cycles: 125392845 heartbeat IPC: 1.381 cumulative IPC: 0.8275 (Simulation time: 00 hr 18 min 40 sec)
Heartbeat CPU 0 instructions: 145000762 cycles: 125679270 heartbeat IPC: 1.746 cumulative IPC: 0.8298 (Simulation time: 00 hr 18 min 43 sec)
Heartbeat CPU 0 instructions: 145500766 cycles: 126004555 heartbeat IPC: 1.537 cumulative IPC: 0.8318 (Simulation time: 00 hr 18 min 46 sec)
Heartbeat CPU 0 instructions: 146000767 cycles: 126694726 heartbeat IPC: 0.7245 cumulative IPC: 0.8311 (Simulation time: 00 hr 18 min 51 sec)
Heartbeat CPU 0 instructions: 146500770 cycles: 127344891 heartbeat IPC: 0.769 cumulative IPC: 0.8308 (Simulation time: 00 hr 18 min 56 sec)
Heartbeat CPU 0 instructions: 147000770 cycles: 127701514 heartbeat IPC: 1.402 cumulative IPC: 0.8325 (Simulation time: 00 hr 18 min 59 sec)
Heartbeat CPU 0 instructions: 147500773 cycles: 128050175 heartbeat IPC: 1.434 cumulative IPC: 0.8343 (Simulation time: 00 hr 19 min 02 sec)
Heartbeat CPU 0 instructions: 148000774 cycles: 128365428 heartbeat IPC: 1.586 cumulative IPC: 0.8363 (Simulation time: 00 hr 19 min 05 sec)
Heartbeat CPU 0 instructions: 148500776 cycles: 128770747 heartbeat IPC: 1.234 cumulative IPC: 0.8377 (Simulation time: 00 hr 19 min 08 sec)
Heartbeat CPU 0 instructions: 149000776 cycles: 129105486 heartbeat IPC: 1.494 cumulative IPC: 0.8396 (Simulation time: 00 hr 19 min 11 sec)
Heartbeat CPU 0 instructions: 149500776 cycles: 129437194 heartbeat IPC: 1.507 cumulative IPC: 0.8414 (Simulation time: 00 hr 19 min 14 sec)
Heartbeat CPU 0 instructions: 150000777 cycles: 129726251 heartbeat IPC: 1.73 cumulative IPC: 0.8436 (Simulation time: 00 hr 19 min 17 sec)
Heartbeat CPU 0 instructions: 150500778 cycles: 130069747 heartbeat IPC: 1.456 cumulative IPC: 0.8454 (Simulation time: 00 hr 19 min 20 sec)
Heartbeat CPU 0 instructions: 151000784 cycles: 130393905 heartbeat IPC: 1.542 cumulative IPC: 0.8473 (Simulation time: 00 hr 19 min 23 sec)
Heartbeat CPU 0 instructions: 151500784 cycles: 130704337 heartbeat IPC: 1.611 cumulative IPC: 0.8493 (Simulation time: 00 hr 19 min 26 sec)
Heartbeat CPU 0 instructions: 152000784 cycles: 130896266 heartbeat IPC: 2.605 cumulative IPC: 0.8521 (Simulation time: 00 hr 19 min 28 sec)
Heartbeat CPU 0 instructions: 152500788 cycles: 131168254 heartbeat IPC: 1.838 cumulative IPC: 0.8543 (Simulation time: 00 hr 19 min 31 sec)
Heartbeat CPU 0 instructions: 153000788 cycles: 131699771 heartbeat IPC: 0.9407 cumulative IPC: 0.8547 (Simulation time: 00 hr 19 min 35 sec)
Heartbeat CPU 0 instructions: 153500788 cycles: 135529549 heartbeat IPC: 0.1306 cumulative IPC: 0.8324 (Simulation time: 00 hr 20 min 02 sec)
Heartbeat CPU 0 instructions: 154000790 cycles: 135937374 heartbeat IPC: 1.226 cumulative IPC: 0.8337 (Simulation time: 00 hr 20 min 06 sec)
Heartbeat CPU 0 instructions: 154500791 cycles: 136336779 heartbeat IPC: 1.252 cumulative IPC: 0.835 (Simulation time: 00 hr 20 min 09 sec)
Heartbeat CPU 0 instructions: 155000797 cycles: 136806423 heartbeat IPC: 1.065 cumulative IPC: 0.8359 (Simulation time: 00 hr 20 min 12 sec)
Heartbeat CPU 0 instructions: 155500798 cycles: 137178793 heartbeat IPC: 1.343 cumulative IPC: 0.8374 (Simulation time: 00 hr 20 min 15 sec)
Heartbeat CPU 0 instructions: 156000799 cycles: 137508539 heartbeat IPC: 1.516 cumulative IPC: 0.8391 (Simulation time: 00 hr 20 min 18 sec)
Heartbeat CPU 0 instructions: 156500799 cycles: 138189195 heartbeat IPC: 0.7346 cumulative IPC: 0.8386 (Simulation time: 00 hr 20 min 23 sec)
Heartbeat CPU 0 instructions: 157000799 cycles: 138827335 heartbeat IPC: 0.7835 cumulative IPC: 0.8383 (Simulation time: 00 hr 20 min 28 sec)
Heartbeat CPU 0 instructions: 157500806 cycles: 139560056 heartbeat IPC: 0.6824 cumulative IPC: 0.8374 (Simulation time: 00 hr 20 min 33 sec)
Heartbeat CPU 0 instructions: 158000806 cycles: 140772446 heartbeat IPC: 0.4124 cumulative IPC: 0.8334 (Simulation time: 00 hr 20 min 41 sec)
Heartbeat CPU 0 instructions: 158500806 cycles: 143322368 heartbeat IPC: 0.1961 cumulative IPC: 0.8211 (Simulation time: 00 hr 20 min 59 sec)
Heartbeat CPU 0 instructions: 159000812 cycles: 144533960 heartbeat IPC: 0.4127 cumulative IPC: 0.8174 (Simulation time: 00 hr 21 min 08 sec)
Heartbeat CPU 0 instructions: 159500816 cycles: 145228907 heartbeat IPC: 0.7195 cumulative IPC: 0.8169 (Simulation time: 00 hr 21 min 13 sec)
Heartbeat CPU 0 instructions: 160000818 cycles: 145623338 heartbeat IPC: 1.268 cumulative IPC: 0.8182 (Simulation time: 00 hr 21 min 16 sec)
Heartbeat CPU 0 instructions: 160500819 cycles: 145972357 heartbeat IPC: 1.433 cumulative IPC: 0.8198 (Simulation time: 00 hr 21 min 19 sec)
Heartbeat CPU 0 instructions: 161000820 cycles: 146291582 heartbeat IPC: 1.566 cumulative IPC: 0.8216 (Simulation time: 00 hr 21 min 22 sec)
Heartbeat CPU 0 instructions: 161500826 cycles: 146578254 heartbeat IPC: 1.744 cumulative IPC: 0.8235 (Simulation time: 00 hr 21 min 25 sec)
Heartbeat CPU 0 instructions: 162000827 cycles: 147047596 heartbeat IPC: 1.065 cumulative IPC: 0.8244 (Simulation time: 00 hr 21 min 28 sec)
Heartbeat CPU 0 instructions: 162500827 cycles: 147677166 heartbeat IPC: 0.7942 cumulative IPC: 0.8242 (Simulation time: 00 hr 21 min 33 sec)
Heartbeat CPU 0 instructions: 163000829 cycles: 148056437 heartbeat IPC: 1.318 cumulative IPC: 0.8256 (Simulation time: 00 hr 21 min 36 sec)
Heartbeat CPU 0 instructions: 163500829 cycles: 148483007 heartbeat IPC: 1.172 cumulative IPC: 0.8267 (Simulation time: 00 hr 21 min 40 sec)
Heartbeat CPU 0 instructions: 164000829 cycles: 148721197 heartbeat IPC: 2.099 cumulative IPC: 0.8289 (Simulation time: 00 hr 21 min 42 sec)
Heartbeat CPU 0 instructions: 164500834 cycles: 148996929 heartbeat IPC: 1.813 cumulative IPC: 0.8309 (Simulation time: 00 hr 21 min 44 sec)
Heartbeat CPU 0 instructions: 165000836 cycles: 149332364 heartbeat IPC: 1.491 cumulative IPC: 0.8325 (Simulation time: 00 hr 21 min 47 sec)
Heartbeat CPU 0 instructions: 165500839 cycles: 149643750 heartbeat IPC: 1.606 cumulative IPC: 0.8342 (Simulation time: 00 hr 21 min 50 sec)
Heartbeat CPU 0 instructions: 166000843 cycles: 150012158 heartbeat IPC: 1.357 cumulative IPC: 0.8356 (Simulation time: 00 hr 21 min 53 sec)
Heartbeat CPU 0 instructions: 166500843 cycles: 150354768 heartbeat IPC: 1.459 cumulative IPC: 0.8371 (Simulation time: 00 hr 21 min 56 sec)
Heartbeat CPU 0 instructions: 167000844 cycles: 150681336 heartbeat IPC: 1.531 cumulative IPC: 0.8387 (Simulation time: 00 hr 21 min 59 sec)
Heartbeat CPU 0 instructions: 167500846 cycles: 151020249 heartbeat IPC: 1.475 cumulative IPC: 0.8403 (Simulation time: 00 hr 22 min 02 sec)
Heartbeat CPU 0 instructions: 168000853 cycles: 151411383 heartbeat IPC: 1.278 cumulative IPC: 0.8415 (Simulation time: 00 hr 22 min 05 sec)
Heartbeat CPU 0 instructions: 168500857 cycles: 151700654 heartbeat IPC: 1.728 cumulative IPC: 0.8433 (Simulation time: 00 hr 22 min 08 sec)
Heartbeat CPU 0 instructions: 169000858 cycles: 152030318 heartbeat IPC: 1.517 cumulative IPC: 0.8449 (Simulation time: 00 hr 22 min 11 sec)
Heartbeat CPU 0 instructions: 169500859 cycles: 152330717 heartbeat IPC: 1.664 cumulative IPC: 0.8467 (Simulation time: 00 hr 22 min 14 sec)
Heartbeat CPU 0 instructions: 170000865 cycles: 152674985 heartbeat IPC: 1.452 cumulative IPC: 0.8481 (Simulation time: 00 hr 22 min 17 sec)
Heartbeat CPU 0 instructions: 170500866 cycles: 152980418 heartbeat IPC: 1.637 cumulative IPC: 0.8498 (Simulation time: 00 hr 22 min 19 sec)
Heartbeat CPU 0 instructions: 171000872 cycles: 153352342 heartbeat IPC: 1.344 cumulative IPC: 0.8511 (Simulation time: 00 hr 22 min 22 sec)
Heartbeat CPU 0 instructions: 171500873 cycles: 153630071 heartbeat IPC: 1.8 cumulative IPC: 0.853 (Simulation time: 00 hr 22 min 25 sec)
Heartbeat CPU 0 instructions: 172000874 cycles: 153938169 heartbeat IPC: 1.623 cumulative IPC: 0.8546 (Simulation time: 00 hr 22 min 28 sec)
Heartbeat CPU 0 instructions: 172500874 cycles: 154461353 heartbeat IPC: 0.9557 cumulative IPC: 0.855 (Simulation time: 00 hr 22 min 32 sec)
Heartbeat CPU 0 instructions: 173000876 cycles: 157216940 heartbeat IPC: 0.1815 cumulative IPC: 0.8423 (Simulation time: 00 hr 22 min 52 sec)
Heartbeat CPU 0 instructions: 173500879 cycles: 157676765 heartbeat IPC: 1.087 cumulative IPC: 0.8431 (Simulation time: 00 hr 22 min 56 sec)
Heartbeat CPU 0 instructions: 174000884 cycles: 158135910 heartbeat IPC: 1.089 cumulative IPC: 0.8438 (Simulation time: 00 hr 23 min 00 sec)
Heartbeat CPU 0 instructions: 174500884 cycles: 158503582 heartbeat IPC: 1.36 cumulative IPC: 0.8451 (Simulation time: 00 hr 23 min 03 sec)
Heartbeat CPU 0 instructions: 175000886 cycles: 158863361 heartbeat IPC: 1.39 cumulative IPC: 0.8465 (Simulation time: 00 hr 23 min 06 sec)
Heartbeat CPU 0 instructions: 175500891 cycles: 159241669 heartbeat IPC: 1.322 cumulative IPC: 0.8477 (Simulation time: 00 hr 23 min 09 sec)
Heartbeat CPU 0 instructions: 176000891 cycles: 159578959 heartbeat IPC: 1.482 cumulative IPC: 0.8491 (Simulation time: 00 hr 23 min 11 sec)
Heartbeat CPU 0 instructions: 176500895 cycles: 160018513 heartbeat IPC: 1.138 cumulative IPC: 0.85 (Simulation time: 00 hr 23 min 15 sec)
Heartbeat CPU 0 instructions: 177000898 cycles: 160304760 heartbeat IPC: 1.747 cumulative IPC: 0.8517 (Simulation time: 00 hr 23 min 18 sec)
Heartbeat CPU 0 instructions: 177500903 cycles: 161074442 heartbeat IPC: 0.6496 cumulative IPC: 0.8506 (Simulation time: 00 hr 23 min 23 sec)
Heartbeat CPU 0 instructions: 178000903 cycles: 163475422 heartbeat IPC: 0.2082 cumulative IPC: 0.8405 (Simulation time: 00 hr 23 min 41 sec)
Heartbeat CPU 0 instructions: 178500908 cycles: 164273440 heartbeat IPC: 0.6266 cumulative IPC: 0.8394 (Simulation time: 00 hr 23 min 46 sec)
Heartbeat CPU 0 instructions: 179000910 cycles: 166180266 heartbeat IPC: 0.2622 cumulative IPC: 0.8323 (Simulation time: 00 hr 23 min 57 sec)
Heartbeat CPU 0 instructions: 179500913 cycles: 167489235 heartbeat IPC: 0.382 cumulative IPC: 0.8285 (Simulation time: 00 hr 24 min 08 sec)
Heartbeat CPU 0 instructions: 180000913 cycles: 168436254 heartbeat IPC: 0.528 cumulative IPC: 0.8267 (Simulation time: 00 hr 24 min 16 sec)
Heartbeat CPU 0 instructions: 180500915 cycles: 168923756 heartbeat IPC: 1.026 cumulative IPC: 0.8273 (Simulation time: 00 hr 24 min 21 sec)
Heartbeat CPU 0 instructions: 181000916 cycles: 169383649 heartbeat IPC: 1.087 cumulative IPC: 0.8281 (Simulation time: 00 hr 24 min 25 sec)
Heartbeat CPU 0 instructions: 181500922 cycles: 169828617 heartbeat IPC: 1.124 cumulative IPC: 0.8289 (Simulation time: 00 hr 24 min 30 sec)
Heartbeat CPU 0 instructions: 182000922 cycles: 170372462 heartbeat IPC: 0.9194 cumulative IPC: 0.8292 (Simulation time: 00 hr 24 min 35 sec)
Heartbeat CPU 0 instructions: 182500923 cycles: 170926816 heartbeat IPC: 0.902 cumulative IPC: 0.8295 (Simulation time: 00 hr 24 min 40 sec)
Heartbeat CPU 0 instructions: 183000927 cycles: 171289957 heartbeat IPC: 1.377 cumulative IPC: 0.8307 (Simulation time: 00 hr 24 min 44 sec)
Heartbeat CPU 0 instructions: 183500929 cycles: 171651070 heartbeat IPC: 1.385 cumulative IPC: 0.832 (Simulation time: 00 hr 24 min 47 sec)
Heartbeat CPU 0 instructions: 184000929 cycles: 172022967 heartbeat IPC: 1.344 cumulative IPC: 0.8332 (Simulation time: 00 hr 24 min 51 sec)
Heartbeat CPU 0 instructions: 184500929 cycles: 172402863 heartbeat IPC: 1.316 cumulative IPC: 0.8343 (Simulation time: 00 hr 24 min 55 sec)
Heartbeat CPU 0 instructions: 185000932 cycles: 173158898 heartbeat IPC: 0.6613 cumulative IPC: 0.8335 (Simulation time: 00 hr 25 min 01 sec)
Heartbeat CPU 0 instructions: 185500932 cycles: 174319922 heartbeat IPC: 0.4307 cumulative IPC: 0.8306 (Simulation time: 00 hr 25 min 08 sec)
Heartbeat CPU 0 instructions: 186000938 cycles: 176920769 heartbeat IPC: 0.1922 cumulative IPC: 0.8206 (Simulation time: 00 hr 25 min 26 sec)
Heartbeat CPU 0 instructions: 186500941 cycles: 177328880 heartbeat IPC: 1.225 cumulative IPC: 0.8216 (Simulation time: 00 hr 25 min 29 sec)
Heartbeat CPU 0 instructions: 187000941 cycles: 177681846 heartbeat IPC: 1.417 cumulative IPC: 0.8229 (Simulation time: 00 hr 25 min 31 sec)
Heartbeat CPU 0 instructions: 187500941 cycles: 178004030 heartbeat IPC: 1.552 cumulative IPC: 0.8243 (Simulation time: 00 hr 25 min 34 sec)
Heartbeat CPU 0 instructions: 188000941 cycles: 179824369 heartbeat IPC: 0.2747 cumulative IPC: 0.8183 (Simulation time: 00 hr 25 min 44 sec)
Heartbeat CPU 0 instructions: 188500942 cycles: 182181810 heartbeat IPC: 0.2121 cumulative IPC: 0.81 (Simulation time: 00 hr 25 min 57 sec)
Heartbeat CPU 0 instructions: 189000947 cycles: 183872423 heartbeat IPC: 0.2958 cumulative IPC: 0.8049 (Simulation time: 00 hr 26 min 06 sec)
Heartbeat CPU 0 instructions: 189500950 cycles: 184976711 heartbeat IPC: 0.4528 cumulative IPC: 0.8027 (Simulation time: 00 hr 26 min 13 sec)
Heartbeat CPU 0 instructions: 190000954 cycles: 186233151 heartbeat IPC: 0.398 cumulative IPC: 0.7998 (Simulation time: 00 hr 26 min 21 sec)
Heartbeat CPU 0 instructions: 190500954 cycles: 187982249 heartbeat IPC: 0.2859 cumulative IPC: 0.7947 (Simulation time: 00 hr 26 min 31 sec)
Heartbeat CPU 0 instructions: 191000955 cycles: 189261642 heartbeat IPC: 0.3908 cumulative IPC: 0.7918 (Simulation time: 00 hr 26 min 38 sec)
Heartbeat CPU 0 instructions: 191500959 cycles: 191032464 heartbeat IPC: 0.2824 cumulative IPC: 0.7868 (Simulation time: 00 hr 26 min 49 sec)
Heartbeat CPU 0 instructions: 192000959 cycles: 192850493 heartbeat IPC: 0.275 cumulative IPC: 0.7817 (Simulation time: 00 hr 27 min 00 sec)
Heartbeat CPU 0 instructions: 192500959 cycles: 195156927 heartbeat IPC: 0.2168 cumulative IPC: 0.7746 (Simulation time: 00 hr 27 min 15 sec)
Heartbeat CPU 0 instructions: 193000960 cycles: 195666821 heartbeat IPC: 0.9806 cumulative IPC: 0.7752 (Simulation time: 00 hr 27 min 19 sec)
Heartbeat CPU 0 instructions: 193500961 cycles: 196078352 heartbeat IPC: 1.215 cumulative IPC: 0.7761 (Simulation time: 00 hr 27 min 22 sec)
Heartbeat CPU 0 instructions: 194000964 cycles: 196888521 heartbeat IPC: 0.6172 cumulative IPC: 0.7754 (Simulation time: 00 hr 27 min 28 sec)
Heartbeat CPU 0 instructions: 194500966 cycles: 197973709 heartbeat IPC: 0.4608 cumulative IPC: 0.7736 (Simulation time: 00 hr 27 min 35 sec)
Heartbeat CPU 0 instructions: 195000968 cycles: 198634731 heartbeat IPC: 0.7564 cumulative IPC: 0.7736 (Simulation time: 00 hr 27 min 40 sec)
Heartbeat CPU 0 instructions: 195500973 cycles: 199263753 heartbeat IPC: 0.7949 cumulative IPC: 0.7736 (Simulation time: 00 hr 27 min 45 sec)
Heartbeat CPU 0 instructions: 196000979 cycles: 199806893 heartbeat IPC: 0.9206 cumulative IPC: 0.774 (Simulation time: 00 hr 27 min 50 sec)
Heartbeat CPU 0 instructions: 196500979 cycles: 200414125 heartbeat IPC: 0.8234 cumulative IPC: 0.7742 (Simulation time: 00 hr 27 min 54 sec)
Heartbeat CPU 0 instructions: 197000986 cycles: 200864521 heartbeat IPC: 1.11 cumulative IPC: 0.775 (Simulation time: 00 hr 27 min 58 sec)
Heartbeat CPU 0 instructions: 197500986 cycles: 201421224 heartbeat IPC: 0.8981 cumulative IPC: 0.7754 (Simulation time: 00 hr 28 min 03 sec)
Heartbeat CPU 0 instructions: 198000986 cycles: 202009263 heartbeat IPC: 0.8503 cumulative IPC: 0.7756 (Simulation time: 00 hr 28 min 08 sec)
Heartbeat CPU 0 instructions: 198500986 cycles: 203708424 heartbeat IPC: 0.2943 cumulative IPC: 0.7713 (Simulation time: 00 hr 28 min 18 sec)
Heartbeat CPU 0 instructions: 199000992 cycles: 204478186 heartbeat IPC: 0.6496 cumulative IPC: 0.7709 (Simulation time: 00 hr 28 min 23 sec)
Heartbeat CPU 0 instructions: 199500997 cycles: 205587328 heartbeat IPC: 0.4508 cumulative IPC: 0.769 (Simulation time: 00 hr 28 min 29 sec)
Heartbeat CPU 0 instructions: 200001003 cycles: 206887118 heartbeat IPC: 0.3847 cumulative IPC: 0.7665 (Simulation time: 00 hr 28 min 39 sec)
Heartbeat CPU 0 instructions: 200501004 cycles: 207914722 heartbeat IPC: 0.4866 cumulative IPC: 0.765 (Simulation time: 00 hr 28 min 48 sec)
Heartbeat CPU 0 instructions: 201001004 cycles: 209055162 heartbeat IPC: 0.4384 cumulative IPC: 0.7631 (Simulation time: 00 hr 28 min 58 sec)
Heartbeat CPU 0 instructions: 201501010 cycles: 210553367 heartbeat IPC: 0.3337 cumulative IPC: 0.7599 (Simulation time: 00 hr 29 min 08 sec)
Heartbeat CPU 0 instructions: 202001010 cycles: 210980990 heartbeat IPC: 1.169 cumulative IPC: 0.7608 (Simulation time: 00 hr 29 min 11 sec)
Heartbeat CPU 0 instructions: 202501010 cycles: 213488110 heartbeat IPC: 0.1994 cumulative IPC: 0.7538 (Simulation time: 00 hr 29 min 28 sec)
Heartbeat CPU 0 instructions: 203001017 cycles: 215086452 heartbeat IPC: 0.3128 cumulative IPC: 0.7504 (Simulation time: 00 hr 29 min 37 sec)
Heartbeat CPU 0 instructions: 203501020 cycles: 215348263 heartbeat IPC: 1.91 cumulative IPC: 0.7519 (Simulation time: 00 hr 29 min 39 sec)
Heartbeat CPU 0 instructions: 204001020 cycles: 215601344 heartbeat IPC: 1.976 cumulative IPC: 0.7534 (Simulation time: 00 hr 29 min 42 sec)
Heartbeat CPU 0 instructions: 204501022 cycles: 215821488 heartbeat IPC: 2.271 cumulative IPC: 0.755 (Simulation time: 00 hr 29 min 44 sec)
Heartbeat CPU 0 instructions: 205001025 cycles: 216063321 heartbeat IPC: 2.068 cumulative IPC: 0.7566 (Simulation time: 00 hr 29 min 46 sec)
Heartbeat CPU 0 instructions: 205501025 cycles: 216769283 heartbeat IPC: 0.7083 cumulative IPC: 0.7564 (Simulation time: 00 hr 29 min 51 sec)
Heartbeat CPU 0 instructions: 206001025 cycles: 218458037 heartbeat IPC: 0.2961 cumulative IPC: 0.7526 (Simulation time: 00 hr 30 min 02 sec)
Heartbeat CPU 0 instructions: 206501025 cycles: 219195017 heartbeat IPC: 0.6784 cumulative IPC: 0.7524 (Simulation time: 00 hr 30 min 07 sec)
Heartbeat CPU 0 instructions: 207001031 cycles: 220862021 heartbeat IPC: 0.2999 cumulative IPC: 0.7488 (Simulation time: 00 hr 30 min 17 sec)
Heartbeat CPU 0 instructions: 207501034 cycles: 221488710 heartbeat IPC: 0.7978 cumulative IPC: 0.7489 (Simulation time: 00 hr 30 min 21 sec)
Heartbeat CPU 0 instructions: 208001034 cycles: 222675922 heartbeat IPC: 0.4212 cumulative IPC: 0.7471 (Simulation time: 00 hr 30 min 28 sec)
Heartbeat CPU 0 instructions: 208501037 cycles: 225628469 heartbeat IPC: 0.1693 cumulative IPC: 0.7391 (Simulation time: 00 hr 30 min 45 sec)
Heartbeat CPU 0 instructions: 209001040 cycles: 227363424 heartbeat IPC: 0.2882 cumulative IPC: 0.7355 (Simulation time: 00 hr 31 min 01 sec)
Heartbeat CPU 0 instructions: 209501044 cycles: 228817341 heartbeat IPC: 0.3439 cumulative IPC: 0.7329 (Simulation time: 00 hr 31 min 13 sec)
Heartbeat CPU 0 instructions: 210001047 cycles: 229290970 heartbeat IPC: 1.056 cumulative IPC: 0.7336 (Simulation time: 00 hr 31 min 17 sec)
Heartbeat CPU 0 instructions: 210501048 cycles: 229750331 heartbeat IPC: 1.088 cumulative IPC: 0.7343 (Simulation time: 00 hr 31 min 22 sec)
Heartbeat CPU 0 instructions: 211001053 cycles: 230246733 heartbeat IPC: 1.007 cumulative IPC: 0.735 (Simulation time: 00 hr 31 min 26 sec)
Heartbeat CPU 0 instructions: 211501054 cycles: 230702038 heartbeat IPC: 1.098 cumulative IPC: 0.7357 (Simulation time: 00 hr 31 min 31 sec)
Heartbeat CPU 0 instructions: 212001059 cycles: 231712465 heartbeat IPC: 0.4948 cumulative IPC: 0.7346 (Simulation time: 00 hr 31 min 37 sec)
Heartbeat CPU 0 instructions: 212501065 cycles: 232359931 heartbeat IPC: 0.7723 cumulative IPC: 0.7347 (Simulation time: 00 hr 31 min 42 sec)
Heartbeat CPU 0 instructions: 213001068 cycles: 233603569 heartbeat IPC: 0.402 cumulative IPC: 0.7329 (Simulation time: 00 hr 31 min 49 sec)
Heartbeat CPU 0 instructions: 213501069 cycles: 235147925 heartbeat IPC: 0.3238 cumulative IPC: 0.73 (Simulation time: 00 hr 31 min 58 sec)
Heartbeat CPU 0 instructions: 214001070 cycles: 236670394 heartbeat IPC: 0.3284 cumulative IPC: 0.7273 (Simulation time: 00 hr 32 min 07 sec)
Heartbeat CPU 0 instructions: 214501071 cycles: 238189445 heartbeat IPC: 0.3292 cumulative IPC: 0.7247 (Simulation time: 00 hr 32 min 15 sec)
Heartbeat CPU 0 instructions: 215001077 cycles: 240407916 heartbeat IPC: 0.2254 cumulative IPC: 0.7198 (Simulation time: 00 hr 32 min 27 sec)
Heartbeat CPU 0 instructions: 215501084 cycles: 241966283 heartbeat IPC: 0.3209 cumulative IPC: 0.7171 (Simulation time: 00 hr 32 min 37 sec)
Heartbeat CPU 0 instructions: 216001087 cycles: 243502120 heartbeat IPC: 0.3256 cumulative IPC: 0.7146 (Simulation time: 00 hr 32 min 48 sec)
Heartbeat CPU 0 instructions: 216501087 cycles: 246644072 heartbeat IPC: 0.1591 cumulative IPC: 0.7071 (Simulation time: 00 hr 33 min 05 sec)
Heartbeat CPU 0 instructions: 217001087 cycles: 249471814 heartbeat IPC: 0.1768 cumulative IPC: 0.7008 (Simulation time: 00 hr 33 min 22 sec)
Heartbeat CPU 0 instructions: 217501093 cycles: 251251456 heartbeat IPC: 0.281 cumulative IPC: 0.6977 (Simulation time: 00 hr 33 min 33 sec)
Heartbeat CPU 0 instructions: 218001093 cycles: 251726415 heartbeat IPC: 1.053 cumulative IPC: 0.6984 (Simulation time: 00 hr 33 min 37 sec)
Heartbeat CPU 0 instructions: 218501095 cycles: 252178336 heartbeat IPC: 1.106 cumulative IPC: 0.6992 (Simulation time: 00 hr 33 min 41 sec)
Heartbeat CPU 0 instructions: 219001095 cycles: 252623248 heartbeat IPC: 1.124 cumulative IPC: 0.7 (Simulation time: 00 hr 33 min 46 sec)
Heartbeat CPU 0 instructions: 219501096 cycles: 253069383 heartbeat IPC: 1.121 cumulative IPC: 0.7008 (Simulation time: 00 hr 33 min 50 sec)
Heartbeat CPU 0 instructions: 220001096 cycles: 253510538 heartbeat IPC: 1.133 cumulative IPC: 0.7015 (Simulation time: 00 hr 33 min 54 sec)
Heartbeat CPU 0 instructions: 220501097 cycles: 253951418 heartbeat IPC: 1.134 cumulative IPC: 0.7023 (Simulation time: 00 hr 33 min 58 sec)
Heartbeat CPU 0 instructions: 221001101 cycles: 255907132 heartbeat IPC: 0.2557 cumulative IPC: 0.6988 (Simulation time: 00 hr 34 min 17 sec)
Heartbeat CPU 0 instructions: 221501102 cycles: 256279603 heartbeat IPC: 1.342 cumulative IPC: 0.6997 (Simulation time: 00 hr 34 min 21 sec)
Heartbeat CPU 0 instructions: 222001103 cycles: 256631621 heartbeat IPC: 1.42 cumulative IPC: 0.7008 (Simulation time: 00 hr 34 min 25 sec)
Heartbeat CPU 0 instructions: 222501103 cycles: 256999230 heartbeat IPC: 1.36 cumulative IPC: 0.7018 (Simulation time: 00 hr 34 min 29 sec)
Heartbeat CPU 0 instructions: 223001110 cycles: 258087336 heartbeat IPC: 0.4595 cumulative IPC: 0.7007 (Simulation time: 00 hr 34 min 38 sec)
Heartbeat CPU 0 instructions: 223501110 cycles: 258938850 heartbeat IPC: 0.5872 cumulative IPC: 0.7003 (Simulation time: 00 hr 34 min 44 sec)
Heartbeat CPU 0 instructions: 224001114 cycles: 259549219 heartbeat IPC: 0.8192 cumulative IPC: 0.7006 (Simulation time: 00 hr 34 min 48 sec)
Heartbeat CPU 0 instructions: 224501115 cycles: 260073687 heartbeat IPC: 0.9533 cumulative IPC: 0.7011 (Simulation time: 00 hr 34 min 52 sec)
Heartbeat CPU 0 instructions: 225001118 cycles: 260667012 heartbeat IPC: 0.8427 cumulative IPC: 0.7015 (Simulation time: 00 hr 34 min 57 sec)
Heartbeat CPU 0 instructions: 225501119 cycles: 262168545 heartbeat IPC: 0.333 cumulative IPC: 0.6993 (Simulation time: 00 hr 35 min 09 sec)
Heartbeat CPU 0 instructions: 226001123 cycles: 262963488 heartbeat IPC: 0.629 cumulative IPC: 0.699 (Simulation time: 00 hr 35 min 16 sec)
Heartbeat CPU 0 instructions: 226501126 cycles: 263869859 heartbeat IPC: 0.5517 cumulative IPC: 0.6985 (Simulation time: 00 hr 35 min 22 sec)
Heartbeat CPU 0 instructions: 227001132 cycles: 265615829 heartbeat IPC: 0.2864 cumulative IPC: 0.6957 (Simulation time: 00 hr 35 min 38 sec)
Heartbeat CPU 0 instructions: 227501134 cycles: 266894702 heartbeat IPC: 0.391 cumulative IPC: 0.6942 (Simulation time: 00 hr 35 min 47 sec)
Heartbeat CPU 0 instructions: 228001135 cycles: 268465673 heartbeat IPC: 0.3183 cumulative IPC: 0.6919 (Simulation time: 00 hr 35 min 56 sec)
Heartbeat CPU 0 instructions: 228501139 cycles: 268760783 heartbeat IPC: 1.694 cumulative IPC: 0.693 (Simulation time: 00 hr 35 min 59 sec)
Heartbeat CPU 0 instructions: 229001139 cycles: 269027042 heartbeat IPC: 1.878 cumulative IPC: 0.6942 (Simulation time: 00 hr 36 min 01 sec)
Heartbeat CPU 0 instructions: 229501145 cycles: 269262122 heartbeat IPC: 2.127 cumulative IPC: 0.6955 (Simulation time: 00 hr 36 min 04 sec)
Heartbeat CPU 0 instructions: 230001151 cycles: 269501608 heartbeat IPC: 2.088 cumulative IPC: 0.6968 (Simulation time: 00 hr 36 min 06 sec)
Heartbeat CPU 0 instructions: 230501151 cycles: 269719508 heartbeat IPC: 2.295 cumulative IPC: 0.6982 (Simulation time: 00 hr 36 min 08 sec)
Heartbeat CPU 0 instructions: 231001151 cycles: 269951999 heartbeat IPC: 2.151 cumulative IPC: 0.6995 (Simulation time: 00 hr 36 min 10 sec)
Heartbeat CPU 0 instructions: 231501156 cycles: 270182658 heartbeat IPC: 2.168 cumulative IPC: 0.7008 (Simulation time: 00 hr 36 min 13 sec)
Heartbeat CPU 0 instructions: 232001159 cycles: 270418352 heartbeat IPC: 2.121 cumulative IPC: 0.7021 (Simulation time: 00 hr 36 min 15 sec)
Heartbeat CPU 0 instructions: 232501164 cycles: 270646199 heartbeat IPC: 2.194 cumulative IPC: 0.7034 (Simulation time: 00 hr 36 min 17 sec)
Heartbeat CPU 0 instructions: 233001166 cycles: 270879901 heartbeat IPC: 2.139 cumulative IPC: 0.7047 (Simulation time: 00 hr 36 min 19 sec)
Heartbeat CPU 0 instructions: 233501170 cycles: 271106790 heartbeat IPC: 2.204 cumulative IPC: 0.706 (Simulation time: 00 hr 36 min 22 sec)
Heartbeat CPU 0 instructions: 234001171 cycles: 271336713 heartbeat IPC: 2.175 cumulative IPC: 0.7073 (Simulation time: 00 hr 36 min 24 sec)
Heartbeat CPU 0 instructions: 234501174 cycles: 271904428 heartbeat IPC: 0.8807 cumulative IPC: 0.7077 (Simulation time: 00 hr 36 min 28 sec)
Heartbeat CPU 0 instructions: 235001174 cycles: 275428152 heartbeat IPC: 0.1419 cumulative IPC: 0.7001 (Simulation time: 00 hr 36 min 49 sec)
Heartbeat CPU 0 instructions: 235501176 cycles: 277121466 heartbeat IPC: 0.2953 cumulative IPC: 0.6975 (Simulation time: 00 hr 36 min 59 sec)
Heartbeat CPU 0 instructions: 236001178 cycles: 278554715 heartbeat IPC: 0.3489 cumulative IPC: 0.6957 (Simulation time: 00 hr 37 min 07 sec)
Heartbeat CPU 0 instructions: 236501184 cycles: 279828210 heartbeat IPC: 0.3926 cumulative IPC: 0.6942 (Simulation time: 00 hr 37 min 15 sec)
Heartbeat CPU 0 instructions: 237001185 cycles: 280569633 heartbeat IPC: 0.6744 cumulative IPC: 0.6942 (Simulation time: 00 hr 37 min 19 sec)
Heartbeat CPU 0 instructions: 237501185 cycles: 282880062 heartbeat IPC: 0.2164 cumulative IPC: 0.6901 (Simulation time: 00 hr 37 min 33 sec)
Heartbeat CPU 0 instructions: 238001187 cycles: 286927629 heartbeat IPC: 0.1235 cumulative IPC: 0.6818 (Simulation time: 00 hr 38 min 05 sec)
Heartbeat CPU 0 instructions: 238501189 cycles: 287709139 heartbeat IPC: 0.6398 cumulative IPC: 0.6817 (Simulation time: 00 hr 38 min 12 sec)
Heartbeat CPU 0 instructions: 239001192 cycles: 288370339 heartbeat IPC: 0.7562 cumulative IPC: 0.6819 (Simulation time: 00 hr 38 min 18 sec)
Heartbeat CPU 0 instructions: 239501192 cycles: 289067252 heartbeat IPC: 0.7174 cumulative IPC: 0.682 (Simulation time: 00 hr 38 min 24 sec)
Heartbeat CPU 0 instructions: 240001193 cycles: 289759832 heartbeat IPC: 0.7219 cumulative IPC: 0.6821 (Simulation time: 00 hr 38 min 31 sec)
Heartbeat CPU 0 instructions: 240501195 cycles: 290480854 heartbeat IPC: 0.6935 cumulative IPC: 0.6821 (Simulation time: 00 hr 38 min 37 sec)
Heartbeat CPU 0 instructions: 241001202 cycles: 291645252 heartbeat IPC: 0.4294 cumulative IPC: 0.681 (Simulation time: 00 hr 38 min 48 sec)
Heartbeat CPU 0 instructions: 241501208 cycles: 293976528 heartbeat IPC: 0.2145 cumulative IPC: 0.6772 (Simulation time: 00 hr 39 min 05 sec)
Heartbeat CPU 0 instructions: 242001210 cycles: 294657907 heartbeat IPC: 0.7338 cumulative IPC: 0.6773 (Simulation time: 00 hr 39 min 11 sec)
Heartbeat CPU 0 instructions: 242501214 cycles: 295293653 heartbeat IPC: 0.7865 cumulative IPC: 0.6776 (Simulation time: 00 hr 39 min 17 sec)
Heartbeat CPU 0 instructions: 243001218 cycles: 295950828 heartbeat IPC: 0.7608 cumulative IPC: 0.6778 (Simulation time: 00 hr 39 min 24 sec)
Heartbeat CPU 0 instructions: 243501224 cycles: 296562694 heartbeat IPC: 0.8172 cumulative IPC: 0.6781 (Simulation time: 00 hr 39 min 30 sec)
Heartbeat CPU 0 instructions: 244001225 cycles: 297231478 heartbeat IPC: 0.7476 cumulative IPC: 0.6782 (Simulation time: 00 hr 39 min 36 sec)
Heartbeat CPU 0 instructions: 244501232 cycles: 297867380 heartbeat IPC: 0.7863 cumulative IPC: 0.6785 (Simulation time: 00 hr 39 min 42 sec)
Heartbeat CPU 0 instructions: 245001232 cycles: 299079761 heartbeat IPC: 0.4124 cumulative IPC: 0.6773 (Simulation time: 00 hr 39 min 52 sec)
Heartbeat CPU 0 instructions: 245501238 cycles: 299821792 heartbeat IPC: 0.6738 cumulative IPC: 0.6773 (Simulation time: 00 hr 39 min 58 sec)
Heartbeat CPU 0 instructions: 246001244 cycles: 300458826 heartbeat IPC: 0.7849 cumulative IPC: 0.6776 (Simulation time: 00 hr 40 min 04 sec)
Heartbeat CPU 0 instructions: 246501246 cycles: 301119055 heartbeat IPC: 0.7573 cumulative IPC: 0.6777 (Simulation time: 00 hr 40 min 10 sec)
Heartbeat CPU 0 instructions: 247001251 cycles: 301743953 heartbeat IPC: 0.8001 cumulative IPC: 0.678 (Simulation time: 00 hr 40 min 16 sec)
Heartbeat CPU 0 instructions: 247501253 cycles: 302419019 heartbeat IPC: 0.7407 cumulative IPC: 0.6782 (Simulation time: 00 hr 40 min 23 sec)
Heartbeat CPU 0 instructions: 248001260 cycles: 303039996 heartbeat IPC: 0.8052 cumulative IPC: 0.6784 (Simulation time: 00 hr 40 min 29 sec)
Heartbeat CPU 0 instructions: 248501261 cycles: 303621862 heartbeat IPC: 0.8593 cumulative IPC: 0.6788 (Simulation time: 00 hr 40 min 35 sec)
Heartbeat CPU 0 instructions: 249001261 cycles: 304405072 heartbeat IPC: 0.6384 cumulative IPC: 0.6787 (Simulation time: 00 hr 40 min 42 sec)
Heartbeat CPU 0 instructions: 249501264 cycles: 305308289 heartbeat IPC: 0.5536 cumulative IPC: 0.6783 (Simulation time: 00 hr 40 min 49 sec)
Simulation finished CPU 0 instructions: 200000007 cycles: 294561796 cumulative IPC: 0.679 (Simulation time: 00 hr 40 min 53 sec)
Simulation complete CPU 0 instructions: 200000007 cycles: 294561796 cumulative IPC: 0.679 (Simulation time: 00 hr 40 min 53 sec)

ChampSim completed all CPUs

=== Simulation ===
CPU 0 runs /local-ssd/ben/dpc4-traces/gtraces_v2/charlie_0003.champsim.gz

Region of Interest Statistics

CPU 0 cumulative IPC: 0.679 instructions: 200000007 cycles: 294561796
CPU 0 Branch Prediction Accuracy: 94.89% MPKI: 11.91 Average ROB Occupancy at Mispredict: 37.67
Branch type MPKI
BRANCH_DIRECT_JUMP: 0.3264
BRANCH_INDIRECT: 0.3452
BRANCH_CONDITIONAL: 10.36
BRANCH_DIRECT_CALL: 0.2826
BRANCH_INDIRECT_CALL: 0.3201
BRANCH_RETURN: 0.2747

cpu0->cpu0_STLB TOTAL        ACCESS:    4630631 HIT:    4190564 MISS:     440067 MSHR_MERGE:          1
cpu0->cpu0_STLB LOAD         ACCESS:    4630631 HIT:    4190564 MISS:     440067 MSHR_MERGE:          1
cpu0->cpu0_STLB RFO          ACCESS:          0 HIT:          0 MISS:          0 MSHR_MERGE:          0
cpu0->cpu0_STLB PREFETCH     ACCESS:          0 HIT:          0 MISS:          0 MSHR_MERGE:          0
cpu0->cpu0_STLB WRITE        ACCESS:          0 HIT:          0 MISS:          0 MSHR_MERGE:          0
cpu0->cpu0_STLB TRANSLATION  ACCESS:          0 HIT:          0 MISS:          0 MSHR_MERGE:          0
cpu0->cpu0_STLB PREFETCH REQUESTED:          0 ISSUED:          0 USEFUL:          0 USELESS:          0
cpu0->cpu0_STLB AVERAGE MISS LATENCY: 184.4 cycles
cpu0->cpu0_L2C TOTAL        ACCESS:   21387644 HIT:   15923150 MISS:    5464494 MSHR_MERGE:    1048296
cpu0->cpu0_L2C LOAD         ACCESS:    4783742 HIT:    3715216 MISS:    1068526 MSHR_MERGE:      46124
cpu0->cpu0_L2C RFO          ACCESS:     430902 HIT:     150420 MISS:     280482 MSHR_MERGE:       1220
cpu0->cpu0_L2C PREFETCH     ACCESS:   14791055 HIT:   10852781 MISS:    3938274 MSHR_MERGE:    1000952
cpu0->cpu0_L2C WRITE        ACCESS:    1040236 HIT:    1040088 MISS:        148 MSHR_MERGE:          0
cpu0->cpu0_L2C TRANSLATION  ACCESS:     341709 HIT:     164645 MISS:     177064 MSHR_MERGE:          0
cpu0->cpu0_L2C PREFETCH REQUESTED:   13960403 ISSUED:   10875637 USEFUL:     670617 USELESS:    1449589
cpu0->cpu0_L2C AVERAGE MISS LATENCY: 242.3 cycles
cpu0->cpu0_L1I TOTAL        ACCESS:   17374956 HIT:   16530977 MISS:     843979 MSHR_MERGE:     193166
cpu0->cpu0_L1I LOAD         ACCESS:   17374956 HIT:   16530977 MISS:     843979 MSHR_MERGE:     193166
cpu0->cpu0_L1I RFO          ACCESS:          0 HIT:          0 MISS:          0 MSHR_MERGE:          0
cpu0->cpu0_L1I PREFETCH     ACCESS:          0 HIT:          0 MISS:          0 MSHR_MERGE:          0
cpu0->cpu0_L1I WRITE        ACCESS:          0 HIT:          0 MISS:          0 MSHR_MERGE:          0
cpu0->cpu0_L1I TRANSLATION  ACCESS:          0 HIT:          0 MISS:          0 MSHR_MERGE:          0
cpu0->cpu0_L1I PREFETCH REQUESTED:          0 ISSUED:          0 USEFUL:          0 USELESS:          0
cpu0->cpu0_L1I AVERAGE MISS LATENCY: 118.3 cycles
cpu0->cpu0_L1D TOTAL        ACCESS:   73381177 HIT:   61484666 MISS:   11896511 MSHR_MERGE:    3075506
cpu0->cpu0_L1D LOAD         ACCESS:   30164000 HIT:   25302233 MISS:    4861767 MSHR_MERGE:     728832
cpu0->cpu0_L1D RFO          ACCESS:          0 HIT:          0 MISS:          0 MSHR_MERGE:          0
cpu0->cpu0_L1D PREFETCH     ACCESS:   25913892 HIT:   20643900 MISS:    5269992 MSHR_MERGE:    1354571
cpu0->cpu0_L1D WRITE        ACCESS:   16254497 HIT:   14840565 MISS:    1413932 MSHR_MERGE:     982992
cpu0->cpu0_L1D TRANSLATION  ACCESS:    1048788 HIT:     697968 MISS:     350820 MSHR_MERGE:       9111
cpu0->cpu0_L1D PREFETCH REQUESTED:   32427480 ISSUED:   25913890 USEFUL:     842347 USELESS:    3072834
cpu0->cpu0_L1D AVERAGE MISS LATENCY: 69.46 cycles
cpu0->cpu0_ITLB TOTAL        ACCESS:   13656260 HIT:   13565989 MISS:      90271 MSHR_MERGE:      37280
cpu0->cpu0_ITLB LOAD         ACCESS:   13656260 HIT:   13565989 MISS:      90271 MSHR_MERGE:      37280
cpu0->cpu0_ITLB RFO          ACCESS:          0 HIT:          0 MISS:          0 MSHR_MERGE:          0
cpu0->cpu0_ITLB PREFETCH     ACCESS:          0 HIT:          0 MISS:          0 MSHR_MERGE:          0
cpu0->cpu0_ITLB WRITE        ACCESS:          0 HIT:          0 MISS:          0 MSHR_MERGE:          0
cpu0->cpu0_ITLB TRANSLATION  ACCESS:          0 HIT:          0 MISS:          0 MSHR_MERGE:          0
cpu0->cpu0_ITLB PREFETCH REQUESTED:          0 ISSUED:          0 USEFUL:          0 USELESS:          0
cpu0->cpu0_ITLB AVERAGE MISS LATENCY: 77.84 cycles
cpu0->cpu0_DTLB TOTAL        ACCESS:   66640877 HIT:   61014475 MISS:    5626402 MSHR_MERGE:    1048762
cpu0->cpu0_DTLB LOAD         ACCESS:   66640877 HIT:   61014475 MISS:    5626402 MSHR_MERGE:    1048762
cpu0->cpu0_DTLB RFO          ACCESS:          0 HIT:          0 MISS:          0 MSHR_MERGE:          0
cpu0->cpu0_DTLB PREFETCH     ACCESS:          0 HIT:          0 MISS:          0 MSHR_MERGE:          0
cpu0->cpu0_DTLB WRITE        ACCESS:          0 HIT:          0 MISS:          0 MSHR_MERGE:          0
cpu0->cpu0_DTLB TRANSLATION  ACCESS:          0 HIT:          0 MISS:          0 MSHR_MERGE:          0
cpu0->cpu0_DTLB PREFETCH REQUESTED:          0 ISSUED:          0 USEFUL:          0 USELESS:          0
cpu0->cpu0_DTLB AVERAGE MISS LATENCY: 22.01 cycles
cpu0->LLC TOTAL        ACCESS:    7984747 HIT:    1359920 MISS:    6624827 MSHR_MERGE:     672955
cpu0->LLC LOAD         ACCESS:    1022402 HIT:     172889 MISS:     849513 MSHR_MERGE:      13492
cpu0->LLC RFO          ACCESS:     279262 HIT:      20532 MISS:     258730 MSHR_MERGE:        179
cpu0->LLC PREFETCH     ACCESS:    5639372 HIT:     842981 MISS:    4796391 MSHR_MERGE:     659284
cpu0->LLC WRITE        ACCESS:     866647 HIT:     320014 MISS:     546633 MSHR_MERGE:          0
cpu0->LLC TRANSLATION  ACCESS:     177064 HIT:       3504 MISS:     173560 MSHR_MERGE:          0
cpu0->LLC PREFETCH REQUESTED:    2754693 ISSUED:    2702050 USEFUL:     588382 USELESS:    1346473
cpu0->LLC AVERAGE MISS LATENCY: 184.3 cycles

DRAM Statistics

Channel 0 RQ ROW_BUFFER_HIT:     463441
  ROW_BUFFER_MISS:    4941484
  AVG DBUS CONGESTED CYCLE: 12.36
Channel 0 WQ ROW_BUFFER_HIT:     128982
  ROW_BUFFER_MISS:     679497
  FULL:        136
Channel 0 REFRESHES ISSUED:      24545
