[VMEM] WARNING: physical memory size is smaller than virtual memory size.

*** ChampSim Multicore Out-of-Order Simulator ***
Warmup Instructions: 50000000
Simulation Instructions: 200000000
Number of CPUs: 1
Page size: 4096
Core 0: /local-ssd/ben/dpc4-traces/gtraces_v2/arizona_0001.champsim.gz
Off-chip DRAM Size: 64 GiB Channels: 1 Width: 64-bit Data Rate: 4807 MT/s
[BTB] WARNING: target of return is a lower address than the corresponding call. This is usually a problem with your trace.
[BTB] WARNING: target of return is a lower address than the corresponding call. This is usually a problem with your trace.
[BTB] WARNING: target of return is a lower address than the corresponding call. This is usually a problem with your trace.
[BTB] WARNING: target of return is a lower address than the corresponding call. This is usually a problem with your trace.
[BTB] WARNING: target of return is a lower address than the corresponding call. This is usually a problem with your trace.
Heartbeat CPU 0 instructions: 500004 cycles: 215582 heartbeat IPC: 2.319 cumulative IPC: 2.319 (Simulation time: 00 hr 00 min 03 sec)
[BTB] WARNING: target of return is a lower address than the corresponding call. This is usually a problem with your trace.
Heartbeat CPU 0 instructions: 1000009 cycles: 317830 heartbeat IPC: 4.89 cumulative IPC: 3.146 (Simulation time: 00 hr 00 min 05 sec)
[BTB] WARNING: target of return is a lower address than the corresponding call. This is usually a problem with your trace.
Heartbeat CPU 0 instructions: 1500010 cycles: 424781 heartbeat IPC: 4.675 cumulative IPC: 3.531 (Simulation time: 00 hr 00 min 06 sec)
Heartbeat CPU 0 instructions: 2000015 cycles: 524879 heartbeat IPC: 4.995 cumulative IPC: 3.81 (Simulation time: 00 hr 00 min 08 sec)
Heartbeat CPU 0 instructions: 2500021 cycles: 626437 heartbeat IPC: 4.923 cumulative IPC: 3.991 (Simulation time: 00 hr 00 min 09 sec)
Heartbeat CPU 0 instructions: 3000027 cycles: 727858 heartbeat IPC: 4.93 cumulative IPC: 4.122 (Simulation time: 00 hr 00 min 11 sec)
[BTB] WARNING: target of return is a lower address than the corresponding call. This is usually a problem with your trace.
Heartbeat CPU 0 instructions: 3500028 cycles: 835204 heartbeat IPC: 4.658 cumulative IPC: 4.191 (Simulation time: 00 hr 00 min 12 sec)
Heartbeat CPU 0 instructions: 4000034 cycles: 935537 heartbeat IPC: 4.983 cumulative IPC: 4.276 (Simulation time: 00 hr 00 min 14 sec)
Heartbeat CPU 0 instructions: 4500035 cycles: 1042121 heartbeat IPC: 4.691 cumulative IPC: 4.318 (Simulation time: 00 hr 00 min 15 sec)
Heartbeat CPU 0 instructions: 5000036 cycles: 1143495 heartbeat IPC: 4.932 cumulative IPC: 4.373 (Simulation time: 00 hr 00 min 17 sec)
[BTB] WARNING: target of return is a lower address than the corresponding call. This is usually a problem with your trace.
[BTB] WARNING: target of return is a lower address than the corresponding call. This is usually a problem with your trace.
Heartbeat CPU 0 instructions: 5500037 cycles: 1249290 heartbeat IPC: 4.726 cumulative IPC: 4.403 (Simulation time: 00 hr 00 min 18 sec)
Heartbeat CPU 0 instructions: 6000042 cycles: 1413560 heartbeat IPC: 3.044 cumulative IPC: 4.245 (Simulation time: 00 hr 00 min 21 sec)
Heartbeat CPU 0 instructions: 6500049 cycles: 1516356 heartbeat IPC: 4.864 cumulative IPC: 4.287 (Simulation time: 00 hr 00 min 22 sec)
Heartbeat CPU 0 instructions: 7000056 cycles: 1617952 heartbeat IPC: 4.922 cumulative IPC: 4.326 (Simulation time: 00 hr 00 min 24 sec)
Heartbeat CPU 0 instructions: 7500059 cycles: 1718395 heartbeat IPC: 4.978 cumulative IPC: 4.365 (Simulation time: 00 hr 00 min 25 sec)
Heartbeat CPU 0 instructions: 8000066 cycles: 1819885 heartbeat IPC: 4.927 cumulative IPC: 4.396 (Simulation time: 00 hr 00 min 26 sec)
Heartbeat CPU 0 instructions: 8500070 cycles: 1920361 heartbeat IPC: 4.976 cumulative IPC: 4.426 (Simulation time: 00 hr 00 min 28 sec)
Heartbeat CPU 0 instructions: 9000075 cycles: 2020604 heartbeat IPC: 4.988 cumulative IPC: 4.454 (Simulation time: 00 hr 00 min 29 sec)
Heartbeat CPU 0 instructions: 9500082 cycles: 2122336 heartbeat IPC: 4.915 cumulative IPC: 4.476 (Simulation time: 00 hr 00 min 31 sec)
Heartbeat CPU 0 instructions: 10000087 cycles: 2224084 heartbeat IPC: 4.914 cumulative IPC: 4.496 (Simulation time: 00 hr 00 min 32 sec)
Heartbeat CPU 0 instructions: 10500090 cycles: 2340432 heartbeat IPC: 4.297 cumulative IPC: 4.486 (Simulation time: 00 hr 00 min 34 sec)
Heartbeat CPU 0 instructions: 11000091 cycles: 2441036 heartbeat IPC: 4.97 cumulative IPC: 4.506 (Simulation time: 00 hr 00 min 36 sec)
Heartbeat CPU 0 instructions: 11500091 cycles: 2544117 heartbeat IPC: 4.851 cumulative IPC: 4.52 (Simulation time: 00 hr 00 min 37 sec)
Heartbeat CPU 0 instructions: 12000097 cycles: 2652669 heartbeat IPC: 4.606 cumulative IPC: 4.524 (Simulation time: 00 hr 00 min 39 sec)
Heartbeat CPU 0 instructions: 12500102 cycles: 2753806 heartbeat IPC: 4.944 cumulative IPC: 4.539 (Simulation time: 00 hr 00 min 40 sec)
Heartbeat CPU 0 instructions: 13000106 cycles: 2854980 heartbeat IPC: 4.942 cumulative IPC: 4.553 (Simulation time: 00 hr 00 min 42 sec)
Heartbeat CPU 0 instructions: 13500108 cycles: 3209433 heartbeat IPC: 1.411 cumulative IPC: 4.206 (Simulation time: 00 hr 00 min 46 sec)
Heartbeat CPU 0 instructions: 14000112 cycles: 3347321 heartbeat IPC: 3.626 cumulative IPC: 4.182 (Simulation time: 00 hr 00 min 48 sec)
Heartbeat CPU 0 instructions: 14500114 cycles: 3467397 heartbeat IPC: 4.164 cumulative IPC: 4.182 (Simulation time: 00 hr 00 min 50 sec)
Heartbeat CPU 0 instructions: 15000114 cycles: 3583220 heartbeat IPC: 4.317 cumulative IPC: 4.186 (Simulation time: 00 hr 00 min 52 sec)
Heartbeat CPU 0 instructions: 15500121 cycles: 3693434 heartbeat IPC: 4.537 cumulative IPC: 4.197 (Simulation time: 00 hr 00 min 53 sec)
Heartbeat CPU 0 instructions: 16000128 cycles: 3806390 heartbeat IPC: 4.427 cumulative IPC: 4.203 (Simulation time: 00 hr 00 min 55 sec)
Heartbeat CPU 0 instructions: 16500133 cycles: 3913126 heartbeat IPC: 4.685 cumulative IPC: 4.217 (Simulation time: 00 hr 00 min 57 sec)
Heartbeat CPU 0 instructions: 17000136 cycles: 4030427 heartbeat IPC: 4.263 cumulative IPC: 4.218 (Simulation time: 00 hr 00 min 58 sec)
Heartbeat CPU 0 instructions: 17500140 cycles: 4160115 heartbeat IPC: 3.855 cumulative IPC: 4.207 (Simulation time: 00 hr 01 min 00 sec)
Heartbeat CPU 0 instructions: 18000142 cycles: 4286250 heartbeat IPC: 3.964 cumulative IPC: 4.2 (Simulation time: 00 hr 01 min 02 sec)
Heartbeat CPU 0 instructions: 18500149 cycles: 4413733 heartbeat IPC: 3.922 cumulative IPC: 4.191 (Simulation time: 00 hr 01 min 03 sec)
Heartbeat CPU 0 instructions: 19000149 cycles: 4517417 heartbeat IPC: 4.822 cumulative IPC: 4.206 (Simulation time: 00 hr 01 min 05 sec)
Heartbeat CPU 0 instructions: 19500156 cycles: 4628672 heartbeat IPC: 4.494 cumulative IPC: 4.213 (Simulation time: 00 hr 01 min 06 sec)
Heartbeat CPU 0 instructions: 20000156 cycles: 4740830 heartbeat IPC: 4.458 cumulative IPC: 4.219 (Simulation time: 00 hr 01 min 08 sec)
Heartbeat CPU 0 instructions: 20500162 cycles: 4945673 heartbeat IPC: 2.441 cumulative IPC: 4.145 (Simulation time: 00 hr 01 min 11 sec)
Heartbeat CPU 0 instructions: 21000169 cycles: 5082079 heartbeat IPC: 3.666 cumulative IPC: 4.132 (Simulation time: 00 hr 01 min 13 sec)
Heartbeat CPU 0 instructions: 21500172 cycles: 5189056 heartbeat IPC: 4.674 cumulative IPC: 4.143 (Simulation time: 00 hr 01 min 15 sec)
Heartbeat CPU 0 instructions: 22000175 cycles: 5292599 heartbeat IPC: 4.829 cumulative IPC: 4.157 (Simulation time: 00 hr 01 min 16 sec)
Heartbeat CPU 0 instructions: 22500181 cycles: 5400368 heartbeat IPC: 4.64 cumulative IPC: 4.166 (Simulation time: 00 hr 01 min 18 sec)
Heartbeat CPU 0 instructions: 23000181 cycles: 5509568 heartbeat IPC: 4.579 cumulative IPC: 4.175 (Simulation time: 00 hr 01 min 19 sec)
Heartbeat CPU 0 instructions: 23500185 cycles: 5633833 heartbeat IPC: 4.024 cumulative IPC: 4.171 (Simulation time: 00 hr 01 min 21 sec)
Heartbeat CPU 0 instructions: 24000185 cycles: 5739491 heartbeat IPC: 4.732 cumulative IPC: 4.182 (Simulation time: 00 hr 01 min 23 sec)
Heartbeat CPU 0 instructions: 24500192 cycles: 5846944 heartbeat IPC: 4.653 cumulative IPC: 4.19 (Simulation time: 00 hr 01 min 25 sec)
Heartbeat CPU 0 instructions: 25000194 cycles: 5951577 heartbeat IPC: 4.779 cumulative IPC: 4.201 (Simulation time: 00 hr 01 min 26 sec)
Heartbeat CPU 0 instructions: 25500199 cycles: 6055483 heartbeat IPC: 4.812 cumulative IPC: 4.211 (Simulation time: 00 hr 01 min 28 sec)
Heartbeat CPU 0 instructions: 26000199 cycles: 6162127 heartbeat IPC: 4.688 cumulative IPC: 4.219 (Simulation time: 00 hr 01 min 30 sec)
Heartbeat CPU 0 instructions: 26500199 cycles: 6266886 heartbeat IPC: 4.773 cumulative IPC: 4.229 (Simulation time: 00 hr 01 min 32 sec)
Heartbeat CPU 0 instructions: 27000204 cycles: 6375249 heartbeat IPC: 4.614 cumulative IPC: 4.235 (Simulation time: 00 hr 01 min 33 sec)
Heartbeat CPU 0 instructions: 27500205 cycles: 6482553 heartbeat IPC: 4.66 cumulative IPC: 4.242 (Simulation time: 00 hr 01 min 35 sec)
Heartbeat CPU 0 instructions: 28000211 cycles: 6590081 heartbeat IPC: 4.65 cumulative IPC: 4.249 (Simulation time: 00 hr 01 min 37 sec)
Heartbeat CPU 0 instructions: 28500212 cycles: 6696138 heartbeat IPC: 4.714 cumulative IPC: 4.256 (Simulation time: 00 hr 01 min 39 sec)
Heartbeat CPU 0 instructions: 29000214 cycles: 6802420 heartbeat IPC: 4.704 cumulative IPC: 4.263 (Simulation time: 00 hr 01 min 40 sec)
Heartbeat CPU 0 instructions: 29500221 cycles: 6908621 heartbeat IPC: 4.708 cumulative IPC: 4.27 (Simulation time: 00 hr 01 min 42 sec)
Heartbeat CPU 0 instructions: 30000224 cycles: 7011133 heartbeat IPC: 4.878 cumulative IPC: 4.279 (Simulation time: 00 hr 01 min 44 sec)
Heartbeat CPU 0 instructions: 30500231 cycles: 7119445 heartbeat IPC: 4.616 cumulative IPC: 4.284 (Simulation time: 00 hr 01 min 45 sec)
Heartbeat CPU 0 instructions: 31000233 cycles: 7269992 heartbeat IPC: 3.321 cumulative IPC: 4.264 (Simulation time: 00 hr 01 min 48 sec)
Heartbeat CPU 0 instructions: 31500237 cycles: 7379641 heartbeat IPC: 4.56 cumulative IPC: 4.269 (Simulation time: 00 hr 01 min 50 sec)
Heartbeat CPU 0 instructions: 32000237 cycles: 7487274 heartbeat IPC: 4.645 cumulative IPC: 4.274 (Simulation time: 00 hr 01 min 51 sec)
Heartbeat CPU 0 instructions: 32500243 cycles: 7590359 heartbeat IPC: 4.85 cumulative IPC: 4.282 (Simulation time: 00 hr 01 min 53 sec)
Heartbeat CPU 0 instructions: 33000248 cycles: 7695698 heartbeat IPC: 4.747 cumulative IPC: 4.288 (Simulation time: 00 hr 01 min 55 sec)
Heartbeat CPU 0 instructions: 33500249 cycles: 7803937 heartbeat IPC: 4.619 cumulative IPC: 4.293 (Simulation time: 00 hr 01 min 57 sec)
Heartbeat CPU 0 instructions: 34000251 cycles: 7905061 heartbeat IPC: 4.944 cumulative IPC: 4.301 (Simulation time: 00 hr 01 min 58 sec)
Heartbeat CPU 0 instructions: 34500251 cycles: 8006427 heartbeat IPC: 4.933 cumulative IPC: 4.309 (Simulation time: 00 hr 02 min 00 sec)
Heartbeat CPU 0 instructions: 35000251 cycles: 8106763 heartbeat IPC: 4.983 cumulative IPC: 4.317 (Simulation time: 00 hr 02 min 01 sec)
Heartbeat CPU 0 instructions: 35500251 cycles: 8207886 heartbeat IPC: 4.944 cumulative IPC: 4.325 (Simulation time: 00 hr 02 min 03 sec)
Heartbeat CPU 0 instructions: 36000254 cycles: 8309369 heartbeat IPC: 4.927 cumulative IPC: 4.332 (Simulation time: 00 hr 02 min 04 sec)
Heartbeat CPU 0 instructions: 36500254 cycles: 8409458 heartbeat IPC: 4.996 cumulative IPC: 4.34 (Simulation time: 00 hr 02 min 06 sec)
Heartbeat CPU 0 instructions: 37000261 cycles: 8510671 heartbeat IPC: 4.94 cumulative IPC: 4.348 (Simulation time: 00 hr 02 min 07 sec)
Heartbeat CPU 0 instructions: 37500263 cycles: 8612242 heartbeat IPC: 4.923 cumulative IPC: 4.354 (Simulation time: 00 hr 02 min 09 sec)
Heartbeat CPU 0 instructions: 38000268 cycles: 8712833 heartbeat IPC: 4.971 cumulative IPC: 4.361 (Simulation time: 00 hr 02 min 10 sec)
Heartbeat CPU 0 instructions: 38500270 cycles: 8814272 heartbeat IPC: 4.929 cumulative IPC: 4.368 (Simulation time: 00 hr 02 min 12 sec)
Heartbeat CPU 0 instructions: 39000276 cycles: 8914632 heartbeat IPC: 4.982 cumulative IPC: 4.375 (Simulation time: 00 hr 02 min 13 sec)
Heartbeat CPU 0 instructions: 39500278 cycles: 9015147 heartbeat IPC: 4.974 cumulative IPC: 4.382 (Simulation time: 00 hr 02 min 14 sec)
Heartbeat CPU 0 instructions: 40000280 cycles: 9116603 heartbeat IPC: 4.928 cumulative IPC: 4.388 (Simulation time: 00 hr 02 min 16 sec)
Heartbeat CPU 0 instructions: 40500282 cycles: 9218106 heartbeat IPC: 4.926 cumulative IPC: 4.394 (Simulation time: 00 hr 02 min 17 sec)
Heartbeat CPU 0 instructions: 41000282 cycles: 9342329 heartbeat IPC: 4.025 cumulative IPC: 4.389 (Simulation time: 00 hr 02 min 19 sec)
Heartbeat CPU 0 instructions: 41500289 cycles: 9449485 heartbeat IPC: 4.666 cumulative IPC: 4.392 (Simulation time: 00 hr 02 min 21 sec)
Heartbeat CPU 0 instructions: 42000295 cycles: 9551099 heartbeat IPC: 4.921 cumulative IPC: 4.397 (Simulation time: 00 hr 02 min 23 sec)
Heartbeat CPU 0 instructions: 42500296 cycles: 9651773 heartbeat IPC: 4.967 cumulative IPC: 4.403 (Simulation time: 00 hr 02 min 24 sec)
Heartbeat CPU 0 instructions: 43000303 cycles: 9752031 heartbeat IPC: 4.987 cumulative IPC: 4.409 (Simulation time: 00 hr 02 min 26 sec)
Heartbeat CPU 0 instructions: 43500303 cycles: 9852034 heartbeat IPC: 5 cumulative IPC: 4.415 (Simulation time: 00 hr 02 min 27 sec)
Heartbeat CPU 0 instructions: 44000310 cycles: 9952024 heartbeat IPC: 5.001 cumulative IPC: 4.421 (Simulation time: 00 hr 02 min 29 sec)
Heartbeat CPU 0 instructions: 44500313 cycles: 10052255 heartbeat IPC: 4.989 cumulative IPC: 4.427 (Simulation time: 00 hr 02 min 30 sec)
Heartbeat CPU 0 instructions: 45000320 cycles: 10152682 heartbeat IPC: 4.979 cumulative IPC: 4.432 (Simulation time: 00 hr 02 min 32 sec)
Heartbeat CPU 0 instructions: 45500325 cycles: 10254058 heartbeat IPC: 4.932 cumulative IPC: 4.437 (Simulation time: 00 hr 02 min 33 sec)
Heartbeat CPU 0 instructions: 46000326 cycles: 10355500 heartbeat IPC: 4.929 cumulative IPC: 4.442 (Simulation time: 00 hr 02 min 35 sec)
Heartbeat CPU 0 instructions: 46500327 cycles: 10456571 heartbeat IPC: 4.947 cumulative IPC: 4.447 (Simulation time: 00 hr 02 min 36 sec)
Heartbeat CPU 0 instructions: 47000330 cycles: 10558059 heartbeat IPC: 4.927 cumulative IPC: 4.452 (Simulation time: 00 hr 02 min 38 sec)
Heartbeat CPU 0 instructions: 47500332 cycles: 10659174 heartbeat IPC: 4.945 cumulative IPC: 4.456 (Simulation time: 00 hr 02 min 39 sec)
Heartbeat CPU 0 instructions: 48000335 cycles: 10759650 heartbeat IPC: 4.976 cumulative IPC: 4.461 (Simulation time: 00 hr 02 min 41 sec)
Heartbeat CPU 0 instructions: 48500341 cycles: 10861981 heartbeat IPC: 4.886 cumulative IPC: 4.465 (Simulation time: 00 hr 02 min 42 sec)
Heartbeat CPU 0 instructions: 49000343 cycles: 10962802 heartbeat IPC: 4.959 cumulative IPC: 4.47 (Simulation time: 00 hr 02 min 44 sec)
Heartbeat CPU 0 instructions: 49500343 cycles: 11064053 heartbeat IPC: 4.938 cumulative IPC: 4.474 (Simulation time: 00 hr 02 min 45 sec)
Warmup halting CPU 0 at instruction 50000001 cycle 11164568 for remainder of phase
Warmup finished CPU 0 instructions: 50000001 cycles: 11164568 cumulative IPC: 4.478 (Simulation time: 00 hr 02 min 47 sec)
Warmup complete CPU 0 instructions: 50000001 cycles: 11164568 cumulative IPC: 4.478 (Simulation time: 00 hr 02 min 47 sec)
Heartbeat CPU 0 instructions: 50000346 cycles: 11164803 heartbeat IPC: 4.963 cumulative IPC: 1.468 (Simulation time: 00 hr 02 min 47 sec)
Heartbeat CPU 0 instructions: 50500346 cycles: 11471237 heartbeat IPC: 1.632 cumulative IPC: 1.632 (Simulation time: 00 hr 02 min 50 sec)
Heartbeat CPU 0 instructions: 51000349 cycles: 11754897 heartbeat IPC: 1.763 cumulative IPC: 1.695 (Simulation time: 00 hr 02 min 53 sec)
Heartbeat CPU 0 instructions: 51500351 cycles: 12272867 heartbeat IPC: 0.9653 cumulative IPC: 1.354 (Simulation time: 00 hr 02 min 57 sec)
Heartbeat CPU 0 instructions: 52000351 cycles: 12568568 heartbeat IPC: 1.691 cumulative IPC: 1.425 (Simulation time: 00 hr 03 min 00 sec)
Heartbeat CPU 0 instructions: 52500353 cycles: 12845985 heartbeat IPC: 1.802 cumulative IPC: 1.487 (Simulation time: 00 hr 03 min 03 sec)
Heartbeat CPU 0 instructions: 53000359 cycles: 13162326 heartbeat IPC: 1.581 cumulative IPC: 1.502 (Simulation time: 00 hr 03 min 07 sec)
Heartbeat CPU 0 instructions: 53500360 cycles: 13468468 heartbeat IPC: 1.633 cumulative IPC: 1.519 (Simulation time: 00 hr 03 min 10 sec)
Heartbeat CPU 0 instructions: 54000360 cycles: 13778966 heartbeat IPC: 1.61 cumulative IPC: 1.53 (Simulation time: 00 hr 03 min 13 sec)
Heartbeat CPU 0 instructions: 54500361 cycles: 14049899 heartbeat IPC: 1.845 cumulative IPC: 1.56 (Simulation time: 00 hr 03 min 16 sec)
Heartbeat CPU 0 instructions: 55000361 cycles: 14386712 heartbeat IPC: 1.485 cumulative IPC: 1.552 (Simulation time: 00 hr 03 min 19 sec)
Heartbeat CPU 0 instructions: 55500363 cycles: 14665285 heartbeat IPC: 1.795 cumulative IPC: 1.571 (Simulation time: 00 hr 03 min 22 sec)
Heartbeat CPU 0 instructions: 56000365 cycles: 15431468 heartbeat IPC: 0.6526 cumulative IPC: 1.406 (Simulation time: 00 hr 03 min 29 sec)
Heartbeat CPU 0 instructions: 56500368 cycles: 15750618 heartbeat IPC: 1.567 cumulative IPC: 1.417 (Simulation time: 00 hr 03 min 32 sec)
Heartbeat CPU 0 instructions: 57000368 cycles: 16115931 heartbeat IPC: 1.369 cumulative IPC: 1.414 (Simulation time: 00 hr 03 min 37 sec)
Heartbeat CPU 0 instructions: 57500369 cycles: 16347165 heartbeat IPC: 2.162 cumulative IPC: 1.447 (Simulation time: 00 hr 03 min 40 sec)
Heartbeat CPU 0 instructions: 58000370 cycles: 16580367 heartbeat IPC: 2.144 cumulative IPC: 1.477 (Simulation time: 00 hr 03 min 44 sec)
Heartbeat CPU 0 instructions: 58500376 cycles: 16817045 heartbeat IPC: 2.113 cumulative IPC: 1.504 (Simulation time: 00 hr 03 min 47 sec)
Heartbeat CPU 0 instructions: 59000376 cycles: 17047404 heartbeat IPC: 2.171 cumulative IPC: 1.53 (Simulation time: 00 hr 03 min 50 sec)
Heartbeat CPU 0 instructions: 59500379 cycles: 17311206 heartbeat IPC: 1.895 cumulative IPC: 1.546 (Simulation time: 00 hr 03 min 54 sec)
Heartbeat CPU 0 instructions: 60000383 cycles: 17546239 heartbeat IPC: 2.127 cumulative IPC: 1.567 (Simulation time: 00 hr 03 min 57 sec)
Heartbeat CPU 0 instructions: 60500387 cycles: 17801037 heartbeat IPC: 1.962 cumulative IPC: 1.582 (Simulation time: 00 hr 04 min 01 sec)
Heartbeat CPU 0 instructions: 61000393 cycles: 18103400 heartbeat IPC: 1.654 cumulative IPC: 1.585 (Simulation time: 00 hr 04 min 04 sec)
Heartbeat CPU 0 instructions: 61500394 cycles: 19457218 heartbeat IPC: 0.3693 cumulative IPC: 1.387 (Simulation time: 00 hr 04 min 14 sec)
Heartbeat CPU 0 instructions: 62000395 cycles: 19811569 heartbeat IPC: 1.411 cumulative IPC: 1.388 (Simulation time: 00 hr 04 min 18 sec)
Heartbeat CPU 0 instructions: 62500397 cycles: 20128212 heartbeat IPC: 1.579 cumulative IPC: 1.395 (Simulation time: 00 hr 04 min 21 sec)
Heartbeat CPU 0 instructions: 63000397 cycles: 20422396 heartbeat IPC: 1.7 cumulative IPC: 1.404 (Simulation time: 00 hr 04 min 24 sec)
Heartbeat CPU 0 instructions: 63500400 cycles: 20660037 heartbeat IPC: 2.104 cumulative IPC: 1.422 (Simulation time: 00 hr 04 min 28 sec)
Heartbeat CPU 0 instructions: 64000403 cycles: 20927161 heartbeat IPC: 1.872 cumulative IPC: 1.434 (Simulation time: 00 hr 04 min 31 sec)
Heartbeat CPU 0 instructions: 64500405 cycles: 21168701 heartbeat IPC: 2.07 cumulative IPC: 1.449 (Simulation time: 00 hr 04 min 35 sec)
Heartbeat CPU 0 instructions: 65000405 cycles: 21607545 heartbeat IPC: 1.139 cumulative IPC: 1.436 (Simulation time: 00 hr 04 min 41 sec)
Heartbeat CPU 0 instructions: 65500410 cycles: 21840509 heartbeat IPC: 2.146 cumulative IPC: 1.452 (Simulation time: 00 hr 04 min 44 sec)
Heartbeat CPU 0 instructions: 66000413 cycles: 22076917 heartbeat IPC: 2.115 cumulative IPC: 1.466 (Simulation time: 00 hr 04 min 48 sec)
Heartbeat CPU 0 instructions: 66500414 cycles: 22308694 heartbeat IPC: 2.157 cumulative IPC: 1.481 (Simulation time: 00 hr 04 min 51 sec)
Heartbeat CPU 0 instructions: 67000418 cycles: 22543907 heartbeat IPC: 2.126 cumulative IPC: 1.494 (Simulation time: 00 hr 04 min 54 sec)
Heartbeat CPU 0 instructions: 67500418 cycles: 22774741 heartbeat IPC: 2.166 cumulative IPC: 1.507 (Simulation time: 00 hr 04 min 57 sec)
Heartbeat CPU 0 instructions: 68000419 cycles: 23006504 heartbeat IPC: 2.157 cumulative IPC: 1.52 (Simulation time: 00 hr 05 min 01 sec)
Heartbeat CPU 0 instructions: 68500421 cycles: 23241173 heartbeat IPC: 2.131 cumulative IPC: 1.532 (Simulation time: 00 hr 05 min 04 sec)
Heartbeat CPU 0 instructions: 69000425 cycles: 23472794 heartbeat IPC: 2.159 cumulative IPC: 1.544 (Simulation time: 00 hr 05 min 07 sec)
Heartbeat CPU 0 instructions: 69500427 cycles: 23795179 heartbeat IPC: 1.551 cumulative IPC: 1.544 (Simulation time: 00 hr 05 min 12 sec)
Heartbeat CPU 0 instructions: 70000428 cycles: 24032146 heartbeat IPC: 2.11 cumulative IPC: 1.554 (Simulation time: 00 hr 05 min 15 sec)
Heartbeat CPU 0 instructions: 70500434 cycles: 24264984 heartbeat IPC: 2.147 cumulative IPC: 1.565 (Simulation time: 00 hr 05 min 18 sec)
Heartbeat CPU 0 instructions: 71000437 cycles: 24497175 heartbeat IPC: 2.153 cumulative IPC: 1.575 (Simulation time: 00 hr 05 min 21 sec)
Heartbeat CPU 0 instructions: 71500437 cycles: 25060515 heartbeat IPC: 0.8876 cumulative IPC: 1.547 (Simulation time: 00 hr 05 min 27 sec)
Heartbeat CPU 0 instructions: 72000440 cycles: 26300098 heartbeat IPC: 0.4034 cumulative IPC: 1.454 (Simulation time: 00 hr 05 min 36 sec)
Heartbeat CPU 0 instructions: 72500441 cycles: 26540405 heartbeat IPC: 2.081 cumulative IPC: 1.463 (Simulation time: 00 hr 05 min 39 sec)
Heartbeat CPU 0 instructions: 73000441 cycles: 26852607 heartbeat IPC: 1.602 cumulative IPC: 1.466 (Simulation time: 00 hr 05 min 43 sec)
Heartbeat CPU 0 instructions: 73500445 cycles: 27089026 heartbeat IPC: 2.115 cumulative IPC: 1.476 (Simulation time: 00 hr 05 min 46 sec)
Heartbeat CPU 0 instructions: 74000445 cycles: 27331260 heartbeat IPC: 2.064 cumulative IPC: 1.485 (Simulation time: 00 hr 05 min 50 sec)
Heartbeat CPU 0 instructions: 74500448 cycles: 27738030 heartbeat IPC: 1.229 cumulative IPC: 1.478 (Simulation time: 00 hr 05 min 55 sec)
Heartbeat CPU 0 instructions: 75000453 cycles: 28039917 heartbeat IPC: 1.656 cumulative IPC: 1.481 (Simulation time: 00 hr 05 min 58 sec)
Heartbeat CPU 0 instructions: 75500455 cycles: 28316908 heartbeat IPC: 1.805 cumulative IPC: 1.487 (Simulation time: 00 hr 06 min 01 sec)
Heartbeat CPU 0 instructions: 76000458 cycles: 28643979 heartbeat IPC: 1.529 cumulative IPC: 1.487 (Simulation time: 00 hr 06 min 04 sec)
Heartbeat CPU 0 instructions: 76500460 cycles: 29300420 heartbeat IPC: 0.7617 cumulative IPC: 1.461 (Simulation time: 00 hr 06 min 13 sec)
Heartbeat CPU 0 instructions: 77000460 cycles: 29589372 heartbeat IPC: 1.73 cumulative IPC: 1.465 (Simulation time: 00 hr 06 min 17 sec)
Heartbeat CPU 0 instructions: 77500460 cycles: 29977088 heartbeat IPC: 1.29 cumulative IPC: 1.462 (Simulation time: 00 hr 06 min 21 sec)
Heartbeat CPU 0 instructions: 78000460 cycles: 30372946 heartbeat IPC: 1.263 cumulative IPC: 1.458 (Simulation time: 00 hr 06 min 24 sec)
Heartbeat CPU 0 instructions: 78500460 cycles: 30698859 heartbeat IPC: 1.534 cumulative IPC: 1.459 (Simulation time: 00 hr 06 min 27 sec)
Heartbeat CPU 0 instructions: 79000462 cycles: 30989656 heartbeat IPC: 1.719 cumulative IPC: 1.463 (Simulation time: 00 hr 06 min 30 sec)
Heartbeat CPU 0 instructions: 79500466 cycles: 31285307 heartbeat IPC: 1.691 cumulative IPC: 1.466 (Simulation time: 00 hr 06 min 33 sec)
Heartbeat CPU 0 instructions: 80000469 cycles: 31606645 heartbeat IPC: 1.556 cumulative IPC: 1.468 (Simulation time: 00 hr 06 min 36 sec)
Heartbeat CPU 0 instructions: 80500469 cycles: 32602721 heartbeat IPC: 0.502 cumulative IPC: 1.423 (Simulation time: 00 hr 06 min 47 sec)
Heartbeat CPU 0 instructions: 81000469 cycles: 32918578 heartbeat IPC: 1.583 cumulative IPC: 1.425 (Simulation time: 00 hr 06 min 50 sec)
Heartbeat CPU 0 instructions: 81500472 cycles: 33217143 heartbeat IPC: 1.675 cumulative IPC: 1.428 (Simulation time: 00 hr 06 min 53 sec)
Heartbeat CPU 0 instructions: 82000475 cycles: 34303273 heartbeat IPC: 0.4604 cumulative IPC: 1.383 (Simulation time: 00 hr 07 min 01 sec)
Heartbeat CPU 0 instructions: 82500475 cycles: 34680393 heartbeat IPC: 1.326 cumulative IPC: 1.382 (Simulation time: 00 hr 07 min 04 sec)
Heartbeat CPU 0 instructions: 83000476 cycles: 34971716 heartbeat IPC: 1.716 cumulative IPC: 1.386 (Simulation time: 00 hr 07 min 07 sec)
Heartbeat CPU 0 instructions: 83500476 cycles: 35261049 heartbeat IPC: 1.728 cumulative IPC: 1.39 (Simulation time: 00 hr 07 min 10 sec)
Heartbeat CPU 0 instructions: 84000478 cycles: 35580694 heartbeat IPC: 1.564 cumulative IPC: 1.393 (Simulation time: 00 hr 07 min 13 sec)
Heartbeat CPU 0 instructions: 84500478 cycles: 35865767 heartbeat IPC: 1.754 cumulative IPC: 1.397 (Simulation time: 00 hr 07 min 16 sec)
Heartbeat CPU 0 instructions: 85000478 cycles: 36196099 heartbeat IPC: 1.514 cumulative IPC: 1.398 (Simulation time: 00 hr 07 min 19 sec)
Heartbeat CPU 0 instructions: 85500478 cycles: 36488714 heartbeat IPC: 1.709 cumulative IPC: 1.402 (Simulation time: 00 hr 07 min 22 sec)
Heartbeat CPU 0 instructions: 86000481 cycles: 36800785 heartbeat IPC: 1.602 cumulative IPC: 1.404 (Simulation time: 00 hr 07 min 25 sec)
Heartbeat CPU 0 instructions: 86500487 cycles: 37104296 heartbeat IPC: 1.647 cumulative IPC: 1.407 (Simulation time: 00 hr 07 min 28 sec)
Heartbeat CPU 0 instructions: 87000490 cycles: 37405640 heartbeat IPC: 1.659 cumulative IPC: 1.41 (Simulation time: 00 hr 07 min 32 sec)
Heartbeat CPU 0 instructions: 87500491 cycles: 37711368 heartbeat IPC: 1.635 cumulative IPC: 1.413 (Simulation time: 00 hr 07 min 35 sec)
Heartbeat CPU 0 instructions: 88000494 cycles: 38079821 heartbeat IPC: 1.357 cumulative IPC: 1.412 (Simulation time: 00 hr 07 min 39 sec)
Heartbeat CPU 0 instructions: 88500494 cycles: 38354165 heartbeat IPC: 1.823 cumulative IPC: 1.416 (Simulation time: 00 hr 07 min 42 sec)
Heartbeat CPU 0 instructions: 89000494 cycles: 38669627 heartbeat IPC: 1.585 cumulative IPC: 1.418 (Simulation time: 00 hr 07 min 44 sec)
Heartbeat CPU 0 instructions: 89500494 cycles: 39041280 heartbeat IPC: 1.345 cumulative IPC: 1.417 (Simulation time: 00 hr 07 min 49 sec)
Heartbeat CPU 0 instructions: 90000494 cycles: 39284823 heartbeat IPC: 2.053 cumulative IPC: 1.422 (Simulation time: 00 hr 07 min 52 sec)
Heartbeat CPU 0 instructions: 90500494 cycles: 39520165 heartbeat IPC: 2.125 cumulative IPC: 1.428 (Simulation time: 00 hr 07 min 56 sec)
Heartbeat CPU 0 instructions: 91000494 cycles: 39753090 heartbeat IPC: 2.147 cumulative IPC: 1.434 (Simulation time: 00 hr 07 min 59 sec)
Heartbeat CPU 0 instructions: 91500494 cycles: 39983640 heartbeat IPC: 2.169 cumulative IPC: 1.44 (Simulation time: 00 hr 08 min 02 sec)
Heartbeat CPU 0 instructions: 92000495 cycles: 40306728 heartbeat IPC: 1.548 cumulative IPC: 1.441 (Simulation time: 00 hr 08 min 06 sec)
Heartbeat CPU 0 instructions: 92500501 cycles: 41332245 heartbeat IPC: 0.4876 cumulative IPC: 1.409 (Simulation time: 00 hr 08 min 14 sec)
Heartbeat CPU 0 instructions: 93000503 cycles: 41672116 heartbeat IPC: 1.471 cumulative IPC: 1.41 (Simulation time: 00 hr 08 min 17 sec)
Heartbeat CPU 0 instructions: 93500508 cycles: 41986724 heartbeat IPC: 1.589 cumulative IPC: 1.411 (Simulation time: 00 hr 08 min 21 sec)
Heartbeat CPU 0 instructions: 94000510 cycles: 42330446 heartbeat IPC: 1.455 cumulative IPC: 1.412 (Simulation time: 00 hr 08 min 24 sec)
Heartbeat CPU 0 instructions: 94500511 cycles: 43069084 heartbeat IPC: 0.6769 cumulative IPC: 1.395 (Simulation time: 00 hr 08 min 34 sec)
Heartbeat CPU 0 instructions: 95000511 cycles: 43409972 heartbeat IPC: 1.467 cumulative IPC: 1.396 (Simulation time: 00 hr 08 min 37 sec)
Heartbeat CPU 0 instructions: 95500514 cycles: 43716809 heartbeat IPC: 1.63 cumulative IPC: 1.398 (Simulation time: 00 hr 08 min 40 sec)
Heartbeat CPU 0 instructions: 96000516 cycles: 44053832 heartbeat IPC: 1.484 cumulative IPC: 1.399 (Simulation time: 00 hr 08 min 44 sec)
Heartbeat CPU 0 instructions: 96500520 cycles: 44378290 heartbeat IPC: 1.541 cumulative IPC: 1.4 (Simulation time: 00 hr 08 min 47 sec)
Heartbeat CPU 0 instructions: 97000522 cycles: 44701989 heartbeat IPC: 1.545 cumulative IPC: 1.401 (Simulation time: 00 hr 08 min 51 sec)
Heartbeat CPU 0 instructions: 97500524 cycles: 45012564 heartbeat IPC: 1.61 cumulative IPC: 1.403 (Simulation time: 00 hr 08 min 54 sec)
Heartbeat CPU 0 instructions: 98000528 cycles: 45328339 heartbeat IPC: 1.583 cumulative IPC: 1.405 (Simulation time: 00 hr 08 min 57 sec)
Heartbeat CPU 0 instructions: 98500528 cycles: 45638364 heartbeat IPC: 1.613 cumulative IPC: 1.407 (Simulation time: 00 hr 09 min 01 sec)
Heartbeat CPU 0 instructions: 99000529 cycles: 45981082 heartbeat IPC: 1.459 cumulative IPC: 1.407 (Simulation time: 00 hr 09 min 04 sec)
Heartbeat CPU 0 instructions: 99500529 cycles: 46262742 heartbeat IPC: 1.775 cumulative IPC: 1.41 (Simulation time: 00 hr 09 min 07 sec)
Heartbeat CPU 0 instructions: 100000530 cycles: 46544420 heartbeat IPC: 1.775 cumulative IPC: 1.413 (Simulation time: 00 hr 09 min 10 sec)
Heartbeat CPU 0 instructions: 100500530 cycles: 46878291 heartbeat IPC: 1.498 cumulative IPC: 1.414 (Simulation time: 00 hr 09 min 13 sec)
Heartbeat CPU 0 instructions: 101000536 cycles: 47190799 heartbeat IPC: 1.6 cumulative IPC: 1.416 (Simulation time: 00 hr 09 min 17 sec)
Heartbeat CPU 0 instructions: 101500540 cycles: 47484754 heartbeat IPC: 1.701 cumulative IPC: 1.418 (Simulation time: 00 hr 09 min 20 sec)
Heartbeat CPU 0 instructions: 102000541 cycles: 47805787 heartbeat IPC: 1.557 cumulative IPC: 1.419 (Simulation time: 00 hr 09 min 23 sec)
Heartbeat CPU 0 instructions: 102500546 cycles: 48431695 heartbeat IPC: 0.7988 cumulative IPC: 1.409 (Simulation time: 00 hr 09 min 29 sec)
Heartbeat CPU 0 instructions: 103000546 cycles: 48785355 heartbeat IPC: 1.414 cumulative IPC: 1.409 (Simulation time: 00 hr 09 min 33 sec)
Heartbeat CPU 0 instructions: 103500550 cycles: 49048414 heartbeat IPC: 1.901 cumulative IPC: 1.412 (Simulation time: 00 hr 09 min 37 sec)
Heartbeat CPU 0 instructions: 104000550 cycles: 49953995 heartbeat IPC: 0.5521 cumulative IPC: 1.392 (Simulation time: 00 hr 09 min 48 sec)
Heartbeat CPU 0 instructions: 104500556 cycles: 50145819 heartbeat IPC: 2.607 cumulative IPC: 1.398 (Simulation time: 00 hr 09 min 50 sec)
Heartbeat CPU 0 instructions: 105000560 cycles: 50323188 heartbeat IPC: 2.819 cumulative IPC: 1.405 (Simulation time: 00 hr 09 min 53 sec)
Heartbeat CPU 0 instructions: 105500562 cycles: 50503031 heartbeat IPC: 2.78 cumulative IPC: 1.411 (Simulation time: 00 hr 09 min 55 sec)
Heartbeat CPU 0 instructions: 106000565 cycles: 50686148 heartbeat IPC: 2.731 cumulative IPC: 1.417 (Simulation time: 00 hr 09 min 57 sec)
Heartbeat CPU 0 instructions: 106500568 cycles: 50872710 heartbeat IPC: 2.68 cumulative IPC: 1.423 (Simulation time: 00 hr 09 min 59 sec)
Heartbeat CPU 0 instructions: 107000572 cycles: 51054326 heartbeat IPC: 2.753 cumulative IPC: 1.429 (Simulation time: 00 hr 10 min 01 sec)
Heartbeat CPU 0 instructions: 107500578 cycles: 51231596 heartbeat IPC: 2.821 cumulative IPC: 1.435 (Simulation time: 00 hr 10 min 03 sec)
Heartbeat CPU 0 instructions: 108000578 cycles: 51403169 heartbeat IPC: 2.914 cumulative IPC: 1.441 (Simulation time: 00 hr 10 min 06 sec)
Heartbeat CPU 0 instructions: 108500582 cycles: 51610397 heartbeat IPC: 2.413 cumulative IPC: 1.446 (Simulation time: 00 hr 10 min 08 sec)
Heartbeat CPU 0 instructions: 109000584 cycles: 51848687 heartbeat IPC: 2.098 cumulative IPC: 1.45 (Simulation time: 00 hr 10 min 11 sec)
Heartbeat CPU 0 instructions: 109500586 cycles: 52023582 heartbeat IPC: 2.859 cumulative IPC: 1.456 (Simulation time: 00 hr 10 min 13 sec)
Heartbeat CPU 0 instructions: 110000588 cycles: 52196958 heartbeat IPC: 2.884 cumulative IPC: 1.462 (Simulation time: 00 hr 10 min 15 sec)
Heartbeat CPU 0 instructions: 110500588 cycles: 52373365 heartbeat IPC: 2.834 cumulative IPC: 1.468 (Simulation time: 00 hr 10 min 17 sec)
Heartbeat CPU 0 instructions: 111000593 cycles: 52553901 heartbeat IPC: 2.77 cumulative IPC: 1.474 (Simulation time: 00 hr 10 min 20 sec)
Heartbeat CPU 0 instructions: 111500598 cycles: 52732639 heartbeat IPC: 2.797 cumulative IPC: 1.48 (Simulation time: 00 hr 10 min 22 sec)
Heartbeat CPU 0 instructions: 112000598 cycles: 52909530 heartbeat IPC: 2.827 cumulative IPC: 1.485 (Simulation time: 00 hr 10 min 24 sec)
Heartbeat CPU 0 instructions: 112500600 cycles: 54298487 heartbeat IPC: 0.36 cumulative IPC: 1.449 (Simulation time: 00 hr 10 min 38 sec)
Heartbeat CPU 0 instructions: 113000601 cycles: 55382043 heartbeat IPC: 0.4614 cumulative IPC: 1.425 (Simulation time: 00 hr 10 min 46 sec)
Heartbeat CPU 0 instructions: 113500602 cycles: 55769046 heartbeat IPC: 1.292 cumulative IPC: 1.424 (Simulation time: 00 hr 10 min 50 sec)
Heartbeat CPU 0 instructions: 114000605 cycles: 56086929 heartbeat IPC: 1.573 cumulative IPC: 1.425 (Simulation time: 00 hr 10 min 53 sec)
Heartbeat CPU 0 instructions: 114500607 cycles: 56579263 heartbeat IPC: 1.016 cumulative IPC: 1.42 (Simulation time: 00 hr 10 min 58 sec)
Heartbeat CPU 0 instructions: 115000611 cycles: 56807494 heartbeat IPC: 2.191 cumulative IPC: 1.424 (Simulation time: 00 hr 11 min 00 sec)
Heartbeat CPU 0 instructions: 115500611 cycles: 57004471 heartbeat IPC: 2.538 cumulative IPC: 1.429 (Simulation time: 00 hr 11 min 02 sec)
Heartbeat CPU 0 instructions: 116000611 cycles: 57211423 heartbeat IPC: 2.416 cumulative IPC: 1.433 (Simulation time: 00 hr 11 min 05 sec)
Heartbeat CPU 0 instructions: 116500613 cycles: 57379804 heartbeat IPC: 2.969 cumulative IPC: 1.439 (Simulation time: 00 hr 11 min 07 sec)
Heartbeat CPU 0 instructions: 117000613 cycles: 57541761 heartbeat IPC: 3.087 cumulative IPC: 1.445 (Simulation time: 00 hr 11 min 09 sec)
Heartbeat CPU 0 instructions: 117500614 cycles: 57721008 heartbeat IPC: 2.789 cumulative IPC: 1.45 (Simulation time: 00 hr 11 min 11 sec)
Heartbeat CPU 0 instructions: 118000620 cycles: 57894138 heartbeat IPC: 2.888 cumulative IPC: 1.455 (Simulation time: 00 hr 11 min 13 sec)
Heartbeat CPU 0 instructions: 118500624 cycles: 58076122 heartbeat IPC: 2.748 cumulative IPC: 1.46 (Simulation time: 00 hr 11 min 16 sec)
Heartbeat CPU 0 instructions: 119000625 cycles: 58257489 heartbeat IPC: 2.757 cumulative IPC: 1.465 (Simulation time: 00 hr 11 min 18 sec)
Heartbeat CPU 0 instructions: 119500626 cycles: 58438599 heartbeat IPC: 2.761 cumulative IPC: 1.47 (Simulation time: 00 hr 11 min 20 sec)
Heartbeat CPU 0 instructions: 120000629 cycles: 58600232 heartbeat IPC: 3.093 cumulative IPC: 1.476 (Simulation time: 00 hr 11 min 22 sec)
Heartbeat CPU 0 instructions: 120500629 cycles: 58796870 heartbeat IPC: 2.543 cumulative IPC: 1.48 (Simulation time: 00 hr 11 min 24 sec)
Heartbeat CPU 0 instructions: 121000630 cycles: 58990896 heartbeat IPC: 2.577 cumulative IPC: 1.485 (Simulation time: 00 hr 11 min 27 sec)
Heartbeat CPU 0 instructions: 121500630 cycles: 59194015 heartbeat IPC: 2.462 cumulative IPC: 1.489 (Simulation time: 00 hr 11 min 29 sec)
Heartbeat CPU 0 instructions: 122000635 cycles: 59383065 heartbeat IPC: 2.645 cumulative IPC: 1.493 (Simulation time: 00 hr 11 min 31 sec)
Heartbeat CPU 0 instructions: 122500635 cycles: 59583177 heartbeat IPC: 2.499 cumulative IPC: 1.497 (Simulation time: 00 hr 11 min 34 sec)
Heartbeat CPU 0 instructions: 123000639 cycles: 59771646 heartbeat IPC: 2.653 cumulative IPC: 1.502 (Simulation time: 00 hr 11 min 36 sec)
Heartbeat CPU 0 instructions: 123500639 cycles: 59957825 heartbeat IPC: 2.686 cumulative IPC: 1.506 (Simulation time: 00 hr 11 min 38 sec)
Heartbeat CPU 0 instructions: 124000642 cycles: 60145560 heartbeat IPC: 2.663 cumulative IPC: 1.511 (Simulation time: 00 hr 11 min 40 sec)
Heartbeat CPU 0 instructions: 124500643 cycles: 61146899 heartbeat IPC: 0.4993 cumulative IPC: 1.491 (Simulation time: 00 hr 11 min 48 sec)
Heartbeat CPU 0 instructions: 125000645 cycles: 61506157 heartbeat IPC: 1.392 cumulative IPC: 1.49 (Simulation time: 00 hr 11 min 51 sec)
Heartbeat CPU 0 instructions: 125500650 cycles: 61695729 heartbeat IPC: 2.638 cumulative IPC: 1.494 (Simulation time: 00 hr 11 min 54 sec)
Heartbeat CPU 0 instructions: 126000653 cycles: 61875154 heartbeat IPC: 2.787 cumulative IPC: 1.499 (Simulation time: 00 hr 11 min 56 sec)
Heartbeat CPU 0 instructions: 126500660 cycles: 62049834 heartbeat IPC: 2.862 cumulative IPC: 1.503 (Simulation time: 00 hr 11 min 58 sec)
Heartbeat CPU 0 instructions: 127000660 cycles: 62223956 heartbeat IPC: 2.872 cumulative IPC: 1.508 (Simulation time: 00 hr 12 min 00 sec)
Heartbeat CPU 0 instructions: 127500666 cycles: 62413964 heartbeat IPC: 2.631 cumulative IPC: 1.512 (Simulation time: 00 hr 12 min 03 sec)
Heartbeat CPU 0 instructions: 128000668 cycles: 62614082 heartbeat IPC: 2.499 cumulative IPC: 1.516 (Simulation time: 00 hr 12 min 05 sec)
Heartbeat CPU 0 instructions: 128500668 cycles: 62938952 heartbeat IPC: 1.539 cumulative IPC: 1.516 (Simulation time: 00 hr 12 min 08 sec)
Heartbeat CPU 0 instructions: 129000668 cycles: 63337683 heartbeat IPC: 1.254 cumulative IPC: 1.514 (Simulation time: 00 hr 12 min 12 sec)
Heartbeat CPU 0 instructions: 129500668 cycles: 63629140 heartbeat IPC: 1.716 cumulative IPC: 1.515 (Simulation time: 00 hr 12 min 15 sec)
Heartbeat CPU 0 instructions: 130000669 cycles: 63950959 heartbeat IPC: 1.554 cumulative IPC: 1.516 (Simulation time: 00 hr 12 min 18 sec)
Heartbeat CPU 0 instructions: 130500671 cycles: 64281787 heartbeat IPC: 1.511 cumulative IPC: 1.516 (Simulation time: 00 hr 12 min 22 sec)
Heartbeat CPU 0 instructions: 131000674 cycles: 64515521 heartbeat IPC: 2.139 cumulative IPC: 1.518 (Simulation time: 00 hr 12 min 25 sec)
Heartbeat CPU 0 instructions: 131500676 cycles: 65107590 heartbeat IPC: 0.8445 cumulative IPC: 1.511 (Simulation time: 00 hr 12 min 34 sec)
Heartbeat CPU 0 instructions: 132000682 cycles: 65396063 heartbeat IPC: 1.733 cumulative IPC: 1.512 (Simulation time: 00 hr 12 min 37 sec)
Heartbeat CPU 0 instructions: 132500684 cycles: 65735088 heartbeat IPC: 1.475 cumulative IPC: 1.512 (Simulation time: 00 hr 12 min 40 sec)
Heartbeat CPU 0 instructions: 133000685 cycles: 66020401 heartbeat IPC: 1.752 cumulative IPC: 1.513 (Simulation time: 00 hr 12 min 43 sec)
Heartbeat CPU 0 instructions: 133500685 cycles: 66341391 heartbeat IPC: 1.558 cumulative IPC: 1.513 (Simulation time: 00 hr 12 min 46 sec)
Heartbeat CPU 0 instructions: 134000688 cycles: 66630869 heartbeat IPC: 1.727 cumulative IPC: 1.514 (Simulation time: 00 hr 12 min 49 sec)
Heartbeat CPU 0 instructions: 134500689 cycles: 66958923 heartbeat IPC: 1.524 cumulative IPC: 1.515 (Simulation time: 00 hr 12 min 52 sec)
Heartbeat CPU 0 instructions: 135000692 cycles: 67525434 heartbeat IPC: 0.8826 cumulative IPC: 1.508 (Simulation time: 00 hr 12 min 57 sec)
Heartbeat CPU 0 instructions: 135500694 cycles: 67854898 heartbeat IPC: 1.518 cumulative IPC: 1.508 (Simulation time: 00 hr 13 min 00 sec)
Heartbeat CPU 0 instructions: 136000694 cycles: 68181545 heartbeat IPC: 1.531 cumulative IPC: 1.508 (Simulation time: 00 hr 13 min 04 sec)
Heartbeat CPU 0 instructions: 136500695 cycles: 68419107 heartbeat IPC: 2.105 cumulative IPC: 1.511 (Simulation time: 00 hr 13 min 07 sec)
Heartbeat CPU 0 instructions: 137000701 cycles: 68878909 heartbeat IPC: 1.087 cumulative IPC: 1.507 (Simulation time: 00 hr 13 min 14 sec)
Heartbeat CPU 0 instructions: 137500703 cycles: 69113163 heartbeat IPC: 2.134 cumulative IPC: 1.51 (Simulation time: 00 hr 13 min 17 sec)
Heartbeat CPU 0 instructions: 138000704 cycles: 69343948 heartbeat IPC: 2.167 cumulative IPC: 1.513 (Simulation time: 00 hr 13 min 21 sec)
Heartbeat CPU 0 instructions: 138500706 cycles: 69579063 heartbeat IPC: 2.127 cumulative IPC: 1.515 (Simulation time: 00 hr 13 min 24 sec)
Heartbeat CPU 0 instructions: 139000707 cycles: 69810581 heartbeat IPC: 2.16 cumulative IPC: 1.518 (Simulation time: 00 hr 13 min 27 sec)
Heartbeat CPU 0 instructions: 139500707 cycles: 70046068 heartbeat IPC: 2.123 cumulative IPC: 1.52 (Simulation time: 00 hr 13 min 30 sec)
Heartbeat CPU 0 instructions: 140000707 cycles: 70276544 heartbeat IPC: 2.169 cumulative IPC: 1.523 (Simulation time: 00 hr 13 min 34 sec)
Heartbeat CPU 0 instructions: 140500709 cycles: 70512036 heartbeat IPC: 2.123 cumulative IPC: 1.525 (Simulation time: 00 hr 13 min 37 sec)
Heartbeat CPU 0 instructions: 141000709 cycles: 70744495 heartbeat IPC: 2.151 cumulative IPC: 1.527 (Simulation time: 00 hr 13 min 40 sec)
Heartbeat CPU 0 instructions: 141500713 cycles: 70976924 heartbeat IPC: 2.151 cumulative IPC: 1.53 (Simulation time: 00 hr 13 min 44 sec)
Heartbeat CPU 0 instructions: 142000713 cycles: 71208072 heartbeat IPC: 2.163 cumulative IPC: 1.532 (Simulation time: 00 hr 13 min 47 sec)
Heartbeat CPU 0 instructions: 142500717 cycles: 71441186 heartbeat IPC: 2.145 cumulative IPC: 1.535 (Simulation time: 00 hr 13 min 50 sec)
Heartbeat CPU 0 instructions: 143000718 cycles: 71672977 heartbeat IPC: 2.157 cumulative IPC: 1.537 (Simulation time: 00 hr 13 min 53 sec)
Heartbeat CPU 0 instructions: 143500724 cycles: 72378148 heartbeat IPC: 0.7091 cumulative IPC: 1.527 (Simulation time: 00 hr 14 min 00 sec)
Heartbeat CPU 0 instructions: 144000725 cycles: 72670223 heartbeat IPC: 1.712 cumulative IPC: 1.528 (Simulation time: 00 hr 14 min 03 sec)
Heartbeat CPU 0 instructions: 144500725 cycles: 73018786 heartbeat IPC: 1.434 cumulative IPC: 1.528 (Simulation time: 00 hr 14 min 06 sec)
Heartbeat CPU 0 instructions: 145000728 cycles: 73609151 heartbeat IPC: 0.8469 cumulative IPC: 1.521 (Simulation time: 00 hr 14 min 11 sec)
Heartbeat CPU 0 instructions: 145500731 cycles: 73933803 heartbeat IPC: 1.54 cumulative IPC: 1.521 (Simulation time: 00 hr 14 min 14 sec)
Heartbeat CPU 0 instructions: 146000732 cycles: 74189754 heartbeat IPC: 1.954 cumulative IPC: 1.523 (Simulation time: 00 hr 14 min 18 sec)
Heartbeat CPU 0 instructions: 146500732 cycles: 74489812 heartbeat IPC: 1.666 cumulative IPC: 1.524 (Simulation time: 00 hr 14 min 22 sec)
Heartbeat CPU 0 instructions: 147000733 cycles: 74772615 heartbeat IPC: 1.768 cumulative IPC: 1.525 (Simulation time: 00 hr 14 min 25 sec)
Heartbeat CPU 0 instructions: 147500735 cycles: 75128134 heartbeat IPC: 1.406 cumulative IPC: 1.524 (Simulation time: 00 hr 14 min 30 sec)
Heartbeat CPU 0 instructions: 148000737 cycles: 75424443 heartbeat IPC: 1.687 cumulative IPC: 1.525 (Simulation time: 00 hr 14 min 33 sec)
Heartbeat CPU 0 instructions: 148500738 cycles: 75715433 heartbeat IPC: 1.718 cumulative IPC: 1.526 (Simulation time: 00 hr 14 min 36 sec)
Heartbeat CPU 0 instructions: 149000741 cycles: 76030947 heartbeat IPC: 1.585 cumulative IPC: 1.526 (Simulation time: 00 hr 14 min 39 sec)
Heartbeat CPU 0 instructions: 149500746 cycles: 76269947 heartbeat IPC: 2.092 cumulative IPC: 1.528 (Simulation time: 00 hr 14 min 42 sec)
Heartbeat CPU 0 instructions: 150000746 cycles: 76789624 heartbeat IPC: 0.9621 cumulative IPC: 1.524 (Simulation time: 00 hr 14 min 49 sec)
Heartbeat CPU 0 instructions: 150500747 cycles: 77101838 heartbeat IPC: 1.601 cumulative IPC: 1.524 (Simulation time: 00 hr 14 min 52 sec)
Heartbeat CPU 0 instructions: 151000752 cycles: 77415682 heartbeat IPC: 1.593 cumulative IPC: 1.525 (Simulation time: 00 hr 14 min 55 sec)
Heartbeat CPU 0 instructions: 151500753 cycles: 77704737 heartbeat IPC: 1.73 cumulative IPC: 1.525 (Simulation time: 00 hr 14 min 59 sec)
Heartbeat CPU 0 instructions: 152000754 cycles: 77994114 heartbeat IPC: 1.728 cumulative IPC: 1.526 (Simulation time: 00 hr 15 min 02 sec)
Heartbeat CPU 0 instructions: 152500755 cycles: 78278205 heartbeat IPC: 1.76 cumulative IPC: 1.527 (Simulation time: 00 hr 15 min 05 sec)
Heartbeat CPU 0 instructions: 153000759 cycles: 78557718 heartbeat IPC: 1.789 cumulative IPC: 1.528 (Simulation time: 00 hr 15 min 08 sec)
Heartbeat CPU 0 instructions: 153500760 cycles: 78896091 heartbeat IPC: 1.478 cumulative IPC: 1.528 (Simulation time: 00 hr 15 min 12 sec)
Heartbeat CPU 0 instructions: 154000760 cycles: 79227568 heartbeat IPC: 1.508 cumulative IPC: 1.528 (Simulation time: 00 hr 15 min 15 sec)
Heartbeat CPU 0 instructions: 154500760 cycles: 79575003 heartbeat IPC: 1.439 cumulative IPC: 1.528 (Simulation time: 00 hr 15 min 20 sec)
Heartbeat CPU 0 instructions: 155000761 cycles: 80135676 heartbeat IPC: 0.8918 cumulative IPC: 1.522 (Simulation time: 00 hr 15 min 25 sec)
Heartbeat CPU 0 instructions: 155500761 cycles: 80384467 heartbeat IPC: 2.01 cumulative IPC: 1.524 (Simulation time: 00 hr 15 min 28 sec)
Heartbeat CPU 0 instructions: 156000761 cycles: 80637300 heartbeat IPC: 1.978 cumulative IPC: 1.526 (Simulation time: 00 hr 15 min 31 sec)
Heartbeat CPU 0 instructions: 156500761 cycles: 80878505 heartbeat IPC: 2.073 cumulative IPC: 1.528 (Simulation time: 00 hr 15 min 35 sec)
Heartbeat CPU 0 instructions: 157000764 cycles: 81160576 heartbeat IPC: 1.773 cumulative IPC: 1.529 (Simulation time: 00 hr 15 min 38 sec)
Heartbeat CPU 0 instructions: 157500764 cycles: 81956622 heartbeat IPC: 0.6281 cumulative IPC: 1.519 (Simulation time: 00 hr 15 min 51 sec)
Heartbeat CPU 0 instructions: 158000765 cycles: 82562341 heartbeat IPC: 0.8255 cumulative IPC: 1.513 (Simulation time: 00 hr 15 min 58 sec)
Heartbeat CPU 0 instructions: 158500770 cycles: 82780569 heartbeat IPC: 2.291 cumulative IPC: 1.515 (Simulation time: 00 hr 16 min 00 sec)
Heartbeat CPU 0 instructions: 159000777 cycles: 82992665 heartbeat IPC: 2.357 cumulative IPC: 1.518 (Simulation time: 00 hr 16 min 03 sec)
Heartbeat CPU 0 instructions: 159500780 cycles: 83152667 heartbeat IPC: 3.125 cumulative IPC: 1.521 (Simulation time: 00 hr 16 min 05 sec)
Heartbeat CPU 0 instructions: 160000782 cycles: 83325597 heartbeat IPC: 2.891 cumulative IPC: 1.524 (Simulation time: 00 hr 16 min 08 sec)
Heartbeat CPU 0 instructions: 160500785 cycles: 83510009 heartbeat IPC: 2.711 cumulative IPC: 1.527 (Simulation time: 00 hr 16 min 10 sec)
Heartbeat CPU 0 instructions: 161000790 cycles: 83696873 heartbeat IPC: 2.676 cumulative IPC: 1.53 (Simulation time: 00 hr 16 min 12 sec)
Heartbeat CPU 0 instructions: 161500796 cycles: 83868477 heartbeat IPC: 2.914 cumulative IPC: 1.534 (Simulation time: 00 hr 16 min 14 sec)
Heartbeat CPU 0 instructions: 162000801 cycles: 84035269 heartbeat IPC: 2.998 cumulative IPC: 1.537 (Simulation time: 00 hr 16 min 16 sec)
Heartbeat CPU 0 instructions: 162500804 cycles: 84253298 heartbeat IPC: 2.293 cumulative IPC: 1.539 (Simulation time: 00 hr 16 min 19 sec)
Heartbeat CPU 0 instructions: 163000805 cycles: 84441046 heartbeat IPC: 2.663 cumulative IPC: 1.542 (Simulation time: 00 hr 16 min 21 sec)
Heartbeat CPU 0 instructions: 163500811 cycles: 84613343 heartbeat IPC: 2.902 cumulative IPC: 1.545 (Simulation time: 00 hr 16 min 24 sec)
Heartbeat CPU 0 instructions: 164000814 cycles: 84788508 heartbeat IPC: 2.854 cumulative IPC: 1.548 (Simulation time: 00 hr 16 min 26 sec)
Heartbeat CPU 0 instructions: 164500814 cycles: 84973360 heartbeat IPC: 2.705 cumulative IPC: 1.551 (Simulation time: 00 hr 16 min 28 sec)
Heartbeat CPU 0 instructions: 165000820 cycles: 85722737 heartbeat IPC: 0.6672 cumulative IPC: 1.542 (Simulation time: 00 hr 16 min 34 sec)
Heartbeat CPU 0 instructions: 165500822 cycles: 85910783 heartbeat IPC: 2.659 cumulative IPC: 1.545 (Simulation time: 00 hr 16 min 36 sec)
Heartbeat CPU 0 instructions: 166000829 cycles: 86100965 heartbeat IPC: 2.629 cumulative IPC: 1.548 (Simulation time: 00 hr 16 min 39 sec)
Heartbeat CPU 0 instructions: 166500835 cycles: 86288337 heartbeat IPC: 2.669 cumulative IPC: 1.551 (Simulation time: 00 hr 16 min 41 sec)
Heartbeat CPU 0 instructions: 167000839 cycles: 86464415 heartbeat IPC: 2.84 cumulative IPC: 1.554 (Simulation time: 00 hr 16 min 43 sec)
Heartbeat CPU 0 instructions: 167500844 cycles: 86638970 heartbeat IPC: 2.864 cumulative IPC: 1.557 (Simulation time: 00 hr 16 min 45 sec)
Heartbeat CPU 0 instructions: 168000847 cycles: 86819679 heartbeat IPC: 2.767 cumulative IPC: 1.56 (Simulation time: 00 hr 16 min 47 sec)
Heartbeat CPU 0 instructions: 168500848 cycles: 86991988 heartbeat IPC: 2.902 cumulative IPC: 1.563 (Simulation time: 00 hr 16 min 50 sec)
Heartbeat CPU 0 instructions: 169000852 cycles: 87228707 heartbeat IPC: 2.112 cumulative IPC: 1.564 (Simulation time: 00 hr 16 min 52 sec)
Heartbeat CPU 0 instructions: 169500852 cycles: 87441068 heartbeat IPC: 2.354 cumulative IPC: 1.567 (Simulation time: 00 hr 16 min 55 sec)
Heartbeat CPU 0 instructions: 170000853 cycles: 87614506 heartbeat IPC: 2.883 cumulative IPC: 1.57 (Simulation time: 00 hr 16 min 57 sec)
Heartbeat CPU 0 instructions: 170500856 cycles: 87790875 heartbeat IPC: 2.835 cumulative IPC: 1.573 (Simulation time: 00 hr 17 min 00 sec)
Heartbeat CPU 0 instructions: 171000856 cycles: 87992197 heartbeat IPC: 2.484 cumulative IPC: 1.575 (Simulation time: 00 hr 17 min 02 sec)
Heartbeat CPU 0 instructions: 171500858 cycles: 88202875 heartbeat IPC: 2.373 cumulative IPC: 1.577 (Simulation time: 00 hr 17 min 05 sec)
Heartbeat CPU 0 instructions: 172000862 cycles: 88582708 heartbeat IPC: 1.316 cumulative IPC: 1.576 (Simulation time: 00 hr 17 min 09 sec)
Heartbeat CPU 0 instructions: 172500863 cycles: 88887227 heartbeat IPC: 1.642 cumulative IPC: 1.576 (Simulation time: 00 hr 17 min 12 sec)
Heartbeat CPU 0 instructions: 173000863 cycles: 89256104 heartbeat IPC: 1.355 cumulative IPC: 1.575 (Simulation time: 00 hr 17 min 16 sec)
Heartbeat CPU 0 instructions: 173500868 cycles: 89540594 heartbeat IPC: 1.758 cumulative IPC: 1.576 (Simulation time: 00 hr 17 min 19 sec)
Heartbeat CPU 0 instructions: 174000871 cycles: 89832190 heartbeat IPC: 1.715 cumulative IPC: 1.576 (Simulation time: 00 hr 17 min 22 sec)
Heartbeat CPU 0 instructions: 174500874 cycles: 90137324 heartbeat IPC: 1.639 cumulative IPC: 1.577 (Simulation time: 00 hr 17 min 26 sec)
Heartbeat CPU 0 instructions: 175000877 cycles: 90909895 heartbeat IPC: 0.6472 cumulative IPC: 1.568 (Simulation time: 00 hr 17 min 32 sec)
Heartbeat CPU 0 instructions: 175500881 cycles: 91887583 heartbeat IPC: 0.5114 cumulative IPC: 1.555 (Simulation time: 00 hr 17 min 41 sec)
Heartbeat CPU 0 instructions: 176000881 cycles: 92593962 heartbeat IPC: 0.7078 cumulative IPC: 1.547 (Simulation time: 00 hr 17 min 47 sec)
Heartbeat CPU 0 instructions: 176500886 cycles: 92845237 heartbeat IPC: 1.99 cumulative IPC: 1.549 (Simulation time: 00 hr 17 min 50 sec)
Heartbeat CPU 0 instructions: 177000889 cycles: 93197732 heartbeat IPC: 1.418 cumulative IPC: 1.548 (Simulation time: 00 hr 17 min 53 sec)
Heartbeat CPU 0 instructions: 177500889 cycles: 93495695 heartbeat IPC: 1.678 cumulative IPC: 1.549 (Simulation time: 00 hr 17 min 56 sec)
Heartbeat CPU 0 instructions: 178000889 cycles: 93762863 heartbeat IPC: 1.871 cumulative IPC: 1.55 (Simulation time: 00 hr 17 min 59 sec)
Heartbeat CPU 0 instructions: 178500892 cycles: 94069791 heartbeat IPC: 1.629 cumulative IPC: 1.55 (Simulation time: 00 hr 18 min 02 sec)
Heartbeat CPU 0 instructions: 179000894 cycles: 94379509 heartbeat IPC: 1.614 cumulative IPC: 1.55 (Simulation time: 00 hr 18 min 05 sec)
Heartbeat CPU 0 instructions: 179500896 cycles: 94724369 heartbeat IPC: 1.45 cumulative IPC: 1.55 (Simulation time: 00 hr 18 min 09 sec)
Heartbeat CPU 0 instructions: 180000896 cycles: 95054477 heartbeat IPC: 1.515 cumulative IPC: 1.55 (Simulation time: 00 hr 18 min 12 sec)
Heartbeat CPU 0 instructions: 180500898 cycles: 95381430 heartbeat IPC: 1.529 cumulative IPC: 1.55 (Simulation time: 00 hr 18 min 16 sec)
Heartbeat CPU 0 instructions: 181000899 cycles: 95694171 heartbeat IPC: 1.599 cumulative IPC: 1.55 (Simulation time: 00 hr 18 min 19 sec)
Heartbeat CPU 0 instructions: 181500906 cycles: 95976484 heartbeat IPC: 1.771 cumulative IPC: 1.551 (Simulation time: 00 hr 18 min 22 sec)
Heartbeat CPU 0 instructions: 182000907 cycles: 96286856 heartbeat IPC: 1.611 cumulative IPC: 1.551 (Simulation time: 00 hr 18 min 25 sec)
Heartbeat CPU 0 instructions: 182500908 cycles: 96631560 heartbeat IPC: 1.451 cumulative IPC: 1.55 (Simulation time: 00 hr 18 min 29 sec)
Heartbeat CPU 0 instructions: 183000912 cycles: 96890397 heartbeat IPC: 1.932 cumulative IPC: 1.551 (Simulation time: 00 hr 18 min 31 sec)
Heartbeat CPU 0 instructions: 183500914 cycles: 97187095 heartbeat IPC: 1.685 cumulative IPC: 1.552 (Simulation time: 00 hr 18 min 34 sec)
Heartbeat CPU 0 instructions: 184000914 cycles: 98096150 heartbeat IPC: 0.55 cumulative IPC: 1.541 (Simulation time: 00 hr 18 min 41 sec)
Heartbeat CPU 0 instructions: 184500914 cycles: 98419243 heartbeat IPC: 1.548 cumulative IPC: 1.541 (Simulation time: 00 hr 18 min 44 sec)
Heartbeat CPU 0 instructions: 185000916 cycles: 98723660 heartbeat IPC: 1.642 cumulative IPC: 1.542 (Simulation time: 00 hr 18 min 47 sec)
Heartbeat CPU 0 instructions: 185500919 cycles: 99041064 heartbeat IPC: 1.575 cumulative IPC: 1.542 (Simulation time: 00 hr 18 min 51 sec)
Heartbeat CPU 0 instructions: 186000921 cycles: 99352939 heartbeat IPC: 1.603 cumulative IPC: 1.542 (Simulation time: 00 hr 18 min 54 sec)
Heartbeat CPU 0 instructions: 186500926 cycles: 99655022 heartbeat IPC: 1.655 cumulative IPC: 1.543 (Simulation time: 00 hr 18 min 57 sec)
Heartbeat CPU 0 instructions: 187000926 cycles: 99951341 heartbeat IPC: 1.687 cumulative IPC: 1.543 (Simulation time: 00 hr 19 min 00 sec)
Heartbeat CPU 0 instructions: 187500927 cycles: 100269309 heartbeat IPC: 1.572 cumulative IPC: 1.543 (Simulation time: 00 hr 19 min 03 sec)
Heartbeat CPU 0 instructions: 188000928 cycles: 100587557 heartbeat IPC: 1.571 cumulative IPC: 1.543 (Simulation time: 00 hr 19 min 06 sec)
Heartbeat CPU 0 instructions: 188500929 cycles: 100903210 heartbeat IPC: 1.584 cumulative IPC: 1.543 (Simulation time: 00 hr 19 min 09 sec)
Heartbeat CPU 0 instructions: 189000929 cycles: 101189120 heartbeat IPC: 1.749 cumulative IPC: 1.544 (Simulation time: 00 hr 19 min 12 sec)
Heartbeat CPU 0 instructions: 189500929 cycles: 101927065 heartbeat IPC: 0.6776 cumulative IPC: 1.537 (Simulation time: 00 hr 19 min 19 sec)
Heartbeat CPU 0 instructions: 190000931 cycles: 102168138 heartbeat IPC: 2.074 cumulative IPC: 1.538 (Simulation time: 00 hr 19 min 22 sec)
Heartbeat CPU 0 instructions: 190500931 cycles: 102400237 heartbeat IPC: 2.154 cumulative IPC: 1.54 (Simulation time: 00 hr 19 min 26 sec)
Heartbeat CPU 0 instructions: 191000932 cycles: 102656278 heartbeat IPC: 1.953 cumulative IPC: 1.541 (Simulation time: 00 hr 19 min 29 sec)
Heartbeat CPU 0 instructions: 191500934 cycles: 103245897 heartbeat IPC: 0.848 cumulative IPC: 1.537 (Simulation time: 00 hr 19 min 38 sec)
Heartbeat CPU 0 instructions: 192000940 cycles: 103488963 heartbeat IPC: 2.057 cumulative IPC: 1.538 (Simulation time: 00 hr 19 min 41 sec)
Heartbeat CPU 0 instructions: 192500946 cycles: 103724219 heartbeat IPC: 2.125 cumulative IPC: 1.54 (Simulation time: 00 hr 19 min 44 sec)
Heartbeat CPU 0 instructions: 193000948 cycles: 103963634 heartbeat IPC: 2.088 cumulative IPC: 1.541 (Simulation time: 00 hr 19 min 48 sec)
Heartbeat CPU 0 instructions: 193500948 cycles: 104200810 heartbeat IPC: 2.108 cumulative IPC: 1.542 (Simulation time: 00 hr 19 min 51 sec)
Heartbeat CPU 0 instructions: 194000954 cycles: 104689716 heartbeat IPC: 1.023 cumulative IPC: 1.54 (Simulation time: 00 hr 19 min 56 sec)
Heartbeat CPU 0 instructions: 194500955 cycles: 105107050 heartbeat IPC: 1.198 cumulative IPC: 1.538 (Simulation time: 00 hr 20 min 00 sec)
Heartbeat CPU 0 instructions: 195000957 cycles: 105440413 heartbeat IPC: 1.5 cumulative IPC: 1.538 (Simulation time: 00 hr 20 min 03 sec)
Heartbeat CPU 0 instructions: 195500959 cycles: 105773916 heartbeat IPC: 1.499 cumulative IPC: 1.538 (Simulation time: 00 hr 20 min 06 sec)
Heartbeat CPU 0 instructions: 196000960 cycles: 106078369 heartbeat IPC: 1.642 cumulative IPC: 1.538 (Simulation time: 00 hr 20 min 10 sec)
Heartbeat CPU 0 instructions: 196500965 cycles: 106975532 heartbeat IPC: 0.5573 cumulative IPC: 1.529 (Simulation time: 00 hr 20 min 21 sec)
Heartbeat CPU 0 instructions: 197000965 cycles: 107131780 heartbeat IPC: 3.2 cumulative IPC: 1.532 (Simulation time: 00 hr 20 min 23 sec)
Heartbeat CPU 0 instructions: 197500966 cycles: 107288033 heartbeat IPC: 3.2 cumulative IPC: 1.534 (Simulation time: 00 hr 20 min 25 sec)
Heartbeat CPU 0 instructions: 198000969 cycles: 107444287 heartbeat IPC: 3.2 cumulative IPC: 1.537 (Simulation time: 00 hr 20 min 27 sec)
Heartbeat CPU 0 instructions: 198500973 cycles: 107600533 heartbeat IPC: 3.2 cumulative IPC: 1.54 (Simulation time: 00 hr 20 min 29 sec)
Heartbeat CPU 0 instructions: 199000977 cycles: 107758099 heartbeat IPC: 3.173 cumulative IPC: 1.543 (Simulation time: 00 hr 20 min 31 sec)
Heartbeat CPU 0 instructions: 199500977 cycles: 107914343 heartbeat IPC: 3.2 cumulative IPC: 1.545 (Simulation time: 00 hr 20 min 33 sec)
Heartbeat CPU 0 instructions: 200000977 cycles: 108070596 heartbeat IPC: 3.2 cumulative IPC: 1.548 (Simulation time: 00 hr 20 min 35 sec)
Heartbeat CPU 0 instructions: 200500981 cycles: 108274434 heartbeat IPC: 2.453 cumulative IPC: 1.55 (Simulation time: 00 hr 20 min 38 sec)
Heartbeat CPU 0 instructions: 201000981 cycles: 108476476 heartbeat IPC: 2.475 cumulative IPC: 1.552 (Simulation time: 00 hr 20 min 40 sec)
Heartbeat CPU 0 instructions: 201500981 cycles: 108643966 heartbeat IPC: 2.985 cumulative IPC: 1.554 (Simulation time: 00 hr 20 min 42 sec)
Heartbeat CPU 0 instructions: 202000987 cycles: 108840449 heartbeat IPC: 2.545 cumulative IPC: 1.556 (Simulation time: 00 hr 20 min 45 sec)
Heartbeat CPU 0 instructions: 202500994 cycles: 109010202 heartbeat IPC: 2.945 cumulative IPC: 1.559 (Simulation time: 00 hr 20 min 47 sec)
Heartbeat CPU 0 instructions: 203000995 cycles: 109199645 heartbeat IPC: 2.639 cumulative IPC: 1.561 (Simulation time: 00 hr 20 min 49 sec)
Heartbeat CPU 0 instructions: 203500998 cycles: 109383227 heartbeat IPC: 2.724 cumulative IPC: 1.563 (Simulation time: 00 hr 20 min 51 sec)
Heartbeat CPU 0 instructions: 204001001 cycles: 109741090 heartbeat IPC: 1.397 cumulative IPC: 1.562 (Simulation time: 00 hr 20 min 55 sec)
Heartbeat CPU 0 instructions: 204501001 cycles: 110019123 heartbeat IPC: 1.798 cumulative IPC: 1.563 (Simulation time: 00 hr 20 min 58 sec)
Heartbeat CPU 0 instructions: 205001003 cycles: 110254373 heartbeat IPC: 2.125 cumulative IPC: 1.564 (Simulation time: 00 hr 21 min 01 sec)
Heartbeat CPU 0 instructions: 205501003 cycles: 110497170 heartbeat IPC: 2.059 cumulative IPC: 1.565 (Simulation time: 00 hr 21 min 05 sec)
Heartbeat CPU 0 instructions: 206001004 cycles: 110735419 heartbeat IPC: 2.099 cumulative IPC: 1.567 (Simulation time: 00 hr 21 min 08 sec)
Heartbeat CPU 0 instructions: 206501004 cycles: 110976640 heartbeat IPC: 2.073 cumulative IPC: 1.568 (Simulation time: 00 hr 21 min 11 sec)
Heartbeat CPU 0 instructions: 207001004 cycles: 111214194 heartbeat IPC: 2.105 cumulative IPC: 1.569 (Simulation time: 00 hr 21 min 14 sec)
Heartbeat CPU 0 instructions: 207501010 cycles: 111448181 heartbeat IPC: 2.137 cumulative IPC: 1.571 (Simulation time: 00 hr 21 min 18 sec)
Heartbeat CPU 0 instructions: 208001014 cycles: 111690601 heartbeat IPC: 2.063 cumulative IPC: 1.572 (Simulation time: 00 hr 21 min 21 sec)
Heartbeat CPU 0 instructions: 208501017 cycles: 111925509 heartbeat IPC: 2.129 cumulative IPC: 1.573 (Simulation time: 00 hr 21 min 24 sec)
Heartbeat CPU 0 instructions: 209001018 cycles: 112165694 heartbeat IPC: 2.082 cumulative IPC: 1.574 (Simulation time: 00 hr 21 min 27 sec)
Heartbeat CPU 0 instructions: 209501020 cycles: 112670170 heartbeat IPC: 0.9911 cumulative IPC: 1.571 (Simulation time: 00 hr 21 min 34 sec)
Heartbeat CPU 0 instructions: 210001020 cycles: 113020132 heartbeat IPC: 1.429 cumulative IPC: 1.571 (Simulation time: 00 hr 21 min 37 sec)
Heartbeat CPU 0 instructions: 210501020 cycles: 113355263 heartbeat IPC: 1.492 cumulative IPC: 1.571 (Simulation time: 00 hr 21 min 40 sec)
Heartbeat CPU 0 instructions: 211001020 cycles: 113659852 heartbeat IPC: 1.642 cumulative IPC: 1.571 (Simulation time: 00 hr 21 min 43 sec)
Heartbeat CPU 0 instructions: 211501020 cycles: 113978634 heartbeat IPC: 1.568 cumulative IPC: 1.571 (Simulation time: 00 hr 21 min 46 sec)
Heartbeat CPU 0 instructions: 212001022 cycles: 114425781 heartbeat IPC: 1.118 cumulative IPC: 1.569 (Simulation time: 00 hr 21 min 52 sec)
Heartbeat CPU 0 instructions: 212501026 cycles: 114667104 heartbeat IPC: 2.072 cumulative IPC: 1.57 (Simulation time: 00 hr 21 min 55 sec)
Heartbeat CPU 0 instructions: 213001027 cycles: 114900212 heartbeat IPC: 2.145 cumulative IPC: 1.571 (Simulation time: 00 hr 21 min 58 sec)
Heartbeat CPU 0 instructions: 213501027 cycles: 115131440 heartbeat IPC: 2.162 cumulative IPC: 1.573 (Simulation time: 00 hr 22 min 01 sec)
Heartbeat CPU 0 instructions: 214001031 cycles: 115403937 heartbeat IPC: 1.835 cumulative IPC: 1.573 (Simulation time: 00 hr 22 min 04 sec)
Heartbeat CPU 0 instructions: 214501036 cycles: 115723986 heartbeat IPC: 1.562 cumulative IPC: 1.573 (Simulation time: 00 hr 22 min 07 sec)
Heartbeat CPU 0 instructions: 215001037 cycles: 115930610 heartbeat IPC: 2.42 cumulative IPC: 1.575 (Simulation time: 00 hr 22 min 10 sec)
Heartbeat CPU 0 instructions: 215501037 cycles: 116125529 heartbeat IPC: 2.565 cumulative IPC: 1.577 (Simulation time: 00 hr 22 min 12 sec)
Heartbeat CPU 0 instructions: 216001037 cycles: 116283919 heartbeat IPC: 3.157 cumulative IPC: 1.579 (Simulation time: 00 hr 22 min 14 sec)
Heartbeat CPU 0 instructions: 216501040 cycles: 116475996 heartbeat IPC: 2.603 cumulative IPC: 1.581 (Simulation time: 00 hr 22 min 16 sec)
Heartbeat CPU 0 instructions: 217001040 cycles: 116655003 heartbeat IPC: 2.793 cumulative IPC: 1.583 (Simulation time: 00 hr 22 min 18 sec)
Heartbeat CPU 0 instructions: 217501046 cycles: 116834809 heartbeat IPC: 2.781 cumulative IPC: 1.585 (Simulation time: 00 hr 22 min 20 sec)
Heartbeat CPU 0 instructions: 218001046 cycles: 117020787 heartbeat IPC: 2.688 cumulative IPC: 1.587 (Simulation time: 00 hr 22 min 23 sec)
Heartbeat CPU 0 instructions: 218501050 cycles: 117197257 heartbeat IPC: 2.833 cumulative IPC: 1.589 (Simulation time: 00 hr 22 min 25 sec)
Heartbeat CPU 0 instructions: 219001055 cycles: 117387022 heartbeat IPC: 2.635 cumulative IPC: 1.591 (Simulation time: 00 hr 22 min 27 sec)
Heartbeat CPU 0 instructions: 219501061 cycles: 117560262 heartbeat IPC: 2.886 cumulative IPC: 1.593 (Simulation time: 00 hr 22 min 29 sec)
Heartbeat CPU 0 instructions: 220001065 cycles: 117744204 heartbeat IPC: 2.718 cumulative IPC: 1.595 (Simulation time: 00 hr 22 min 31 sec)
Heartbeat CPU 0 instructions: 220501067 cycles: 117936784 heartbeat IPC: 2.596 cumulative IPC: 1.597 (Simulation time: 00 hr 22 min 33 sec)
Heartbeat CPU 0 instructions: 221001067 cycles: 118125697 heartbeat IPC: 2.647 cumulative IPC: 1.599 (Simulation time: 00 hr 22 min 36 sec)
Heartbeat CPU 0 instructions: 221501069 cycles: 118310178 heartbeat IPC: 2.71 cumulative IPC: 1.601 (Simulation time: 00 hr 22 min 38 sec)
Heartbeat CPU 0 instructions: 222001075 cycles: 118484088 heartbeat IPC: 2.875 cumulative IPC: 1.603 (Simulation time: 00 hr 22 min 40 sec)
Heartbeat CPU 0 instructions: 222501076 cycles: 118672667 heartbeat IPC: 2.651 cumulative IPC: 1.605 (Simulation time: 00 hr 22 min 42 sec)
Heartbeat CPU 0 instructions: 223001079 cycles: 118868605 heartbeat IPC: 2.552 cumulative IPC: 1.606 (Simulation time: 00 hr 22 min 44 sec)
Heartbeat CPU 0 instructions: 223501086 cycles: 119039899 heartbeat IPC: 2.919 cumulative IPC: 1.608 (Simulation time: 00 hr 22 min 46 sec)
Heartbeat CPU 0 instructions: 224001089 cycles: 119224737 heartbeat IPC: 2.705 cumulative IPC: 1.61 (Simulation time: 00 hr 22 min 49 sec)
Heartbeat CPU 0 instructions: 224501090 cycles: 120090422 heartbeat IPC: 0.5776 cumulative IPC: 1.602 (Simulation time: 00 hr 22 min 55 sec)
Heartbeat CPU 0 instructions: 225001094 cycles: 120324839 heartbeat IPC: 2.133 cumulative IPC: 1.603 (Simulation time: 00 hr 22 min 58 sec)
Heartbeat CPU 0 instructions: 225501101 cycles: 120557645 heartbeat IPC: 2.148 cumulative IPC: 1.604 (Simulation time: 00 hr 23 min 02 sec)
Heartbeat CPU 0 instructions: 226001101 cycles: 120791251 heartbeat IPC: 2.14 cumulative IPC: 1.605 (Simulation time: 00 hr 23 min 05 sec)
Heartbeat CPU 0 instructions: 226501104 cycles: 121029996 heartbeat IPC: 2.094 cumulative IPC: 1.607 (Simulation time: 00 hr 23 min 08 sec)
Heartbeat CPU 0 instructions: 227001109 cycles: 121397902 heartbeat IPC: 1.359 cumulative IPC: 1.606 (Simulation time: 00 hr 23 min 12 sec)
Heartbeat CPU 0 instructions: 227501110 cycles: 121631779 heartbeat IPC: 2.138 cumulative IPC: 1.607 (Simulation time: 00 hr 23 min 15 sec)
Heartbeat CPU 0 instructions: 228001117 cycles: 121863570 heartbeat IPC: 2.157 cumulative IPC: 1.608 (Simulation time: 00 hr 23 min 18 sec)
Heartbeat CPU 0 instructions: 228501119 cycles: 122110183 heartbeat IPC: 2.027 cumulative IPC: 1.609 (Simulation time: 00 hr 23 min 22 sec)
Heartbeat CPU 0 instructions: 229001120 cycles: 122679652 heartbeat IPC: 0.878 cumulative IPC: 1.605 (Simulation time: 00 hr 23 min 28 sec)
Heartbeat CPU 0 instructions: 229501120 cycles: 123037358 heartbeat IPC: 1.398 cumulative IPC: 1.605 (Simulation time: 00 hr 23 min 32 sec)
Heartbeat CPU 0 instructions: 230001125 cycles: 123308820 heartbeat IPC: 1.842 cumulative IPC: 1.605 (Simulation time: 00 hr 23 min 35 sec)
Heartbeat CPU 0 instructions: 230501125 cycles: 123640247 heartbeat IPC: 1.509 cumulative IPC: 1.605 (Simulation time: 00 hr 23 min 38 sec)
Heartbeat CPU 0 instructions: 231001129 cycles: 123937320 heartbeat IPC: 1.683 cumulative IPC: 1.605 (Simulation time: 00 hr 23 min 40 sec)
Heartbeat CPU 0 instructions: 231501133 cycles: 124241382 heartbeat IPC: 1.644 cumulative IPC: 1.605 (Simulation time: 00 hr 23 min 43 sec)
Heartbeat CPU 0 instructions: 232001140 cycles: 124533851 heartbeat IPC: 1.71 cumulative IPC: 1.605 (Simulation time: 00 hr 23 min 46 sec)
Heartbeat CPU 0 instructions: 232501140 cycles: 124868110 heartbeat IPC: 1.496 cumulative IPC: 1.605 (Simulation time: 00 hr 23 min 49 sec)
Heartbeat CPU 0 instructions: 233001140 cycles: 125162642 heartbeat IPC: 1.698 cumulative IPC: 1.605 (Simulation time: 00 hr 23 min 52 sec)
Heartbeat CPU 0 instructions: 233501143 cycles: 125859876 heartbeat IPC: 0.7171 cumulative IPC: 1.6 (Simulation time: 00 hr 23 min 58 sec)
Heartbeat CPU 0 instructions: 234001143 cycles: 126195386 heartbeat IPC: 1.49 cumulative IPC: 1.6 (Simulation time: 00 hr 24 min 01 sec)
Heartbeat CPU 0 instructions: 234501145 cycles: 126764315 heartbeat IPC: 0.8788 cumulative IPC: 1.596 (Simulation time: 00 hr 24 min 06 sec)
Heartbeat CPU 0 instructions: 235001147 cycles: 127015185 heartbeat IPC: 1.993 cumulative IPC: 1.597 (Simulation time: 00 hr 24 min 08 sec)
Heartbeat CPU 0 instructions: 235501148 cycles: 127245194 heartbeat IPC: 2.174 cumulative IPC: 1.598 (Simulation time: 00 hr 24 min 11 sec)
Heartbeat CPU 0 instructions: 236001151 cycles: 127449640 heartbeat IPC: 2.446 cumulative IPC: 1.6 (Simulation time: 00 hr 24 min 13 sec)
Heartbeat CPU 0 instructions: 236501155 cycles: 127646624 heartbeat IPC: 2.538 cumulative IPC: 1.601 (Simulation time: 00 hr 24 min 15 sec)
Heartbeat CPU 0 instructions: 237001157 cycles: 127827995 heartbeat IPC: 2.757 cumulative IPC: 1.603 (Simulation time: 00 hr 24 min 17 sec)
Heartbeat CPU 0 instructions: 237501164 cycles: 128035497 heartbeat IPC: 2.41 cumulative IPC: 1.604 (Simulation time: 00 hr 24 min 20 sec)
Heartbeat CPU 0 instructions: 238001170 cycles: 128242563 heartbeat IPC: 2.415 cumulative IPC: 1.606 (Simulation time: 00 hr 24 min 22 sec)
Heartbeat CPU 0 instructions: 238501172 cycles: 128460656 heartbeat IPC: 2.293 cumulative IPC: 1.607 (Simulation time: 00 hr 24 min 24 sec)
Heartbeat CPU 0 instructions: 239001179 cycles: 128666262 heartbeat IPC: 2.432 cumulative IPC: 1.608 (Simulation time: 00 hr 24 min 27 sec)
Heartbeat CPU 0 instructions: 239501185 cycles: 128870318 heartbeat IPC: 2.45 cumulative IPC: 1.61 (Simulation time: 00 hr 24 min 29 sec)
Heartbeat CPU 0 instructions: 240001187 cycles: 129072142 heartbeat IPC: 2.477 cumulative IPC: 1.611 (Simulation time: 00 hr 24 min 31 sec)
Heartbeat CPU 0 instructions: 240501187 cycles: 129272051 heartbeat IPC: 2.501 cumulative IPC: 1.613 (Simulation time: 00 hr 24 min 34 sec)
Heartbeat CPU 0 instructions: 241001191 cycles: 129466045 heartbeat IPC: 2.577 cumulative IPC: 1.615 (Simulation time: 00 hr 24 min 36 sec)
Heartbeat CPU 0 instructions: 241501193 cycles: 129650895 heartbeat IPC: 2.705 cumulative IPC: 1.616 (Simulation time: 00 hr 24 min 38 sec)
Heartbeat CPU 0 instructions: 242001199 cycles: 129839394 heartbeat IPC: 2.653 cumulative IPC: 1.618 (Simulation time: 00 hr 24 min 40 sec)
Heartbeat CPU 0 instructions: 242501200 cycles: 130026658 heartbeat IPC: 2.67 cumulative IPC: 1.62 (Simulation time: 00 hr 24 min 42 sec)
Heartbeat CPU 0 instructions: 243001205 cycles: 130214579 heartbeat IPC: 2.661 cumulative IPC: 1.621 (Simulation time: 00 hr 24 min 44 sec)
Heartbeat CPU 0 instructions: 243501207 cycles: 130414023 heartbeat IPC: 2.507 cumulative IPC: 1.623 (Simulation time: 00 hr 24 min 47 sec)
Heartbeat CPU 0 instructions: 244001207 cycles: 130614125 heartbeat IPC: 2.499 cumulative IPC: 1.624 (Simulation time: 00 hr 24 min 49 sec)
Heartbeat CPU 0 instructions: 244501207 cycles: 131107932 heartbeat IPC: 1.013 cumulative IPC: 1.622 (Simulation time: 00 hr 24 min 53 sec)
Heartbeat CPU 0 instructions: 245001214 cycles: 131492573 heartbeat IPC: 1.3 cumulative IPC: 1.621 (Simulation time: 00 hr 24 min 57 sec)
Heartbeat CPU 0 instructions: 245501215 cycles: 132078523 heartbeat IPC: 0.8533 cumulative IPC: 1.617 (Simulation time: 00 hr 25 min 05 sec)
Heartbeat CPU 0 instructions: 246001217 cycles: 132312102 heartbeat IPC: 2.141 cumulative IPC: 1.618 (Simulation time: 00 hr 25 min 08 sec)
Heartbeat CPU 0 instructions: 246501223 cycles: 132547781 heartbeat IPC: 2.122 cumulative IPC: 1.619 (Simulation time: 00 hr 25 min 11 sec)
Heartbeat CPU 0 instructions: 247001224 cycles: 132787412 heartbeat IPC: 2.087 cumulative IPC: 1.62 (Simulation time: 00 hr 25 min 14 sec)
Heartbeat CPU 0 instructions: 247501224 cycles: 133020945 heartbeat IPC: 2.141 cumulative IPC: 1.621 (Simulation time: 00 hr 25 min 17 sec)
Heartbeat CPU 0 instructions: 248001225 cycles: 133255217 heartbeat IPC: 2.134 cumulative IPC: 1.622 (Simulation time: 00 hr 25 min 20 sec)
Heartbeat CPU 0 instructions: 248501230 cycles: 133487235 heartbeat IPC: 2.155 cumulative IPC: 1.623 (Simulation time: 00 hr 25 min 23 sec)
Heartbeat CPU 0 instructions: 249001234 cycles: 133718698 heartbeat IPC: 2.16 cumulative IPC: 1.624 (Simulation time: 00 hr 25 min 26 sec)
Heartbeat CPU 0 instructions: 249501236 cycles: 133951965 heartbeat IPC: 2.143 cumulative IPC: 1.625 (Simulation time: 00 hr 25 min 29 sec)
Simulation finished CPU 0 instructions: 200000001 cycles: 123020240 cumulative IPC: 1.626 (Simulation time: 00 hr 25 min 32 sec)
Simulation complete CPU 0 instructions: 200000001 cycles: 123020240 cumulative IPC: 1.626 (Simulation time: 00 hr 25 min 32 sec)

ChampSim completed all CPUs

=== Simulation ===
CPU 0 runs /local-ssd/ben/dpc4-traces/gtraces_v2/arizona_0001.champsim.gz

Region of Interest Statistics

CPU 0 cumulative IPC: 1.626 instructions: 200000001 cycles: 123020240
CPU 0 Branch Prediction Accuracy: 96.1% MPKI: 6.449 Average ROB Occupancy at Mispredict: 40.76
Branch type MPKI
BRANCH_DIRECT_JUMP: 0.05633
BRANCH_INDIRECT: 0.1739
BRANCH_CONDITIONAL: 6.184
BRANCH_DIRECT_CALL: 0.009825
BRANCH_INDIRECT_CALL: 0.004465
BRANCH_RETURN: 0.02033

cpu0->cpu0_STLB TOTAL        ACCESS:     196044 HIT:     150939 MISS:      45105 MSHR_MERGE:          0
cpu0->cpu0_STLB LOAD         ACCESS:     196044 HIT:     150939 MISS:      45105 MSHR_MERGE:          0
cpu0->cpu0_STLB RFO          ACCESS:          0 HIT:          0 MISS:          0 MSHR_MERGE:          0
cpu0->cpu0_STLB PREFETCH     ACCESS:          0 HIT:          0 MISS:          0 MSHR_MERGE:          0
cpu0->cpu0_STLB WRITE        ACCESS:          0 HIT:          0 MISS:          0 MSHR_MERGE:          0
cpu0->cpu0_STLB TRANSLATION  ACCESS:          0 HIT:          0 MISS:          0 MSHR_MERGE:          0
cpu0->cpu0_STLB PREFETCH REQUESTED:          0 ISSUED:          0 USEFUL:          0 USELESS:          0
cpu0->cpu0_STLB AVERAGE MISS LATENCY: 256.7 cycles
cpu0->cpu0_L2C TOTAL        ACCESS:    6191186 HIT:    4630257 MISS:    1560929 MSHR_MERGE:     361447
cpu0->cpu0_L2C LOAD         ACCESS:     652456 HIT:     421988 MISS:     230468 MSHR_MERGE:      71217
cpu0->cpu0_L2C RFO          ACCESS:     650053 HIT:     172016 MISS:     478037 MSHR_MERGE:        365
cpu0->cpu0_L2C PREFETCH     ACCESS:    4129274 HIT:    3301404 MISS:     827870 MSHR_MERGE:     289865
cpu0->cpu0_L2C WRITE        ACCESS:     723740 HIT:     723734 MISS:          6 MSHR_MERGE:          0
cpu0->cpu0_L2C TRANSLATION  ACCESS:      35663 HIT:      11115 MISS:      24548 MSHR_MERGE:          0
cpu0->cpu0_L2C PREFETCH REQUESTED:    3690271 ISSUED:    3450185 USEFUL:     352994 USELESS:     101419
cpu0->cpu0_L2C AVERAGE MISS LATENCY: 280.9 cycles
cpu0->cpu0_L1I TOTAL        ACCESS:   20985799 HIT:   20930722 MISS:      55077 MSHR_MERGE:      11660
cpu0->cpu0_L1I LOAD         ACCESS:   20985799 HIT:   20930722 MISS:      55077 MSHR_MERGE:      11660
cpu0->cpu0_L1I RFO          ACCESS:          0 HIT:          0 MISS:          0 MSHR_MERGE:          0
cpu0->cpu0_L1I PREFETCH     ACCESS:          0 HIT:          0 MISS:          0 MSHR_MERGE:          0
cpu0->cpu0_L1I WRITE        ACCESS:          0 HIT:          0 MISS:          0 MSHR_MERGE:          0
cpu0->cpu0_L1I TRANSLATION  ACCESS:          0 HIT:          0 MISS:          0 MSHR_MERGE:          0
cpu0->cpu0_L1I PREFETCH REQUESTED:          0 ISSUED:          0 USEFUL:          0 USELESS:          0
cpu0->cpu0_L1I AVERAGE MISS LATENCY: 245.8 cycles
cpu0->cpu0_L1D TOTAL        ACCESS:   86072554 HIT:   82423619 MISS:    3648935 MSHR_MERGE:    1674971
cpu0->cpu0_L1D LOAD         ACCESS:   32314364 HIT:   31588075 MISS:     726289 MSHR_MERGE:     117245
cpu0->cpu0_L1D RFO          ACCESS:          0 HIT:          0 MISS:          0 MSHR_MERGE:          0
cpu0->cpu0_L1D PREFETCH     ACCESS:   28895312 HIT:   27920754 MISS:     974558 MSHR_MERGE:     295467
cpu0->cpu0_L1D WRITE        ACCESS:   24756847 HIT:   22845203 MISS:    1911644 MSHR_MERGE:    1261478
cpu0->cpu0_L1D TRANSLATION  ACCESS:     106031 HIT:      69587 MISS:      36444 MSHR_MERGE:        781
cpu0->cpu0_L1D PREFETCH REQUESTED:   38375969 ISSUED:   28895305 USEFUL:     366552 USELESS:     312443
cpu0->cpu0_L1D AVERAGE MISS LATENCY: 160.9 cycles
cpu0->cpu0_ITLB TOTAL        ACCESS:   18321106 HIT:   18309511 MISS:      11595 MSHR_MERGE:       5645
cpu0->cpu0_ITLB LOAD         ACCESS:   18321106 HIT:   18309511 MISS:      11595 MSHR_MERGE:       5645
cpu0->cpu0_ITLB RFO          ACCESS:          0 HIT:          0 MISS:          0 MSHR_MERGE:          0
cpu0->cpu0_ITLB PREFETCH     ACCESS:          0 HIT:          0 MISS:          0 MSHR_MERGE:          0
cpu0->cpu0_ITLB WRITE        ACCESS:          0 HIT:          0 MISS:          0 MSHR_MERGE:          0
cpu0->cpu0_ITLB TRANSLATION  ACCESS:          0 HIT:          0 MISS:          0 MSHR_MERGE:          0
cpu0->cpu0_ITLB PREFETCH REQUESTED:          0 ISSUED:          0 USEFUL:          0 USELESS:          0
cpu0->cpu0_ITLB AVERAGE MISS LATENCY: 137.1 cycles
cpu0->cpu0_DTLB TOTAL        ACCESS:   76025880 HIT:   75666026 MISS:     359854 MSHR_MERGE:     169760
cpu0->cpu0_DTLB LOAD         ACCESS:   76025880 HIT:   75666026 MISS:     359854 MSHR_MERGE:     169760
cpu0->cpu0_DTLB RFO          ACCESS:          0 HIT:          0 MISS:          0 MSHR_MERGE:          0
cpu0->cpu0_DTLB PREFETCH     ACCESS:          0 HIT:          0 MISS:          0 MSHR_MERGE:          0
cpu0->cpu0_DTLB WRITE        ACCESS:          0 HIT:          0 MISS:          0 MSHR_MERGE:          0
cpu0->cpu0_DTLB TRANSLATION  ACCESS:          0 HIT:          0 MISS:          0 MSHR_MERGE:          0
cpu0->cpu0_DTLB PREFETCH REQUESTED:          0 ISSUED:          0 USEFUL:          0 USELESS:          0
cpu0->cpu0_DTLB AVERAGE MISS LATENCY: 62.01 cycles
cpu0->LLC TOTAL        ACCESS:    2339180 HIT:     607791 MISS:    1731389 MSHR_MERGE:     158032
cpu0->LLC LOAD         ACCESS:     159251 HIT:      44231 MISS:     115020 MSHR_MERGE:      14359
cpu0->LLC RFO          ACCESS:     477672 HIT:      85432 MISS:     392240 MSHR_MERGE:        149
cpu0->LLC PREFETCH     ACCESS:    1103357 HIT:     291762 MISS:     811595 MSHR_MERGE:     143524
cpu0->LLC WRITE        ACCESS:     574352 HIT:     185855 MISS:     388497 MSHR_MERGE:          0
cpu0->LLC TRANSLATION  ACCESS:      24548 HIT:        511 MISS:      24037 MSHR_MERGE:          0
cpu0->LLC PREFETCH REQUESTED:     675798 ISSUED:     565352 USEFUL:     209582 USELESS:     197524
cpu0->LLC AVERAGE MISS LATENCY: 186 cycles

DRAM Statistics

Channel 0 RQ ROW_BUFFER_HIT:     132513
  ROW_BUFFER_MISS:    1052220
  AVG DBUS CONGESTED CYCLE: 13.07
Channel 0 WQ ROW_BUFFER_HIT:      56836
  ROW_BUFFER_MISS:     448846
  FULL:      19364
Channel 0 REFRESHES ISSUED:      10251
