[VMEM] WARNING: physical memory size is smaller than virtual memory size.

*** ChampSim Multicore Out-of-Order Simulator ***
Warmup Instructions: 50000000
Simulation Instructions: 200000000
Number of CPUs: 1
Page size: 4096
Core 0: /local-ssd/ben/dpc4-traces/gtraces_v2/sierra.a.4_0000.champsim.gz
Off-chip DRAM Size: 64 GiB Channels: 1 Width: 64-bit Data Rate: 4807 MT/s
[BTB] WARNING: target of return is a lower address than the corresponding call. This is usually a problem with your trace.
[BTB] WARNING: target of return is a lower address than the corresponding call. This is usually a problem with your trace.
[BTB] WARNING: target of return is a lower address than the corresponding call. This is usually a problem with your trace.
[BTB] WARNING: target of return is a lower address than the corresponding call. This is usually a problem with your trace.
[BTB] WARNING: target of return is a lower address than the corresponding call. This is usually a problem with your trace.
[BTB] WARNING: target of return is a lower address than the corresponding call. This is usually a problem with your trace.
Heartbeat CPU 0 instructions: 500004 cycles: 282485 heartbeat IPC: 1.77 cumulative IPC: 1.77 (Simulation time: 00 hr 00 min 04 sec)
[BTB] WARNING: target of return is a lower address than the corresponding call. This is usually a problem with your trace.
[BTB] WARNING: target of return is a lower address than the corresponding call. This is usually a problem with your trace.
[BTB] WARNING: target of return is a lower address than the corresponding call. This is usually a problem with your trace.
[BTB] WARNING: target of return is a lower address than the corresponding call. This is usually a problem with your trace.
Heartbeat CPU 0 instructions: 1000009 cycles: 511214 heartbeat IPC: 2.186 cumulative IPC: 1.956 (Simulation time: 00 hr 00 min 06 sec)
Heartbeat CPU 0 instructions: 1500011 cycles: 710332 heartbeat IPC: 2.511 cumulative IPC: 2.112 (Simulation time: 00 hr 00 min 09 sec)
Heartbeat CPU 0 instructions: 2000013 cycles: 853491 heartbeat IPC: 3.493 cumulative IPC: 2.343 (Simulation time: 00 hr 00 min 11 sec)
Heartbeat CPU 0 instructions: 2500016 cycles: 1073255 heartbeat IPC: 2.275 cumulative IPC: 2.329 (Simulation time: 00 hr 00 min 14 sec)
Heartbeat CPU 0 instructions: 3000016 cycles: 1286399 heartbeat IPC: 2.346 cumulative IPC: 2.332 (Simulation time: 00 hr 00 min 17 sec)
Heartbeat CPU 0 instructions: 3500017 cycles: 1482373 heartbeat IPC: 2.551 cumulative IPC: 2.361 (Simulation time: 00 hr 00 min 20 sec)
Heartbeat CPU 0 instructions: 4000023 cycles: 1653070 heartbeat IPC: 2.929 cumulative IPC: 2.42 (Simulation time: 00 hr 00 min 22 sec)
Heartbeat CPU 0 instructions: 4500023 cycles: 1858261 heartbeat IPC: 2.437 cumulative IPC: 2.422 (Simulation time: 00 hr 00 min 25 sec)
Heartbeat CPU 0 instructions: 5000024 cycles: 2009332 heartbeat IPC: 3.31 cumulative IPC: 2.488 (Simulation time: 00 hr 00 min 27 sec)
Heartbeat CPU 0 instructions: 5500025 cycles: 2192517 heartbeat IPC: 2.729 cumulative IPC: 2.509 (Simulation time: 00 hr 00 min 30 sec)
Heartbeat CPU 0 instructions: 6000032 cycles: 2337593 heartbeat IPC: 3.447 cumulative IPC: 2.567 (Simulation time: 00 hr 00 min 32 sec)
Heartbeat CPU 0 instructions: 6500035 cycles: 2535544 heartbeat IPC: 2.526 cumulative IPC: 2.564 (Simulation time: 00 hr 00 min 35 sec)
Heartbeat CPU 0 instructions: 7000035 cycles: 2667703 heartbeat IPC: 3.783 cumulative IPC: 2.624 (Simulation time: 00 hr 00 min 37 sec)
Heartbeat CPU 0 instructions: 7500042 cycles: 2808685 heartbeat IPC: 3.547 cumulative IPC: 2.67 (Simulation time: 00 hr 00 min 39 sec)
Heartbeat CPU 0 instructions: 8000047 cycles: 2940920 heartbeat IPC: 3.781 cumulative IPC: 2.72 (Simulation time: 00 hr 00 min 41 sec)
Heartbeat CPU 0 instructions: 8500053 cycles: 3090120 heartbeat IPC: 3.351 cumulative IPC: 2.751 (Simulation time: 00 hr 00 min 43 sec)
Heartbeat CPU 0 instructions: 9000057 cycles: 3243516 heartbeat IPC: 3.26 cumulative IPC: 2.775 (Simulation time: 00 hr 00 min 45 sec)
Heartbeat CPU 0 instructions: 9500057 cycles: 3404691 heartbeat IPC: 3.102 cumulative IPC: 2.79 (Simulation time: 00 hr 00 min 48 sec)
Heartbeat CPU 0 instructions: 10000064 cycles: 3559530 heartbeat IPC: 3.229 cumulative IPC: 2.809 (Simulation time: 00 hr 00 min 50 sec)
Heartbeat CPU 0 instructions: 10500067 cycles: 3699343 heartbeat IPC: 3.576 cumulative IPC: 2.838 (Simulation time: 00 hr 00 min 52 sec)
Heartbeat CPU 0 instructions: 11000070 cycles: 3845291 heartbeat IPC: 3.426 cumulative IPC: 2.861 (Simulation time: 00 hr 00 min 54 sec)
Heartbeat CPU 0 instructions: 11500074 cycles: 4024132 heartbeat IPC: 2.796 cumulative IPC: 2.858 (Simulation time: 00 hr 00 min 57 sec)
Heartbeat CPU 0 instructions: 12000077 cycles: 4178371 heartbeat IPC: 3.242 cumulative IPC: 2.872 (Simulation time: 00 hr 00 min 59 sec)
Heartbeat CPU 0 instructions: 12500080 cycles: 4307204 heartbeat IPC: 3.881 cumulative IPC: 2.902 (Simulation time: 00 hr 01 min 01 sec)
Heartbeat CPU 0 instructions: 13000087 cycles: 4445634 heartbeat IPC: 3.612 cumulative IPC: 2.924 (Simulation time: 00 hr 01 min 03 sec)
Heartbeat CPU 0 instructions: 13500088 cycles: 4594991 heartbeat IPC: 3.348 cumulative IPC: 2.938 (Simulation time: 00 hr 01 min 05 sec)
Heartbeat CPU 0 instructions: 14000092 cycles: 4738567 heartbeat IPC: 3.483 cumulative IPC: 2.954 (Simulation time: 00 hr 01 min 07 sec)
Heartbeat CPU 0 instructions: 14500094 cycles: 4868173 heartbeat IPC: 3.858 cumulative IPC: 2.979 (Simulation time: 00 hr 01 min 09 sec)
Heartbeat CPU 0 instructions: 15000100 cycles: 4999218 heartbeat IPC: 3.816 cumulative IPC: 3 (Simulation time: 00 hr 01 min 11 sec)
Heartbeat CPU 0 instructions: 15500105 cycles: 5131125 heartbeat IPC: 3.791 cumulative IPC: 3.021 (Simulation time: 00 hr 01 min 13 sec)
Heartbeat CPU 0 instructions: 16000110 cycles: 5292369 heartbeat IPC: 3.101 cumulative IPC: 3.023 (Simulation time: 00 hr 01 min 16 sec)
Heartbeat CPU 0 instructions: 16500112 cycles: 5430895 heartbeat IPC: 3.609 cumulative IPC: 3.038 (Simulation time: 00 hr 01 min 18 sec)
Heartbeat CPU 0 instructions: 17000114 cycles: 5602639 heartbeat IPC: 2.911 cumulative IPC: 3.034 (Simulation time: 00 hr 01 min 20 sec)
Heartbeat CPU 0 instructions: 17500121 cycles: 5748717 heartbeat IPC: 3.423 cumulative IPC: 3.044 (Simulation time: 00 hr 01 min 23 sec)
Heartbeat CPU 0 instructions: 18000126 cycles: 5930412 heartbeat IPC: 2.752 cumulative IPC: 3.035 (Simulation time: 00 hr 01 min 26 sec)
Heartbeat CPU 0 instructions: 18500127 cycles: 6084534 heartbeat IPC: 3.244 cumulative IPC: 3.041 (Simulation time: 00 hr 01 min 28 sec)
Heartbeat CPU 0 instructions: 19000134 cycles: 6260771 heartbeat IPC: 2.837 cumulative IPC: 3.035 (Simulation time: 00 hr 01 min 31 sec)
Heartbeat CPU 0 instructions: 19500139 cycles: 6406726 heartbeat IPC: 3.426 cumulative IPC: 3.044 (Simulation time: 00 hr 01 min 33 sec)
Heartbeat CPU 0 instructions: 20000142 cycles: 6561716 heartbeat IPC: 3.226 cumulative IPC: 3.048 (Simulation time: 00 hr 01 min 35 sec)
Heartbeat CPU 0 instructions: 20500144 cycles: 6739375 heartbeat IPC: 2.814 cumulative IPC: 3.042 (Simulation time: 00 hr 01 min 38 sec)
Heartbeat CPU 0 instructions: 21000147 cycles: 6915798 heartbeat IPC: 2.834 cumulative IPC: 3.037 (Simulation time: 00 hr 01 min 41 sec)
Heartbeat CPU 0 instructions: 21500150 cycles: 7105974 heartbeat IPC: 2.629 cumulative IPC: 3.026 (Simulation time: 00 hr 01 min 44 sec)
Heartbeat CPU 0 instructions: 22000152 cycles: 7279377 heartbeat IPC: 2.883 cumulative IPC: 3.022 (Simulation time: 00 hr 01 min 47 sec)
Heartbeat CPU 0 instructions: 22500159 cycles: 7452749 heartbeat IPC: 2.884 cumulative IPC: 3.019 (Simulation time: 00 hr 01 min 50 sec)
Heartbeat CPU 0 instructions: 23000160 cycles: 7607124 heartbeat IPC: 3.239 cumulative IPC: 3.024 (Simulation time: 00 hr 01 min 52 sec)
Heartbeat CPU 0 instructions: 23500165 cycles: 7756746 heartbeat IPC: 3.342 cumulative IPC: 3.03 (Simulation time: 00 hr 01 min 55 sec)
Heartbeat CPU 0 instructions: 24000169 cycles: 7934255 heartbeat IPC: 2.817 cumulative IPC: 3.025 (Simulation time: 00 hr 01 min 57 sec)
Heartbeat CPU 0 instructions: 24500170 cycles: 8120322 heartbeat IPC: 2.687 cumulative IPC: 3.017 (Simulation time: 00 hr 02 min 00 sec)
Heartbeat CPU 0 instructions: 25000176 cycles: 8244343 heartbeat IPC: 4.032 cumulative IPC: 3.032 (Simulation time: 00 hr 02 min 02 sec)
Heartbeat CPU 0 instructions: 25500182 cycles: 8379254 heartbeat IPC: 3.706 cumulative IPC: 3.043 (Simulation time: 00 hr 02 min 04 sec)
Heartbeat CPU 0 instructions: 26000186 cycles: 8548325 heartbeat IPC: 2.957 cumulative IPC: 3.042 (Simulation time: 00 hr 02 min 06 sec)
Heartbeat CPU 0 instructions: 26500193 cycles: 8693500 heartbeat IPC: 3.444 cumulative IPC: 3.048 (Simulation time: 00 hr 02 min 08 sec)
Heartbeat CPU 0 instructions: 27000193 cycles: 8829633 heartbeat IPC: 3.673 cumulative IPC: 3.058 (Simulation time: 00 hr 02 min 11 sec)
Heartbeat CPU 0 instructions: 27500200 cycles: 8956736 heartbeat IPC: 3.934 cumulative IPC: 3.07 (Simulation time: 00 hr 02 min 13 sec)
Heartbeat CPU 0 instructions: 28000207 cycles: 9121251 heartbeat IPC: 3.039 cumulative IPC: 3.07 (Simulation time: 00 hr 02 min 15 sec)
Heartbeat CPU 0 instructions: 28500208 cycles: 9308817 heartbeat IPC: 2.666 cumulative IPC: 3.062 (Simulation time: 00 hr 02 min 18 sec)
Heartbeat CPU 0 instructions: 29000211 cycles: 9486855 heartbeat IPC: 2.808 cumulative IPC: 3.057 (Simulation time: 00 hr 02 min 21 sec)
Heartbeat CPU 0 instructions: 29500213 cycles: 9610681 heartbeat IPC: 4.038 cumulative IPC: 3.07 (Simulation time: 00 hr 02 min 23 sec)
Heartbeat CPU 0 instructions: 30000214 cycles: 9758294 heartbeat IPC: 3.387 cumulative IPC: 3.074 (Simulation time: 00 hr 02 min 26 sec)
Heartbeat CPU 0 instructions: 30500218 cycles: 10033004 heartbeat IPC: 1.82 cumulative IPC: 3.04 (Simulation time: 00 hr 02 min 30 sec)
Heartbeat CPU 0 instructions: 31000218 cycles: 10235229 heartbeat IPC: 2.472 cumulative IPC: 3.029 (Simulation time: 00 hr 02 min 33 sec)
Heartbeat CPU 0 instructions: 31500219 cycles: 10418086 heartbeat IPC: 2.734 cumulative IPC: 3.024 (Simulation time: 00 hr 02 min 36 sec)
Heartbeat CPU 0 instructions: 32000221 cycles: 10642551 heartbeat IPC: 2.228 cumulative IPC: 3.007 (Simulation time: 00 hr 02 min 39 sec)
Heartbeat CPU 0 instructions: 32500223 cycles: 10873694 heartbeat IPC: 2.163 cumulative IPC: 2.989 (Simulation time: 00 hr 02 min 43 sec)
Heartbeat CPU 0 instructions: 33000229 cycles: 10992837 heartbeat IPC: 4.197 cumulative IPC: 3.002 (Simulation time: 00 hr 02 min 45 sec)
Heartbeat CPU 0 instructions: 33500232 cycles: 11113561 heartbeat IPC: 4.142 cumulative IPC: 3.014 (Simulation time: 00 hr 02 min 47 sec)
Heartbeat CPU 0 instructions: 34000234 cycles: 11262276 heartbeat IPC: 3.362 cumulative IPC: 3.019 (Simulation time: 00 hr 02 min 50 sec)
Heartbeat CPU 0 instructions: 34500238 cycles: 11387117 heartbeat IPC: 4.005 cumulative IPC: 3.03 (Simulation time: 00 hr 02 min 52 sec)
Heartbeat CPU 0 instructions: 35000238 cycles: 11570669 heartbeat IPC: 2.724 cumulative IPC: 3.025 (Simulation time: 00 hr 02 min 55 sec)
Heartbeat CPU 0 instructions: 35500241 cycles: 11732366 heartbeat IPC: 3.092 cumulative IPC: 3.026 (Simulation time: 00 hr 02 min 58 sec)
Heartbeat CPU 0 instructions: 36000248 cycles: 11899393 heartbeat IPC: 2.994 cumulative IPC: 3.025 (Simulation time: 00 hr 03 min 01 sec)
Heartbeat CPU 0 instructions: 36500253 cycles: 12034011 heartbeat IPC: 3.714 cumulative IPC: 3.033 (Simulation time: 00 hr 03 min 03 sec)
Heartbeat CPU 0 instructions: 37000255 cycles: 12182632 heartbeat IPC: 3.364 cumulative IPC: 3.037 (Simulation time: 00 hr 03 min 05 sec)
Heartbeat CPU 0 instructions: 37500262 cycles: 12343275 heartbeat IPC: 3.113 cumulative IPC: 3.038 (Simulation time: 00 hr 03 min 08 sec)
Heartbeat CPU 0 instructions: 38000266 cycles: 12517602 heartbeat IPC: 2.868 cumulative IPC: 3.036 (Simulation time: 00 hr 03 min 10 sec)
Heartbeat CPU 0 instructions: 38500269 cycles: 12688804 heartbeat IPC: 2.921 cumulative IPC: 3.034 (Simulation time: 00 hr 03 min 13 sec)
Heartbeat CPU 0 instructions: 39000272 cycles: 12872468 heartbeat IPC: 2.722 cumulative IPC: 3.03 (Simulation time: 00 hr 03 min 16 sec)
Heartbeat CPU 0 instructions: 39500279 cycles: 13008018 heartbeat IPC: 3.689 cumulative IPC: 3.037 (Simulation time: 00 hr 03 min 18 sec)
Heartbeat CPU 0 instructions: 40000282 cycles: 13171182 heartbeat IPC: 3.064 cumulative IPC: 3.037 (Simulation time: 00 hr 03 min 21 sec)
Heartbeat CPU 0 instructions: 40500285 cycles: 13301577 heartbeat IPC: 3.835 cumulative IPC: 3.045 (Simulation time: 00 hr 03 min 23 sec)
Heartbeat CPU 0 instructions: 41000287 cycles: 13420303 heartbeat IPC: 4.211 cumulative IPC: 3.055 (Simulation time: 00 hr 03 min 25 sec)
Heartbeat CPU 0 instructions: 41500287 cycles: 13534238 heartbeat IPC: 4.388 cumulative IPC: 3.066 (Simulation time: 00 hr 03 min 27 sec)
Heartbeat CPU 0 instructions: 42000291 cycles: 13646008 heartbeat IPC: 4.474 cumulative IPC: 3.078 (Simulation time: 00 hr 03 min 28 sec)
Heartbeat CPU 0 instructions: 42500296 cycles: 13754278 heartbeat IPC: 4.618 cumulative IPC: 3.09 (Simulation time: 00 hr 03 min 30 sec)
Heartbeat CPU 0 instructions: 43000298 cycles: 13863618 heartbeat IPC: 4.573 cumulative IPC: 3.102 (Simulation time: 00 hr 03 min 32 sec)
Heartbeat CPU 0 instructions: 43500305 cycles: 13977842 heartbeat IPC: 4.377 cumulative IPC: 3.112 (Simulation time: 00 hr 03 min 34 sec)
Heartbeat CPU 0 instructions: 44000308 cycles: 14100477 heartbeat IPC: 4.077 cumulative IPC: 3.12 (Simulation time: 00 hr 03 min 36 sec)
Heartbeat CPU 0 instructions: 44500312 cycles: 14210570 heartbeat IPC: 4.542 cumulative IPC: 3.131 (Simulation time: 00 hr 03 min 37 sec)
Heartbeat CPU 0 instructions: 45000318 cycles: 14322735 heartbeat IPC: 4.458 cumulative IPC: 3.142 (Simulation time: 00 hr 03 min 39 sec)
Heartbeat CPU 0 instructions: 45500325 cycles: 14435323 heartbeat IPC: 4.441 cumulative IPC: 3.152 (Simulation time: 00 hr 03 min 41 sec)
Heartbeat CPU 0 instructions: 46000325 cycles: 14570293 heartbeat IPC: 3.705 cumulative IPC: 3.157 (Simulation time: 00 hr 03 min 43 sec)
Heartbeat CPU 0 instructions: 46500327 cycles: 14738762 heartbeat IPC: 2.968 cumulative IPC: 3.155 (Simulation time: 00 hr 03 min 46 sec)
Heartbeat CPU 0 instructions: 47000328 cycles: 14888484 heartbeat IPC: 3.34 cumulative IPC: 3.157 (Simulation time: 00 hr 03 min 48 sec)
Heartbeat CPU 0 instructions: 47500328 cycles: 15048711 heartbeat IPC: 3.121 cumulative IPC: 3.156 (Simulation time: 00 hr 03 min 51 sec)
Heartbeat CPU 0 instructions: 48000329 cycles: 15196118 heartbeat IPC: 3.392 cumulative IPC: 3.159 (Simulation time: 00 hr 03 min 53 sec)
Heartbeat CPU 0 instructions: 48500332 cycles: 15353718 heartbeat IPC: 3.173 cumulative IPC: 3.159 (Simulation time: 00 hr 03 min 56 sec)
Heartbeat CPU 0 instructions: 49000332 cycles: 15508525 heartbeat IPC: 3.23 cumulative IPC: 3.16 (Simulation time: 00 hr 03 min 58 sec)
Heartbeat CPU 0 instructions: 49500335 cycles: 15660139 heartbeat IPC: 3.298 cumulative IPC: 3.161 (Simulation time: 00 hr 04 min 01 sec)
Warmup halting CPU 0 at instruction 50000007 cycle 15802280 for remainder of phase
Warmup finished CPU 0 instructions: 50000007 cycles: 15802280 cumulative IPC: 3.164 (Simulation time: 00 hr 04 min 03 sec)
Warmup complete CPU 0 instructions: 50000007 cycles: 15802280 cumulative IPC: 3.164 (Simulation time: 00 hr 04 min 03 sec)
Heartbeat CPU 0 instructions: 50000335 cycles: 15802353 heartbeat IPC: 3.516 cumulative IPC: 4.493 (Simulation time: 00 hr 04 min 03 sec)
Heartbeat CPU 0 instructions: 50500335 cycles: 18762319 heartbeat IPC: 0.1689 cumulative IPC: 0.169 (Simulation time: 00 hr 04 min 21 sec)
Heartbeat CPU 0 instructions: 51000338 cycles: 20948315 heartbeat IPC: 0.2287 cumulative IPC: 0.1944 (Simulation time: 00 hr 04 min 34 sec)
Heartbeat CPU 0 instructions: 51500339 cycles: 22898176 heartbeat IPC: 0.2564 cumulative IPC: 0.2114 (Simulation time: 00 hr 04 min 47 sec)
Heartbeat CPU 0 instructions: 52000339 cycles: 25372283 heartbeat IPC: 0.2021 cumulative IPC: 0.209 (Simulation time: 00 hr 05 min 02 sec)
Heartbeat CPU 0 instructions: 52500343 cycles: 27812849 heartbeat IPC: 0.2049 cumulative IPC: 0.2082 (Simulation time: 00 hr 05 min 16 sec)
Heartbeat CPU 0 instructions: 53000343 cycles: 29774376 heartbeat IPC: 0.2549 cumulative IPC: 0.2147 (Simulation time: 00 hr 05 min 29 sec)
Heartbeat CPU 0 instructions: 53500344 cycles: 31676205 heartbeat IPC: 0.2629 cumulative IPC: 0.2205 (Simulation time: 00 hr 05 min 40 sec)
Heartbeat CPU 0 instructions: 54000344 cycles: 32268975 heartbeat IPC: 0.8435 cumulative IPC: 0.2429 (Simulation time: 00 hr 05 min 45 sec)
Heartbeat CPU 0 instructions: 54500350 cycles: 32720763 heartbeat IPC: 1.107 cumulative IPC: 0.266 (Simulation time: 00 hr 05 min 49 sec)
Heartbeat CPU 0 instructions: 55000355 cycles: 33156398 heartbeat IPC: 1.148 cumulative IPC: 0.2881 (Simulation time: 00 hr 05 min 53 sec)
Heartbeat CPU 0 instructions: 55500356 cycles: 33563387 heartbeat IPC: 1.229 cumulative IPC: 0.3097 (Simulation time: 00 hr 05 min 56 sec)
Heartbeat CPU 0 instructions: 56000357 cycles: 35999034 heartbeat IPC: 0.2053 cumulative IPC: 0.2971 (Simulation time: 00 hr 06 min 11 sec)
Heartbeat CPU 0 instructions: 56500362 cycles: 38083637 heartbeat IPC: 0.2399 cumulative IPC: 0.2917 (Simulation time: 00 hr 06 min 24 sec)
Heartbeat CPU 0 instructions: 57000365 cycles: 40719831 heartbeat IPC: 0.1897 cumulative IPC: 0.2809 (Simulation time: 00 hr 06 min 39 sec)
Heartbeat CPU 0 instructions: 57500367 cycles: 42153992 heartbeat IPC: 0.3486 cumulative IPC: 0.2846 (Simulation time: 00 hr 06 min 48 sec)
Heartbeat CPU 0 instructions: 58000367 cycles: 42590571 heartbeat IPC: 1.145 cumulative IPC: 0.2987 (Simulation time: 00 hr 06 min 52 sec)
Heartbeat CPU 0 instructions: 58500369 cycles: 42873708 heartbeat IPC: 1.766 cumulative IPC: 0.314 (Simulation time: 00 hr 06 min 55 sec)
Heartbeat CPU 0 instructions: 59000371 cycles: 45409688 heartbeat IPC: 0.1972 cumulative IPC: 0.304 (Simulation time: 00 hr 07 min 10 sec)
Heartbeat CPU 0 instructions: 59500371 cycles: 47936692 heartbeat IPC: 0.1979 cumulative IPC: 0.2956 (Simulation time: 00 hr 07 min 26 sec)
Heartbeat CPU 0 instructions: 60000372 cycles: 49722528 heartbeat IPC: 0.28 cumulative IPC: 0.2948 (Simulation time: 00 hr 07 min 37 sec)
Heartbeat CPU 0 instructions: 60500376 cycles: 50372543 heartbeat IPC: 0.7692 cumulative IPC: 0.3037 (Simulation time: 00 hr 07 min 42 sec)
Heartbeat CPU 0 instructions: 61000376 cycles: 50893808 heartbeat IPC: 0.9592 cumulative IPC: 0.3135 (Simulation time: 00 hr 07 min 46 sec)
Heartbeat CPU 0 instructions: 61500381 cycles: 52729614 heartbeat IPC: 0.2724 cumulative IPC: 0.3114 (Simulation time: 00 hr 07 min 57 sec)
Heartbeat CPU 0 instructions: 62000382 cycles: 55530908 heartbeat IPC: 0.1785 cumulative IPC: 0.3021 (Simulation time: 00 hr 08 min 14 sec)
Heartbeat CPU 0 instructions: 62500386 cycles: 56722624 heartbeat IPC: 0.4196 cumulative IPC: 0.3055 (Simulation time: 00 hr 08 min 22 sec)
Heartbeat CPU 0 instructions: 63000387 cycles: 59270912 heartbeat IPC: 0.1962 cumulative IPC: 0.2991 (Simulation time: 00 hr 08 min 38 sec)
Heartbeat CPU 0 instructions: 63500387 cycles: 61518385 heartbeat IPC: 0.2225 cumulative IPC: 0.2953 (Simulation time: 00 hr 08 min 52 sec)
Heartbeat CPU 0 instructions: 64000394 cycles: 63012969 heartbeat IPC: 0.3345 cumulative IPC: 0.2966 (Simulation time: 00 hr 09 min 02 sec)
Heartbeat CPU 0 instructions: 64500397 cycles: 65934604 heartbeat IPC: 0.1711 cumulative IPC: 0.2892 (Simulation time: 00 hr 09 min 20 sec)
Heartbeat CPU 0 instructions: 65000402 cycles: 66874882 heartbeat IPC: 0.5318 cumulative IPC: 0.2937 (Simulation time: 00 hr 09 min 27 sec)
Heartbeat CPU 0 instructions: 65500405 cycles: 67304047 heartbeat IPC: 1.165 cumulative IPC: 0.301 (Simulation time: 00 hr 09 min 31 sec)
Heartbeat CPU 0 instructions: 66000405 cycles: 69801812 heartbeat IPC: 0.2002 cumulative IPC: 0.2963 (Simulation time: 00 hr 09 min 46 sec)
Heartbeat CPU 0 instructions: 66500407 cycles: 70488100 heartbeat IPC: 0.7286 cumulative IPC: 0.3017 (Simulation time: 00 hr 09 min 52 sec)
Heartbeat CPU 0 instructions: 67000408 cycles: 72455995 heartbeat IPC: 0.2541 cumulative IPC: 0.3001 (Simulation time: 00 hr 10 min 04 sec)
Heartbeat CPU 0 instructions: 67500408 cycles: 74295847 heartbeat IPC: 0.2718 cumulative IPC: 0.2992 (Simulation time: 00 hr 10 min 15 sec)
Heartbeat CPU 0 instructions: 68000412 cycles: 76131625 heartbeat IPC: 0.2724 cumulative IPC: 0.2984 (Simulation time: 00 hr 10 min 26 sec)
Heartbeat CPU 0 instructions: 68500417 cycles: 78045241 heartbeat IPC: 0.2613 cumulative IPC: 0.2972 (Simulation time: 00 hr 10 min 38 sec)
Heartbeat CPU 0 instructions: 69000418 cycles: 80025720 heartbeat IPC: 0.2525 cumulative IPC: 0.2958 (Simulation time: 00 hr 10 min 51 sec)
Heartbeat CPU 0 instructions: 69500421 cycles: 82139912 heartbeat IPC: 0.2365 cumulative IPC: 0.294 (Simulation time: 00 hr 11 min 03 sec)
Heartbeat CPU 0 instructions: 70000424 cycles: 84032652 heartbeat IPC: 0.2642 cumulative IPC: 0.2931 (Simulation time: 00 hr 11 min 15 sec)
Heartbeat CPU 0 instructions: 70500426 cycles: 86582215 heartbeat IPC: 0.1961 cumulative IPC: 0.2896 (Simulation time: 00 hr 11 min 31 sec)
Heartbeat CPU 0 instructions: 71000426 cycles: 88375450 heartbeat IPC: 0.2788 cumulative IPC: 0.2894 (Simulation time: 00 hr 11 min 42 sec)
Heartbeat CPU 0 instructions: 71500427 cycles: 89180851 heartbeat IPC: 0.6208 cumulative IPC: 0.293 (Simulation time: 00 hr 11 min 48 sec)
Heartbeat CPU 0 instructions: 72000434 cycles: 89540873 heartbeat IPC: 1.389 cumulative IPC: 0.2984 (Simulation time: 00 hr 11 min 51 sec)
Heartbeat CPU 0 instructions: 72500434 cycles: 89800821 heartbeat IPC: 1.923 cumulative IPC: 0.3041 (Simulation time: 00 hr 11 min 54 sec)
Heartbeat CPU 0 instructions: 73000437 cycles: 90050462 heartbeat IPC: 2.003 cumulative IPC: 0.3098 (Simulation time: 00 hr 11 min 57 sec)
Heartbeat CPU 0 instructions: 73500439 cycles: 92204861 heartbeat IPC: 0.2321 cumulative IPC: 0.3076 (Simulation time: 00 hr 12 min 10 sec)
Heartbeat CPU 0 instructions: 74000439 cycles: 94843643 heartbeat IPC: 0.1895 cumulative IPC: 0.3036 (Simulation time: 00 hr 12 min 26 sec)
Heartbeat CPU 0 instructions: 74500439 cycles: 96568507 heartbeat IPC: 0.2899 cumulative IPC: 0.3033 (Simulation time: 00 hr 12 min 36 sec)
Heartbeat CPU 0 instructions: 75000440 cycles: 98549695 heartbeat IPC: 0.2524 cumulative IPC: 0.3021 (Simulation time: 00 hr 12 min 49 sec)
Heartbeat CPU 0 instructions: 75500440 cycles: 100662353 heartbeat IPC: 0.2367 cumulative IPC: 0.3005 (Simulation time: 00 hr 13 min 02 sec)
Heartbeat CPU 0 instructions: 76000447 cycles: 101218898 heartbeat IPC: 0.8984 cumulative IPC: 0.3044 (Simulation time: 00 hr 13 min 06 sec)
Heartbeat CPU 0 instructions: 76500447 cycles: 102203858 heartbeat IPC: 0.5076 cumulative IPC: 0.3067 (Simulation time: 00 hr 13 min 14 sec)
Heartbeat CPU 0 instructions: 77000451 cycles: 102844346 heartbeat IPC: 0.7807 cumulative IPC: 0.3102 (Simulation time: 00 hr 13 min 20 sec)
Heartbeat CPU 0 instructions: 77500451 cycles: 104079483 heartbeat IPC: 0.4048 cumulative IPC: 0.3115 (Simulation time: 00 hr 13 min 29 sec)
Heartbeat CPU 0 instructions: 78000456 cycles: 105620964 heartbeat IPC: 0.3244 cumulative IPC: 0.3117 (Simulation time: 00 hr 13 min 38 sec)
Heartbeat CPU 0 instructions: 78500457 cycles: 106929597 heartbeat IPC: 0.3821 cumulative IPC: 0.3128 (Simulation time: 00 hr 13 min 47 sec)
Heartbeat CPU 0 instructions: 79000460 cycles: 107435354 heartbeat IPC: 0.9886 cumulative IPC: 0.3165 (Simulation time: 00 hr 13 min 51 sec)
Heartbeat CPU 0 instructions: 79500462 cycles: 107925727 heartbeat IPC: 1.02 cumulative IPC: 0.3202 (Simulation time: 00 hr 13 min 55 sec)
Heartbeat CPU 0 instructions: 80000463 cycles: 108363982 heartbeat IPC: 1.141 cumulative IPC: 0.3241 (Simulation time: 00 hr 13 min 59 sec)
Heartbeat CPU 0 instructions: 80500465 cycles: 108765007 heartbeat IPC: 1.247 cumulative IPC: 0.3281 (Simulation time: 00 hr 14 min 03 sec)
Heartbeat CPU 0 instructions: 81000471 cycles: 109215869 heartbeat IPC: 1.109 cumulative IPC: 0.3319 (Simulation time: 00 hr 14 min 07 sec)
Heartbeat CPU 0 instructions: 81500473 cycles: 111069376 heartbeat IPC: 0.2698 cumulative IPC: 0.3307 (Simulation time: 00 hr 14 min 19 sec)
Heartbeat CPU 0 instructions: 82000479 cycles: 112745954 heartbeat IPC: 0.2982 cumulative IPC: 0.3301 (Simulation time: 00 hr 14 min 30 sec)
Heartbeat CPU 0 instructions: 82500483 cycles: 113413251 heartbeat IPC: 0.7493 cumulative IPC: 0.333 (Simulation time: 00 hr 14 min 35 sec)
Heartbeat CPU 0 instructions: 83000487 cycles: 116230261 heartbeat IPC: 0.1775 cumulative IPC: 0.3286 (Simulation time: 00 hr 14 min 54 sec)
Heartbeat CPU 0 instructions: 83500487 cycles: 117230932 heartbeat IPC: 0.4997 cumulative IPC: 0.3303 (Simulation time: 00 hr 15 min 02 sec)
Heartbeat CPU 0 instructions: 84000492 cycles: 117977002 heartbeat IPC: 0.6702 cumulative IPC: 0.3328 (Simulation time: 00 hr 15 min 10 sec)
Heartbeat CPU 0 instructions: 84500495 cycles: 118428675 heartbeat IPC: 1.107 cumulative IPC: 0.3362 (Simulation time: 00 hr 15 min 15 sec)
Heartbeat CPU 0 instructions: 85000497 cycles: 118853286 heartbeat IPC: 1.178 cumulative IPC: 0.3396 (Simulation time: 00 hr 15 min 21 sec)
Heartbeat CPU 0 instructions: 85500504 cycles: 119326315 heartbeat IPC: 1.057 cumulative IPC: 0.3429 (Simulation time: 00 hr 15 min 26 sec)
Heartbeat CPU 0 instructions: 86000504 cycles: 119785043 heartbeat IPC: 1.09 cumulative IPC: 0.3462 (Simulation time: 00 hr 15 min 32 sec)
Heartbeat CPU 0 instructions: 86500504 cycles: 120238024 heartbeat IPC: 1.104 cumulative IPC: 0.3495 (Simulation time: 00 hr 15 min 38 sec)
Heartbeat CPU 0 instructions: 87000504 cycles: 120720534 heartbeat IPC: 1.036 cumulative IPC: 0.3527 (Simulation time: 00 hr 15 min 43 sec)
Heartbeat CPU 0 instructions: 87500505 cycles: 121176618 heartbeat IPC: 1.096 cumulative IPC: 0.3559 (Simulation time: 00 hr 15 min 49 sec)
Heartbeat CPU 0 instructions: 88000507 cycles: 121673083 heartbeat IPC: 1.007 cumulative IPC: 0.3589 (Simulation time: 00 hr 15 min 55 sec)
Heartbeat CPU 0 instructions: 88500510 cycles: 122160820 heartbeat IPC: 1.025 cumulative IPC: 0.362 (Simulation time: 00 hr 16 min 01 sec)
Heartbeat CPU 0 instructions: 89000516 cycles: 122623384 heartbeat IPC: 1.081 cumulative IPC: 0.3651 (Simulation time: 00 hr 16 min 07 sec)
Heartbeat CPU 0 instructions: 89500517 cycles: 123091181 heartbeat IPC: 1.069 cumulative IPC: 0.3682 (Simulation time: 00 hr 16 min 12 sec)
Heartbeat CPU 0 instructions: 90000517 cycles: 123563282 heartbeat IPC: 1.059 cumulative IPC: 0.3712 (Simulation time: 00 hr 16 min 18 sec)
Heartbeat CPU 0 instructions: 90500522 cycles: 124824370 heartbeat IPC: 0.3965 cumulative IPC: 0.3715 (Simulation time: 00 hr 16 min 28 sec)
Heartbeat CPU 0 instructions: 91000529 cycles: 125367210 heartbeat IPC: 0.9211 cumulative IPC: 0.3742 (Simulation time: 00 hr 16 min 32 sec)
Heartbeat CPU 0 instructions: 91500529 cycles: 126376946 heartbeat IPC: 0.4952 cumulative IPC: 0.3753 (Simulation time: 00 hr 16 min 39 sec)
Heartbeat CPU 0 instructions: 92000529 cycles: 129303182 heartbeat IPC: 0.1709 cumulative IPC: 0.37 (Simulation time: 00 hr 16 min 57 sec)
Heartbeat CPU 0 instructions: 92500533 cycles: 131609957 heartbeat IPC: 0.2168 cumulative IPC: 0.367 (Simulation time: 00 hr 17 min 12 sec)
Heartbeat CPU 0 instructions: 93000534 cycles: 132791193 heartbeat IPC: 0.4233 cumulative IPC: 0.3676 (Simulation time: 00 hr 17 min 20 sec)
Heartbeat CPU 0 instructions: 93500536 cycles: 135385020 heartbeat IPC: 0.1928 cumulative IPC: 0.3638 (Simulation time: 00 hr 17 min 35 sec)
Heartbeat CPU 0 instructions: 94000537 cycles: 136724096 heartbeat IPC: 0.3734 cumulative IPC: 0.3639 (Simulation time: 00 hr 17 min 44 sec)
Heartbeat CPU 0 instructions: 94500537 cycles: 137480338 heartbeat IPC: 0.6612 cumulative IPC: 0.3657 (Simulation time: 00 hr 17 min 50 sec)
Heartbeat CPU 0 instructions: 95000537 cycles: 139018885 heartbeat IPC: 0.325 cumulative IPC: 0.3652 (Simulation time: 00 hr 18 min 00 sec)
Heartbeat CPU 0 instructions: 95500539 cycles: 139960243 heartbeat IPC: 0.5311 cumulative IPC: 0.3665 (Simulation time: 00 hr 18 min 08 sec)
Heartbeat CPU 0 instructions: 96000541 cycles: 140470487 heartbeat IPC: 0.9799 cumulative IPC: 0.369 (Simulation time: 00 hr 18 min 13 sec)
Heartbeat CPU 0 instructions: 96500545 cycles: 140892492 heartbeat IPC: 1.185 cumulative IPC: 0.3717 (Simulation time: 00 hr 18 min 19 sec)
Heartbeat CPU 0 instructions: 97000549 cycles: 141356018 heartbeat IPC: 1.079 cumulative IPC: 0.3743 (Simulation time: 00 hr 18 min 24 sec)
Heartbeat CPU 0 instructions: 97500552 cycles: 141845931 heartbeat IPC: 1.021 cumulative IPC: 0.3769 (Simulation time: 00 hr 18 min 31 sec)
Heartbeat CPU 0 instructions: 98000557 cycles: 142301636 heartbeat IPC: 1.097 cumulative IPC: 0.3795 (Simulation time: 00 hr 18 min 38 sec)
Heartbeat CPU 0 instructions: 98500557 cycles: 142735676 heartbeat IPC: 1.152 cumulative IPC: 0.3821 (Simulation time: 00 hr 18 min 43 sec)
Heartbeat CPU 0 instructions: 99000562 cycles: 143152880 heartbeat IPC: 1.198 cumulative IPC: 0.3848 (Simulation time: 00 hr 18 min 47 sec)
Heartbeat CPU 0 instructions: 99500564 cycles: 143562547 heartbeat IPC: 1.221 cumulative IPC: 0.3874 (Simulation time: 00 hr 18 min 52 sec)
Heartbeat CPU 0 instructions: 100000566 cycles: 144050721 heartbeat IPC: 1.024 cumulative IPC: 0.3899 (Simulation time: 00 hr 18 min 57 sec)
Heartbeat CPU 0 instructions: 100500567 cycles: 144703638 heartbeat IPC: 0.7658 cumulative IPC: 0.3918 (Simulation time: 00 hr 19 min 02 sec)
Heartbeat CPU 0 instructions: 101000567 cycles: 146954640 heartbeat IPC: 0.2221 cumulative IPC: 0.3889 (Simulation time: 00 hr 19 min 18 sec)
Heartbeat CPU 0 instructions: 101500570 cycles: 149720336 heartbeat IPC: 0.1808 cumulative IPC: 0.3846 (Simulation time: 00 hr 19 min 35 sec)
Heartbeat CPU 0 instructions: 102000571 cycles: 152020336 heartbeat IPC: 0.2174 cumulative IPC: 0.3817 (Simulation time: 00 hr 19 min 49 sec)
Heartbeat CPU 0 instructions: 102500572 cycles: 153864640 heartbeat IPC: 0.2711 cumulative IPC: 0.3803 (Simulation time: 00 hr 20 min 00 sec)
Heartbeat CPU 0 instructions: 103000574 cycles: 154513512 heartbeat IPC: 0.7706 cumulative IPC: 0.3821 (Simulation time: 00 hr 20 min 05 sec)
Heartbeat CPU 0 instructions: 103500577 cycles: 155428341 heartbeat IPC: 0.5466 cumulative IPC: 0.3832 (Simulation time: 00 hr 20 min 11 sec)
Heartbeat CPU 0 instructions: 104000584 cycles: 156822247 heartbeat IPC: 0.3587 cumulative IPC: 0.3829 (Simulation time: 00 hr 20 min 20 sec)
Heartbeat CPU 0 instructions: 104500585 cycles: 158977215 heartbeat IPC: 0.232 cumulative IPC: 0.3807 (Simulation time: 00 hr 20 min 33 sec)
Heartbeat CPU 0 instructions: 105000589 cycles: 161604496 heartbeat IPC: 0.1903 cumulative IPC: 0.3772 (Simulation time: 00 hr 20 min 49 sec)
Heartbeat CPU 0 instructions: 105500589 cycles: 163089497 heartbeat IPC: 0.3367 cumulative IPC: 0.3768 (Simulation time: 00 hr 20 min 58 sec)
Heartbeat CPU 0 instructions: 106000596 cycles: 164852730 heartbeat IPC: 0.2836 cumulative IPC: 0.3757 (Simulation time: 00 hr 21 min 09 sec)
Heartbeat CPU 0 instructions: 106500599 cycles: 167628890 heartbeat IPC: 0.1801 cumulative IPC: 0.3721 (Simulation time: 00 hr 21 min 25 sec)
Heartbeat CPU 0 instructions: 107000602 cycles: 169663968 heartbeat IPC: 0.2457 cumulative IPC: 0.3705 (Simulation time: 00 hr 21 min 37 sec)
Heartbeat CPU 0 instructions: 107500602 cycles: 172222023 heartbeat IPC: 0.1955 cumulative IPC: 0.3676 (Simulation time: 00 hr 21 min 52 sec)
Heartbeat CPU 0 instructions: 108000602 cycles: 173875006 heartbeat IPC: 0.3025 cumulative IPC: 0.3669 (Simulation time: 00 hr 22 min 02 sec)
Heartbeat CPU 0 instructions: 108500605 cycles: 175943022 heartbeat IPC: 0.2418 cumulative IPC: 0.3653 (Simulation time: 00 hr 22 min 14 sec)
Heartbeat CPU 0 instructions: 109000610 cycles: 178865446 heartbeat IPC: 0.1711 cumulative IPC: 0.3618 (Simulation time: 00 hr 22 min 31 sec)
Heartbeat CPU 0 instructions: 109500610 cycles: 180895858 heartbeat IPC: 0.2463 cumulative IPC: 0.3604 (Simulation time: 00 hr 22 min 43 sec)
Heartbeat CPU 0 instructions: 110000616 cycles: 183501082 heartbeat IPC: 0.1919 cumulative IPC: 0.3578 (Simulation time: 00 hr 22 min 58 sec)
Heartbeat CPU 0 instructions: 110500618 cycles: 185603390 heartbeat IPC: 0.2378 cumulative IPC: 0.3563 (Simulation time: 00 hr 23 min 10 sec)
Heartbeat CPU 0 instructions: 111000618 cycles: 187785830 heartbeat IPC: 0.2291 cumulative IPC: 0.3547 (Simulation time: 00 hr 23 min 22 sec)
Heartbeat CPU 0 instructions: 111500624 cycles: 190259336 heartbeat IPC: 0.2021 cumulative IPC: 0.3525 (Simulation time: 00 hr 23 min 36 sec)
Heartbeat CPU 0 instructions: 112000624 cycles: 192046823 heartbeat IPC: 0.2797 cumulative IPC: 0.3518 (Simulation time: 00 hr 23 min 47 sec)
Heartbeat CPU 0 instructions: 112500629 cycles: 194284849 heartbeat IPC: 0.2234 cumulative IPC: 0.3502 (Simulation time: 00 hr 24 min 00 sec)
Heartbeat CPU 0 instructions: 113000629 cycles: 196414365 heartbeat IPC: 0.2348 cumulative IPC: 0.3488 (Simulation time: 00 hr 24 min 12 sec)
Heartbeat CPU 0 instructions: 113500630 cycles: 197739328 heartbeat IPC: 0.3774 cumulative IPC: 0.349 (Simulation time: 00 hr 24 min 20 sec)
Heartbeat CPU 0 instructions: 114000633 cycles: 199419628 heartbeat IPC: 0.2976 cumulative IPC: 0.3486 (Simulation time: 00 hr 24 min 30 sec)
Heartbeat CPU 0 instructions: 114500633 cycles: 200641047 heartbeat IPC: 0.4094 cumulative IPC: 0.349 (Simulation time: 00 hr 24 min 38 sec)
Heartbeat CPU 0 instructions: 115000635 cycles: 202209875 heartbeat IPC: 0.3187 cumulative IPC: 0.3487 (Simulation time: 00 hr 24 min 47 sec)
Heartbeat CPU 0 instructions: 115500636 cycles: 203908252 heartbeat IPC: 0.2944 cumulative IPC: 0.3482 (Simulation time: 00 hr 24 min 57 sec)
Heartbeat CPU 0 instructions: 116000636 cycles: 205168477 heartbeat IPC: 0.3968 cumulative IPC: 0.3485 (Simulation time: 00 hr 25 min 05 sec)
Heartbeat CPU 0 instructions: 116500640 cycles: 205718034 heartbeat IPC: 0.9098 cumulative IPC: 0.3502 (Simulation time: 00 hr 25 min 10 sec)
Heartbeat CPU 0 instructions: 117000643 cycles: 206152958 heartbeat IPC: 1.15 cumulative IPC: 0.352 (Simulation time: 00 hr 25 min 14 sec)
Heartbeat CPU 0 instructions: 117500649 cycles: 206536359 heartbeat IPC: 1.304 cumulative IPC: 0.3539 (Simulation time: 00 hr 25 min 17 sec)
Heartbeat CPU 0 instructions: 118000652 cycles: 206963438 heartbeat IPC: 1.171 cumulative IPC: 0.3557 (Simulation time: 00 hr 25 min 21 sec)
Heartbeat CPU 0 instructions: 118500658 cycles: 207665967 heartbeat IPC: 0.7117 cumulative IPC: 0.357 (Simulation time: 00 hr 25 min 27 sec)
Heartbeat CPU 0 instructions: 119000665 cycles: 209613247 heartbeat IPC: 0.2568 cumulative IPC: 0.356 (Simulation time: 00 hr 25 min 40 sec)
Heartbeat CPU 0 instructions: 119500668 cycles: 210187127 heartbeat IPC: 0.8713 cumulative IPC: 0.3575 (Simulation time: 00 hr 25 min 44 sec)
Heartbeat CPU 0 instructions: 120000670 cycles: 212100425 heartbeat IPC: 0.2613 cumulative IPC: 0.3566 (Simulation time: 00 hr 25 min 56 sec)
Heartbeat CPU 0 instructions: 120500670 cycles: 214472428 heartbeat IPC: 0.2108 cumulative IPC: 0.3549 (Simulation time: 00 hr 26 min 09 sec)
Heartbeat CPU 0 instructions: 121000673 cycles: 216023787 heartbeat IPC: 0.3223 cumulative IPC: 0.3546 (Simulation time: 00 hr 26 min 18 sec)
Heartbeat CPU 0 instructions: 121500674 cycles: 216345218 heartbeat IPC: 1.556 cumulative IPC: 0.3565 (Simulation time: 00 hr 26 min 21 sec)
Heartbeat CPU 0 instructions: 122000676 cycles: 216600285 heartbeat IPC: 1.96 cumulative IPC: 0.3586 (Simulation time: 00 hr 26 min 23 sec)
Heartbeat CPU 0 instructions: 122500676 cycles: 216880534 heartbeat IPC: 1.784 cumulative IPC: 0.3606 (Simulation time: 00 hr 26 min 26 sec)
Heartbeat CPU 0 instructions: 123000677 cycles: 217513887 heartbeat IPC: 0.7895 cumulative IPC: 0.3619 (Simulation time: 00 hr 26 min 30 sec)
Heartbeat CPU 0 instructions: 123500677 cycles: 220477305 heartbeat IPC: 0.1687 cumulative IPC: 0.3591 (Simulation time: 00 hr 26 min 46 sec)
Heartbeat CPU 0 instructions: 124000678 cycles: 223398476 heartbeat IPC: 0.1712 cumulative IPC: 0.3565 (Simulation time: 00 hr 27 min 04 sec)
Heartbeat CPU 0 instructions: 124500680 cycles: 225729573 heartbeat IPC: 0.2145 cumulative IPC: 0.3549 (Simulation time: 00 hr 27 min 18 sec)
Heartbeat CPU 0 instructions: 125000685 cycles: 227880148 heartbeat IPC: 0.2325 cumulative IPC: 0.3536 (Simulation time: 00 hr 27 min 29 sec)
Heartbeat CPU 0 instructions: 125500692 cycles: 229486790 heartbeat IPC: 0.3112 cumulative IPC: 0.3533 (Simulation time: 00 hr 27 min 39 sec)
Heartbeat CPU 0 instructions: 126000698 cycles: 230816664 heartbeat IPC: 0.376 cumulative IPC: 0.3535 (Simulation time: 00 hr 27 min 47 sec)
Heartbeat CPU 0 instructions: 126500700 cycles: 231332849 heartbeat IPC: 0.9686 cumulative IPC: 0.3549 (Simulation time: 00 hr 27 min 51 sec)
Heartbeat CPU 0 instructions: 127000702 cycles: 231678782 heartbeat IPC: 1.445 cumulative IPC: 0.3567 (Simulation time: 00 hr 27 min 54 sec)
Heartbeat CPU 0 instructions: 127500709 cycles: 232140999 heartbeat IPC: 1.082 cumulative IPC: 0.3582 (Simulation time: 00 hr 27 min 58 sec)
Heartbeat CPU 0 instructions: 128000713 cycles: 234658708 heartbeat IPC: 0.1986 cumulative IPC: 0.3564 (Simulation time: 00 hr 28 min 13 sec)
Heartbeat CPU 0 instructions: 128500714 cycles: 236069061 heartbeat IPC: 0.3545 cumulative IPC: 0.3564 (Simulation time: 00 hr 28 min 22 sec)
Heartbeat CPU 0 instructions: 129000714 cycles: 236890830 heartbeat IPC: 0.6084 cumulative IPC: 0.3573 (Simulation time: 00 hr 28 min 28 sec)
Heartbeat CPU 0 instructions: 129500718 cycles: 237529122 heartbeat IPC: 0.7833 cumulative IPC: 0.3586 (Simulation time: 00 hr 28 min 32 sec)
Heartbeat CPU 0 instructions: 130000725 cycles: 238132669 heartbeat IPC: 0.8284 cumulative IPC: 0.3598 (Simulation time: 00 hr 28 min 36 sec)
Heartbeat CPU 0 instructions: 130500725 cycles: 238806646 heartbeat IPC: 0.7419 cumulative IPC: 0.361 (Simulation time: 00 hr 28 min 41 sec)
Heartbeat CPU 0 instructions: 131000729 cycles: 239530433 heartbeat IPC: 0.6908 cumulative IPC: 0.362 (Simulation time: 00 hr 28 min 46 sec)
Heartbeat CPU 0 instructions: 131500730 cycles: 241767305 heartbeat IPC: 0.2235 cumulative IPC: 0.3607 (Simulation time: 00 hr 28 min 58 sec)
Heartbeat CPU 0 instructions: 132000732 cycles: 241967915 heartbeat IPC: 2.492 cumulative IPC: 0.3626 (Simulation time: 00 hr 29 min 01 sec)
Heartbeat CPU 0 instructions: 132500734 cycles: 242170908 heartbeat IPC: 2.463 cumulative IPC: 0.3645 (Simulation time: 00 hr 29 min 03 sec)
Heartbeat CPU 0 instructions: 133000734 cycles: 244414021 heartbeat IPC: 0.2229 cumulative IPC: 0.3631 (Simulation time: 00 hr 29 min 16 sec)
Heartbeat CPU 0 instructions: 133500738 cycles: 246368118 heartbeat IPC: 0.2559 cumulative IPC: 0.3622 (Simulation time: 00 hr 29 min 27 sec)
Heartbeat CPU 0 instructions: 134000739 cycles: 248762989 heartbeat IPC: 0.2088 cumulative IPC: 0.3606 (Simulation time: 00 hr 29 min 39 sec)
Heartbeat CPU 0 instructions: 134500741 cycles: 250822559 heartbeat IPC: 0.2428 cumulative IPC: 0.3595 (Simulation time: 00 hr 29 min 51 sec)
Heartbeat CPU 0 instructions: 135000747 cycles: 253473296 heartbeat IPC: 0.1886 cumulative IPC: 0.3576 (Simulation time: 00 hr 30 min 04 sec)
Heartbeat CPU 0 instructions: 135500752 cycles: 256146176 heartbeat IPC: 0.1871 cumulative IPC: 0.3557 (Simulation time: 00 hr 30 min 18 sec)
Heartbeat CPU 0 instructions: 136000752 cycles: 258168812 heartbeat IPC: 0.2472 cumulative IPC: 0.3548 (Simulation time: 00 hr 30 min 29 sec)
Heartbeat CPU 0 instructions: 136500752 cycles: 260006161 heartbeat IPC: 0.2721 cumulative IPC: 0.3542 (Simulation time: 00 hr 30 min 40 sec)
Heartbeat CPU 0 instructions: 137000755 cycles: 261516735 heartbeat IPC: 0.331 cumulative IPC: 0.3541 (Simulation time: 00 hr 30 min 48 sec)
Heartbeat CPU 0 instructions: 137500758 cycles: 262364233 heartbeat IPC: 0.59 cumulative IPC: 0.3549 (Simulation time: 00 hr 30 min 54 sec)
Heartbeat CPU 0 instructions: 138000759 cycles: 263949061 heartbeat IPC: 0.3155 cumulative IPC: 0.3546 (Simulation time: 00 hr 31 min 03 sec)
Heartbeat CPU 0 instructions: 138500759 cycles: 265668602 heartbeat IPC: 0.2908 cumulative IPC: 0.3542 (Simulation time: 00 hr 31 min 13 sec)
Heartbeat CPU 0 instructions: 139000759 cycles: 268144172 heartbeat IPC: 0.202 cumulative IPC: 0.3527 (Simulation time: 00 hr 31 min 26 sec)
Heartbeat CPU 0 instructions: 139500760 cycles: 270966913 heartbeat IPC: 0.1771 cumulative IPC: 0.3508 (Simulation time: 00 hr 31 min 41 sec)
Heartbeat CPU 0 instructions: 140000765 cycles: 273299467 heartbeat IPC: 0.2144 cumulative IPC: 0.3495 (Simulation time: 00 hr 31 min 54 sec)
Heartbeat CPU 0 instructions: 140500769 cycles: 275068803 heartbeat IPC: 0.2826 cumulative IPC: 0.3491 (Simulation time: 00 hr 32 min 03 sec)
Heartbeat CPU 0 instructions: 141000773 cycles: 277202300 heartbeat IPC: 0.2344 cumulative IPC: 0.3481 (Simulation time: 00 hr 32 min 15 sec)
Heartbeat CPU 0 instructions: 141500780 cycles: 278748219 heartbeat IPC: 0.3234 cumulative IPC: 0.348 (Simulation time: 00 hr 32 min 24 sec)
Heartbeat CPU 0 instructions: 142000785 cycles: 279386607 heartbeat IPC: 0.7832 cumulative IPC: 0.349 (Simulation time: 00 hr 32 min 28 sec)
Heartbeat CPU 0 instructions: 142500785 cycles: 281129405 heartbeat IPC: 0.2869 cumulative IPC: 0.3486 (Simulation time: 00 hr 32 min 38 sec)
Heartbeat CPU 0 instructions: 143000789 cycles: 283598960 heartbeat IPC: 0.2025 cumulative IPC: 0.3473 (Simulation time: 00 hr 32 min 51 sec)
Heartbeat CPU 0 instructions: 143500790 cycles: 285163322 heartbeat IPC: 0.3196 cumulative IPC: 0.3471 (Simulation time: 00 hr 33 min 00 sec)
Heartbeat CPU 0 instructions: 144000790 cycles: 288125417 heartbeat IPC: 0.1688 cumulative IPC: 0.3452 (Simulation time: 00 hr 33 min 16 sec)
Heartbeat CPU 0 instructions: 144500794 cycles: 290682092 heartbeat IPC: 0.1956 cumulative IPC: 0.3438 (Simulation time: 00 hr 33 min 30 sec)
Heartbeat CPU 0 instructions: 145000797 cycles: 291997339 heartbeat IPC: 0.3802 cumulative IPC: 0.344 (Simulation time: 00 hr 33 min 38 sec)
Heartbeat CPU 0 instructions: 145500799 cycles: 292360440 heartbeat IPC: 1.377 cumulative IPC: 0.3453 (Simulation time: 00 hr 33 min 41 sec)
Heartbeat CPU 0 instructions: 146000799 cycles: 293240906 heartbeat IPC: 0.5679 cumulative IPC: 0.346 (Simulation time: 00 hr 33 min 47 sec)
Heartbeat CPU 0 instructions: 146500801 cycles: 293910809 heartbeat IPC: 0.7464 cumulative IPC: 0.347 (Simulation time: 00 hr 33 min 51 sec)
Heartbeat CPU 0 instructions: 147000802 cycles: 295007192 heartbeat IPC: 0.456 cumulative IPC: 0.3474 (Simulation time: 00 hr 33 min 58 sec)
Heartbeat CPU 0 instructions: 147500805 cycles: 296412616 heartbeat IPC: 0.3558 cumulative IPC: 0.3475 (Simulation time: 00 hr 34 min 07 sec)
Heartbeat CPU 0 instructions: 148000805 cycles: 299615517 heartbeat IPC: 0.1561 cumulative IPC: 0.3453 (Simulation time: 00 hr 34 min 24 sec)
Heartbeat CPU 0 instructions: 148500807 cycles: 301536734 heartbeat IPC: 0.2603 cumulative IPC: 0.3447 (Simulation time: 00 hr 34 min 35 sec)
Heartbeat CPU 0 instructions: 149000813 cycles: 302783344 heartbeat IPC: 0.4011 cumulative IPC: 0.345 (Simulation time: 00 hr 34 min 43 sec)
Heartbeat CPU 0 instructions: 149500813 cycles: 303198251 heartbeat IPC: 1.205 cumulative IPC: 0.3462 (Simulation time: 00 hr 34 min 46 sec)
Heartbeat CPU 0 instructions: 150000820 cycles: 303606344 heartbeat IPC: 1.225 cumulative IPC: 0.3475 (Simulation time: 00 hr 34 min 50 sec)
Heartbeat CPU 0 instructions: 150500821 cycles: 303988010 heartbeat IPC: 1.31 cumulative IPC: 0.3487 (Simulation time: 00 hr 34 min 53 sec)
Heartbeat CPU 0 instructions: 151000822 cycles: 305398924 heartbeat IPC: 0.3544 cumulative IPC: 0.3488 (Simulation time: 00 hr 35 min 01 sec)
Heartbeat CPU 0 instructions: 151500829 cycles: 307188159 heartbeat IPC: 0.2795 cumulative IPC: 0.3483 (Simulation time: 00 hr 35 min 12 sec)
Heartbeat CPU 0 instructions: 152000832 cycles: 307743265 heartbeat IPC: 0.9007 cumulative IPC: 0.3494 (Simulation time: 00 hr 35 min 16 sec)
Heartbeat CPU 0 instructions: 152500837 cycles: 309500311 heartbeat IPC: 0.2846 cumulative IPC: 0.349 (Simulation time: 00 hr 35 min 27 sec)
Heartbeat CPU 0 instructions: 153000837 cycles: 312308109 heartbeat IPC: 0.1781 cumulative IPC: 0.3474 (Simulation time: 00 hr 35 min 43 sec)
Heartbeat CPU 0 instructions: 153500841 cycles: 314795951 heartbeat IPC: 0.201 cumulative IPC: 0.3462 (Simulation time: 00 hr 35 min 56 sec)
Heartbeat CPU 0 instructions: 154000846 cycles: 316475776 heartbeat IPC: 0.2977 cumulative IPC: 0.3459 (Simulation time: 00 hr 36 min 05 sec)
Heartbeat CPU 0 instructions: 154500848 cycles: 317966342 heartbeat IPC: 0.3354 cumulative IPC: 0.3458 (Simulation time: 00 hr 36 min 14 sec)
Heartbeat CPU 0 instructions: 155000855 cycles: 319648875 heartbeat IPC: 0.2972 cumulative IPC: 0.3456 (Simulation time: 00 hr 36 min 24 sec)
Heartbeat CPU 0 instructions: 155500855 cycles: 321662143 heartbeat IPC: 0.2484 cumulative IPC: 0.3449 (Simulation time: 00 hr 36 min 35 sec)
Heartbeat CPU 0 instructions: 156000861 cycles: 322243206 heartbeat IPC: 0.8605 cumulative IPC: 0.3459 (Simulation time: 00 hr 36 min 39 sec)
Heartbeat CPU 0 instructions: 156500864 cycles: 323866797 heartbeat IPC: 0.308 cumulative IPC: 0.3457 (Simulation time: 00 hr 36 min 49 sec)
Heartbeat CPU 0 instructions: 157000865 cycles: 324858285 heartbeat IPC: 0.5043 cumulative IPC: 0.3462 (Simulation time: 00 hr 36 min 55 sec)
Heartbeat CPU 0 instructions: 157500867 cycles: 325241418 heartbeat IPC: 1.305 cumulative IPC: 0.3474 (Simulation time: 00 hr 36 min 58 sec)
Heartbeat CPU 0 instructions: 158000867 cycles: 325671128 heartbeat IPC: 1.164 cumulative IPC: 0.3485 (Simulation time: 00 hr 37 min 01 sec)
Heartbeat CPU 0 instructions: 158500867 cycles: 326040405 heartbeat IPC: 1.354 cumulative IPC: 0.3497 (Simulation time: 00 hr 37 min 05 sec)
Heartbeat CPU 0 instructions: 159000867 cycles: 326662427 heartbeat IPC: 0.8038 cumulative IPC: 0.3506 (Simulation time: 00 hr 37 min 10 sec)
Heartbeat CPU 0 instructions: 159500870 cycles: 328460886 heartbeat IPC: 0.278 cumulative IPC: 0.3502 (Simulation time: 00 hr 37 min 21 sec)
Heartbeat CPU 0 instructions: 160000874 cycles: 329255697 heartbeat IPC: 0.6291 cumulative IPC: 0.3509 (Simulation time: 00 hr 37 min 26 sec)
Heartbeat CPU 0 instructions: 160500875 cycles: 330265313 heartbeat IPC: 0.4952 cumulative IPC: 0.3514 (Simulation time: 00 hr 37 min 32 sec)
Heartbeat CPU 0 instructions: 161000881 cycles: 330991075 heartbeat IPC: 0.6889 cumulative IPC: 0.3522 (Simulation time: 00 hr 37 min 37 sec)
Heartbeat CPU 0 instructions: 161500883 cycles: 331358185 heartbeat IPC: 1.362 cumulative IPC: 0.3533 (Simulation time: 00 hr 37 min 41 sec)
Heartbeat CPU 0 instructions: 162000884 cycles: 331730555 heartbeat IPC: 1.343 cumulative IPC: 0.3545 (Simulation time: 00 hr 37 min 44 sec)
Heartbeat CPU 0 instructions: 162500884 cycles: 332132520 heartbeat IPC: 1.244 cumulative IPC: 0.3556 (Simulation time: 00 hr 37 min 47 sec)
Heartbeat CPU 0 instructions: 163000885 cycles: 334168645 heartbeat IPC: 0.2456 cumulative IPC: 0.3549 (Simulation time: 00 hr 38 min 00 sec)
Heartbeat CPU 0 instructions: 163500889 cycles: 336510826 heartbeat IPC: 0.2135 cumulative IPC: 0.3539 (Simulation time: 00 hr 38 min 13 sec)
Heartbeat CPU 0 instructions: 164000889 cycles: 338655445 heartbeat IPC: 0.2331 cumulative IPC: 0.3531 (Simulation time: 00 hr 38 min 25 sec)
Heartbeat CPU 0 instructions: 164500889 cycles: 341027043 heartbeat IPC: 0.2108 cumulative IPC: 0.3521 (Simulation time: 00 hr 38 min 38 sec)
Heartbeat CPU 0 instructions: 165000889 cycles: 343386885 heartbeat IPC: 0.2119 cumulative IPC: 0.3511 (Simulation time: 00 hr 38 min 50 sec)
Heartbeat CPU 0 instructions: 165500894 cycles: 345595103 heartbeat IPC: 0.2264 cumulative IPC: 0.3502 (Simulation time: 00 hr 39 min 03 sec)
Heartbeat CPU 0 instructions: 166000894 cycles: 346657862 heartbeat IPC: 0.4705 cumulative IPC: 0.3506 (Simulation time: 00 hr 39 min 10 sec)
Heartbeat CPU 0 instructions: 166500896 cycles: 349623691 heartbeat IPC: 0.1686 cumulative IPC: 0.349 (Simulation time: 00 hr 39 min 27 sec)
Heartbeat CPU 0 instructions: 167000900 cycles: 352037196 heartbeat IPC: 0.2072 cumulative IPC: 0.348 (Simulation time: 00 hr 39 min 41 sec)
Heartbeat CPU 0 instructions: 167500902 cycles: 352751930 heartbeat IPC: 0.6996 cumulative IPC: 0.3487 (Simulation time: 00 hr 39 min 46 sec)
Heartbeat CPU 0 instructions: 168000903 cycles: 355208265 heartbeat IPC: 0.2036 cumulative IPC: 0.3477 (Simulation time: 00 hr 39 min 59 sec)
Heartbeat CPU 0 instructions: 168500907 cycles: 356688063 heartbeat IPC: 0.3379 cumulative IPC: 0.3476 (Simulation time: 00 hr 40 min 08 sec)
Heartbeat CPU 0 instructions: 169000908 cycles: 359476018 heartbeat IPC: 0.1793 cumulative IPC: 0.3463 (Simulation time: 00 hr 40 min 22 sec)
Heartbeat CPU 0 instructions: 169500911 cycles: 360986364 heartbeat IPC: 0.3311 cumulative IPC: 0.3462 (Simulation time: 00 hr 40 min 31 sec)
Heartbeat CPU 0 instructions: 170000913 cycles: 363004841 heartbeat IPC: 0.2477 cumulative IPC: 0.3456 (Simulation time: 00 hr 40 min 42 sec)
Heartbeat CPU 0 instructions: 170500913 cycles: 365281013 heartbeat IPC: 0.2197 cumulative IPC: 0.3448 (Simulation time: 00 hr 40 min 54 sec)
Heartbeat CPU 0 instructions: 171000920 cycles: 367110240 heartbeat IPC: 0.2733 cumulative IPC: 0.3444 (Simulation time: 00 hr 41 min 05 sec)
Heartbeat CPU 0 instructions: 171500920 cycles: 367963616 heartbeat IPC: 0.5859 cumulative IPC: 0.345 (Simulation time: 00 hr 41 min 10 sec)
Heartbeat CPU 0 instructions: 172000921 cycles: 370202123 heartbeat IPC: 0.2234 cumulative IPC: 0.3442 (Simulation time: 00 hr 41 min 22 sec)
Heartbeat CPU 0 instructions: 172500924 cycles: 372510758 heartbeat IPC: 0.2166 cumulative IPC: 0.3434 (Simulation time: 00 hr 41 min 35 sec)
Heartbeat CPU 0 instructions: 173000930 cycles: 374010073 heartbeat IPC: 0.3335 cumulative IPC: 0.3434 (Simulation time: 00 hr 41 min 43 sec)
Heartbeat CPU 0 instructions: 173500930 cycles: 376216277 heartbeat IPC: 0.2266 cumulative IPC: 0.3427 (Simulation time: 00 hr 41 min 55 sec)
Heartbeat CPU 0 instructions: 174000932 cycles: 379084896 heartbeat IPC: 0.1743 cumulative IPC: 0.3413 (Simulation time: 00 hr 42 min 10 sec)
Heartbeat CPU 0 instructions: 174500932 cycles: 380925618 heartbeat IPC: 0.2716 cumulative IPC: 0.341 (Simulation time: 00 hr 42 min 20 sec)
Heartbeat CPU 0 instructions: 175000939 cycles: 382523159 heartbeat IPC: 0.313 cumulative IPC: 0.3409 (Simulation time: 00 hr 42 min 29 sec)
Heartbeat CPU 0 instructions: 175500940 cycles: 384514010 heartbeat IPC: 0.2511 cumulative IPC: 0.3404 (Simulation time: 00 hr 42 min 40 sec)
Heartbeat CPU 0 instructions: 176000942 cycles: 386928539 heartbeat IPC: 0.2071 cumulative IPC: 0.3395 (Simulation time: 00 hr 42 min 52 sec)
Heartbeat CPU 0 instructions: 176500949 cycles: 388233533 heartbeat IPC: 0.3831 cumulative IPC: 0.3397 (Simulation time: 00 hr 43 min 00 sec)
Heartbeat CPU 0 instructions: 177000952 cycles: 389954152 heartbeat IPC: 0.2906 cumulative IPC: 0.3394 (Simulation time: 00 hr 43 min 10 sec)
Heartbeat CPU 0 instructions: 177500952 cycles: 391678529 heartbeat IPC: 0.29 cumulative IPC: 0.3392 (Simulation time: 00 hr 43 min 20 sec)
Heartbeat CPU 0 instructions: 178000952 cycles: 394512242 heartbeat IPC: 0.1764 cumulative IPC: 0.338 (Simulation time: 00 hr 43 min 36 sec)
Heartbeat CPU 0 instructions: 178500953 cycles: 395714964 heartbeat IPC: 0.4157 cumulative IPC: 0.3382 (Simulation time: 00 hr 43 min 44 sec)
Heartbeat CPU 0 instructions: 179000959 cycles: 397353498 heartbeat IPC: 0.3052 cumulative IPC: 0.3381 (Simulation time: 00 hr 43 min 53 sec)
Heartbeat CPU 0 instructions: 179500959 cycles: 399946831 heartbeat IPC: 0.1928 cumulative IPC: 0.3371 (Simulation time: 00 hr 44 min 08 sec)
Heartbeat CPU 0 instructions: 180000965 cycles: 402282189 heartbeat IPC: 0.2141 cumulative IPC: 0.3364 (Simulation time: 00 hr 44 min 21 sec)
Heartbeat CPU 0 instructions: 180500966 cycles: 404778591 heartbeat IPC: 0.2003 cumulative IPC: 0.3355 (Simulation time: 00 hr 44 min 35 sec)
Heartbeat CPU 0 instructions: 181000966 cycles: 407066257 heartbeat IPC: 0.2186 cumulative IPC: 0.3348 (Simulation time: 00 hr 44 min 47 sec)
Heartbeat CPU 0 instructions: 181500966 cycles: 409514246 heartbeat IPC: 0.2042 cumulative IPC: 0.334 (Simulation time: 00 hr 45 min 01 sec)
Heartbeat CPU 0 instructions: 182000966 cycles: 411703087 heartbeat IPC: 0.2284 cumulative IPC: 0.3334 (Simulation time: 00 hr 45 min 13 sec)
Heartbeat CPU 0 instructions: 182500972 cycles: 413150278 heartbeat IPC: 0.3455 cumulative IPC: 0.3335 (Simulation time: 00 hr 45 min 21 sec)
Heartbeat CPU 0 instructions: 183000975 cycles: 415128764 heartbeat IPC: 0.2527 cumulative IPC: 0.3331 (Simulation time: 00 hr 45 min 32 sec)
Heartbeat CPU 0 instructions: 183500976 cycles: 417915991 heartbeat IPC: 0.1794 cumulative IPC: 0.332 (Simulation time: 00 hr 45 min 47 sec)
Heartbeat CPU 0 instructions: 184000978 cycles: 420425748 heartbeat IPC: 0.1992 cumulative IPC: 0.3312 (Simulation time: 00 hr 46 min 00 sec)
Heartbeat CPU 0 instructions: 184500980 cycles: 421966175 heartbeat IPC: 0.3246 cumulative IPC: 0.3311 (Simulation time: 00 hr 46 min 08 sec)
Heartbeat CPU 0 instructions: 185000982 cycles: 424165420 heartbeat IPC: 0.2274 cumulative IPC: 0.3306 (Simulation time: 00 hr 46 min 20 sec)
Heartbeat CPU 0 instructions: 185500982 cycles: 426088420 heartbeat IPC: 0.26 cumulative IPC: 0.3303 (Simulation time: 00 hr 46 min 31 sec)
Heartbeat CPU 0 instructions: 186000987 cycles: 427500562 heartbeat IPC: 0.3541 cumulative IPC: 0.3303 (Simulation time: 00 hr 46 min 39 sec)
Heartbeat CPU 0 instructions: 186500987 cycles: 429135825 heartbeat IPC: 0.3058 cumulative IPC: 0.3302 (Simulation time: 00 hr 46 min 49 sec)
Heartbeat CPU 0 instructions: 187000987 cycles: 432009282 heartbeat IPC: 0.174 cumulative IPC: 0.3292 (Simulation time: 00 hr 47 min 04 sec)
Heartbeat CPU 0 instructions: 187500987 cycles: 434261105 heartbeat IPC: 0.222 cumulative IPC: 0.3286 (Simulation time: 00 hr 47 min 16 sec)
Heartbeat CPU 0 instructions: 188000987 cycles: 436591041 heartbeat IPC: 0.2146 cumulative IPC: 0.328 (Simulation time: 00 hr 47 min 28 sec)
Heartbeat CPU 0 instructions: 188500987 cycles: 438561060 heartbeat IPC: 0.2538 cumulative IPC: 0.3276 (Simulation time: 00 hr 47 min 39 sec)
Heartbeat CPU 0 instructions: 189000987 cycles: 439023374 heartbeat IPC: 1.082 cumulative IPC: 0.3284 (Simulation time: 00 hr 47 min 42 sec)
Heartbeat CPU 0 instructions: 189500993 cycles: 440800645 heartbeat IPC: 0.2813 cumulative IPC: 0.3282 (Simulation time: 00 hr 47 min 52 sec)
Heartbeat CPU 0 instructions: 190000997 cycles: 443267829 heartbeat IPC: 0.2027 cumulative IPC: 0.3275 (Simulation time: 00 hr 48 min 06 sec)
Heartbeat CPU 0 instructions: 190500997 cycles: 445708241 heartbeat IPC: 0.2049 cumulative IPC: 0.3268 (Simulation time: 00 hr 48 min 19 sec)
Heartbeat CPU 0 instructions: 191001000 cycles: 446685561 heartbeat IPC: 0.5116 cumulative IPC: 0.3272 (Simulation time: 00 hr 48 min 26 sec)
Heartbeat CPU 0 instructions: 191501007 cycles: 447781847 heartbeat IPC: 0.4561 cumulative IPC: 0.3276 (Simulation time: 00 hr 48 min 32 sec)
Heartbeat CPU 0 instructions: 192001007 cycles: 449948159 heartbeat IPC: 0.2308 cumulative IPC: 0.3271 (Simulation time: 00 hr 48 min 44 sec)
Heartbeat CPU 0 instructions: 192501008 cycles: 451747423 heartbeat IPC: 0.2779 cumulative IPC: 0.3269 (Simulation time: 00 hr 48 min 54 sec)
Heartbeat CPU 0 instructions: 193001008 cycles: 452894568 heartbeat IPC: 0.4359 cumulative IPC: 0.3272 (Simulation time: 00 hr 49 min 01 sec)
Heartbeat CPU 0 instructions: 193501011 cycles: 453631249 heartbeat IPC: 0.6787 cumulative IPC: 0.3278 (Simulation time: 00 hr 49 min 05 sec)
Heartbeat CPU 0 instructions: 194001014 cycles: 455126322 heartbeat IPC: 0.3344 cumulative IPC: 0.3278 (Simulation time: 00 hr 49 min 14 sec)
Heartbeat CPU 0 instructions: 194501014 cycles: 456220126 heartbeat IPC: 0.4571 cumulative IPC: 0.3281 (Simulation time: 00 hr 49 min 21 sec)
Heartbeat CPU 0 instructions: 195001014 cycles: 458821712 heartbeat IPC: 0.1922 cumulative IPC: 0.3273 (Simulation time: 00 hr 49 min 36 sec)
Heartbeat CPU 0 instructions: 195501016 cycles: 459968009 heartbeat IPC: 0.4362 cumulative IPC: 0.3276 (Simulation time: 00 hr 49 min 43 sec)
Heartbeat CPU 0 instructions: 196001016 cycles: 461415833 heartbeat IPC: 0.3453 cumulative IPC: 0.3276 (Simulation time: 00 hr 49 min 52 sec)
Heartbeat CPU 0 instructions: 196501016 cycles: 464000640 heartbeat IPC: 0.1934 cumulative IPC: 0.3269 (Simulation time: 00 hr 50 min 07 sec)
Heartbeat CPU 0 instructions: 197001022 cycles: 465625939 heartbeat IPC: 0.3076 cumulative IPC: 0.3268 (Simulation time: 00 hr 50 min 17 sec)
Heartbeat CPU 0 instructions: 197501022 cycles: 468254835 heartbeat IPC: 0.1902 cumulative IPC: 0.326 (Simulation time: 00 hr 50 min 31 sec)
Heartbeat CPU 0 instructions: 198001024 cycles: 469837233 heartbeat IPC: 0.316 cumulative IPC: 0.326 (Simulation time: 00 hr 50 min 40 sec)
Heartbeat CPU 0 instructions: 198501029 cycles: 472917484 heartbeat IPC: 0.1623 cumulative IPC: 0.3249 (Simulation time: 00 hr 50 min 57 sec)
Heartbeat CPU 0 instructions: 199001031 cycles: 475632771 heartbeat IPC: 0.1841 cumulative IPC: 0.324 (Simulation time: 00 hr 51 min 11 sec)
Heartbeat CPU 0 instructions: 199501034 cycles: 477062633 heartbeat IPC: 0.3497 cumulative IPC: 0.3241 (Simulation time: 00 hr 51 min 20 sec)
Heartbeat CPU 0 instructions: 200001041 cycles: 479641960 heartbeat IPC: 0.1939 cumulative IPC: 0.3234 (Simulation time: 00 hr 51 min 33 sec)
Heartbeat CPU 0 instructions: 200501046 cycles: 481266375 heartbeat IPC: 0.3078 cumulative IPC: 0.3233 (Simulation time: 00 hr 51 min 43 sec)
Heartbeat CPU 0 instructions: 201001046 cycles: 483325215 heartbeat IPC: 0.2429 cumulative IPC: 0.323 (Simulation time: 00 hr 51 min 54 sec)
Heartbeat CPU 0 instructions: 201501046 cycles: 485830530 heartbeat IPC: 0.1996 cumulative IPC: 0.3223 (Simulation time: 00 hr 52 min 08 sec)
Heartbeat CPU 0 instructions: 202001047 cycles: 487793234 heartbeat IPC: 0.2548 cumulative IPC: 0.322 (Simulation time: 00 hr 52 min 19 sec)
Heartbeat CPU 0 instructions: 202501048 cycles: 489710477 heartbeat IPC: 0.2608 cumulative IPC: 0.3218 (Simulation time: 00 hr 52 min 29 sec)
Heartbeat CPU 0 instructions: 203001048 cycles: 491571049 heartbeat IPC: 0.2687 cumulative IPC: 0.3216 (Simulation time: 00 hr 52 min 40 sec)
Heartbeat CPU 0 instructions: 203501049 cycles: 493272702 heartbeat IPC: 0.2938 cumulative IPC: 0.3215 (Simulation time: 00 hr 52 min 50 sec)
Heartbeat CPU 0 instructions: 204001049 cycles: 496450969 heartbeat IPC: 0.1573 cumulative IPC: 0.3204 (Simulation time: 00 hr 53 min 07 sec)
Heartbeat CPU 0 instructions: 204501049 cycles: 499113176 heartbeat IPC: 0.1878 cumulative IPC: 0.3197 (Simulation time: 00 hr 53 min 22 sec)
Heartbeat CPU 0 instructions: 205001049 cycles: 501271284 heartbeat IPC: 0.2317 cumulative IPC: 0.3193 (Simulation time: 00 hr 53 min 33 sec)
Heartbeat CPU 0 instructions: 205501051 cycles: 502486478 heartbeat IPC: 0.4115 cumulative IPC: 0.3195 (Simulation time: 00 hr 53 min 41 sec)
Heartbeat CPU 0 instructions: 206001052 cycles: 503986860 heartbeat IPC: 0.3332 cumulative IPC: 0.3196 (Simulation time: 00 hr 53 min 49 sec)
Heartbeat CPU 0 instructions: 206501057 cycles: 506044539 heartbeat IPC: 0.243 cumulative IPC: 0.3192 (Simulation time: 00 hr 54 min 01 sec)
Heartbeat CPU 0 instructions: 207001061 cycles: 508695762 heartbeat IPC: 0.1886 cumulative IPC: 0.3185 (Simulation time: 00 hr 54 min 15 sec)
Heartbeat CPU 0 instructions: 207501065 cycles: 510699590 heartbeat IPC: 0.2495 cumulative IPC: 0.3182 (Simulation time: 00 hr 54 min 26 sec)
Heartbeat CPU 0 instructions: 208001065 cycles: 511647205 heartbeat IPC: 0.5276 cumulative IPC: 0.3187 (Simulation time: 00 hr 54 min 31 sec)
Heartbeat CPU 0 instructions: 208501067 cycles: 512843908 heartbeat IPC: 0.4178 cumulative IPC: 0.3189 (Simulation time: 00 hr 54 min 39 sec)
Heartbeat CPU 0 instructions: 209001072 cycles: 513318948 heartbeat IPC: 1.053 cumulative IPC: 0.3196 (Simulation time: 00 hr 54 min 42 sec)
Heartbeat CPU 0 instructions: 209501072 cycles: 516006521 heartbeat IPC: 0.186 cumulative IPC: 0.3189 (Simulation time: 00 hr 54 min 56 sec)
Heartbeat CPU 0 instructions: 210001073 cycles: 518338417 heartbeat IPC: 0.2144 cumulative IPC: 0.3184 (Simulation time: 00 hr 55 min 09 sec)
Heartbeat CPU 0 instructions: 210501076 cycles: 519326984 heartbeat IPC: 0.5058 cumulative IPC: 0.3188 (Simulation time: 00 hr 55 min 16 sec)
Heartbeat CPU 0 instructions: 211001076 cycles: 521706930 heartbeat IPC: 0.2101 cumulative IPC: 0.3182 (Simulation time: 00 hr 55 min 28 sec)
Heartbeat CPU 0 instructions: 211501079 cycles: 522391426 heartbeat IPC: 0.7305 cumulative IPC: 0.3188 (Simulation time: 00 hr 55 min 33 sec)
Heartbeat CPU 0 instructions: 212001081 cycles: 522932943 heartbeat IPC: 0.9233 cumulative IPC: 0.3194 (Simulation time: 00 hr 55 min 37 sec)
Heartbeat CPU 0 instructions: 212501083 cycles: 523396266 heartbeat IPC: 1.079 cumulative IPC: 0.3201 (Simulation time: 00 hr 55 min 41 sec)
Heartbeat CPU 0 instructions: 213001084 cycles: 523748576 heartbeat IPC: 1.419 cumulative IPC: 0.3209 (Simulation time: 00 hr 55 min 44 sec)
Heartbeat CPU 0 instructions: 213501084 cycles: 524613384 heartbeat IPC: 0.5782 cumulative IPC: 0.3213 (Simulation time: 00 hr 55 min 50 sec)
Heartbeat CPU 0 instructions: 214001088 cycles: 527003608 heartbeat IPC: 0.2092 cumulative IPC: 0.3208 (Simulation time: 00 hr 56 min 04 sec)
Heartbeat CPU 0 instructions: 214501095 cycles: 527997285 heartbeat IPC: 0.5032 cumulative IPC: 0.3212 (Simulation time: 00 hr 56 min 10 sec)
Heartbeat CPU 0 instructions: 215001096 cycles: 529658124 heartbeat IPC: 0.3011 cumulative IPC: 0.3211 (Simulation time: 00 hr 56 min 20 sec)
Heartbeat CPU 0 instructions: 215501096 cycles: 532672369 heartbeat IPC: 0.1659 cumulative IPC: 0.3202 (Simulation time: 00 hr 56 min 35 sec)
Heartbeat CPU 0 instructions: 216001096 cycles: 534894502 heartbeat IPC: 0.225 cumulative IPC: 0.3198 (Simulation time: 00 hr 56 min 47 sec)
Heartbeat CPU 0 instructions: 216501096 cycles: 537114408 heartbeat IPC: 0.2252 cumulative IPC: 0.3194 (Simulation time: 00 hr 56 min 59 sec)
Heartbeat CPU 0 instructions: 217001098 cycles: 539019961 heartbeat IPC: 0.2624 cumulative IPC: 0.3192 (Simulation time: 00 hr 57 min 10 sec)
Heartbeat CPU 0 instructions: 217501098 cycles: 541224547 heartbeat IPC: 0.2268 cumulative IPC: 0.3188 (Simulation time: 00 hr 57 min 22 sec)
Heartbeat CPU 0 instructions: 218001099 cycles: 542466345 heartbeat IPC: 0.4026 cumulative IPC: 0.319 (Simulation time: 00 hr 57 min 30 sec)
Heartbeat CPU 0 instructions: 218501099 cycles: 544022225 heartbeat IPC: 0.3214 cumulative IPC: 0.319 (Simulation time: 00 hr 57 min 39 sec)
Heartbeat CPU 0 instructions: 219001099 cycles: 546050244 heartbeat IPC: 0.2465 cumulative IPC: 0.3187 (Simulation time: 00 hr 57 min 51 sec)
Heartbeat CPU 0 instructions: 219501103 cycles: 546985405 heartbeat IPC: 0.5347 cumulative IPC: 0.3191 (Simulation time: 00 hr 57 min 57 sec)
Heartbeat CPU 0 instructions: 220001105 cycles: 547353613 heartbeat IPC: 1.358 cumulative IPC: 0.3198 (Simulation time: 00 hr 58 min 00 sec)
Heartbeat CPU 0 instructions: 220501109 cycles: 547669323 heartbeat IPC: 1.584 cumulative IPC: 0.3206 (Simulation time: 00 hr 58 min 03 sec)
Heartbeat CPU 0 instructions: 221001112 cycles: 547994121 heartbeat IPC: 1.539 cumulative IPC: 0.3213 (Simulation time: 00 hr 58 min 05 sec)
Heartbeat CPU 0 instructions: 221501118 cycles: 548297342 heartbeat IPC: 1.649 cumulative IPC: 0.3221 (Simulation time: 00 hr 58 min 08 sec)
Heartbeat CPU 0 instructions: 222001118 cycles: 549952355 heartbeat IPC: 0.3021 cumulative IPC: 0.322 (Simulation time: 00 hr 58 min 18 sec)
Heartbeat CPU 0 instructions: 222501120 cycles: 550778091 heartbeat IPC: 0.6055 cumulative IPC: 0.3224 (Simulation time: 00 hr 58 min 24 sec)
Heartbeat CPU 0 instructions: 223001125 cycles: 551150797 heartbeat IPC: 1.342 cumulative IPC: 0.3232 (Simulation time: 00 hr 58 min 27 sec)
Heartbeat CPU 0 instructions: 223501130 cycles: 551562562 heartbeat IPC: 1.214 cumulative IPC: 0.3238 (Simulation time: 00 hr 58 min 30 sec)
Heartbeat CPU 0 instructions: 224001130 cycles: 552154851 heartbeat IPC: 0.8442 cumulative IPC: 0.3244 (Simulation time: 00 hr 58 min 35 sec)
Heartbeat CPU 0 instructions: 224501130 cycles: 553544172 heartbeat IPC: 0.3599 cumulative IPC: 0.3245 (Simulation time: 00 hr 58 min 43 sec)
Heartbeat CPU 0 instructions: 225001130 cycles: 554420419 heartbeat IPC: 0.5706 cumulative IPC: 0.3249 (Simulation time: 00 hr 58 min 49 sec)
Heartbeat CPU 0 instructions: 225501130 cycles: 554859453 heartbeat IPC: 1.139 cumulative IPC: 0.3256 (Simulation time: 00 hr 58 min 53 sec)
Heartbeat CPU 0 instructions: 226001130 cycles: 555206615 heartbeat IPC: 1.44 cumulative IPC: 0.3263 (Simulation time: 00 hr 58 min 56 sec)
Heartbeat CPU 0 instructions: 226501130 cycles: 555796701 heartbeat IPC: 0.8473 cumulative IPC: 0.3269 (Simulation time: 00 hr 59 min 00 sec)
Heartbeat CPU 0 instructions: 227001136 cycles: 557098869 heartbeat IPC: 0.384 cumulative IPC: 0.327 (Simulation time: 00 hr 59 min 10 sec)
Heartbeat CPU 0 instructions: 227501139 cycles: 557856996 heartbeat IPC: 0.6595 cumulative IPC: 0.3275 (Simulation time: 00 hr 59 min 15 sec)
Heartbeat CPU 0 instructions: 228001142 cycles: 560806055 heartbeat IPC: 0.1695 cumulative IPC: 0.3266 (Simulation time: 00 hr 59 min 31 sec)
Heartbeat CPU 0 instructions: 228501143 cycles: 561589855 heartbeat IPC: 0.6379 cumulative IPC: 0.3271 (Simulation time: 00 hr 59 min 37 sec)
Heartbeat CPU 0 instructions: 229001144 cycles: 563643345 heartbeat IPC: 0.2435 cumulative IPC: 0.3267 (Simulation time: 00 hr 59 min 48 sec)
Heartbeat CPU 0 instructions: 229501145 cycles: 565022142 heartbeat IPC: 0.3626 cumulative IPC: 0.3268 (Simulation time: 00 hr 59 min 56 sec)
Heartbeat CPU 0 instructions: 230001151 cycles: 567555320 heartbeat IPC: 0.1974 cumulative IPC: 0.3262 (Simulation time: 01 hr 00 min 10 sec)
Heartbeat CPU 0 instructions: 230501155 cycles: 568433838 heartbeat IPC: 0.5691 cumulative IPC: 0.3266 (Simulation time: 01 hr 00 min 16 sec)
Heartbeat CPU 0 instructions: 231001155 cycles: 569177823 heartbeat IPC: 0.6721 cumulative IPC: 0.3271 (Simulation time: 01 hr 00 min 21 sec)
Heartbeat CPU 0 instructions: 231501158 cycles: 569644759 heartbeat IPC: 1.071 cumulative IPC: 0.3277 (Simulation time: 01 hr 00 min 25 sec)
Heartbeat CPU 0 instructions: 232001161 cycles: 570091853 heartbeat IPC: 1.118 cumulative IPC: 0.3284 (Simulation time: 01 hr 00 min 28 sec)
Heartbeat CPU 0 instructions: 232501163 cycles: 572635715 heartbeat IPC: 0.1966 cumulative IPC: 0.3277 (Simulation time: 01 hr 00 min 43 sec)
Heartbeat CPU 0 instructions: 233001164 cycles: 573513210 heartbeat IPC: 0.5698 cumulative IPC: 0.3281 (Simulation time: 01 hr 00 min 49 sec)
Heartbeat CPU 0 instructions: 233501166 cycles: 574389609 heartbeat IPC: 0.5705 cumulative IPC: 0.3285 (Simulation time: 01 hr 00 min 55 sec)
Heartbeat CPU 0 instructions: 234001166 cycles: 575145248 heartbeat IPC: 0.6617 cumulative IPC: 0.329 (Simulation time: 01 hr 01 min 01 sec)
Heartbeat CPU 0 instructions: 234501166 cycles: 575600644 heartbeat IPC: 1.098 cumulative IPC: 0.3296 (Simulation time: 01 hr 01 min 04 sec)
Heartbeat CPU 0 instructions: 235001168 cycles: 576012300 heartbeat IPC: 1.215 cumulative IPC: 0.3302 (Simulation time: 01 hr 01 min 07 sec)
Heartbeat CPU 0 instructions: 235501172 cycles: 576441889 heartbeat IPC: 1.164 cumulative IPC: 0.3309 (Simulation time: 01 hr 01 min 11 sec)
Heartbeat CPU 0 instructions: 236001172 cycles: 576819925 heartbeat IPC: 1.323 cumulative IPC: 0.3315 (Simulation time: 01 hr 01 min 14 sec)
Heartbeat CPU 0 instructions: 236501172 cycles: 577171755 heartbeat IPC: 1.421 cumulative IPC: 0.3322 (Simulation time: 01 hr 01 min 17 sec)
Heartbeat CPU 0 instructions: 237001178 cycles: 578267179 heartbeat IPC: 0.4564 cumulative IPC: 0.3325 (Simulation time: 01 hr 01 min 25 sec)
Heartbeat CPU 0 instructions: 237501181 cycles: 579746178 heartbeat IPC: 0.3381 cumulative IPC: 0.3325 (Simulation time: 01 hr 01 min 34 sec)
Heartbeat CPU 0 instructions: 238001185 cycles: 582188392 heartbeat IPC: 0.2047 cumulative IPC: 0.3319 (Simulation time: 01 hr 01 min 48 sec)
Heartbeat CPU 0 instructions: 238501188 cycles: 582827824 heartbeat IPC: 0.7819 cumulative IPC: 0.3324 (Simulation time: 01 hr 01 min 52 sec)
Heartbeat CPU 0 instructions: 239001189 cycles: 585291174 heartbeat IPC: 0.203 cumulative IPC: 0.3319 (Simulation time: 01 hr 02 min 05 sec)
Heartbeat CPU 0 instructions: 239501195 cycles: 587280400 heartbeat IPC: 0.2514 cumulative IPC: 0.3316 (Simulation time: 01 hr 02 min 16 sec)
Heartbeat CPU 0 instructions: 240001197 cycles: 589553066 heartbeat IPC: 0.22 cumulative IPC: 0.3312 (Simulation time: 01 hr 02 min 29 sec)
Heartbeat CPU 0 instructions: 240501204 cycles: 590842411 heartbeat IPC: 0.3878 cumulative IPC: 0.3313 (Simulation time: 01 hr 02 min 36 sec)
Heartbeat CPU 0 instructions: 241001206 cycles: 592671567 heartbeat IPC: 0.2734 cumulative IPC: 0.3311 (Simulation time: 01 hr 02 min 46 sec)
Heartbeat CPU 0 instructions: 241501210 cycles: 594718016 heartbeat IPC: 0.2443 cumulative IPC: 0.3308 (Simulation time: 01 hr 02 min 58 sec)
Heartbeat CPU 0 instructions: 242001215 cycles: 596767543 heartbeat IPC: 0.244 cumulative IPC: 0.3305 (Simulation time: 01 hr 03 min 09 sec)
Heartbeat CPU 0 instructions: 242501215 cycles: 598803206 heartbeat IPC: 0.2456 cumulative IPC: 0.3302 (Simulation time: 01 hr 03 min 20 sec)
Heartbeat CPU 0 instructions: 243001218 cycles: 599205775 heartbeat IPC: 1.242 cumulative IPC: 0.3308 (Simulation time: 01 hr 03 min 24 sec)
Heartbeat CPU 0 instructions: 243501218 cycles: 600978809 heartbeat IPC: 0.282 cumulative IPC: 0.3307 (Simulation time: 01 hr 03 min 37 sec)
Heartbeat CPU 0 instructions: 244001218 cycles: 602920368 heartbeat IPC: 0.2575 cumulative IPC: 0.3304 (Simulation time: 01 hr 03 min 49 sec)
Heartbeat CPU 0 instructions: 244501220 cycles: 603577568 heartbeat IPC: 0.7608 cumulative IPC: 0.3309 (Simulation time: 01 hr 03 min 54 sec)
Heartbeat CPU 0 instructions: 245001224 cycles: 604376349 heartbeat IPC: 0.626 cumulative IPC: 0.3313 (Simulation time: 01 hr 03 min 59 sec)
Heartbeat CPU 0 instructions: 245501224 cycles: 606972011 heartbeat IPC: 0.1926 cumulative IPC: 0.3307 (Simulation time: 01 hr 04 min 14 sec)
Heartbeat CPU 0 instructions: 246001224 cycles: 609343528 heartbeat IPC: 0.2108 cumulative IPC: 0.3302 (Simulation time: 01 hr 04 min 27 sec)
Heartbeat CPU 0 instructions: 246501225 cycles: 610509839 heartbeat IPC: 0.4287 cumulative IPC: 0.3304 (Simulation time: 01 hr 04 min 34 sec)
Heartbeat CPU 0 instructions: 247001225 cycles: 613456753 heartbeat IPC: 0.1697 cumulative IPC: 0.3296 (Simulation time: 01 hr 04 min 50 sec)
Heartbeat CPU 0 instructions: 247501225 cycles: 614402931 heartbeat IPC: 0.5284 cumulative IPC: 0.3299 (Simulation time: 01 hr 04 min 56 sec)
Heartbeat CPU 0 instructions: 248001226 cycles: 615051211 heartbeat IPC: 0.7713 cumulative IPC: 0.3304 (Simulation time: 01 hr 05 min 02 sec)
Heartbeat CPU 0 instructions: 248501227 cycles: 616477345 heartbeat IPC: 0.3506 cumulative IPC: 0.3305 (Simulation time: 01 hr 05 min 11 sec)
Heartbeat CPU 0 instructions: 249001228 cycles: 616990518 heartbeat IPC: 0.9743 cumulative IPC: 0.331 (Simulation time: 01 hr 05 min 15 sec)
Heartbeat CPU 0 instructions: 249501230 cycles: 617443730 heartbeat IPC: 1.103 cumulative IPC: 0.3316 (Simulation time: 01 hr 05 min 18 sec)
Simulation finished CPU 0 instructions: 200000001 cycles: 602047127 cumulative IPC: 0.3322 (Simulation time: 01 hr 05 min 22 sec)
Simulation complete CPU 0 instructions: 200000001 cycles: 602047127 cumulative IPC: 0.3322 (Simulation time: 01 hr 05 min 22 sec)

ChampSim completed all CPUs

=== Simulation ===
CPU 0 runs /local-ssd/ben/dpc4-traces/gtraces_v2/sierra.a.4_0000.champsim.gz

Region of Interest Statistics

CPU 0 cumulative IPC: 0.3322 instructions: 200000001 cycles: 602047127
CPU 0 Branch Prediction Accuracy: 86.01% MPKI: 21.96 Average ROB Occupancy at Mispredict: 23.24
Branch type MPKI
BRANCH_DIRECT_JUMP: 2.134
BRANCH_INDIRECT: 0.205
BRANCH_CONDITIONAL: 16.38
BRANCH_DIRECT_CALL: 1.747
BRANCH_INDIRECT_CALL: 0.3394
BRANCH_RETURN: 1.159

cpu0->cpu0_STLB TOTAL        ACCESS:    3605865 HIT:    2634665 MISS:     971200 MSHR_MERGE:          0
cpu0->cpu0_STLB LOAD         ACCESS:    3605865 HIT:    2634665 MISS:     971200 MSHR_MERGE:          0
cpu0->cpu0_STLB RFO          ACCESS:          0 HIT:          0 MISS:          0 MSHR_MERGE:          0
cpu0->cpu0_STLB PREFETCH     ACCESS:          0 HIT:          0 MISS:          0 MSHR_MERGE:          0
cpu0->cpu0_STLB WRITE        ACCESS:          0 HIT:          0 MISS:          0 MSHR_MERGE:          0
cpu0->cpu0_STLB TRANSLATION  ACCESS:          0 HIT:          0 MISS:          0 MSHR_MERGE:          0
cpu0->cpu0_STLB PREFETCH REQUESTED:          0 ISSUED:          0 USEFUL:          0 USELESS:          0
cpu0->cpu0_STLB AVERAGE MISS LATENCY: 160.1 cycles
cpu0->cpu0_L2C TOTAL        ACCESS:   29593360 HIT:   20877262 MISS:    8716098 MSHR_MERGE:    1248746
cpu0->cpu0_L2C LOAD         ACCESS:    7633551 HIT:    4789368 MISS:    2844183 MSHR_MERGE:      60709
cpu0->cpu0_L2C RFO          ACCESS:    1814112 HIT:    1005954 MISS:     808158 MSHR_MERGE:       1925
cpu0->cpu0_L2C PREFETCH     ACCESS:   16400015 HIT:   11778880 MISS:    4621135 MSHR_MERGE:    1186112
cpu0->cpu0_L2C WRITE        ACCESS:    2767946 HIT:    2767856 MISS:         90 MSHR_MERGE:          0
cpu0->cpu0_L2C TRANSLATION  ACCESS:     977736 HIT:     535204 MISS:     442532 MSHR_MERGE:          0
cpu0->cpu0_L2C PREFETCH REQUESTED:   14458027 ISSUED:   12824612 USEFUL:     893252 USELESS:    1645130
cpu0->cpu0_L2C AVERAGE MISS LATENCY: 217.5 cycles
cpu0->cpu0_L1I TOTAL        ACCESS:   21378635 HIT:   16133191 MISS:    5245444 MSHR_MERGE:    1164250
cpu0->cpu0_L1I LOAD         ACCESS:   21378635 HIT:   16133191 MISS:    5245444 MSHR_MERGE:    1164250
cpu0->cpu0_L1I RFO          ACCESS:          0 HIT:          0 MISS:          0 MSHR_MERGE:          0
cpu0->cpu0_L1I PREFETCH     ACCESS:          0 HIT:          0 MISS:          0 MSHR_MERGE:          0
cpu0->cpu0_L1I WRITE        ACCESS:          0 HIT:          0 MISS:          0 MSHR_MERGE:          0
cpu0->cpu0_L1I TRANSLATION  ACCESS:          0 HIT:          0 MISS:          0 MSHR_MERGE:          0
cpu0->cpu0_L1I PREFETCH REQUESTED:          0 ISSUED:          0 USEFUL:          0 USELESS:          0
cpu0->cpu0_L1I AVERAGE MISS LATENCY: 111.1 cycles
cpu0->cpu0_L1D TOTAL        ACCESS:   91955068 HIT:   76733863 MISS:   15221205 MSHR_MERGE:    5301393
cpu0->cpu0_L1D LOAD         ACCESS:   35517716 HIT:   31148152 MISS:    4369564 MSHR_MERGE:     817122
cpu0->cpu0_L1D RFO          ACCESS:          0 HIT:          0 MISS:          0 MSHR_MERGE:          0
cpu0->cpu0_L1D PREFETCH     ACCESS:   30336671 HIT:   24956535 MISS:    5380136 MSHR_MERGE:    1804710
cpu0->cpu0_L1D WRITE        ACCESS:   23666236 HIT:   19179362 MISS:    4486874 MSHR_MERGE:    2672666
cpu0->cpu0_L1D TRANSLATION  ACCESS:    2434445 HIT:    1449814 MISS:     984631 MSHR_MERGE:       6895
cpu0->cpu0_L1D PREFETCH REQUESTED:   39771057 ISSUED:   30336663 USEFUL:     557479 USELESS:    3017779
cpu0->cpu0_L1D AVERAGE MISS LATENCY: 83.84 cycles
cpu0->cpu0_ITLB TOTAL        ACCESS:   17218309 HIT:   16591661 MISS:     626648 MSHR_MERGE:     286162
cpu0->cpu0_ITLB LOAD         ACCESS:   17218309 HIT:   16591661 MISS:     626648 MSHR_MERGE:     286162
cpu0->cpu0_ITLB RFO          ACCESS:          0 HIT:          0 MISS:          0 MSHR_MERGE:          0
cpu0->cpu0_ITLB PREFETCH     ACCESS:          0 HIT:          0 MISS:          0 MSHR_MERGE:          0
cpu0->cpu0_ITLB WRITE        ACCESS:          0 HIT:          0 MISS:          0 MSHR_MERGE:          0
cpu0->cpu0_ITLB TRANSLATION  ACCESS:          0 HIT:          0 MISS:          0 MSHR_MERGE:          0
cpu0->cpu0_ITLB PREFETCH REQUESTED:          0 ISSUED:          0 USEFUL:          0 USELESS:          0
cpu0->cpu0_ITLB AVERAGE MISS LATENCY: 42.11 cycles
cpu0->cpu0_DTLB TOTAL        ACCESS:   82300673 HIT:   77430280 MISS:    4870393 MSHR_MERGE:    1605014
cpu0->cpu0_DTLB LOAD         ACCESS:   82300673 HIT:   77430280 MISS:    4870393 MSHR_MERGE:    1605014
cpu0->cpu0_DTLB RFO          ACCESS:          0 HIT:          0 MISS:          0 MSHR_MERGE:          0
cpu0->cpu0_DTLB PREFETCH     ACCESS:          0 HIT:          0 MISS:          0 MSHR_MERGE:          0
cpu0->cpu0_DTLB WRITE        ACCESS:          0 HIT:          0 MISS:          0 MSHR_MERGE:          0
cpu0->cpu0_DTLB TRANSLATION  ACCESS:          0 HIT:          0 MISS:          0 MSHR_MERGE:          0
cpu0->cpu0_DTLB PREFETCH REQUESTED:          0 ISSUED:          0 USEFUL:          0 USELESS:          0
cpu0->cpu0_DTLB AVERAGE MISS LATENCY: 49.07 cycles
cpu0->LLC TOTAL        ACCESS:   11270784 HIT:    1935255 MISS:    9335529 MSHR_MERGE:     761187
cpu0->LLC LOAD         ACCESS:    2783474 HIT:     399445 MISS:    2384029 MSHR_MERGE:      31877
cpu0->LLC RFO          ACCESS:     806233 HIT:      43870 MISS:     762363 MSHR_MERGE:        154
cpu0->LLC PREFETCH     ACCESS:    5993421 HIT:     877400 MISS:    5116021 MSHR_MERGE:     729156
cpu0->LLC WRITE        ACCESS:    1245124 HIT:     577998 MISS:     667126 MSHR_MERGE:          0
cpu0->LLC TRANSLATION  ACCESS:     442532 HIT:      36542 MISS:     405990 MSHR_MERGE:          0
cpu0->LLC PREFETCH REQUESTED:    2584713 ISSUED:    2558398 USEFUL:     381235 USELESS:    1276297
cpu0->LLC AVERAGE MISS LATENCY: 189.9 cycles

DRAM Statistics

Channel 0 RQ ROW_BUFFER_HIT:     673529
  ROW_BUFFER_MISS:    7233580
  AVG DBUS CONGESTED CYCLE: 18.57
Channel 0 WQ ROW_BUFFER_HIT:     287178
  ROW_BUFFER_MISS:     881279
  FULL:          0
Channel 0 REFRESHES ISSUED:      50168
