[VMEM] WARNING: physical memory size is smaller than virtual memory size.

*** ChampSim Multicore Out-of-Order Simulator ***
Warmup Instructions: 50000000
Simulation Instructions: 200000000
Number of CPUs: 1
Page size: 4096
Core 0: /local-ssd/ben/dpc4-traces/gtraces_v2/arizona_0002.champsim.gz
Off-chip DRAM Size: 64 GiB Channels: 1 Width: 64-bit Data Rate: 4807 MT/s
[BTB] WARNING: target of return is a lower address than the corresponding call. This is usually a problem with your trace.
[BTB] WARNING: target of return is a lower address than the corresponding call. This is usually a problem with your trace.
[BTB] WARNING: target of return is a lower address than the corresponding call. This is usually a problem with your trace.
[BTB] WARNING: target of return is a lower address than the corresponding call. This is usually a problem with your trace.
[BTB] WARNING: target of return is a lower address than the corresponding call. This is usually a problem with your trace.
[BTB] WARNING: target of return is a lower address than the corresponding call. This is usually a problem with your trace.
[BTB] WARNING: target of return is a lower address than the corresponding call. This is usually a problem with your trace.
[BTB] WARNING: target of return is a lower address than the corresponding call. This is usually a problem with your trace.
[BTB] WARNING: target of return is a lower address than the corresponding call. This is usually a problem with your trace.
[BTB] WARNING: target of return is a lower address than the corresponding call. This is usually a problem with your trace.
Heartbeat CPU 0 instructions: 500005 cycles: 282672 heartbeat IPC: 1.769 cumulative IPC: 1.769 (Simulation time: 00 hr 00 min 04 sec)
Heartbeat CPU 0 instructions: 1000007 cycles: 538921 heartbeat IPC: 1.951 cumulative IPC: 1.856 (Simulation time: 00 hr 00 min 07 sec)
Heartbeat CPU 0 instructions: 1500007 cycles: 731838 heartbeat IPC: 2.592 cumulative IPC: 2.05 (Simulation time: 00 hr 00 min 09 sec)
Heartbeat CPU 0 instructions: 2000008 cycles: 950410 heartbeat IPC: 2.288 cumulative IPC: 2.104 (Simulation time: 00 hr 00 min 12 sec)
Heartbeat CPU 0 instructions: 2500008 cycles: 1120561 heartbeat IPC: 2.939 cumulative IPC: 2.231 (Simulation time: 00 hr 00 min 15 sec)
Heartbeat CPU 0 instructions: 3000013 cycles: 1305316 heartbeat IPC: 2.706 cumulative IPC: 2.298 (Simulation time: 00 hr 00 min 18 sec)
Heartbeat CPU 0 instructions: 3500013 cycles: 1456630 heartbeat IPC: 3.304 cumulative IPC: 2.403 (Simulation time: 00 hr 00 min 20 sec)
Heartbeat CPU 0 instructions: 4000018 cycles: 1593835 heartbeat IPC: 3.644 cumulative IPC: 2.51 (Simulation time: 00 hr 00 min 22 sec)
Heartbeat CPU 0 instructions: 4500025 cycles: 1757698 heartbeat IPC: 3.051 cumulative IPC: 2.56 (Simulation time: 00 hr 00 min 24 sec)
Heartbeat CPU 0 instructions: 5000026 cycles: 1912139 heartbeat IPC: 3.237 cumulative IPC: 2.615 (Simulation time: 00 hr 00 min 27 sec)
Heartbeat CPU 0 instructions: 5500032 cycles: 2103967 heartbeat IPC: 2.607 cumulative IPC: 2.614 (Simulation time: 00 hr 00 min 30 sec)
Heartbeat CPU 0 instructions: 6000033 cycles: 2274430 heartbeat IPC: 2.933 cumulative IPC: 2.638 (Simulation time: 00 hr 00 min 33 sec)
Heartbeat CPU 0 instructions: 6500040 cycles: 2428447 heartbeat IPC: 3.246 cumulative IPC: 2.677 (Simulation time: 00 hr 00 min 36 sec)
Heartbeat CPU 0 instructions: 7000042 cycles: 2577375 heartbeat IPC: 3.357 cumulative IPC: 2.716 (Simulation time: 00 hr 00 min 38 sec)
Heartbeat CPU 0 instructions: 7500045 cycles: 2723751 heartbeat IPC: 3.416 cumulative IPC: 2.754 (Simulation time: 00 hr 00 min 41 sec)
Heartbeat CPU 0 instructions: 8000046 cycles: 2879615 heartbeat IPC: 3.208 cumulative IPC: 2.778 (Simulation time: 00 hr 00 min 44 sec)
Heartbeat CPU 0 instructions: 8500049 cycles: 3050353 heartbeat IPC: 2.928 cumulative IPC: 2.787 (Simulation time: 00 hr 00 min 46 sec)
Heartbeat CPU 0 instructions: 9000049 cycles: 3166560 heartbeat IPC: 4.303 cumulative IPC: 2.842 (Simulation time: 00 hr 00 min 48 sec)
Heartbeat CPU 0 instructions: 9500052 cycles: 3267590 heartbeat IPC: 4.949 cumulative IPC: 2.907 (Simulation time: 00 hr 00 min 49 sec)
Heartbeat CPU 0 instructions: 10000053 cycles: 3369513 heartbeat IPC: 4.906 cumulative IPC: 2.968 (Simulation time: 00 hr 00 min 50 sec)
Heartbeat CPU 0 instructions: 10500055 cycles: 3471374 heartbeat IPC: 4.909 cumulative IPC: 3.025 (Simulation time: 00 hr 00 min 52 sec)
Heartbeat CPU 0 instructions: 11000057 cycles: 3572606 heartbeat IPC: 4.939 cumulative IPC: 3.079 (Simulation time: 00 hr 00 min 53 sec)
Heartbeat CPU 0 instructions: 11500061 cycles: 3672609 heartbeat IPC: 5 cumulative IPC: 3.131 (Simulation time: 00 hr 00 min 54 sec)
Heartbeat CPU 0 instructions: 12000068 cycles: 3774255 heartbeat IPC: 4.919 cumulative IPC: 3.179 (Simulation time: 00 hr 00 min 56 sec)
Heartbeat CPU 0 instructions: 12500068 cycles: 3875206 heartbeat IPC: 4.953 cumulative IPC: 3.226 (Simulation time: 00 hr 00 min 57 sec)
Heartbeat CPU 0 instructions: 13000075 cycles: 3975958 heartbeat IPC: 4.963 cumulative IPC: 3.27 (Simulation time: 00 hr 00 min 58 sec)
Heartbeat CPU 0 instructions: 13500078 cycles: 4076886 heartbeat IPC: 4.954 cumulative IPC: 3.311 (Simulation time: 00 hr 00 min 59 sec)
Heartbeat CPU 0 instructions: 14000082 cycles: 4177167 heartbeat IPC: 4.986 cumulative IPC: 3.352 (Simulation time: 00 hr 01 min 01 sec)
Heartbeat CPU 0 instructions: 14500087 cycles: 4278161 heartbeat IPC: 4.951 cumulative IPC: 3.389 (Simulation time: 00 hr 01 min 02 sec)
Heartbeat CPU 0 instructions: 15000087 cycles: 4378198 heartbeat IPC: 4.998 cumulative IPC: 3.426 (Simulation time: 00 hr 01 min 03 sec)
Heartbeat CPU 0 instructions: 15500091 cycles: 4479216 heartbeat IPC: 4.95 cumulative IPC: 3.46 (Simulation time: 00 hr 01 min 04 sec)
Heartbeat CPU 0 instructions: 16000096 cycles: 4579408 heartbeat IPC: 4.99 cumulative IPC: 3.494 (Simulation time: 00 hr 01 min 06 sec)
Heartbeat CPU 0 instructions: 16500103 cycles: 4680522 heartbeat IPC: 4.945 cumulative IPC: 3.525 (Simulation time: 00 hr 01 min 07 sec)
Heartbeat CPU 0 instructions: 17000106 cycles: 4780522 heartbeat IPC: 5 cumulative IPC: 3.556 (Simulation time: 00 hr 01 min 08 sec)
Heartbeat CPU 0 instructions: 17500109 cycles: 4881857 heartbeat IPC: 4.934 cumulative IPC: 3.585 (Simulation time: 00 hr 01 min 09 sec)
Heartbeat CPU 0 instructions: 18000115 cycles: 4981860 heartbeat IPC: 5 cumulative IPC: 3.613 (Simulation time: 00 hr 01 min 11 sec)
Heartbeat CPU 0 instructions: 18500118 cycles: 5108631 heartbeat IPC: 3.944 cumulative IPC: 3.621 (Simulation time: 00 hr 01 min 13 sec)
Heartbeat CPU 0 instructions: 19000122 cycles: 5208803 heartbeat IPC: 4.991 cumulative IPC: 3.648 (Simulation time: 00 hr 01 min 14 sec)
Heartbeat CPU 0 instructions: 19500126 cycles: 5310337 heartbeat IPC: 4.924 cumulative IPC: 3.672 (Simulation time: 00 hr 01 min 15 sec)
Heartbeat CPU 0 instructions: 20000127 cycles: 5410541 heartbeat IPC: 4.99 cumulative IPC: 3.697 (Simulation time: 00 hr 01 min 16 sec)
Heartbeat CPU 0 instructions: 20500129 cycles: 5512217 heartbeat IPC: 4.918 cumulative IPC: 3.719 (Simulation time: 00 hr 01 min 18 sec)
Heartbeat CPU 0 instructions: 21000129 cycles: 5613377 heartbeat IPC: 4.943 cumulative IPC: 3.741 (Simulation time: 00 hr 01 min 19 sec)
Heartbeat CPU 0 instructions: 21500134 cycles: 5715059 heartbeat IPC: 4.917 cumulative IPC: 3.762 (Simulation time: 00 hr 01 min 20 sec)
Heartbeat CPU 0 instructions: 22000134 cycles: 5815822 heartbeat IPC: 4.962 cumulative IPC: 3.783 (Simulation time: 00 hr 01 min 21 sec)
Heartbeat CPU 0 instructions: 22500137 cycles: 5917342 heartbeat IPC: 4.925 cumulative IPC: 3.802 (Simulation time: 00 hr 01 min 23 sec)
Heartbeat CPU 0 instructions: 23000137 cycles: 6019096 heartbeat IPC: 4.914 cumulative IPC: 3.821 (Simulation time: 00 hr 01 min 24 sec)
Heartbeat CPU 0 instructions: 23500138 cycles: 6119666 heartbeat IPC: 4.972 cumulative IPC: 3.84 (Simulation time: 00 hr 01 min 25 sec)
Heartbeat CPU 0 instructions: 24000140 cycles: 6222039 heartbeat IPC: 4.884 cumulative IPC: 3.857 (Simulation time: 00 hr 01 min 27 sec)
Heartbeat CPU 0 instructions: 24500144 cycles: 6322648 heartbeat IPC: 4.97 cumulative IPC: 3.875 (Simulation time: 00 hr 01 min 28 sec)
Heartbeat CPU 0 instructions: 25000151 cycles: 6423711 heartbeat IPC: 4.947 cumulative IPC: 3.892 (Simulation time: 00 hr 01 min 29 sec)
Heartbeat CPU 0 instructions: 25500151 cycles: 6524480 heartbeat IPC: 4.962 cumulative IPC: 3.908 (Simulation time: 00 hr 01 min 30 sec)
Heartbeat CPU 0 instructions: 26000152 cycles: 6625815 heartbeat IPC: 4.934 cumulative IPC: 3.924 (Simulation time: 00 hr 01 min 32 sec)
Heartbeat CPU 0 instructions: 26500154 cycles: 6725961 heartbeat IPC: 4.993 cumulative IPC: 3.94 (Simulation time: 00 hr 01 min 33 sec)
Heartbeat CPU 0 instructions: 27000155 cycles: 6826978 heartbeat IPC: 4.95 cumulative IPC: 3.955 (Simulation time: 00 hr 01 min 34 sec)
Heartbeat CPU 0 instructions: 27500156 cycles: 6926978 heartbeat IPC: 5 cumulative IPC: 3.97 (Simulation time: 00 hr 01 min 36 sec)
Heartbeat CPU 0 instructions: 28000160 cycles: 7028101 heartbeat IPC: 4.945 cumulative IPC: 3.984 (Simulation time: 00 hr 01 min 37 sec)
Heartbeat CPU 0 instructions: 28500162 cycles: 7137303 heartbeat IPC: 4.579 cumulative IPC: 3.993 (Simulation time: 00 hr 01 min 38 sec)
Heartbeat CPU 0 instructions: 29000166 cycles: 7252831 heartbeat IPC: 4.328 cumulative IPC: 3.998 (Simulation time: 00 hr 01 min 40 sec)
Heartbeat CPU 0 instructions: 29500166 cycles: 7379723 heartbeat IPC: 3.94 cumulative IPC: 3.997 (Simulation time: 00 hr 01 min 42 sec)
Heartbeat CPU 0 instructions: 30000172 cycles: 7481507 heartbeat IPC: 4.912 cumulative IPC: 4.01 (Simulation time: 00 hr 01 min 44 sec)
Heartbeat CPU 0 instructions: 30500177 cycles: 7581508 heartbeat IPC: 5 cumulative IPC: 4.023 (Simulation time: 00 hr 01 min 45 sec)
Heartbeat CPU 0 instructions: 31000178 cycles: 7682747 heartbeat IPC: 4.939 cumulative IPC: 4.035 (Simulation time: 00 hr 01 min 46 sec)
Heartbeat CPU 0 instructions: 31500180 cycles: 7783667 heartbeat IPC: 4.954 cumulative IPC: 4.047 (Simulation time: 00 hr 01 min 47 sec)
Heartbeat CPU 0 instructions: 32000180 cycles: 7884770 heartbeat IPC: 4.945 cumulative IPC: 4.058 (Simulation time: 00 hr 01 min 49 sec)
Heartbeat CPU 0 instructions: 32500185 cycles: 7985249 heartbeat IPC: 4.976 cumulative IPC: 4.07 (Simulation time: 00 hr 01 min 50 sec)
Heartbeat CPU 0 instructions: 33000189 cycles: 8086244 heartbeat IPC: 4.951 cumulative IPC: 4.081 (Simulation time: 00 hr 01 min 51 sec)
Heartbeat CPU 0 instructions: 33500190 cycles: 8187144 heartbeat IPC: 4.955 cumulative IPC: 4.092 (Simulation time: 00 hr 01 min 52 sec)
Heartbeat CPU 0 instructions: 34000194 cycles: 8287469 heartbeat IPC: 4.984 cumulative IPC: 4.103 (Simulation time: 00 hr 01 min 54 sec)
Heartbeat CPU 0 instructions: 34500194 cycles: 8388092 heartbeat IPC: 4.969 cumulative IPC: 4.113 (Simulation time: 00 hr 01 min 55 sec)
Heartbeat CPU 0 instructions: 35000198 cycles: 8488218 heartbeat IPC: 4.994 cumulative IPC: 4.123 (Simulation time: 00 hr 01 min 56 sec)
Heartbeat CPU 0 instructions: 35500204 cycles: 8589277 heartbeat IPC: 4.948 cumulative IPC: 4.133 (Simulation time: 00 hr 01 min 57 sec)
Heartbeat CPU 0 instructions: 36000209 cycles: 8689445 heartbeat IPC: 4.992 cumulative IPC: 4.143 (Simulation time: 00 hr 01 min 59 sec)
Heartbeat CPU 0 instructions: 36500211 cycles: 8790440 heartbeat IPC: 4.951 cumulative IPC: 4.152 (Simulation time: 00 hr 02 min 00 sec)
Heartbeat CPU 0 instructions: 37000214 cycles: 8890442 heartbeat IPC: 5 cumulative IPC: 4.162 (Simulation time: 00 hr 02 min 01 sec)
Heartbeat CPU 0 instructions: 37500219 cycles: 8991724 heartbeat IPC: 4.937 cumulative IPC: 4.171 (Simulation time: 00 hr 02 min 03 sec)
Heartbeat CPU 0 instructions: 38000223 cycles: 9093184 heartbeat IPC: 4.928 cumulative IPC: 4.179 (Simulation time: 00 hr 02 min 04 sec)
Heartbeat CPU 0 instructions: 38500226 cycles: 9195640 heartbeat IPC: 4.88 cumulative IPC: 4.187 (Simulation time: 00 hr 02 min 05 sec)
Heartbeat CPU 0 instructions: 39000230 cycles: 9295640 heartbeat IPC: 5 cumulative IPC: 4.196 (Simulation time: 00 hr 02 min 06 sec)
Heartbeat CPU 0 instructions: 39500231 cycles: 9415064 heartbeat IPC: 4.187 cumulative IPC: 4.195 (Simulation time: 00 hr 02 min 08 sec)
Heartbeat CPU 0 instructions: 40000234 cycles: 9523295 heartbeat IPC: 4.62 cumulative IPC: 4.2 (Simulation time: 00 hr 02 min 10 sec)
Heartbeat CPU 0 instructions: 40500240 cycles: 9627479 heartbeat IPC: 4.799 cumulative IPC: 4.207 (Simulation time: 00 hr 02 min 11 sec)
Heartbeat CPU 0 instructions: 41000244 cycles: 9731617 heartbeat IPC: 4.801 cumulative IPC: 4.213 (Simulation time: 00 hr 02 min 13 sec)
Heartbeat CPU 0 instructions: 41500244 cycles: 9837138 heartbeat IPC: 4.738 cumulative IPC: 4.219 (Simulation time: 00 hr 02 min 15 sec)
Heartbeat CPU 0 instructions: 42000246 cycles: 9952339 heartbeat IPC: 4.34 cumulative IPC: 4.22 (Simulation time: 00 hr 02 min 16 sec)
Heartbeat CPU 0 instructions: 42500246 cycles: 10055180 heartbeat IPC: 4.862 cumulative IPC: 4.227 (Simulation time: 00 hr 02 min 17 sec)
Heartbeat CPU 0 instructions: 43000246 cycles: 10156019 heartbeat IPC: 4.958 cumulative IPC: 4.234 (Simulation time: 00 hr 02 min 19 sec)
Heartbeat CPU 0 instructions: 43500249 cycles: 10257705 heartbeat IPC: 4.917 cumulative IPC: 4.241 (Simulation time: 00 hr 02 min 20 sec)
Heartbeat CPU 0 instructions: 44000250 cycles: 10358063 heartbeat IPC: 4.982 cumulative IPC: 4.248 (Simulation time: 00 hr 02 min 21 sec)
Heartbeat CPU 0 instructions: 44500254 cycles: 10459427 heartbeat IPC: 4.933 cumulative IPC: 4.255 (Simulation time: 00 hr 02 min 23 sec)
Heartbeat CPU 0 instructions: 45000256 cycles: 10559428 heartbeat IPC: 5 cumulative IPC: 4.262 (Simulation time: 00 hr 02 min 24 sec)
Heartbeat CPU 0 instructions: 45500262 cycles: 10661008 heartbeat IPC: 4.922 cumulative IPC: 4.268 (Simulation time: 00 hr 02 min 25 sec)
Heartbeat CPU 0 instructions: 46000268 cycles: 10761040 heartbeat IPC: 4.998 cumulative IPC: 4.275 (Simulation time: 00 hr 02 min 26 sec)
Heartbeat CPU 0 instructions: 46500269 cycles: 10862457 heartbeat IPC: 4.93 cumulative IPC: 4.281 (Simulation time: 00 hr 02 min 28 sec)
Heartbeat CPU 0 instructions: 47000276 cycles: 10963396 heartbeat IPC: 4.954 cumulative IPC: 4.287 (Simulation time: 00 hr 02 min 29 sec)
Heartbeat CPU 0 instructions: 47500279 cycles: 11064339 heartbeat IPC: 4.953 cumulative IPC: 4.293 (Simulation time: 00 hr 02 min 30 sec)
Heartbeat CPU 0 instructions: 48000281 cycles: 11165221 heartbeat IPC: 4.956 cumulative IPC: 4.299 (Simulation time: 00 hr 02 min 31 sec)
Heartbeat CPU 0 instructions: 48500282 cycles: 11265547 heartbeat IPC: 4.984 cumulative IPC: 4.305 (Simulation time: 00 hr 02 min 33 sec)
Heartbeat CPU 0 instructions: 49000282 cycles: 11366557 heartbeat IPC: 4.95 cumulative IPC: 4.311 (Simulation time: 00 hr 02 min 34 sec)
Heartbeat CPU 0 instructions: 49500284 cycles: 11466722 heartbeat IPC: 4.992 cumulative IPC: 4.317 (Simulation time: 00 hr 02 min 35 sec)
Warmup halting CPU 0 at instruction 50000003 cycle 11567718 for remainder of phase
Warmup finished CPU 0 instructions: 50000003 cycles: 11567718 cumulative IPC: 4.322 (Simulation time: 00 hr 02 min 37 sec)
Warmup complete CPU 0 instructions: 50000003 cycles: 11567718 cumulative IPC: 4.322 (Simulation time: 00 hr 02 min 37 sec)
Heartbeat CPU 0 instructions: 50000287 cycles: 11567786 heartbeat IPC: 4.947 cumulative IPC: 4.176 (Simulation time: 00 hr 02 min 37 sec)
Heartbeat CPU 0 instructions: 50500290 cycles: 11686881 heartbeat IPC: 4.198 cumulative IPC: 4.198 (Simulation time: 00 hr 02 min 38 sec)
Heartbeat CPU 0 instructions: 51000297 cycles: 11817994 heartbeat IPC: 3.814 cumulative IPC: 3.997 (Simulation time: 00 hr 02 min 41 sec)
Heartbeat CPU 0 instructions: 51500298 cycles: 11935164 heartbeat IPC: 4.267 cumulative IPC: 4.083 (Simulation time: 00 hr 02 min 42 sec)
Heartbeat CPU 0 instructions: 52000298 cycles: 13452290 heartbeat IPC: 0.3296 cumulative IPC: 1.061 (Simulation time: 00 hr 02 min 55 sec)
Heartbeat CPU 0 instructions: 52500302 cycles: 14624319 heartbeat IPC: 0.4266 cumulative IPC: 0.818 (Simulation time: 00 hr 03 min 04 sec)
Heartbeat CPU 0 instructions: 53000306 cycles: 14886530 heartbeat IPC: 1.907 cumulative IPC: 0.904 (Simulation time: 00 hr 03 min 07 sec)
Heartbeat CPU 0 instructions: 53500309 cycles: 15140432 heartbeat IPC: 1.969 cumulative IPC: 0.9797 (Simulation time: 00 hr 03 min 10 sec)
Heartbeat CPU 0 instructions: 54000309 cycles: 15388698 heartbeat IPC: 2.014 cumulative IPC: 1.047 (Simulation time: 00 hr 03 min 12 sec)
Heartbeat CPU 0 instructions: 54500315 cycles: 15633031 heartbeat IPC: 2.046 cumulative IPC: 1.107 (Simulation time: 00 hr 03 min 15 sec)
Heartbeat CPU 0 instructions: 55000322 cycles: 15918965 heartbeat IPC: 1.749 cumulative IPC: 1.149 (Simulation time: 00 hr 03 min 18 sec)
Heartbeat CPU 0 instructions: 55500323 cycles: 16164049 heartbeat IPC: 2.04 cumulative IPC: 1.197 (Simulation time: 00 hr 03 min 21 sec)
Heartbeat CPU 0 instructions: 56000329 cycles: 16386690 heartbeat IPC: 2.246 cumulative IPC: 1.245 (Simulation time: 00 hr 03 min 23 sec)
Heartbeat CPU 0 instructions: 56500335 cycles: 16620737 heartbeat IPC: 2.136 cumulative IPC: 1.286 (Simulation time: 00 hr 03 min 26 sec)
Heartbeat CPU 0 instructions: 57000337 cycles: 16852541 heartbeat IPC: 2.157 cumulative IPC: 1.325 (Simulation time: 00 hr 03 min 29 sec)
Heartbeat CPU 0 instructions: 57500340 cycles: 17084863 heartbeat IPC: 2.152 cumulative IPC: 1.359 (Simulation time: 00 hr 03 min 31 sec)
Heartbeat CPU 0 instructions: 58000345 cycles: 17746690 heartbeat IPC: 0.7555 cumulative IPC: 1.295 (Simulation time: 00 hr 03 min 36 sec)
Heartbeat CPU 0 instructions: 58500346 cycles: 18271756 heartbeat IPC: 0.9523 cumulative IPC: 1.268 (Simulation time: 00 hr 03 min 41 sec)
Heartbeat CPU 0 instructions: 59000351 cycles: 18396961 heartbeat IPC: 3.993 cumulative IPC: 1.318 (Simulation time: 00 hr 03 min 43 sec)
Heartbeat CPU 0 instructions: 59500352 cycles: 18532597 heartbeat IPC: 3.686 cumulative IPC: 1.364 (Simulation time: 00 hr 03 min 45 sec)
Heartbeat CPU 0 instructions: 60000353 cycles: 18658030 heartbeat IPC: 3.986 cumulative IPC: 1.41 (Simulation time: 00 hr 03 min 47 sec)
Heartbeat CPU 0 instructions: 60500355 cycles: 18790509 heartbeat IPC: 3.774 cumulative IPC: 1.454 (Simulation time: 00 hr 03 min 49 sec)
Heartbeat CPU 0 instructions: 61000357 cycles: 18909924 heartbeat IPC: 4.187 cumulative IPC: 1.498 (Simulation time: 00 hr 03 min 51 sec)
Heartbeat CPU 0 instructions: 61500362 cycles: 19040991 heartbeat IPC: 3.815 cumulative IPC: 1.539 (Simulation time: 00 hr 03 min 53 sec)
Heartbeat CPU 0 instructions: 62000367 cycles: 19160495 heartbeat IPC: 4.184 cumulative IPC: 1.58 (Simulation time: 00 hr 03 min 55 sec)
Heartbeat CPU 0 instructions: 62500367 cycles: 19300144 heartbeat IPC: 3.58 cumulative IPC: 1.617 (Simulation time: 00 hr 03 min 57 sec)
Heartbeat CPU 0 instructions: 63000367 cycles: 19434723 heartbeat IPC: 3.715 cumulative IPC: 1.653 (Simulation time: 00 hr 03 min 59 sec)
Heartbeat CPU 0 instructions: 63500372 cycles: 19587005 heartbeat IPC: 3.283 cumulative IPC: 1.683 (Simulation time: 00 hr 04 min 02 sec)
Heartbeat CPU 0 instructions: 64000372 cycles: 19742726 heartbeat IPC: 3.211 cumulative IPC: 1.713 (Simulation time: 00 hr 04 min 04 sec)
Heartbeat CPU 0 instructions: 64500373 cycles: 19866879 heartbeat IPC: 4.027 cumulative IPC: 1.747 (Simulation time: 00 hr 04 min 06 sec)
Heartbeat CPU 0 instructions: 65000374 cycles: 19997962 heartbeat IPC: 3.814 cumulative IPC: 1.779 (Simulation time: 00 hr 04 min 08 sec)
Heartbeat CPU 0 instructions: 65500376 cycles: 20120319 heartbeat IPC: 4.086 cumulative IPC: 1.812 (Simulation time: 00 hr 04 min 10 sec)
Heartbeat CPU 0 instructions: 66000378 cycles: 20251655 heartbeat IPC: 3.807 cumulative IPC: 1.843 (Simulation time: 00 hr 04 min 12 sec)
Heartbeat CPU 0 instructions: 66500379 cycles: 20371474 heartbeat IPC: 4.173 cumulative IPC: 1.874 (Simulation time: 00 hr 04 min 14 sec)
Heartbeat CPU 0 instructions: 67000380 cycles: 20499992 heartbeat IPC: 3.891 cumulative IPC: 1.903 (Simulation time: 00 hr 04 min 16 sec)
Heartbeat CPU 0 instructions: 67500380 cycles: 20620936 heartbeat IPC: 4.134 cumulative IPC: 1.933 (Simulation time: 00 hr 04 min 18 sec)
Heartbeat CPU 0 instructions: 68000380 cycles: 20750474 heartbeat IPC: 3.86 cumulative IPC: 1.96 (Simulation time: 00 hr 04 min 20 sec)
Heartbeat CPU 0 instructions: 68500383 cycles: 21391371 heartbeat IPC: 0.7802 cumulative IPC: 1.883 (Simulation time: 00 hr 04 min 26 sec)
Heartbeat CPU 0 instructions: 69000383 cycles: 21548091 heartbeat IPC: 3.19 cumulative IPC: 1.904 (Simulation time: 00 hr 04 min 28 sec)
Heartbeat CPU 0 instructions: 69500384 cycles: 21670785 heartbeat IPC: 4.075 cumulative IPC: 1.93 (Simulation time: 00 hr 04 min 30 sec)
Heartbeat CPU 0 instructions: 70000386 cycles: 21800367 heartbeat IPC: 3.859 cumulative IPC: 1.955 (Simulation time: 00 hr 04 min 32 sec)
Heartbeat CPU 0 instructions: 70500389 cycles: 21927099 heartbeat IPC: 3.945 cumulative IPC: 1.979 (Simulation time: 00 hr 04 min 34 sec)
Heartbeat CPU 0 instructions: 71000390 cycles: 22062103 heartbeat IPC: 3.704 cumulative IPC: 2.001 (Simulation time: 00 hr 04 min 36 sec)
Heartbeat CPU 0 instructions: 71500392 cycles: 22187304 heartbeat IPC: 3.994 cumulative IPC: 2.025 (Simulation time: 00 hr 04 min 38 sec)
Heartbeat CPU 0 instructions: 72000394 cycles: 22332483 heartbeat IPC: 3.444 cumulative IPC: 2.044 (Simulation time: 00 hr 04 min 40 sec)
Heartbeat CPU 0 instructions: 72500398 cycles: 22450520 heartbeat IPC: 4.236 cumulative IPC: 2.068 (Simulation time: 00 hr 04 min 42 sec)
Heartbeat CPU 0 instructions: 73000399 cycles: 22587848 heartbeat IPC: 3.641 cumulative IPC: 2.087 (Simulation time: 00 hr 04 min 45 sec)
Heartbeat CPU 0 instructions: 73500401 cycles: 22712071 heartbeat IPC: 4.025 cumulative IPC: 2.109 (Simulation time: 00 hr 04 min 47 sec)
Heartbeat CPU 0 instructions: 74000402 cycles: 22838291 heartbeat IPC: 3.961 cumulative IPC: 2.129 (Simulation time: 00 hr 04 min 49 sec)
Heartbeat CPU 0 instructions: 74500405 cycles: 22965412 heartbeat IPC: 3.933 cumulative IPC: 2.15 (Simulation time: 00 hr 04 min 51 sec)
Heartbeat CPU 0 instructions: 75000405 cycles: 23086664 heartbeat IPC: 4.124 cumulative IPC: 2.17 (Simulation time: 00 hr 04 min 53 sec)
Heartbeat CPU 0 instructions: 75500406 cycles: 23215640 heartbeat IPC: 3.877 cumulative IPC: 2.189 (Simulation time: 00 hr 04 min 55 sec)
Heartbeat CPU 0 instructions: 76000409 cycles: 23335535 heartbeat IPC: 4.17 cumulative IPC: 2.209 (Simulation time: 00 hr 04 min 57 sec)
Heartbeat CPU 0 instructions: 76500411 cycles: 23463876 heartbeat IPC: 3.896 cumulative IPC: 2.228 (Simulation time: 00 hr 04 min 59 sec)
Heartbeat CPU 0 instructions: 77000418 cycles: 23582675 heartbeat IPC: 4.209 cumulative IPC: 2.247 (Simulation time: 00 hr 05 min 01 sec)
Heartbeat CPU 0 instructions: 77500418 cycles: 23711035 heartbeat IPC: 3.895 cumulative IPC: 2.265 (Simulation time: 00 hr 05 min 03 sec)
Heartbeat CPU 0 instructions: 78000420 cycles: 23830023 heartbeat IPC: 4.202 cumulative IPC: 2.283 (Simulation time: 00 hr 05 min 05 sec)
Heartbeat CPU 0 instructions: 78500420 cycles: 24369372 heartbeat IPC: 0.927 cumulative IPC: 2.226 (Simulation time: 00 hr 05 min 09 sec)
Heartbeat CPU 0 instructions: 79000420 cycles: 25249072 heartbeat IPC: 0.5684 cumulative IPC: 2.12 (Simulation time: 00 hr 05 min 16 sec)
Heartbeat CPU 0 instructions: 79500420 cycles: 25763009 heartbeat IPC: 0.9729 cumulative IPC: 2.078 (Simulation time: 00 hr 05 min 21 sec)
Heartbeat CPU 0 instructions: 80000422 cycles: 26186955 heartbeat IPC: 1.179 cumulative IPC: 2.052 (Simulation time: 00 hr 05 min 25 sec)
Heartbeat CPU 0 instructions: 80500426 cycles: 26347329 heartbeat IPC: 3.118 cumulative IPC: 2.064 (Simulation time: 00 hr 05 min 27 sec)
Heartbeat CPU 0 instructions: 81000428 cycles: 26470206 heartbeat IPC: 4.069 cumulative IPC: 2.08 (Simulation time: 00 hr 05 min 29 sec)
Heartbeat CPU 0 instructions: 81500428 cycles: 26603466 heartbeat IPC: 3.752 cumulative IPC: 2.095 (Simulation time: 00 hr 05 min 31 sec)
Heartbeat CPU 0 instructions: 82000430 cycles: 26730981 heartbeat IPC: 3.921 cumulative IPC: 2.11 (Simulation time: 00 hr 05 min 33 sec)
Heartbeat CPU 0 instructions: 82500434 cycles: 26862693 heartbeat IPC: 3.796 cumulative IPC: 2.125 (Simulation time: 00 hr 05 min 35 sec)
Heartbeat CPU 0 instructions: 83000438 cycles: 26981358 heartbeat IPC: 4.214 cumulative IPC: 2.141 (Simulation time: 00 hr 05 min 37 sec)
Heartbeat CPU 0 instructions: 83500439 cycles: 27112156 heartbeat IPC: 3.823 cumulative IPC: 2.155 (Simulation time: 00 hr 05 min 39 sec)
Heartbeat CPU 0 instructions: 84000440 cycles: 27230472 heartbeat IPC: 4.226 cumulative IPC: 2.171 (Simulation time: 00 hr 05 min 41 sec)
Heartbeat CPU 0 instructions: 84500441 cycles: 27360119 heartbeat IPC: 3.857 cumulative IPC: 2.185 (Simulation time: 00 hr 05 min 43 sec)
Heartbeat CPU 0 instructions: 85000442 cycles: 27487215 heartbeat IPC: 3.934 cumulative IPC: 2.199 (Simulation time: 00 hr 05 min 45 sec)
Heartbeat CPU 0 instructions: 85500442 cycles: 27612647 heartbeat IPC: 3.986 cumulative IPC: 2.213 (Simulation time: 00 hr 05 min 47 sec)
Heartbeat CPU 0 instructions: 86000443 cycles: 27740595 heartbeat IPC: 3.908 cumulative IPC: 2.226 (Simulation time: 00 hr 05 min 49 sec)
Heartbeat CPU 0 instructions: 86500446 cycles: 27860220 heartbeat IPC: 4.18 cumulative IPC: 2.24 (Simulation time: 00 hr 05 min 51 sec)
Heartbeat CPU 0 instructions: 87000447 cycles: 27989298 heartbeat IPC: 3.874 cumulative IPC: 2.253 (Simulation time: 00 hr 05 min 53 sec)
Heartbeat CPU 0 instructions: 87500450 cycles: 28108392 heartbeat IPC: 4.198 cumulative IPC: 2.267 (Simulation time: 00 hr 05 min 55 sec)
Heartbeat CPU 0 instructions: 88000451 cycles: 28236782 heartbeat IPC: 3.894 cumulative IPC: 2.28 (Simulation time: 00 hr 05 min 57 sec)
Heartbeat CPU 0 instructions: 88500458 cycles: 28360646 heartbeat IPC: 4.037 cumulative IPC: 2.293 (Simulation time: 00 hr 05 min 59 sec)
Heartbeat CPU 0 instructions: 89000460 cycles: 28508172 heartbeat IPC: 3.389 cumulative IPC: 2.302 (Simulation time: 00 hr 06 min 01 sec)
Heartbeat CPU 0 instructions: 89500460 cycles: 28626988 heartbeat IPC: 4.208 cumulative IPC: 2.315 (Simulation time: 00 hr 06 min 03 sec)
Heartbeat CPU 0 instructions: 90000464 cycles: 29855073 heartbeat IPC: 0.4071 cumulative IPC: 2.187 (Simulation time: 00 hr 06 min 13 sec)
Heartbeat CPU 0 instructions: 90500464 cycles: 30361578 heartbeat IPC: 0.9872 cumulative IPC: 2.155 (Simulation time: 00 hr 06 min 18 sec)
Heartbeat CPU 0 instructions: 91000464 cycles: 30485148 heartbeat IPC: 4.046 cumulative IPC: 2.167 (Simulation time: 00 hr 06 min 20 sec)
Heartbeat CPU 0 instructions: 91500466 cycles: 30620882 heartbeat IPC: 3.684 cumulative IPC: 2.178 (Simulation time: 00 hr 06 min 22 sec)
Heartbeat CPU 0 instructions: 92000468 cycles: 30742921 heartbeat IPC: 4.097 cumulative IPC: 2.19 (Simulation time: 00 hr 06 min 24 sec)
Heartbeat CPU 0 instructions: 92500471 cycles: 30883406 heartbeat IPC: 3.559 cumulative IPC: 2.2 (Simulation time: 00 hr 06 min 26 sec)
Heartbeat CPU 0 instructions: 93000476 cycles: 31006312 heartbeat IPC: 4.068 cumulative IPC: 2.212 (Simulation time: 00 hr 06 min 28 sec)
Heartbeat CPU 0 instructions: 93500478 cycles: 31154491 heartbeat IPC: 3.374 cumulative IPC: 2.221 (Simulation time: 00 hr 06 min 31 sec)
Heartbeat CPU 0 instructions: 94000478 cycles: 31300478 heartbeat IPC: 3.425 cumulative IPC: 2.23 (Simulation time: 00 hr 06 min 33 sec)
Heartbeat CPU 0 instructions: 94500483 cycles: 31426645 heartbeat IPC: 3.963 cumulative IPC: 2.241 (Simulation time: 00 hr 06 min 35 sec)
Heartbeat CPU 0 instructions: 95000483 cycles: 31556242 heartbeat IPC: 3.858 cumulative IPC: 2.251 (Simulation time: 00 hr 06 min 37 sec)
Heartbeat CPU 0 instructions: 95500484 cycles: 31685403 heartbeat IPC: 3.871 cumulative IPC: 2.262 (Simulation time: 00 hr 06 min 39 sec)
Heartbeat CPU 0 instructions: 96000486 cycles: 31836246 heartbeat IPC: 3.315 cumulative IPC: 2.27 (Simulation time: 00 hr 06 min 41 sec)
Heartbeat CPU 0 instructions: 96500488 cycles: 31970760 heartbeat IPC: 3.717 cumulative IPC: 2.279 (Simulation time: 00 hr 06 min 43 sec)
Heartbeat CPU 0 instructions: 97000488 cycles: 32100649 heartbeat IPC: 3.849 cumulative IPC: 2.289 (Simulation time: 00 hr 06 min 45 sec)
Heartbeat CPU 0 instructions: 97500489 cycles: 32224466 heartbeat IPC: 4.038 cumulative IPC: 2.3 (Simulation time: 00 hr 06 min 47 sec)
Heartbeat CPU 0 instructions: 98000490 cycles: 32356324 heartbeat IPC: 3.792 cumulative IPC: 2.309 (Simulation time: 00 hr 06 min 49 sec)
Heartbeat CPU 0 instructions: 98500496 cycles: 32473764 heartbeat IPC: 4.258 cumulative IPC: 2.32 (Simulation time: 00 hr 06 min 51 sec)
Heartbeat CPU 0 instructions: 99000496 cycles: 32607655 heartbeat IPC: 3.734 cumulative IPC: 2.329 (Simulation time: 00 hr 06 min 53 sec)
Heartbeat CPU 0 instructions: 99500500 cycles: 32724942 heartbeat IPC: 4.263 cumulative IPC: 2.34 (Simulation time: 00 hr 06 min 55 sec)
Heartbeat CPU 0 instructions: 100000500 cycles: 32886188 heartbeat IPC: 3.101 cumulative IPC: 2.345 (Simulation time: 00 hr 06 min 58 sec)
Heartbeat CPU 0 instructions: 100500505 cycles: 33579026 heartbeat IPC: 0.7217 cumulative IPC: 2.294 (Simulation time: 00 hr 07 min 04 sec)
Heartbeat CPU 0 instructions: 101000510 cycles: 33743486 heartbeat IPC: 3.04 cumulative IPC: 2.3 (Simulation time: 00 hr 07 min 06 sec)
Heartbeat CPU 0 instructions: 101500510 cycles: 33871122 heartbeat IPC: 3.917 cumulative IPC: 2.309 (Simulation time: 00 hr 07 min 08 sec)
Heartbeat CPU 0 instructions: 102000514 cycles: 34000464 heartbeat IPC: 3.866 cumulative IPC: 2.318 (Simulation time: 00 hr 07 min 10 sec)
Heartbeat CPU 0 instructions: 102500515 cycles: 34123562 heartbeat IPC: 4.062 cumulative IPC: 2.328 (Simulation time: 00 hr 07 min 12 sec)
Heartbeat CPU 0 instructions: 103000518 cycles: 34252500 heartbeat IPC: 3.878 cumulative IPC: 2.336 (Simulation time: 00 hr 07 min 14 sec)
Heartbeat CPU 0 instructions: 103500521 cycles: 34374029 heartbeat IPC: 4.114 cumulative IPC: 2.346 (Simulation time: 00 hr 07 min 16 sec)
Heartbeat CPU 0 instructions: 104000524 cycles: 34504590 heartbeat IPC: 3.83 cumulative IPC: 2.354 (Simulation time: 00 hr 07 min 18 sec)
Heartbeat CPU 0 instructions: 104500525 cycles: 34622523 heartbeat IPC: 4.24 cumulative IPC: 2.364 (Simulation time: 00 hr 07 min 20 sec)
Heartbeat CPU 0 instructions: 105000527 cycles: 34752841 heartbeat IPC: 3.837 cumulative IPC: 2.372 (Simulation time: 00 hr 07 min 22 sec)
Heartbeat CPU 0 instructions: 105500530 cycles: 34870631 heartbeat IPC: 4.245 cumulative IPC: 2.382 (Simulation time: 00 hr 07 min 24 sec)
Heartbeat CPU 0 instructions: 106000533 cycles: 35015437 heartbeat IPC: 3.453 cumulative IPC: 2.388 (Simulation time: 00 hr 07 min 26 sec)
Heartbeat CPU 0 instructions: 106500536 cycles: 35155122 heartbeat IPC: 3.58 cumulative IPC: 2.395 (Simulation time: 00 hr 07 min 28 sec)
Heartbeat CPU 0 instructions: 107000536 cycles: 35303825 heartbeat IPC: 3.362 cumulative IPC: 2.401 (Simulation time: 00 hr 07 min 31 sec)
Heartbeat CPU 0 instructions: 107500539 cycles: 35451195 heartbeat IPC: 3.393 cumulative IPC: 2.408 (Simulation time: 00 hr 07 min 33 sec)
Heartbeat CPU 0 instructions: 108000539 cycles: 35594082 heartbeat IPC: 3.499 cumulative IPC: 2.414 (Simulation time: 00 hr 07 min 35 sec)
Heartbeat CPU 0 instructions: 108500545 cycles: 35732260 heartbeat IPC: 3.619 cumulative IPC: 2.421 (Simulation time: 00 hr 07 min 37 sec)
Heartbeat CPU 0 instructions: 109000545 cycles: 35852419 heartbeat IPC: 4.161 cumulative IPC: 2.43 (Simulation time: 00 hr 07 min 39 sec)
Heartbeat CPU 0 instructions: 109500545 cycles: 35983920 heartbeat IPC: 3.802 cumulative IPC: 2.437 (Simulation time: 00 hr 07 min 41 sec)
Heartbeat CPU 0 instructions: 110000545 cycles: 36102546 heartbeat IPC: 4.215 cumulative IPC: 2.446 (Simulation time: 00 hr 07 min 43 sec)
Heartbeat CPU 0 instructions: 110500548 cycles: 36381575 heartbeat IPC: 1.792 cumulative IPC: 2.438 (Simulation time: 00 hr 07 min 46 sec)
Heartbeat CPU 0 instructions: 111000553 cycles: 38588681 heartbeat IPC: 0.2265 cumulative IPC: 2.258 (Simulation time: 00 hr 08 min 04 sec)
Heartbeat CPU 0 instructions: 111500553 cycles: 39019979 heartbeat IPC: 1.159 cumulative IPC: 2.24 (Simulation time: 00 hr 08 min 08 sec)
Heartbeat CPU 0 instructions: 112000555 cycles: 39735863 heartbeat IPC: 0.6984 cumulative IPC: 2.201 (Simulation time: 00 hr 08 min 14 sec)
Heartbeat CPU 0 instructions: 112500559 cycles: 41424443 heartbeat IPC: 0.2961 cumulative IPC: 2.093 (Simulation time: 00 hr 08 min 25 sec)
Heartbeat CPU 0 instructions: 113000560 cycles: 42312770 heartbeat IPC: 0.5629 cumulative IPC: 2.049 (Simulation time: 00 hr 08 min 32 sec)
Heartbeat CPU 0 instructions: 113500560 cycles: 43904317 heartbeat IPC: 0.3142 cumulative IPC: 1.964 (Simulation time: 00 hr 08 min 44 sec)
Heartbeat CPU 0 instructions: 114000560 cycles: 44623444 heartbeat IPC: 0.6953 cumulative IPC: 1.936 (Simulation time: 00 hr 08 min 49 sec)
Heartbeat CPU 0 instructions: 114500560 cycles: 44921556 heartbeat IPC: 1.677 cumulative IPC: 1.934 (Simulation time: 00 hr 08 min 52 sec)
Heartbeat CPU 0 instructions: 115000565 cycles: 45179962 heartbeat IPC: 1.935 cumulative IPC: 1.934 (Simulation time: 00 hr 08 min 55 sec)
Heartbeat CPU 0 instructions: 115500570 cycles: 45449618 heartbeat IPC: 1.854 cumulative IPC: 1.933 (Simulation time: 00 hr 08 min 58 sec)
Heartbeat CPU 0 instructions: 116000570 cycles: 45705651 heartbeat IPC: 1.953 cumulative IPC: 1.933 (Simulation time: 00 hr 09 min 00 sec)
Heartbeat CPU 0 instructions: 116500573 cycles: 46347890 heartbeat IPC: 0.7785 cumulative IPC: 1.912 (Simulation time: 00 hr 09 min 06 sec)
Heartbeat CPU 0 instructions: 117000574 cycles: 46692939 heartbeat IPC: 1.449 cumulative IPC: 1.907 (Simulation time: 00 hr 09 min 09 sec)
Heartbeat CPU 0 instructions: 117500578 cycles: 46936493 heartbeat IPC: 2.053 cumulative IPC: 1.908 (Simulation time: 00 hr 09 min 12 sec)
Heartbeat CPU 0 instructions: 118000579 cycles: 47172425 heartbeat IPC: 2.119 cumulative IPC: 1.91 (Simulation time: 00 hr 09 min 14 sec)
Heartbeat CPU 0 instructions: 118500582 cycles: 47402993 heartbeat IPC: 2.169 cumulative IPC: 1.912 (Simulation time: 00 hr 09 min 17 sec)
Heartbeat CPU 0 instructions: 119000587 cycles: 47667671 heartbeat IPC: 1.889 cumulative IPC: 1.911 (Simulation time: 00 hr 09 min 20 sec)
Heartbeat CPU 0 instructions: 119500588 cycles: 47908035 heartbeat IPC: 2.08 cumulative IPC: 1.912 (Simulation time: 00 hr 09 min 22 sec)
Heartbeat CPU 0 instructions: 120000595 cycles: 48136374 heartbeat IPC: 2.19 cumulative IPC: 1.914 (Simulation time: 00 hr 09 min 25 sec)
Heartbeat CPU 0 instructions: 120500598 cycles: 48377933 heartbeat IPC: 2.07 cumulative IPC: 1.915 (Simulation time: 00 hr 09 min 28 sec)
Heartbeat CPU 0 instructions: 121000601 cycles: 48600047 heartbeat IPC: 2.251 cumulative IPC: 1.917 (Simulation time: 00 hr 09 min 30 sec)
Heartbeat CPU 0 instructions: 121500604 cycles: 49304443 heartbeat IPC: 0.7098 cumulative IPC: 1.895 (Simulation time: 00 hr 09 min 35 sec)
Heartbeat CPU 0 instructions: 122000606 cycles: 50039133 heartbeat IPC: 0.6806 cumulative IPC: 1.872 (Simulation time: 00 hr 09 min 41 sec)
Heartbeat CPU 0 instructions: 122500608 cycles: 50738914 heartbeat IPC: 0.7145 cumulative IPC: 1.851 (Simulation time: 00 hr 09 min 46 sec)
Heartbeat CPU 0 instructions: 123000608 cycles: 51504698 heartbeat IPC: 0.6529 cumulative IPC: 1.828 (Simulation time: 00 hr 09 min 53 sec)
Heartbeat CPU 0 instructions: 123500612 cycles: 53337004 heartbeat IPC: 0.2729 cumulative IPC: 1.76 (Simulation time: 00 hr 10 min 05 sec)
Heartbeat CPU 0 instructions: 124000612 cycles: 54391946 heartbeat IPC: 0.474 cumulative IPC: 1.728 (Simulation time: 00 hr 10 min 12 sec)
Heartbeat CPU 0 instructions: 124500612 cycles: 55929772 heartbeat IPC: 0.3251 cumulative IPC: 1.679 (Simulation time: 00 hr 10 min 22 sec)
Heartbeat CPU 0 instructions: 125000617 cycles: 56490783 heartbeat IPC: 0.8913 cumulative IPC: 1.67 (Simulation time: 00 hr 10 min 27 sec)
Heartbeat CPU 0 instructions: 125500624 cycles: 57530550 heartbeat IPC: 0.4809 cumulative IPC: 1.643 (Simulation time: 00 hr 10 min 35 sec)
Heartbeat CPU 0 instructions: 126000625 cycles: 58258701 heartbeat IPC: 0.6867 cumulative IPC: 1.628 (Simulation time: 00 hr 10 min 41 sec)
Heartbeat CPU 0 instructions: 126500625 cycles: 58382900 heartbeat IPC: 4.026 cumulative IPC: 1.634 (Simulation time: 00 hr 10 min 43 sec)
Heartbeat CPU 0 instructions: 127000629 cycles: 58534532 heartbeat IPC: 3.297 cumulative IPC: 1.639 (Simulation time: 00 hr 10 min 45 sec)
Heartbeat CPU 0 instructions: 127500631 cycles: 58656993 heartbeat IPC: 4.083 cumulative IPC: 1.646 (Simulation time: 00 hr 10 min 47 sec)
Heartbeat CPU 0 instructions: 128000631 cycles: 58794666 heartbeat IPC: 3.632 cumulative IPC: 1.652 (Simulation time: 00 hr 10 min 49 sec)
Heartbeat CPU 0 instructions: 128500632 cycles: 58914328 heartbeat IPC: 4.178 cumulative IPC: 1.658 (Simulation time: 00 hr 10 min 51 sec)
Heartbeat CPU 0 instructions: 129000636 cycles: 59046231 heartbeat IPC: 3.791 cumulative IPC: 1.664 (Simulation time: 00 hr 10 min 53 sec)
Heartbeat CPU 0 instructions: 129500636 cycles: 59182830 heartbeat IPC: 3.66 cumulative IPC: 1.67 (Simulation time: 00 hr 10 min 55 sec)
Heartbeat CPU 0 instructions: 130000636 cycles: 59305137 heartbeat IPC: 4.088 cumulative IPC: 1.676 (Simulation time: 00 hr 10 min 57 sec)
Heartbeat CPU 0 instructions: 130500637 cycles: 59433722 heartbeat IPC: 3.888 cumulative IPC: 1.682 (Simulation time: 00 hr 10 min 59 sec)
Heartbeat CPU 0 instructions: 131000640 cycles: 59557597 heartbeat IPC: 4.036 cumulative IPC: 1.688 (Simulation time: 00 hr 11 min 01 sec)
Heartbeat CPU 0 instructions: 131500642 cycles: 59687037 heartbeat IPC: 3.863 cumulative IPC: 1.694 (Simulation time: 00 hr 11 min 03 sec)
Heartbeat CPU 0 instructions: 132000646 cycles: 59808420 heartbeat IPC: 4.119 cumulative IPC: 1.7 (Simulation time: 00 hr 11 min 05 sec)
Heartbeat CPU 0 instructions: 132500646 cycles: 59938439 heartbeat IPC: 3.846 cumulative IPC: 1.706 (Simulation time: 00 hr 11 min 07 sec)
Heartbeat CPU 0 instructions: 133000648 cycles: 60057960 heartbeat IPC: 4.183 cumulative IPC: 1.712 (Simulation time: 00 hr 11 min 09 sec)
Heartbeat CPU 0 instructions: 133500648 cycles: 60191285 heartbeat IPC: 3.75 cumulative IPC: 1.717 (Simulation time: 00 hr 11 min 11 sec)
Heartbeat CPU 0 instructions: 134000648 cycles: 60309023 heartbeat IPC: 4.247 cumulative IPC: 1.723 (Simulation time: 00 hr 11 min 13 sec)
Heartbeat CPU 0 instructions: 134500648 cycles: 61037261 heartbeat IPC: 0.6866 cumulative IPC: 1.708 (Simulation time: 00 hr 11 min 19 sec)
Heartbeat CPU 0 instructions: 135000650 cycles: 61823329 heartbeat IPC: 0.6361 cumulative IPC: 1.691 (Simulation time: 00 hr 11 min 26 sec)
Heartbeat CPU 0 instructions: 135500652 cycles: 62033848 heartbeat IPC: 2.375 cumulative IPC: 1.694 (Simulation time: 00 hr 11 min 28 sec)
Heartbeat CPU 0 instructions: 136000653 cycles: 62167879 heartbeat IPC: 3.73 cumulative IPC: 1.7 (Simulation time: 00 hr 11 min 30 sec)
Heartbeat CPU 0 instructions: 136500654 cycles: 62290361 heartbeat IPC: 4.082 cumulative IPC: 1.705 (Simulation time: 00 hr 11 min 32 sec)
Heartbeat CPU 0 instructions: 137000655 cycles: 62420851 heartbeat IPC: 3.832 cumulative IPC: 1.711 (Simulation time: 00 hr 11 min 34 sec)
Heartbeat CPU 0 instructions: 137500655 cycles: 62542690 heartbeat IPC: 4.104 cumulative IPC: 1.717 (Simulation time: 00 hr 11 min 36 sec)
Heartbeat CPU 0 instructions: 138000656 cycles: 62674084 heartbeat IPC: 3.805 cumulative IPC: 1.722 (Simulation time: 00 hr 11 min 38 sec)
Heartbeat CPU 0 instructions: 138500656 cycles: 62795102 heartbeat IPC: 4.132 cumulative IPC: 1.728 (Simulation time: 00 hr 11 min 40 sec)
Heartbeat CPU 0 instructions: 139000657 cycles: 62924696 heartbeat IPC: 3.858 cumulative IPC: 1.733 (Simulation time: 00 hr 11 min 42 sec)
Heartbeat CPU 0 instructions: 139500659 cycles: 63046296 heartbeat IPC: 4.112 cumulative IPC: 1.739 (Simulation time: 00 hr 11 min 44 sec)
Heartbeat CPU 0 instructions: 140000662 cycles: 63179060 heartbeat IPC: 3.766 cumulative IPC: 1.744 (Simulation time: 00 hr 11 min 46 sec)
Heartbeat CPU 0 instructions: 140500663 cycles: 63317773 heartbeat IPC: 3.605 cumulative IPC: 1.749 (Simulation time: 00 hr 11 min 48 sec)
Heartbeat CPU 0 instructions: 141000669 cycles: 63456080 heartbeat IPC: 3.615 cumulative IPC: 1.754 (Simulation time: 00 hr 11 min 50 sec)
Heartbeat CPU 0 instructions: 141500671 cycles: 63583472 heartbeat IPC: 3.925 cumulative IPC: 1.759 (Simulation time: 00 hr 11 min 52 sec)
Heartbeat CPU 0 instructions: 142000672 cycles: 63737856 heartbeat IPC: 3.239 cumulative IPC: 1.763 (Simulation time: 00 hr 11 min 54 sec)
Heartbeat CPU 0 instructions: 142500678 cycles: 63857881 heartbeat IPC: 4.166 cumulative IPC: 1.769 (Simulation time: 00 hr 11 min 56 sec)
Heartbeat CPU 0 instructions: 143000684 cycles: 63991598 heartbeat IPC: 3.739 cumulative IPC: 1.774 (Simulation time: 00 hr 11 min 59 sec)
Heartbeat CPU 0 instructions: 143500685 cycles: 64122567 heartbeat IPC: 3.818 cumulative IPC: 1.779 (Simulation time: 00 hr 12 min 01 sec)
Heartbeat CPU 0 instructions: 144000686 cycles: 64243067 heartbeat IPC: 4.149 cumulative IPC: 1.785 (Simulation time: 00 hr 12 min 03 sec)
Heartbeat CPU 0 instructions: 144500688 cycles: 64370001 heartbeat IPC: 3.939 cumulative IPC: 1.79 (Simulation time: 00 hr 12 min 05 sec)
Heartbeat CPU 0 instructions: 145000691 cycles: 64489649 heartbeat IPC: 4.179 cumulative IPC: 1.795 (Simulation time: 00 hr 12 min 07 sec)
Heartbeat CPU 0 instructions: 145500694 cycles: 65884027 heartbeat IPC: 0.3586 cumulative IPC: 1.758 (Simulation time: 00 hr 12 min 18 sec)
Heartbeat CPU 0 instructions: 146000695 cycles: 66028269 heartbeat IPC: 3.466 cumulative IPC: 1.763 (Simulation time: 00 hr 12 min 20 sec)
Heartbeat CPU 0 instructions: 146500695 cycles: 66147420 heartbeat IPC: 4.196 cumulative IPC: 1.768 (Simulation time: 00 hr 12 min 22 sec)
Heartbeat CPU 0 instructions: 147000695 cycles: 66288859 heartbeat IPC: 3.535 cumulative IPC: 1.773 (Simulation time: 00 hr 12 min 24 sec)
Heartbeat CPU 0 instructions: 147500696 cycles: 66407324 heartbeat IPC: 4.221 cumulative IPC: 1.778 (Simulation time: 00 hr 12 min 26 sec)
Heartbeat CPU 0 instructions: 148000698 cycles: 66553277 heartbeat IPC: 3.426 cumulative IPC: 1.782 (Simulation time: 00 hr 12 min 28 sec)
Heartbeat CPU 0 instructions: 148500698 cycles: 66672716 heartbeat IPC: 4.186 cumulative IPC: 1.788 (Simulation time: 00 hr 12 min 30 sec)
Heartbeat CPU 0 instructions: 149000698 cycles: 66803848 heartbeat IPC: 3.813 cumulative IPC: 1.792 (Simulation time: 00 hr 12 min 32 sec)
Heartbeat CPU 0 instructions: 149500699 cycles: 66933000 heartbeat IPC: 3.871 cumulative IPC: 1.797 (Simulation time: 00 hr 12 min 34 sec)
Heartbeat CPU 0 instructions: 150000699 cycles: 67053698 heartbeat IPC: 4.143 cumulative IPC: 1.802 (Simulation time: 00 hr 12 min 36 sec)
Heartbeat CPU 0 instructions: 150500700 cycles: 67183032 heartbeat IPC: 3.866 cumulative IPC: 1.807 (Simulation time: 00 hr 12 min 38 sec)
Heartbeat CPU 0 instructions: 151000700 cycles: 67303364 heartbeat IPC: 4.155 cumulative IPC: 1.812 (Simulation time: 00 hr 12 min 40 sec)
Heartbeat CPU 0 instructions: 151500701 cycles: 67431023 heartbeat IPC: 3.917 cumulative IPC: 1.817 (Simulation time: 00 hr 12 min 42 sec)
Heartbeat CPU 0 instructions: 152000704 cycles: 67560739 heartbeat IPC: 3.855 cumulative IPC: 1.822 (Simulation time: 00 hr 12 min 44 sec)
Heartbeat CPU 0 instructions: 152500706 cycles: 67700614 heartbeat IPC: 3.575 cumulative IPC: 1.826 (Simulation time: 00 hr 12 min 46 sec)
Heartbeat CPU 0 instructions: 153000709 cycles: 67818500 heartbeat IPC: 4.241 cumulative IPC: 1.831 (Simulation time: 00 hr 12 min 48 sec)
Heartbeat CPU 0 instructions: 153500709 cycles: 67951536 heartbeat IPC: 3.758 cumulative IPC: 1.836 (Simulation time: 00 hr 12 min 50 sec)
Heartbeat CPU 0 instructions: 154000713 cycles: 68071444 heartbeat IPC: 4.17 cumulative IPC: 1.841 (Simulation time: 00 hr 12 min 52 sec)
Heartbeat CPU 0 instructions: 154500715 cycles: 68202560 heartbeat IPC: 3.813 cumulative IPC: 1.845 (Simulation time: 00 hr 12 min 54 sec)
Heartbeat CPU 0 instructions: 155000716 cycles: 68319892 heartbeat IPC: 4.261 cumulative IPC: 1.85 (Simulation time: 00 hr 12 min 56 sec)
Heartbeat CPU 0 instructions: 155500716 cycles: 68761045 heartbeat IPC: 1.133 cumulative IPC: 1.845 (Simulation time: 00 hr 13 min 00 sec)
Heartbeat CPU 0 instructions: 156000719 cycles: 69372052 heartbeat IPC: 0.8183 cumulative IPC: 1.834 (Simulation time: 00 hr 13 min 06 sec)
Heartbeat CPU 0 instructions: 156500720 cycles: 69524053 heartbeat IPC: 3.289 cumulative IPC: 1.838 (Simulation time: 00 hr 13 min 08 sec)
Heartbeat CPU 0 instructions: 157000723 cycles: 69652886 heartbeat IPC: 3.881 cumulative IPC: 1.842 (Simulation time: 00 hr 13 min 10 sec)
Heartbeat CPU 0 instructions: 157500724 cycles: 69808099 heartbeat IPC: 3.221 cumulative IPC: 1.846 (Simulation time: 00 hr 13 min 12 sec)
Heartbeat CPU 0 instructions: 158000727 cycles: 69930304 heartbeat IPC: 4.092 cumulative IPC: 1.851 (Simulation time: 00 hr 13 min 14 sec)
Heartbeat CPU 0 instructions: 158500730 cycles: 70063364 heartbeat IPC: 3.758 cumulative IPC: 1.855 (Simulation time: 00 hr 13 min 16 sec)
Heartbeat CPU 0 instructions: 159000731 cycles: 70186633 heartbeat IPC: 4.056 cumulative IPC: 1.859 (Simulation time: 00 hr 13 min 18 sec)
Heartbeat CPU 0 instructions: 159500735 cycles: 70318021 heartbeat IPC: 3.806 cumulative IPC: 1.864 (Simulation time: 00 hr 13 min 21 sec)
Heartbeat CPU 0 instructions: 160000737 cycles: 70435430 heartbeat IPC: 4.259 cumulative IPC: 1.869 (Simulation time: 00 hr 13 min 22 sec)
Heartbeat CPU 0 instructions: 160500737 cycles: 70564377 heartbeat IPC: 3.878 cumulative IPC: 1.873 (Simulation time: 00 hr 13 min 24 sec)
Heartbeat CPU 0 instructions: 161000740 cycles: 70681577 heartbeat IPC: 4.266 cumulative IPC: 1.878 (Simulation time: 00 hr 13 min 26 sec)
Heartbeat CPU 0 instructions: 161500741 cycles: 70810827 heartbeat IPC: 3.868 cumulative IPC: 1.882 (Simulation time: 00 hr 13 min 28 sec)
Heartbeat CPU 0 instructions: 162000743 cycles: 70927662 heartbeat IPC: 4.28 cumulative IPC: 1.887 (Simulation time: 00 hr 13 min 30 sec)
Heartbeat CPU 0 instructions: 162500747 cycles: 71060290 heartbeat IPC: 3.77 cumulative IPC: 1.891 (Simulation time: 00 hr 13 min 32 sec)
Heartbeat CPU 0 instructions: 163000751 cycles: 71189117 heartbeat IPC: 3.881 cumulative IPC: 1.895 (Simulation time: 00 hr 13 min 34 sec)
Heartbeat CPU 0 instructions: 163500753 cycles: 71308816 heartbeat IPC: 4.177 cumulative IPC: 1.9 (Simulation time: 00 hr 13 min 36 sec)
Heartbeat CPU 0 instructions: 164000756 cycles: 71435723 heartbeat IPC: 3.94 cumulative IPC: 1.904 (Simulation time: 00 hr 13 min 38 sec)
Heartbeat CPU 0 instructions: 164500760 cycles: 71555010 heartbeat IPC: 4.192 cumulative IPC: 1.909 (Simulation time: 00 hr 13 min 40 sec)
Heartbeat CPU 0 instructions: 165000764 cycles: 71682221 heartbeat IPC: 3.931 cumulative IPC: 1.913 (Simulation time: 00 hr 13 min 42 sec)
Heartbeat CPU 0 instructions: 165500766 cycles: 71801205 heartbeat IPC: 4.202 cumulative IPC: 1.918 (Simulation time: 00 hr 13 min 44 sec)
Heartbeat CPU 0 instructions: 166000767 cycles: 72558034 heartbeat IPC: 0.6607 cumulative IPC: 1.902 (Simulation time: 00 hr 13 min 51 sec)
Heartbeat CPU 0 instructions: 166500769 cycles: 72682401 heartbeat IPC: 4.02 cumulative IPC: 1.906 (Simulation time: 00 hr 13 min 53 sec)
Heartbeat CPU 0 instructions: 167000770 cycles: 72811308 heartbeat IPC: 3.879 cumulative IPC: 1.91 (Simulation time: 00 hr 13 min 55 sec)
Heartbeat CPU 0 instructions: 167500774 cycles: 72948241 heartbeat IPC: 3.651 cumulative IPC: 1.914 (Simulation time: 00 hr 13 min 57 sec)
Heartbeat CPU 0 instructions: 168000779 cycles: 73078730 heartbeat IPC: 3.832 cumulative IPC: 1.918 (Simulation time: 00 hr 13 min 59 sec)
Heartbeat CPU 0 instructions: 168500785 cycles: 73205072 heartbeat IPC: 3.958 cumulative IPC: 1.923 (Simulation time: 00 hr 14 min 01 sec)
Heartbeat CPU 0 instructions: 169000787 cycles: 73340370 heartbeat IPC: 3.696 cumulative IPC: 1.926 (Simulation time: 00 hr 14 min 03 sec)
Heartbeat CPU 0 instructions: 169500792 cycles: 73460652 heartbeat IPC: 4.157 cumulative IPC: 1.931 (Simulation time: 00 hr 14 min 05 sec)
Heartbeat CPU 0 instructions: 170000792 cycles: 73595563 heartbeat IPC: 3.706 cumulative IPC: 1.935 (Simulation time: 00 hr 14 min 07 sec)
Heartbeat CPU 0 instructions: 170500799 cycles: 73725712 heartbeat IPC: 3.842 cumulative IPC: 1.939 (Simulation time: 00 hr 14 min 09 sec)
Heartbeat CPU 0 instructions: 171000800 cycles: 73859119 heartbeat IPC: 3.748 cumulative IPC: 1.942 (Simulation time: 00 hr 14 min 11 sec)
Heartbeat CPU 0 instructions: 171500800 cycles: 73976380 heartbeat IPC: 4.264 cumulative IPC: 1.947 (Simulation time: 00 hr 14 min 13 sec)
Heartbeat CPU 0 instructions: 172000800 cycles: 74122516 heartbeat IPC: 3.421 cumulative IPC: 1.95 (Simulation time: 00 hr 14 min 15 sec)
Heartbeat CPU 0 instructions: 172500803 cycles: 74251787 heartbeat IPC: 3.868 cumulative IPC: 1.954 (Simulation time: 00 hr 14 min 17 sec)
Heartbeat CPU 0 instructions: 173000803 cycles: 74391438 heartbeat IPC: 3.58 cumulative IPC: 1.958 (Simulation time: 00 hr 14 min 19 sec)
Heartbeat CPU 0 instructions: 173500806 cycles: 74520003 heartbeat IPC: 3.889 cumulative IPC: 1.962 (Simulation time: 00 hr 14 min 21 sec)
Heartbeat CPU 0 instructions: 174000809 cycles: 74644164 heartbeat IPC: 4.027 cumulative IPC: 1.966 (Simulation time: 00 hr 14 min 23 sec)
Heartbeat CPU 0 instructions: 174500815 cycles: 74773073 heartbeat IPC: 3.879 cumulative IPC: 1.97 (Simulation time: 00 hr 14 min 25 sec)
Heartbeat CPU 0 instructions: 175000817 cycles: 74891908 heartbeat IPC: 4.208 cumulative IPC: 1.974 (Simulation time: 00 hr 14 min 27 sec)
Heartbeat CPU 0 instructions: 175500818 cycles: 75019739 heartbeat IPC: 3.911 cumulative IPC: 1.978 (Simulation time: 00 hr 14 min 29 sec)
Heartbeat CPU 0 instructions: 176000821 cycles: 75651229 heartbeat IPC: 0.7918 cumulative IPC: 1.966 (Simulation time: 00 hr 14 min 35 sec)
Heartbeat CPU 0 instructions: 176500821 cycles: 76369954 heartbeat IPC: 0.6957 cumulative IPC: 1.952 (Simulation time: 00 hr 14 min 40 sec)
Heartbeat CPU 0 instructions: 177000827 cycles: 76821681 heartbeat IPC: 1.107 cumulative IPC: 1.946 (Simulation time: 00 hr 14 min 45 sec)
Heartbeat CPU 0 instructions: 177500831 cycles: 76948130 heartbeat IPC: 3.954 cumulative IPC: 1.95 (Simulation time: 00 hr 14 min 46 sec)
Heartbeat CPU 0 instructions: 178000832 cycles: 77077644 heartbeat IPC: 3.861 cumulative IPC: 1.954 (Simulation time: 00 hr 14 min 49 sec)
Heartbeat CPU 0 instructions: 178500833 cycles: 77200790 heartbeat IPC: 4.06 cumulative IPC: 1.958 (Simulation time: 00 hr 14 min 51 sec)
Heartbeat CPU 0 instructions: 179000834 cycles: 77329573 heartbeat IPC: 3.883 cumulative IPC: 1.962 (Simulation time: 00 hr 14 min 53 sec)
Heartbeat CPU 0 instructions: 179500836 cycles: 77449575 heartbeat IPC: 4.167 cumulative IPC: 1.966 (Simulation time: 00 hr 14 min 54 sec)
Heartbeat CPU 0 instructions: 180000836 cycles: 77579165 heartbeat IPC: 3.858 cumulative IPC: 1.969 (Simulation time: 00 hr 14 min 57 sec)
Heartbeat CPU 0 instructions: 180500839 cycles: 77697697 heartbeat IPC: 4.218 cumulative IPC: 1.973 (Simulation time: 00 hr 14 min 58 sec)
Heartbeat CPU 0 instructions: 181000842 cycles: 77828789 heartbeat IPC: 3.814 cumulative IPC: 1.977 (Simulation time: 00 hr 15 min 01 sec)
Heartbeat CPU 0 instructions: 181500843 cycles: 77946295 heartbeat IPC: 4.255 cumulative IPC: 1.981 (Simulation time: 00 hr 15 min 02 sec)
Heartbeat CPU 0 instructions: 182000844 cycles: 78075825 heartbeat IPC: 3.86 cumulative IPC: 1.985 (Simulation time: 00 hr 15 min 05 sec)
Heartbeat CPU 0 instructions: 182500845 cycles: 78193601 heartbeat IPC: 4.245 cumulative IPC: 1.989 (Simulation time: 00 hr 15 min 06 sec)
Heartbeat CPU 0 instructions: 183000846 cycles: 78322818 heartbeat IPC: 3.869 cumulative IPC: 1.992 (Simulation time: 00 hr 15 min 09 sec)
Heartbeat CPU 0 instructions: 183500848 cycles: 78439859 heartbeat IPC: 4.272 cumulative IPC: 1.996 (Simulation time: 00 hr 15 min 10 sec)
Heartbeat CPU 0 instructions: 184000851 cycles: 78575247 heartbeat IPC: 3.693 cumulative IPC: 2 (Simulation time: 00 hr 15 min 13 sec)
Heartbeat CPU 0 instructions: 184500852 cycles: 78713837 heartbeat IPC: 3.608 cumulative IPC: 2.003 (Simulation time: 00 hr 15 min 15 sec)
Heartbeat CPU 0 instructions: 185000852 cycles: 78848230 heartbeat IPC: 3.72 cumulative IPC: 2.007 (Simulation time: 00 hr 15 min 17 sec)
Heartbeat CPU 0 instructions: 185500854 cycles: 78994183 heartbeat IPC: 3.426 cumulative IPC: 2.01 (Simulation time: 00 hr 15 min 19 sec)
Heartbeat CPU 0 instructions: 186000854 cycles: 79123412 heartbeat IPC: 3.869 cumulative IPC: 2.013 (Simulation time: 00 hr 15 min 21 sec)
Heartbeat CPU 0 instructions: 186500856 cycles: 79265140 heartbeat IPC: 3.528 cumulative IPC: 2.016 (Simulation time: 00 hr 15 min 23 sec)
Heartbeat CPU 0 instructions: 187000857 cycles: 79789516 heartbeat IPC: 0.9535 cumulative IPC: 2.008 (Simulation time: 00 hr 15 min 28 sec)
Heartbeat CPU 0 instructions: 187500863 cycles: 79939555 heartbeat IPC: 3.333 cumulative IPC: 2.011 (Simulation time: 00 hr 15 min 30 sec)
Heartbeat CPU 0 instructions: 188000864 cycles: 80074646 heartbeat IPC: 3.701 cumulative IPC: 2.014 (Simulation time: 00 hr 15 min 32 sec)
Heartbeat CPU 0 instructions: 188500866 cycles: 80226822 heartbeat IPC: 3.286 cumulative IPC: 2.017 (Simulation time: 00 hr 15 min 34 sec)
Heartbeat CPU 0 instructions: 189000869 cycles: 80350183 heartbeat IPC: 4.053 cumulative IPC: 2.021 (Simulation time: 00 hr 15 min 36 sec)
Heartbeat CPU 0 instructions: 189500869 cycles: 80483058 heartbeat IPC: 3.763 cumulative IPC: 2.024 (Simulation time: 00 hr 15 min 39 sec)
Heartbeat CPU 0 instructions: 190000871 cycles: 80606639 heartbeat IPC: 4.046 cumulative IPC: 2.028 (Simulation time: 00 hr 15 min 41 sec)
Heartbeat CPU 0 instructions: 190500876 cycles: 80736557 heartbeat IPC: 3.849 cumulative IPC: 2.031 (Simulation time: 00 hr 15 min 43 sec)
Heartbeat CPU 0 instructions: 191000879 cycles: 80855935 heartbeat IPC: 4.188 cumulative IPC: 2.035 (Simulation time: 00 hr 15 min 45 sec)
Heartbeat CPU 0 instructions: 191500883 cycles: 80987841 heartbeat IPC: 3.791 cumulative IPC: 2.038 (Simulation time: 00 hr 15 min 47 sec)
Heartbeat CPU 0 instructions: 192000884 cycles: 81105231 heartbeat IPC: 4.259 cumulative IPC: 2.042 (Simulation time: 00 hr 15 min 49 sec)
Heartbeat CPU 0 instructions: 192500887 cycles: 81235061 heartbeat IPC: 3.851 cumulative IPC: 2.045 (Simulation time: 00 hr 15 min 51 sec)
Heartbeat CPU 0 instructions: 193000889 cycles: 81352484 heartbeat IPC: 4.258 cumulative IPC: 2.049 (Simulation time: 00 hr 15 min 53 sec)
Heartbeat CPU 0 instructions: 193500893 cycles: 81483899 heartbeat IPC: 3.805 cumulative IPC: 2.052 (Simulation time: 00 hr 15 min 55 sec)
Heartbeat CPU 0 instructions: 194000896 cycles: 81601533 heartbeat IPC: 4.25 cumulative IPC: 2.056 (Simulation time: 00 hr 15 min 57 sec)
Heartbeat CPU 0 instructions: 194500899 cycles: 81730319 heartbeat IPC: 3.882 cumulative IPC: 2.06 (Simulation time: 00 hr 15 min 59 sec)
Heartbeat CPU 0 instructions: 195000899 cycles: 81856396 heartbeat IPC: 3.966 cumulative IPC: 2.063 (Simulation time: 00 hr 16 min 01 sec)
Heartbeat CPU 0 instructions: 195500899 cycles: 81977910 heartbeat IPC: 4.115 cumulative IPC: 2.066 (Simulation time: 00 hr 16 min 03 sec)
Heartbeat CPU 0 instructions: 196000900 cycles: 82105034 heartbeat IPC: 3.933 cumulative IPC: 2.07 (Simulation time: 00 hr 16 min 05 sec)
Heartbeat CPU 0 instructions: 196500902 cycles: 82224376 heartbeat IPC: 4.19 cumulative IPC: 2.073 (Simulation time: 00 hr 16 min 07 sec)
Heartbeat CPU 0 instructions: 197000903 cycles: 82846329 heartbeat IPC: 0.8039 cumulative IPC: 2.062 (Simulation time: 00 hr 16 min 12 sec)
Heartbeat CPU 0 instructions: 197500907 cycles: 83328075 heartbeat IPC: 1.038 cumulative IPC: 2.055 (Simulation time: 00 hr 16 min 16 sec)
Heartbeat CPU 0 instructions: 198000908 cycles: 84153751 heartbeat IPC: 0.6056 cumulative IPC: 2.039 (Simulation time: 00 hr 16 min 22 sec)
Heartbeat CPU 0 instructions: 198500910 cycles: 85088694 heartbeat IPC: 0.5348 cumulative IPC: 2.02 (Simulation time: 00 hr 16 min 30 sec)
Heartbeat CPU 0 instructions: 199000912 cycles: 85216576 heartbeat IPC: 3.91 cumulative IPC: 2.023 (Simulation time: 00 hr 16 min 32 sec)
Heartbeat CPU 0 instructions: 199500916 cycles: 85354718 heartbeat IPC: 3.619 cumulative IPC: 2.026 (Simulation time: 00 hr 16 min 34 sec)
Heartbeat CPU 0 instructions: 200000918 cycles: 85497647 heartbeat IPC: 3.498 cumulative IPC: 2.029 (Simulation time: 00 hr 16 min 36 sec)
Heartbeat CPU 0 instructions: 200500919 cycles: 85639566 heartbeat IPC: 3.523 cumulative IPC: 2.032 (Simulation time: 00 hr 16 min 39 sec)
Heartbeat CPU 0 instructions: 201000921 cycles: 85759994 heartbeat IPC: 4.152 cumulative IPC: 2.035 (Simulation time: 00 hr 16 min 41 sec)
Heartbeat CPU 0 instructions: 201500924 cycles: 85894616 heartbeat IPC: 3.714 cumulative IPC: 2.038 (Simulation time: 00 hr 16 min 43 sec)
Heartbeat CPU 0 instructions: 202000927 cycles: 86016515 heartbeat IPC: 4.102 cumulative IPC: 2.042 (Simulation time: 00 hr 16 min 45 sec)
Heartbeat CPU 0 instructions: 202500930 cycles: 86150996 heartbeat IPC: 3.718 cumulative IPC: 2.045 (Simulation time: 00 hr 16 min 47 sec)
Heartbeat CPU 0 instructions: 203000930 cycles: 86269100 heartbeat IPC: 4.234 cumulative IPC: 2.048 (Simulation time: 00 hr 16 min 49 sec)
Heartbeat CPU 0 instructions: 203500933 cycles: 86408558 heartbeat IPC: 3.585 cumulative IPC: 2.051 (Simulation time: 00 hr 16 min 51 sec)
Heartbeat CPU 0 instructions: 204000933 cycles: 86538967 heartbeat IPC: 3.834 cumulative IPC: 2.054 (Simulation time: 00 hr 16 min 53 sec)
Heartbeat CPU 0 instructions: 204500934 cycles: 86676127 heartbeat IPC: 3.645 cumulative IPC: 2.057 (Simulation time: 00 hr 16 min 55 sec)
Heartbeat CPU 0 instructions: 205000938 cycles: 86804854 heartbeat IPC: 3.884 cumulative IPC: 2.06 (Simulation time: 00 hr 16 min 57 sec)
Heartbeat CPU 0 instructions: 205500942 cycles: 86950523 heartbeat IPC: 3.432 cumulative IPC: 2.063 (Simulation time: 00 hr 16 min 59 sec)
Heartbeat CPU 0 instructions: 206000942 cycles: 87084370 heartbeat IPC: 3.736 cumulative IPC: 2.066 (Simulation time: 00 hr 17 min 01 sec)
Heartbeat CPU 0 instructions: 206500942 cycles: 87207524 heartbeat IPC: 4.06 cumulative IPC: 2.069 (Simulation time: 00 hr 17 min 03 sec)
Heartbeat CPU 0 instructions: 207000943 cycles: 87351041 heartbeat IPC: 3.484 cumulative IPC: 2.072 (Simulation time: 00 hr 17 min 05 sec)
Heartbeat CPU 0 instructions: 207500946 cycles: 87474462 heartbeat IPC: 4.051 cumulative IPC: 2.075 (Simulation time: 00 hr 17 min 07 sec)
Heartbeat CPU 0 instructions: 208000948 cycles: 87604927 heartbeat IPC: 3.832 cumulative IPC: 2.078 (Simulation time: 00 hr 17 min 09 sec)
Heartbeat CPU 0 instructions: 208500949 cycles: 88226564 heartbeat IPC: 0.8043 cumulative IPC: 2.068 (Simulation time: 00 hr 17 min 14 sec)
Heartbeat CPU 0 instructions: 209000949 cycles: 89186648 heartbeat IPC: 0.5208 cumulative IPC: 2.048 (Simulation time: 00 hr 17 min 22 sec)
Heartbeat CPU 0 instructions: 209500952 cycles: 89483911 heartbeat IPC: 1.682 cumulative IPC: 2.047 (Simulation time: 00 hr 17 min 25 sec)
Heartbeat CPU 0 instructions: 210000954 cycles: 89621898 heartbeat IPC: 3.624 cumulative IPC: 2.05 (Simulation time: 00 hr 17 min 27 sec)
Heartbeat CPU 0 instructions: 210500956 cycles: 89761895 heartbeat IPC: 3.572 cumulative IPC: 2.053 (Simulation time: 00 hr 17 min 29 sec)
Heartbeat CPU 0 instructions: 211000958 cycles: 89888225 heartbeat IPC: 3.958 cumulative IPC: 2.056 (Simulation time: 00 hr 17 min 31 sec)
Heartbeat CPU 0 instructions: 211500959 cycles: 90019364 heartbeat IPC: 3.813 cumulative IPC: 2.059 (Simulation time: 00 hr 17 min 34 sec)
Heartbeat CPU 0 instructions: 212000961 cycles: 90143586 heartbeat IPC: 4.025 cumulative IPC: 2.062 (Simulation time: 00 hr 17 min 36 sec)
Heartbeat CPU 0 instructions: 212500963 cycles: 90274542 heartbeat IPC: 3.818 cumulative IPC: 2.065 (Simulation time: 00 hr 17 min 38 sec)
Heartbeat CPU 0 instructions: 213000966 cycles: 90398625 heartbeat IPC: 4.03 cumulative IPC: 2.068 (Simulation time: 00 hr 17 min 40 sec)
Heartbeat CPU 0 instructions: 213500966 cycles: 90530789 heartbeat IPC: 3.783 cumulative IPC: 2.071 (Simulation time: 00 hr 17 min 42 sec)
Heartbeat CPU 0 instructions: 214000972 cycles: 90648282 heartbeat IPC: 4.256 cumulative IPC: 2.074 (Simulation time: 00 hr 17 min 44 sec)
Heartbeat CPU 0 instructions: 214500975 cycles: 90778719 heartbeat IPC: 3.833 cumulative IPC: 2.077 (Simulation time: 00 hr 17 min 46 sec)
Heartbeat CPU 0 instructions: 215000977 cycles: 90895955 heartbeat IPC: 4.265 cumulative IPC: 2.08 (Simulation time: 00 hr 17 min 48 sec)
Heartbeat CPU 0 instructions: 215500982 cycles: 91031951 heartbeat IPC: 3.677 cumulative IPC: 2.083 (Simulation time: 00 hr 17 min 50 sec)
Heartbeat CPU 0 instructions: 216000986 cycles: 91161072 heartbeat IPC: 3.872 cumulative IPC: 2.086 (Simulation time: 00 hr 17 min 52 sec)
Heartbeat CPU 0 instructions: 216500990 cycles: 91300249 heartbeat IPC: 3.593 cumulative IPC: 2.088 (Simulation time: 00 hr 17 min 54 sec)
Heartbeat CPU 0 instructions: 217000993 cycles: 91443788 heartbeat IPC: 3.483 cumulative IPC: 2.091 (Simulation time: 00 hr 17 min 56 sec)
Heartbeat CPU 0 instructions: 217500996 cycles: 91572129 heartbeat IPC: 3.896 cumulative IPC: 2.094 (Simulation time: 00 hr 17 min 58 sec)
Heartbeat CPU 0 instructions: 218000999 cycles: 91708201 heartbeat IPC: 3.675 cumulative IPC: 2.096 (Simulation time: 00 hr 18 min 00 sec)
Heartbeat CPU 0 instructions: 218501002 cycles: 91845446 heartbeat IPC: 3.643 cumulative IPC: 2.099 (Simulation time: 00 hr 18 min 02 sec)
Heartbeat CPU 0 instructions: 219001003 cycles: 91985331 heartbeat IPC: 3.574 cumulative IPC: 2.102 (Simulation time: 00 hr 18 min 04 sec)
Heartbeat CPU 0 instructions: 219501007 cycles: 92887790 heartbeat IPC: 0.554 cumulative IPC: 2.084 (Simulation time: 00 hr 18 min 11 sec)
Heartbeat CPU 0 instructions: 220001008 cycles: 93284576 heartbeat IPC: 1.26 cumulative IPC: 2.08 (Simulation time: 00 hr 18 min 15 sec)
Heartbeat CPU 0 instructions: 220501008 cycles: 93432232 heartbeat IPC: 3.386 cumulative IPC: 2.083 (Simulation time: 00 hr 18 min 17 sec)
Heartbeat CPU 0 instructions: 221001008 cycles: 93563463 heartbeat IPC: 3.81 cumulative IPC: 2.085 (Simulation time: 00 hr 18 min 19 sec)
Heartbeat CPU 0 instructions: 221501010 cycles: 94076803 heartbeat IPC: 0.974 cumulative IPC: 2.079 (Simulation time: 00 hr 18 min 23 sec)
Heartbeat CPU 0 instructions: 222001015 cycles: 94684745 heartbeat IPC: 0.8225 cumulative IPC: 2.069 (Simulation time: 00 hr 18 min 29 sec)
Heartbeat CPU 0 instructions: 222501020 cycles: 96443464 heartbeat IPC: 0.2843 cumulative IPC: 2.032 (Simulation time: 00 hr 18 min 40 sec)
Heartbeat CPU 0 instructions: 223001021 cycles: 97796124 heartbeat IPC: 0.3696 cumulative IPC: 2.006 (Simulation time: 00 hr 18 min 49 sec)
Heartbeat CPU 0 instructions: 223501023 cycles: 99340686 heartbeat IPC: 0.3237 cumulative IPC: 1.977 (Simulation time: 00 hr 19 min 03 sec)
Heartbeat CPU 0 instructions: 224001030 cycles: 100647467 heartbeat IPC: 0.3826 cumulative IPC: 1.953 (Simulation time: 00 hr 19 min 12 sec)
Heartbeat CPU 0 instructions: 224501031 cycles: 101573905 heartbeat IPC: 0.5397 cumulative IPC: 1.939 (Simulation time: 00 hr 19 min 19 sec)
Heartbeat CPU 0 instructions: 225001033 cycles: 102513768 heartbeat IPC: 0.532 cumulative IPC: 1.924 (Simulation time: 00 hr 19 min 26 sec)
Heartbeat CPU 0 instructions: 225501033 cycles: 103395606 heartbeat IPC: 0.567 cumulative IPC: 1.911 (Simulation time: 00 hr 19 min 33 sec)
Heartbeat CPU 0 instructions: 226001034 cycles: 104447933 heartbeat IPC: 0.4751 cumulative IPC: 1.895 (Simulation time: 00 hr 19 min 41 sec)
Heartbeat CPU 0 instructions: 226501035 cycles: 105210455 heartbeat IPC: 0.6557 cumulative IPC: 1.885 (Simulation time: 00 hr 19 min 47 sec)
Heartbeat CPU 0 instructions: 227001041 cycles: 105719658 heartbeat IPC: 0.9819 cumulative IPC: 1.88 (Simulation time: 00 hr 19 min 52 sec)
Heartbeat CPU 0 instructions: 227501041 cycles: 106373103 heartbeat IPC: 0.7652 cumulative IPC: 1.872 (Simulation time: 00 hr 19 min 58 sec)
Heartbeat CPU 0 instructions: 228001042 cycles: 107297967 heartbeat IPC: 0.5406 cumulative IPC: 1.859 (Simulation time: 00 hr 20 min 05 sec)
Heartbeat CPU 0 instructions: 228501047 cycles: 108281574 heartbeat IPC: 0.5083 cumulative IPC: 1.846 (Simulation time: 00 hr 20 min 13 sec)
Heartbeat CPU 0 instructions: 229001047 cycles: 109208946 heartbeat IPC: 0.5392 cumulative IPC: 1.833 (Simulation time: 00 hr 20 min 20 sec)
Heartbeat CPU 0 instructions: 229501052 cycles: 110113012 heartbeat IPC: 0.5531 cumulative IPC: 1.822 (Simulation time: 00 hr 20 min 27 sec)
Heartbeat CPU 0 instructions: 230001059 cycles: 110938758 heartbeat IPC: 0.6055 cumulative IPC: 1.811 (Simulation time: 00 hr 20 min 34 sec)
Heartbeat CPU 0 instructions: 230501064 cycles: 111963101 heartbeat IPC: 0.4881 cumulative IPC: 1.798 (Simulation time: 00 hr 20 min 43 sec)
Heartbeat CPU 0 instructions: 231001068 cycles: 112930383 heartbeat IPC: 0.5169 cumulative IPC: 1.786 (Simulation time: 00 hr 20 min 50 sec)
Heartbeat CPU 0 instructions: 231501075 cycles: 113105269 heartbeat IPC: 2.859 cumulative IPC: 1.788 (Simulation time: 00 hr 20 min 52 sec)
Heartbeat CPU 0 instructions: 232001080 cycles: 113264642 heartbeat IPC: 3.137 cumulative IPC: 1.79 (Simulation time: 00 hr 20 min 54 sec)
Heartbeat CPU 0 instructions: 232501085 cycles: 113424330 heartbeat IPC: 3.131 cumulative IPC: 1.792 (Simulation time: 00 hr 20 min 56 sec)
Heartbeat CPU 0 instructions: 233001087 cycles: 113591020 heartbeat IPC: 3 cumulative IPC: 1.794 (Simulation time: 00 hr 20 min 58 sec)
Heartbeat CPU 0 instructions: 233501090 cycles: 113737575 heartbeat IPC: 3.412 cumulative IPC: 1.796 (Simulation time: 00 hr 21 min 00 sec)
Heartbeat CPU 0 instructions: 234001090 cycles: 113926936 heartbeat IPC: 2.64 cumulative IPC: 1.798 (Simulation time: 00 hr 21 min 02 sec)
Heartbeat CPU 0 instructions: 234501095 cycles: 114082776 heartbeat IPC: 3.208 cumulative IPC: 1.8 (Simulation time: 00 hr 21 min 05 sec)
Heartbeat CPU 0 instructions: 235001096 cycles: 114254973 heartbeat IPC: 2.904 cumulative IPC: 1.802 (Simulation time: 00 hr 21 min 07 sec)
Heartbeat CPU 0 instructions: 235501100 cycles: 114401794 heartbeat IPC: 3.406 cumulative IPC: 1.804 (Simulation time: 00 hr 21 min 09 sec)
Heartbeat CPU 0 instructions: 236001104 cycles: 114557278 heartbeat IPC: 3.216 cumulative IPC: 1.806 (Simulation time: 00 hr 21 min 11 sec)
Heartbeat CPU 0 instructions: 236501108 cycles: 114721155 heartbeat IPC: 3.051 cumulative IPC: 1.808 (Simulation time: 00 hr 21 min 13 sec)
Heartbeat CPU 0 instructions: 237001110 cycles: 114900245 heartbeat IPC: 2.792 cumulative IPC: 1.81 (Simulation time: 00 hr 21 min 16 sec)
Heartbeat CPU 0 instructions: 237501111 cycles: 115084388 heartbeat IPC: 2.715 cumulative IPC: 1.811 (Simulation time: 00 hr 21 min 18 sec)
Heartbeat CPU 0 instructions: 238001112 cycles: 115244995 heartbeat IPC: 3.113 cumulative IPC: 1.813 (Simulation time: 00 hr 21 min 20 sec)
Heartbeat CPU 0 instructions: 238501115 cycles: 116379286 heartbeat IPC: 0.4408 cumulative IPC: 1.798 (Simulation time: 00 hr 21 min 29 sec)
Heartbeat CPU 0 instructions: 239001118 cycles: 116898997 heartbeat IPC: 0.9621 cumulative IPC: 1.794 (Simulation time: 00 hr 21 min 33 sec)
Heartbeat CPU 0 instructions: 239501125 cycles: 117058269 heartbeat IPC: 3.139 cumulative IPC: 1.796 (Simulation time: 00 hr 21 min 36 sec)
Heartbeat CPU 0 instructions: 240001127 cycles: 117211733 heartbeat IPC: 3.258 cumulative IPC: 1.799 (Simulation time: 00 hr 21 min 38 sec)
Heartbeat CPU 0 instructions: 240501129 cycles: 117373331 heartbeat IPC: 3.094 cumulative IPC: 1.8 (Simulation time: 00 hr 21 min 40 sec)
Heartbeat CPU 0 instructions: 241001135 cycles: 117578810 heartbeat IPC: 2.433 cumulative IPC: 1.802 (Simulation time: 00 hr 21 min 42 sec)
Heartbeat CPU 0 instructions: 241501141 cycles: 117793120 heartbeat IPC: 2.333 cumulative IPC: 1.803 (Simulation time: 00 hr 21 min 45 sec)
Heartbeat CPU 0 instructions: 242001143 cycles: 117948267 heartbeat IPC: 3.223 cumulative IPC: 1.805 (Simulation time: 00 hr 21 min 47 sec)
Heartbeat CPU 0 instructions: 242501148 cycles: 118122628 heartbeat IPC: 2.868 cumulative IPC: 1.807 (Simulation time: 00 hr 21 min 50 sec)
Heartbeat CPU 0 instructions: 243001155 cycles: 118267656 heartbeat IPC: 3.448 cumulative IPC: 1.809 (Simulation time: 00 hr 21 min 52 sec)
Heartbeat CPU 0 instructions: 243501156 cycles: 118440322 heartbeat IPC: 2.896 cumulative IPC: 1.811 (Simulation time: 00 hr 21 min 54 sec)
Heartbeat CPU 0 instructions: 244001159 cycles: 118599753 heartbeat IPC: 3.136 cumulative IPC: 1.813 (Simulation time: 00 hr 21 min 56 sec)
Heartbeat CPU 0 instructions: 244501159 cycles: 118788607 heartbeat IPC: 2.648 cumulative IPC: 1.814 (Simulation time: 00 hr 21 min 58 sec)
Heartbeat CPU 0 instructions: 245001164 cycles: 118934756 heartbeat IPC: 3.421 cumulative IPC: 1.816 (Simulation time: 00 hr 22 min 00 sec)
Heartbeat CPU 0 instructions: 245501171 cycles: 119092015 heartbeat IPC: 3.18 cumulative IPC: 1.818 (Simulation time: 00 hr 22 min 02 sec)
Heartbeat CPU 0 instructions: 246001171 cycles: 119238059 heartbeat IPC: 3.424 cumulative IPC: 1.82 (Simulation time: 00 hr 22 min 04 sec)
Heartbeat CPU 0 instructions: 246501175 cycles: 119393935 heartbeat IPC: 3.208 cumulative IPC: 1.822 (Simulation time: 00 hr 22 min 06 sec)
Heartbeat CPU 0 instructions: 247001179 cycles: 119539646 heartbeat IPC: 3.431 cumulative IPC: 1.825 (Simulation time: 00 hr 22 min 08 sec)
Heartbeat CPU 0 instructions: 247501179 cycles: 119738190 heartbeat IPC: 2.518 cumulative IPC: 1.826 (Simulation time: 00 hr 22 min 11 sec)
Heartbeat CPU 0 instructions: 248001181 cycles: 119904643 heartbeat IPC: 3.004 cumulative IPC: 1.828 (Simulation time: 00 hr 22 min 13 sec)
Heartbeat CPU 0 instructions: 248501185 cycles: 120060922 heartbeat IPC: 3.199 cumulative IPC: 1.83 (Simulation time: 00 hr 22 min 15 sec)
Heartbeat CPU 0 instructions: 249001185 cycles: 120577639 heartbeat IPC: 0.9676 cumulative IPC: 1.826 (Simulation time: 00 hr 22 min 20 sec)
Heartbeat CPU 0 instructions: 249501189 cycles: 120724693 heartbeat IPC: 3.4 cumulative IPC: 1.828 (Simulation time: 00 hr 22 min 22 sec)
Simulation finished CPU 0 instructions: 200000001 cycles: 109313619 cumulative IPC: 1.83 (Simulation time: 00 hr 22 min 24 sec)
Simulation complete CPU 0 instructions: 200000001 cycles: 109313619 cumulative IPC: 1.83 (Simulation time: 00 hr 22 min 24 sec)

ChampSim completed all CPUs

=== Simulation ===
CPU 0 runs /local-ssd/ben/dpc4-traces/gtraces_v2/arizona_0002.champsim.gz

Region of Interest Statistics

CPU 0 cumulative IPC: 1.83 instructions: 200000001 cycles: 109313619
CPU 0 Branch Prediction Accuracy: 93.98% MPKI: 2.853 Average ROB Occupancy at Mispredict: 41.29
Branch type MPKI
BRANCH_DIRECT_JUMP: 0.06592
BRANCH_INDIRECT: 0.01835
BRANCH_CONDITIONAL: 2.632
BRANCH_DIRECT_CALL: 0.04312
BRANCH_INDIRECT_CALL: 0.01607
BRANCH_RETURN: 0.07738

cpu0->cpu0_STLB TOTAL        ACCESS:     639027 HIT:     501254 MISS:     137773 MSHR_MERGE:          0
cpu0->cpu0_STLB LOAD         ACCESS:     639027 HIT:     501254 MISS:     137773 MSHR_MERGE:          0
cpu0->cpu0_STLB RFO          ACCESS:          0 HIT:          0 MISS:          0 MSHR_MERGE:          0
cpu0->cpu0_STLB PREFETCH     ACCESS:          0 HIT:          0 MISS:          0 MSHR_MERGE:          0
cpu0->cpu0_STLB WRITE        ACCESS:          0 HIT:          0 MISS:          0 MSHR_MERGE:          0
cpu0->cpu0_STLB TRANSLATION  ACCESS:          0 HIT:          0 MISS:          0 MSHR_MERGE:          0
cpu0->cpu0_STLB PREFETCH REQUESTED:          0 ISSUED:          0 USEFUL:          0 USELESS:          0
cpu0->cpu0_STLB AVERAGE MISS LATENCY: 195.8 cycles
cpu0->cpu0_L2C TOTAL        ACCESS:    6974130 HIT:    5039981 MISS:    1934149 MSHR_MERGE:     461294
cpu0->cpu0_L2C LOAD         ACCESS:     835110 HIT:     489461 MISS:     345649 MSHR_MERGE:      17824
cpu0->cpu0_L2C RFO          ACCESS:     396186 HIT:     262109 MISS:     134077 MSHR_MERGE:        638
cpu0->cpu0_L2C PREFETCH     ACCESS:    5041875 HIT:    3649311 MISS:    1392564 MSHR_MERGE:     442832
cpu0->cpu0_L2C WRITE        ACCESS:     576145 HIT:     576119 MISS:         26 MSHR_MERGE:          0
cpu0->cpu0_L2C TRANSLATION  ACCESS:     124814 HIT:      62981 MISS:      61833 MSHR_MERGE:          0
cpu0->cpu0_L2C PREFETCH REQUESTED:    4311300 ISSUED:    3998175 USEFUL:     408709 USELESS:     336704
cpu0->cpu0_L2C AVERAGE MISS LATENCY: 221.4 cycles
cpu0->cpu0_L1I TOTAL        ACCESS:   26954193 HIT:   26740240 MISS:     213953 MSHR_MERGE:      48711
cpu0->cpu0_L1I LOAD         ACCESS:   26954193 HIT:   26740240 MISS:     213953 MSHR_MERGE:      48711
cpu0->cpu0_L1I RFO          ACCESS:          0 HIT:          0 MISS:          0 MSHR_MERGE:          0
cpu0->cpu0_L1I PREFETCH     ACCESS:          0 HIT:          0 MISS:          0 MSHR_MERGE:          0
cpu0->cpu0_L1I WRITE        ACCESS:          0 HIT:          0 MISS:          0 MSHR_MERGE:          0
cpu0->cpu0_L1I TRANSLATION  ACCESS:          0 HIT:          0 MISS:          0 MSHR_MERGE:          0
cpu0->cpu0_L1I PREFETCH REQUESTED:          0 ISSUED:          0 USEFUL:          0 USELESS:          0
cpu0->cpu0_L1I AVERAGE MISS LATENCY: 129.5 cycles
cpu0->cpu0_L1D TOTAL        ACCESS:   54381746 HIT:   50477035 MISS:    3904711 MSHR_MERGE:    1670105
cpu0->cpu0_L1D LOAD         ACCESS:   23439059 HIT:   22528409 MISS:     910650 MSHR_MERGE:     240774
cpu0->cpu0_L1D RFO          ACCESS:          0 HIT:          0 MISS:          0 MSHR_MERGE:          0
cpu0->cpu0_L1D PREFETCH     ACCESS:   20452986 HIT:   18846470 MISS:    1606516 MSHR_MERGE:     562814
cpu0->cpu0_L1D WRITE        ACCESS:   10164773 HIT:    8905484 MISS:    1259289 MSHR_MERGE:     863075
cpu0->cpu0_L1D TRANSLATION  ACCESS:     324928 HIT:     196672 MISS:     128256 MSHR_MERGE:       3442
cpu0->cpu0_L1D PREFETCH REQUESTED:   25272355 ISSUED:   20452985 USEFUL:     462995 USELESS:     580719
cpu0->cpu0_L1D AVERAGE MISS LATENCY: 93.21 cycles
cpu0->cpu0_ITLB TOTAL        ACCESS:   22515263 HIT:   22470145 MISS:      45118 MSHR_MERGE:      22154
cpu0->cpu0_ITLB LOAD         ACCESS:   22515263 HIT:   22470145 MISS:      45118 MSHR_MERGE:      22154
cpu0->cpu0_ITLB RFO          ACCESS:          0 HIT:          0 MISS:          0 MSHR_MERGE:          0
cpu0->cpu0_ITLB PREFETCH     ACCESS:          0 HIT:          0 MISS:          0 MSHR_MERGE:          0
cpu0->cpu0_ITLB WRITE        ACCESS:          0 HIT:          0 MISS:          0 MSHR_MERGE:          0
cpu0->cpu0_ITLB TRANSLATION  ACCESS:          0 HIT:          0 MISS:          0 MSHR_MERGE:          0
cpu0->cpu0_ITLB PREFETCH REQUESTED:          0 ISSUED:          0 USEFUL:          0 USELESS:          0
cpu0->cpu0_ITLB AVERAGE MISS LATENCY: 59.2 cycles
cpu0->cpu0_DTLB TOTAL        ACCESS:   49285737 HIT:   48324111 MISS:     961626 MSHR_MERGE:     345563
cpu0->cpu0_DTLB LOAD         ACCESS:   49285737 HIT:   48324111 MISS:     961626 MSHR_MERGE:     345563
cpu0->cpu0_DTLB RFO          ACCESS:          0 HIT:          0 MISS:          0 MSHR_MERGE:          0
cpu0->cpu0_DTLB PREFETCH     ACCESS:          0 HIT:          0 MISS:          0 MSHR_MERGE:          0
cpu0->cpu0_DTLB WRITE        ACCESS:          0 HIT:          0 MISS:          0 MSHR_MERGE:          0
cpu0->cpu0_DTLB TRANSLATION  ACCESS:          0 HIT:          0 MISS:          0 MSHR_MERGE:          0
cpu0->cpu0_DTLB PREFETCH REQUESTED:          0 ISSUED:          0 USEFUL:          0 USELESS:          0
cpu0->cpu0_DTLB AVERAGE MISS LATENCY: 47 cycles
cpu0->LLC TOTAL        ACCESS:    2769802 HIT:     796590 MISS:    1973212 MSHR_MERGE:     237625
cpu0->LLC LOAD         ACCESS:     327824 HIT:      94989 MISS:     232835 MSHR_MERGE:       8150
cpu0->LLC RFO          ACCESS:     133439 HIT:      21813 MISS:     111626 MSHR_MERGE:        157
cpu0->LLC PREFETCH     ACCESS:    1835098 HIT:     511111 MISS:    1323987 MSHR_MERGE:     229318
cpu0->LLC WRITE        ACCESS:     411608 HIT:     166157 MISS:     245451 MSHR_MERGE:          0
cpu0->LLC TRANSLATION  ACCESS:      61833 HIT:       2520 MISS:      59313 MSHR_MERGE:          0
cpu0->LLC PREFETCH REQUESTED:    1035890 ISSUED:     885366 USEFUL:     246602 USELESS:     315578
cpu0->LLC AVERAGE MISS LATENCY: 167.7 cycles

DRAM Statistics

Channel 0 RQ ROW_BUFFER_HIT:     165372
  ROW_BUFFER_MISS:    1324649
  AVG DBUS CONGESTED CYCLE: 13.71
Channel 0 WQ ROW_BUFFER_HIT:      51375
  ROW_BUFFER_MISS:     315814
  FULL:       1433
Channel 0 REFRESHES ISSUED:       9109
