[VMEM] WARNING: physical memory size is smaller than virtual memory size.

*** ChampSim Multicore Out-of-Order Simulator ***
Warmup Instructions: 50000000
Simulation Instructions: 200000000
Number of CPUs: 1
Page size: 4096
Core 0: /local-ssd/ben/dpc4-traces/gtraces_v2/tango_0001.champsim.gz
Off-chip DRAM Size: 64 GiB Channels: 1 Width: 64-bit Data Rate: 4807 MT/s
[BTB] WARNING: target of return is a lower address than the corresponding call. This is usually a problem with your trace.
[BTB] WARNING: target of return is a lower address than the corresponding call. This is usually a problem with your trace.
[BTB] WARNING: target of return is a lower address than the corresponding call. This is usually a problem with your trace.
[BTB] WARNING: target of return is a lower address than the corresponding call. This is usually a problem with your trace.
[BTB] WARNING: target of return is a lower address than the corresponding call. This is usually a problem with your trace.
[BTB] WARNING: target of return is a lower address than the corresponding call. This is usually a problem with your trace.
[BTB] WARNING: target of return is a lower address than the corresponding call. This is usually a problem with your trace.
[BTB] WARNING: target of return is a lower address than the corresponding call. This is usually a problem with your trace.
Heartbeat CPU 0 instructions: 500005 cycles: 205081 heartbeat IPC: 2.438 cumulative IPC: 2.438 (Simulation time: 00 hr 00 min 03 sec)
[BTB] WARNING: target of return is a lower address than the corresponding call. This is usually a problem with your trace.
[BTB] WARNING: target of return is a lower address than the corresponding call. This is usually a problem with your trace.
Heartbeat CPU 0 instructions: 1000012 cycles: 448293 heartbeat IPC: 2.056 cumulative IPC: 2.231 (Simulation time: 00 hr 00 min 06 sec)
Heartbeat CPU 0 instructions: 1500019 cycles: 663884 heartbeat IPC: 2.319 cumulative IPC: 2.259 (Simulation time: 00 hr 00 min 09 sec)
Heartbeat CPU 0 instructions: 2000022 cycles: 844029 heartbeat IPC: 2.776 cumulative IPC: 2.37 (Simulation time: 00 hr 00 min 12 sec)
Heartbeat CPU 0 instructions: 2500022 cycles: 1049190 heartbeat IPC: 2.437 cumulative IPC: 2.383 (Simulation time: 00 hr 00 min 15 sec)
Heartbeat CPU 0 instructions: 3000029 cycles: 1294076 heartbeat IPC: 2.042 cumulative IPC: 2.318 (Simulation time: 00 hr 00 min 19 sec)
Heartbeat CPU 0 instructions: 3500034 cycles: 1553603 heartbeat IPC: 1.927 cumulative IPC: 2.253 (Simulation time: 00 hr 00 min 24 sec)
Heartbeat CPU 0 instructions: 4000038 cycles: 1735103 heartbeat IPC: 2.755 cumulative IPC: 2.305 (Simulation time: 00 hr 00 min 27 sec)
Heartbeat CPU 0 instructions: 4500040 cycles: 1890266 heartbeat IPC: 3.222 cumulative IPC: 2.381 (Simulation time: 00 hr 00 min 30 sec)
Heartbeat CPU 0 instructions: 5000046 cycles: 1997402 heartbeat IPC: 4.667 cumulative IPC: 2.503 (Simulation time: 00 hr 00 min 31 sec)
Heartbeat CPU 0 instructions: 5500048 cycles: 2105022 heartbeat IPC: 4.646 cumulative IPC: 2.613 (Simulation time: 00 hr 00 min 34 sec)
Heartbeat CPU 0 instructions: 6000053 cycles: 2211967 heartbeat IPC: 4.675 cumulative IPC: 2.713 (Simulation time: 00 hr 00 min 35 sec)
Heartbeat CPU 0 instructions: 6500053 cycles: 2320893 heartbeat IPC: 4.59 cumulative IPC: 2.801 (Simulation time: 00 hr 00 min 38 sec)
Heartbeat CPU 0 instructions: 7000056 cycles: 2430487 heartbeat IPC: 4.562 cumulative IPC: 2.88 (Simulation time: 00 hr 00 min 40 sec)
Heartbeat CPU 0 instructions: 7500057 cycles: 2535535 heartbeat IPC: 4.76 cumulative IPC: 2.958 (Simulation time: 00 hr 00 min 42 sec)
Heartbeat CPU 0 instructions: 8000062 cycles: 2642811 heartbeat IPC: 4.661 cumulative IPC: 3.027 (Simulation time: 00 hr 00 min 44 sec)
Heartbeat CPU 0 instructions: 8500065 cycles: 2970794 heartbeat IPC: 1.524 cumulative IPC: 2.861 (Simulation time: 00 hr 00 min 47 sec)
Heartbeat CPU 0 instructions: 9000072 cycles: 3134212 heartbeat IPC: 3.06 cumulative IPC: 2.872 (Simulation time: 00 hr 00 min 50 sec)
Heartbeat CPU 0 instructions: 9500073 cycles: 3291579 heartbeat IPC: 3.177 cumulative IPC: 2.886 (Simulation time: 00 hr 00 min 52 sec)
Heartbeat CPU 0 instructions: 10000078 cycles: 3448576 heartbeat IPC: 3.185 cumulative IPC: 2.9 (Simulation time: 00 hr 00 min 54 sec)
Heartbeat CPU 0 instructions: 10500085 cycles: 3573267 heartbeat IPC: 4.01 cumulative IPC: 2.939 (Simulation time: 00 hr 00 min 56 sec)
Heartbeat CPU 0 instructions: 11000092 cycles: 3718282 heartbeat IPC: 3.448 cumulative IPC: 2.958 (Simulation time: 00 hr 00 min 59 sec)
Heartbeat CPU 0 instructions: 11500098 cycles: 3876313 heartbeat IPC: 3.164 cumulative IPC: 2.967 (Simulation time: 00 hr 01 min 01 sec)
Heartbeat CPU 0 instructions: 12000105 cycles: 4024426 heartbeat IPC: 3.376 cumulative IPC: 2.982 (Simulation time: 00 hr 01 min 03 sec)
Heartbeat CPU 0 instructions: 12500108 cycles: 4152789 heartbeat IPC: 3.895 cumulative IPC: 3.01 (Simulation time: 00 hr 01 min 05 sec)
Heartbeat CPU 0 instructions: 13000109 cycles: 4295063 heartbeat IPC: 3.514 cumulative IPC: 3.027 (Simulation time: 00 hr 01 min 07 sec)
Heartbeat CPU 0 instructions: 13500109 cycles: 4484323 heartbeat IPC: 2.642 cumulative IPC: 3.011 (Simulation time: 00 hr 01 min 10 sec)
Heartbeat CPU 0 instructions: 14000110 cycles: 4651168 heartbeat IPC: 2.997 cumulative IPC: 3.01 (Simulation time: 00 hr 01 min 13 sec)
Heartbeat CPU 0 instructions: 14500111 cycles: 4793126 heartbeat IPC: 3.522 cumulative IPC: 3.025 (Simulation time: 00 hr 01 min 15 sec)
Heartbeat CPU 0 instructions: 15000111 cycles: 4918332 heartbeat IPC: 3.993 cumulative IPC: 3.05 (Simulation time: 00 hr 01 min 17 sec)
Heartbeat CPU 0 instructions: 15500113 cycles: 5062192 heartbeat IPC: 3.476 cumulative IPC: 3.062 (Simulation time: 00 hr 01 min 19 sec)
Heartbeat CPU 0 instructions: 16000116 cycles: 5231028 heartbeat IPC: 2.961 cumulative IPC: 3.059 (Simulation time: 00 hr 01 min 22 sec)
Heartbeat CPU 0 instructions: 16500118 cycles: 5384752 heartbeat IPC: 3.253 cumulative IPC: 3.064 (Simulation time: 00 hr 01 min 25 sec)
Heartbeat CPU 0 instructions: 17000123 cycles: 5541358 heartbeat IPC: 3.193 cumulative IPC: 3.068 (Simulation time: 00 hr 01 min 27 sec)
Heartbeat CPU 0 instructions: 17500123 cycles: 5698988 heartbeat IPC: 3.172 cumulative IPC: 3.071 (Simulation time: 00 hr 01 min 30 sec)
Heartbeat CPU 0 instructions: 18000128 cycles: 5841838 heartbeat IPC: 3.5 cumulative IPC: 3.081 (Simulation time: 00 hr 01 min 32 sec)
Heartbeat CPU 0 instructions: 18500128 cycles: 5987538 heartbeat IPC: 3.432 cumulative IPC: 3.09 (Simulation time: 00 hr 01 min 34 sec)
Heartbeat CPU 0 instructions: 19000128 cycles: 6153376 heartbeat IPC: 3.015 cumulative IPC: 3.088 (Simulation time: 00 hr 01 min 37 sec)
Heartbeat CPU 0 instructions: 19500133 cycles: 6315202 heartbeat IPC: 3.09 cumulative IPC: 3.088 (Simulation time: 00 hr 01 min 40 sec)
Heartbeat CPU 0 instructions: 20000136 cycles: 6466297 heartbeat IPC: 3.309 cumulative IPC: 3.093 (Simulation time: 00 hr 01 min 42 sec)
Heartbeat CPU 0 instructions: 20500141 cycles: 6617675 heartbeat IPC: 3.303 cumulative IPC: 3.098 (Simulation time: 00 hr 01 min 44 sec)
Heartbeat CPU 0 instructions: 21000148 cycles: 6767118 heartbeat IPC: 3.346 cumulative IPC: 3.103 (Simulation time: 00 hr 01 min 47 sec)
Heartbeat CPU 0 instructions: 21500155 cycles: 6914348 heartbeat IPC: 3.396 cumulative IPC: 3.109 (Simulation time: 00 hr 01 min 49 sec)
Heartbeat CPU 0 instructions: 22000159 cycles: 7080525 heartbeat IPC: 3.009 cumulative IPC: 3.107 (Simulation time: 00 hr 01 min 52 sec)
Heartbeat CPU 0 instructions: 22500166 cycles: 7193727 heartbeat IPC: 4.417 cumulative IPC: 3.128 (Simulation time: 00 hr 01 min 54 sec)
Heartbeat CPU 0 instructions: 23000168 cycles: 7301472 heartbeat IPC: 4.641 cumulative IPC: 3.15 (Simulation time: 00 hr 01 min 55 sec)
Heartbeat CPU 0 instructions: 23500171 cycles: 7440600 heartbeat IPC: 3.594 cumulative IPC: 3.158 (Simulation time: 00 hr 01 min 58 sec)
Heartbeat CPU 0 instructions: 24000177 cycles: 7590478 heartbeat IPC: 3.336 cumulative IPC: 3.162 (Simulation time: 00 hr 02 min 00 sec)
Heartbeat CPU 0 instructions: 24500183 cycles: 7734475 heartbeat IPC: 3.472 cumulative IPC: 3.168 (Simulation time: 00 hr 02 min 02 sec)
Heartbeat CPU 0 instructions: 25000189 cycles: 7845066 heartbeat IPC: 4.521 cumulative IPC: 3.187 (Simulation time: 00 hr 02 min 04 sec)
Heartbeat CPU 0 instructions: 25500195 cycles: 7965408 heartbeat IPC: 4.155 cumulative IPC: 3.201 (Simulation time: 00 hr 02 min 06 sec)
Heartbeat CPU 0 instructions: 26000200 cycles: 8135948 heartbeat IPC: 2.932 cumulative IPC: 3.196 (Simulation time: 00 hr 02 min 09 sec)
Heartbeat CPU 0 instructions: 26500200 cycles: 8273446 heartbeat IPC: 3.636 cumulative IPC: 3.203 (Simulation time: 00 hr 02 min 11 sec)
Heartbeat CPU 0 instructions: 27000207 cycles: 8411820 heartbeat IPC: 3.613 cumulative IPC: 3.21 (Simulation time: 00 hr 02 min 13 sec)
Heartbeat CPU 0 instructions: 27500208 cycles: 8534805 heartbeat IPC: 4.066 cumulative IPC: 3.222 (Simulation time: 00 hr 02 min 15 sec)
Heartbeat CPU 0 instructions: 28000214 cycles: 8689529 heartbeat IPC: 3.232 cumulative IPC: 3.222 (Simulation time: 00 hr 02 min 18 sec)
Heartbeat CPU 0 instructions: 28500214 cycles: 8826591 heartbeat IPC: 3.648 cumulative IPC: 3.229 (Simulation time: 00 hr 02 min 20 sec)
Heartbeat CPU 0 instructions: 29000214 cycles: 8962879 heartbeat IPC: 3.669 cumulative IPC: 3.236 (Simulation time: 00 hr 02 min 22 sec)
Heartbeat CPU 0 instructions: 29500215 cycles: 9095034 heartbeat IPC: 3.783 cumulative IPC: 3.244 (Simulation time: 00 hr 02 min 24 sec)
Heartbeat CPU 0 instructions: 30000220 cycles: 9216249 heartbeat IPC: 4.125 cumulative IPC: 3.255 (Simulation time: 00 hr 02 min 26 sec)
Heartbeat CPU 0 instructions: 30500224 cycles: 9355750 heartbeat IPC: 3.584 cumulative IPC: 3.26 (Simulation time: 00 hr 02 min 29 sec)
Heartbeat CPU 0 instructions: 31000231 cycles: 9491791 heartbeat IPC: 3.675 cumulative IPC: 3.266 (Simulation time: 00 hr 02 min 31 sec)
Heartbeat CPU 0 instructions: 31500233 cycles: 9649431 heartbeat IPC: 3.172 cumulative IPC: 3.264 (Simulation time: 00 hr 02 min 33 sec)
Heartbeat CPU 0 instructions: 32000235 cycles: 9787764 heartbeat IPC: 3.614 cumulative IPC: 3.269 (Simulation time: 00 hr 02 min 36 sec)
Heartbeat CPU 0 instructions: 32500241 cycles: 9923864 heartbeat IPC: 3.674 cumulative IPC: 3.275 (Simulation time: 00 hr 02 min 38 sec)
Heartbeat CPU 0 instructions: 33000242 cycles: 10073094 heartbeat IPC: 3.351 cumulative IPC: 3.276 (Simulation time: 00 hr 02 min 40 sec)
Heartbeat CPU 0 instructions: 33500243 cycles: 10206550 heartbeat IPC: 3.747 cumulative IPC: 3.282 (Simulation time: 00 hr 02 min 42 sec)
Heartbeat CPU 0 instructions: 34000243 cycles: 10349779 heartbeat IPC: 3.491 cumulative IPC: 3.285 (Simulation time: 00 hr 02 min 45 sec)
Heartbeat CPU 0 instructions: 34500243 cycles: 10489875 heartbeat IPC: 3.569 cumulative IPC: 3.289 (Simulation time: 00 hr 02 min 47 sec)
Heartbeat CPU 0 instructions: 35000249 cycles: 10618140 heartbeat IPC: 3.898 cumulative IPC: 3.296 (Simulation time: 00 hr 02 min 49 sec)
Heartbeat CPU 0 instructions: 35500253 cycles: 10747059 heartbeat IPC: 3.878 cumulative IPC: 3.303 (Simulation time: 00 hr 02 min 51 sec)
Heartbeat CPU 0 instructions: 36000256 cycles: 10867955 heartbeat IPC: 4.136 cumulative IPC: 3.313 (Simulation time: 00 hr 02 min 53 sec)
Heartbeat CPU 0 instructions: 36500263 cycles: 10980331 heartbeat IPC: 4.449 cumulative IPC: 3.324 (Simulation time: 00 hr 02 min 55 sec)
Heartbeat CPU 0 instructions: 37000264 cycles: 11108622 heartbeat IPC: 3.897 cumulative IPC: 3.331 (Simulation time: 00 hr 02 min 57 sec)
Heartbeat CPU 0 instructions: 37500266 cycles: 11220877 heartbeat IPC: 4.454 cumulative IPC: 3.342 (Simulation time: 00 hr 02 min 59 sec)
Heartbeat CPU 0 instructions: 38000270 cycles: 11349491 heartbeat IPC: 3.888 cumulative IPC: 3.348 (Simulation time: 00 hr 03 min 02 sec)
Heartbeat CPU 0 instructions: 38500272 cycles: 11485953 heartbeat IPC: 3.664 cumulative IPC: 3.352 (Simulation time: 00 hr 03 min 04 sec)
Heartbeat CPU 0 instructions: 39000278 cycles: 11636859 heartbeat IPC: 3.313 cumulative IPC: 3.351 (Simulation time: 00 hr 03 min 06 sec)
Heartbeat CPU 0 instructions: 39500283 cycles: 11793251 heartbeat IPC: 3.197 cumulative IPC: 3.349 (Simulation time: 00 hr 03 min 09 sec)
Heartbeat CPU 0 instructions: 40000283 cycles: 11907798 heartbeat IPC: 4.365 cumulative IPC: 3.359 (Simulation time: 00 hr 03 min 11 sec)
Heartbeat CPU 0 instructions: 40500285 cycles: 12014611 heartbeat IPC: 4.681 cumulative IPC: 3.371 (Simulation time: 00 hr 03 min 12 sec)
Heartbeat CPU 0 instructions: 41000288 cycles: 12141081 heartbeat IPC: 3.954 cumulative IPC: 3.377 (Simulation time: 00 hr 03 min 14 sec)
Heartbeat CPU 0 instructions: 41500291 cycles: 12269270 heartbeat IPC: 3.901 cumulative IPC: 3.382 (Simulation time: 00 hr 03 min 16 sec)
Heartbeat CPU 0 instructions: 42000292 cycles: 12395300 heartbeat IPC: 3.967 cumulative IPC: 3.388 (Simulation time: 00 hr 03 min 18 sec)
Heartbeat CPU 0 instructions: 42500297 cycles: 12533133 heartbeat IPC: 3.628 cumulative IPC: 3.391 (Simulation time: 00 hr 03 min 21 sec)
Heartbeat CPU 0 instructions: 43000300 cycles: 12680352 heartbeat IPC: 3.396 cumulative IPC: 3.391 (Simulation time: 00 hr 03 min 23 sec)
Heartbeat CPU 0 instructions: 43500301 cycles: 12792011 heartbeat IPC: 4.478 cumulative IPC: 3.401 (Simulation time: 00 hr 03 min 25 sec)
Heartbeat CPU 0 instructions: 44000303 cycles: 12921868 heartbeat IPC: 3.85 cumulative IPC: 3.405 (Simulation time: 00 hr 03 min 27 sec)
Heartbeat CPU 0 instructions: 44500303 cycles: 13051940 heartbeat IPC: 3.844 cumulative IPC: 3.409 (Simulation time: 00 hr 03 min 29 sec)
Heartbeat CPU 0 instructions: 45000306 cycles: 13195024 heartbeat IPC: 3.494 cumulative IPC: 3.41 (Simulation time: 00 hr 03 min 31 sec)
Heartbeat CPU 0 instructions: 45500307 cycles: 13344257 heartbeat IPC: 3.35 cumulative IPC: 3.41 (Simulation time: 00 hr 03 min 34 sec)
Heartbeat CPU 0 instructions: 46000307 cycles: 13480450 heartbeat IPC: 3.671 cumulative IPC: 3.412 (Simulation time: 00 hr 03 min 36 sec)
Heartbeat CPU 0 instructions: 46500308 cycles: 13608839 heartbeat IPC: 3.894 cumulative IPC: 3.417 (Simulation time: 00 hr 03 min 38 sec)
Heartbeat CPU 0 instructions: 47000314 cycles: 13751800 heartbeat IPC: 3.497 cumulative IPC: 3.418 (Simulation time: 00 hr 03 min 40 sec)
Heartbeat CPU 0 instructions: 47500316 cycles: 13880742 heartbeat IPC: 3.878 cumulative IPC: 3.422 (Simulation time: 00 hr 03 min 43 sec)
Heartbeat CPU 0 instructions: 48000319 cycles: 14008314 heartbeat IPC: 3.919 cumulative IPC: 3.427 (Simulation time: 00 hr 03 min 45 sec)
Heartbeat CPU 0 instructions: 48500324 cycles: 14144677 heartbeat IPC: 3.667 cumulative IPC: 3.429 (Simulation time: 00 hr 03 min 47 sec)
Heartbeat CPU 0 instructions: 49000326 cycles: 14266788 heartbeat IPC: 4.095 cumulative IPC: 3.435 (Simulation time: 00 hr 03 min 49 sec)
Heartbeat CPU 0 instructions: 49500333 cycles: 14374835 heartbeat IPC: 4.628 cumulative IPC: 3.444 (Simulation time: 00 hr 03 min 51 sec)
Warmup halting CPU 0 at instruction 50000000 cycle 14518134 for remainder of phase
Warmup finished CPU 0 instructions: 50000000 cycles: 14518134 cumulative IPC: 3.444 (Simulation time: 00 hr 03 min 53 sec)
Warmup complete CPU 0 instructions: 50000000 cycles: 14518134 cumulative IPC: 3.444 (Simulation time: 00 hr 03 min 53 sec)
Heartbeat CPU 0 instructions: 50000336 cycles: 14519360 heartbeat IPC: 3.46 cumulative IPC: 0.2741 (Simulation time: 00 hr 03 min 53 sec)
Heartbeat CPU 0 instructions: 50500339 cycles: 16047747 heartbeat IPC: 0.3271 cumulative IPC: 0.3271 (Simulation time: 00 hr 04 min 03 sec)
Heartbeat CPU 0 instructions: 51000340 cycles: 17518930 heartbeat IPC: 0.3399 cumulative IPC: 0.3334 (Simulation time: 00 hr 04 min 14 sec)
Heartbeat CPU 0 instructions: 51500340 cycles: 18186444 heartbeat IPC: 0.749 cumulative IPC: 0.409 (Simulation time: 00 hr 04 min 19 sec)
Heartbeat CPU 0 instructions: 52000340 cycles: 18795333 heartbeat IPC: 0.8212 cumulative IPC: 0.4677 (Simulation time: 00 hr 04 min 24 sec)
Heartbeat CPU 0 instructions: 52500342 cycles: 19502727 heartbeat IPC: 0.7068 cumulative IPC: 0.5016 (Simulation time: 00 hr 04 min 30 sec)
Heartbeat CPU 0 instructions: 53000342 cycles: 21201972 heartbeat IPC: 0.2942 cumulative IPC: 0.4489 (Simulation time: 00 hr 04 min 40 sec)
Heartbeat CPU 0 instructions: 53500343 cycles: 22602036 heartbeat IPC: 0.3571 cumulative IPC: 0.433 (Simulation time: 00 hr 04 min 49 sec)
Heartbeat CPU 0 instructions: 54000345 cycles: 23562081 heartbeat IPC: 0.5208 cumulative IPC: 0.4423 (Simulation time: 00 hr 04 min 56 sec)
Heartbeat CPU 0 instructions: 54500346 cycles: 24117983 heartbeat IPC: 0.8994 cumulative IPC: 0.4688 (Simulation time: 00 hr 05 min 00 sec)
Heartbeat CPU 0 instructions: 55000353 cycles: 24686809 heartbeat IPC: 0.879 cumulative IPC: 0.4917 (Simulation time: 00 hr 05 min 05 sec)
Heartbeat CPU 0 instructions: 55500354 cycles: 25168160 heartbeat IPC: 1.039 cumulative IPC: 0.5165 (Simulation time: 00 hr 05 min 09 sec)
Heartbeat CPU 0 instructions: 56000354 cycles: 25678255 heartbeat IPC: 0.9802 cumulative IPC: 0.5377 (Simulation time: 00 hr 05 min 13 sec)
Heartbeat CPU 0 instructions: 56500359 cycles: 26121178 heartbeat IPC: 1.129 cumulative IPC: 0.5602 (Simulation time: 00 hr 05 min 17 sec)
Heartbeat CPU 0 instructions: 57000365 cycles: 26620537 heartbeat IPC: 1.001 cumulative IPC: 0.5784 (Simulation time: 00 hr 05 min 21 sec)
Heartbeat CPU 0 instructions: 57500368 cycles: 27136566 heartbeat IPC: 0.9689 cumulative IPC: 0.5944 (Simulation time: 00 hr 05 min 26 sec)
Heartbeat CPU 0 instructions: 58000368 cycles: 27555614 heartbeat IPC: 1.193 cumulative IPC: 0.6136 (Simulation time: 00 hr 05 min 29 sec)
Heartbeat CPU 0 instructions: 58500369 cycles: 28020069 heartbeat IPC: 1.077 cumulative IPC: 0.6296 (Simulation time: 00 hr 05 min 33 sec)
Heartbeat CPU 0 instructions: 59000376 cycles: 28477421 heartbeat IPC: 1.093 cumulative IPC: 0.6448 (Simulation time: 00 hr 05 min 37 sec)
Heartbeat CPU 0 instructions: 59500381 cycles: 29543588 heartbeat IPC: 0.469 cumulative IPC: 0.6323 (Simulation time: 00 hr 05 min 48 sec)
Heartbeat CPU 0 instructions: 60000381 cycles: 31482421 heartbeat IPC: 0.2579 cumulative IPC: 0.5895 (Simulation time: 00 hr 06 min 07 sec)
Heartbeat CPU 0 instructions: 60500387 cycles: 32381738 heartbeat IPC: 0.556 cumulative IPC: 0.5878 (Simulation time: 00 hr 06 min 15 sec)
Heartbeat CPU 0 instructions: 61000393 cycles: 32769608 heartbeat IPC: 1.289 cumulative IPC: 0.6027 (Simulation time: 00 hr 06 min 20 sec)
Heartbeat CPU 0 instructions: 61500394 cycles: 32970763 heartbeat IPC: 2.486 cumulative IPC: 0.6232 (Simulation time: 00 hr 06 min 22 sec)
Heartbeat CPU 0 instructions: 62000394 cycles: 33320411 heartbeat IPC: 1.43 cumulative IPC: 0.6382 (Simulation time: 00 hr 06 min 26 sec)
Heartbeat CPU 0 instructions: 62500394 cycles: 33816196 heartbeat IPC: 1.009 cumulative IPC: 0.6478 (Simulation time: 00 hr 06 min 31 sec)
Heartbeat CPU 0 instructions: 63000400 cycles: 34085931 heartbeat IPC: 1.854 cumulative IPC: 0.6644 (Simulation time: 00 hr 06 min 33 sec)
Heartbeat CPU 0 instructions: 63500400 cycles: 34571094 heartbeat IPC: 1.031 cumulative IPC: 0.6732 (Simulation time: 00 hr 06 min 37 sec)
Heartbeat CPU 0 instructions: 64000400 cycles: 36371669 heartbeat IPC: 0.2777 cumulative IPC: 0.6406 (Simulation time: 00 hr 06 min 49 sec)
Heartbeat CPU 0 instructions: 64500404 cycles: 38506787 heartbeat IPC: 0.2342 cumulative IPC: 0.6045 (Simulation time: 00 hr 07 min 02 sec)
Heartbeat CPU 0 instructions: 65000405 cycles: 39599416 heartbeat IPC: 0.4576 cumulative IPC: 0.5981 (Simulation time: 00 hr 07 min 09 sec)
Heartbeat CPU 0 instructions: 65500405 cycles: 41080672 heartbeat IPC: 0.3376 cumulative IPC: 0.5835 (Simulation time: 00 hr 07 min 19 sec)
Heartbeat CPU 0 instructions: 66000409 cycles: 42312006 heartbeat IPC: 0.4061 cumulative IPC: 0.5757 (Simulation time: 00 hr 07 min 27 sec)
Heartbeat CPU 0 instructions: 66500409 cycles: 44214356 heartbeat IPC: 0.2628 cumulative IPC: 0.5556 (Simulation time: 00 hr 07 min 40 sec)
Heartbeat CPU 0 instructions: 67000412 cycles: 45930334 heartbeat IPC: 0.2914 cumulative IPC: 0.5412 (Simulation time: 00 hr 07 min 51 sec)
Heartbeat CPU 0 instructions: 67500412 cycles: 47453735 heartbeat IPC: 0.3282 cumulative IPC: 0.5314 (Simulation time: 00 hr 08 min 01 sec)
Heartbeat CPU 0 instructions: 68000413 cycles: 48055748 heartbeat IPC: 0.8305 cumulative IPC: 0.5367 (Simulation time: 00 hr 08 min 06 sec)
Heartbeat CPU 0 instructions: 68500413 cycles: 49571454 heartbeat IPC: 0.3299 cumulative IPC: 0.5278 (Simulation time: 00 hr 08 min 15 sec)
Heartbeat CPU 0 instructions: 69000413 cycles: 50249284 heartbeat IPC: 0.7376 cumulative IPC: 0.5318 (Simulation time: 00 hr 08 min 20 sec)
Heartbeat CPU 0 instructions: 69500415 cycles: 51187494 heartbeat IPC: 0.5329 cumulative IPC: 0.5318 (Simulation time: 00 hr 08 min 27 sec)
Heartbeat CPU 0 instructions: 70000416 cycles: 51643272 heartbeat IPC: 1.097 cumulative IPC: 0.5387 (Simulation time: 00 hr 08 min 31 sec)
Heartbeat CPU 0 instructions: 70500418 cycles: 52050497 heartbeat IPC: 1.228 cumulative IPC: 0.5462 (Simulation time: 00 hr 08 min 35 sec)
Heartbeat CPU 0 instructions: 71000424 cycles: 52483636 heartbeat IPC: 1.154 cumulative IPC: 0.5531 (Simulation time: 00 hr 08 min 39 sec)
Heartbeat CPU 0 instructions: 71500431 cycles: 53070087 heartbeat IPC: 0.8526 cumulative IPC: 0.5577 (Simulation time: 00 hr 08 min 44 sec)
Heartbeat CPU 0 instructions: 72000431 cycles: 53575305 heartbeat IPC: 0.9897 cumulative IPC: 0.5633 (Simulation time: 00 hr 08 min 49 sec)
Heartbeat CPU 0 instructions: 72500431 cycles: 53922732 heartbeat IPC: 1.439 cumulative IPC: 0.571 (Simulation time: 00 hr 08 min 52 sec)
Heartbeat CPU 0 instructions: 73000431 cycles: 55055663 heartbeat IPC: 0.4413 cumulative IPC: 0.5674 (Simulation time: 00 hr 09 min 01 sec)
Heartbeat CPU 0 instructions: 73500431 cycles: 56121250 heartbeat IPC: 0.4692 cumulative IPC: 0.5649 (Simulation time: 00 hr 09 min 09 sec)
Heartbeat CPU 0 instructions: 74000433 cycles: 56814544 heartbeat IPC: 0.7212 cumulative IPC: 0.5674 (Simulation time: 00 hr 09 min 15 sec)
Heartbeat CPU 0 instructions: 74500434 cycles: 57731369 heartbeat IPC: 0.5454 cumulative IPC: 0.567 (Simulation time: 00 hr 09 min 22 sec)
Heartbeat CPU 0 instructions: 75000437 cycles: 60298316 heartbeat IPC: 0.1948 cumulative IPC: 0.5461 (Simulation time: 00 hr 09 min 39 sec)
Heartbeat CPU 0 instructions: 75500438 cycles: 62063602 heartbeat IPC: 0.2832 cumulative IPC: 0.5363 (Simulation time: 00 hr 09 min 50 sec)
Heartbeat CPU 0 instructions: 76000439 cycles: 63528940 heartbeat IPC: 0.3412 cumulative IPC: 0.5305 (Simulation time: 00 hr 10 min 00 sec)
Heartbeat CPU 0 instructions: 76500444 cycles: 64881762 heartbeat IPC: 0.3696 cumulative IPC: 0.5262 (Simulation time: 00 hr 10 min 08 sec)
Heartbeat CPU 0 instructions: 77000451 cycles: 65722264 heartbeat IPC: 0.5949 cumulative IPC: 0.5273 (Simulation time: 00 hr 10 min 14 sec)
Heartbeat CPU 0 instructions: 77500451 cycles: 67162192 heartbeat IPC: 0.3472 cumulative IPC: 0.5224 (Simulation time: 00 hr 10 min 25 sec)
Heartbeat CPU 0 instructions: 78000452 cycles: 68370185 heartbeat IPC: 0.4139 cumulative IPC: 0.52 (Simulation time: 00 hr 10 min 34 sec)
Heartbeat CPU 0 instructions: 78500453 cycles: 69004775 heartbeat IPC: 0.7879 cumulative IPC: 0.5231 (Simulation time: 00 hr 10 min 39 sec)
Heartbeat CPU 0 instructions: 79000458 cycles: 70768564 heartbeat IPC: 0.2835 cumulative IPC: 0.5156 (Simulation time: 00 hr 10 min 50 sec)
Heartbeat CPU 0 instructions: 79500458 cycles: 72301727 heartbeat IPC: 0.3261 cumulative IPC: 0.5105 (Simulation time: 00 hr 11 min 00 sec)
Heartbeat CPU 0 instructions: 80000461 cycles: 73320226 heartbeat IPC: 0.4909 cumulative IPC: 0.5102 (Simulation time: 00 hr 11 min 08 sec)
Heartbeat CPU 0 instructions: 80500462 cycles: 74961138 heartbeat IPC: 0.3047 cumulative IPC: 0.5046 (Simulation time: 00 hr 11 min 18 sec)
Heartbeat CPU 0 instructions: 81000466 cycles: 76008125 heartbeat IPC: 0.4776 cumulative IPC: 0.5042 (Simulation time: 00 hr 11 min 25 sec)
Heartbeat CPU 0 instructions: 81500466 cycles: 76752158 heartbeat IPC: 0.672 cumulative IPC: 0.5062 (Simulation time: 00 hr 11 min 30 sec)
Heartbeat CPU 0 instructions: 82000466 cycles: 78658143 heartbeat IPC: 0.2623 cumulative IPC: 0.4989 (Simulation time: 00 hr 11 min 42 sec)
Heartbeat CPU 0 instructions: 82500466 cycles: 79903297 heartbeat IPC: 0.4016 cumulative IPC: 0.4971 (Simulation time: 00 hr 11 min 51 sec)
Heartbeat CPU 0 instructions: 83000469 cycles: 81397130 heartbeat IPC: 0.3347 cumulative IPC: 0.4934 (Simulation time: 00 hr 12 min 00 sec)
Heartbeat CPU 0 instructions: 83500474 cycles: 82117873 heartbeat IPC: 0.6937 cumulative IPC: 0.4956 (Simulation time: 00 hr 12 min 06 sec)
Heartbeat CPU 0 instructions: 84000474 cycles: 82512671 heartbeat IPC: 1.266 cumulative IPC: 0.5 (Simulation time: 00 hr 12 min 09 sec)
Heartbeat CPU 0 instructions: 84500475 cycles: 83078488 heartbeat IPC: 0.8837 cumulative IPC: 0.5032 (Simulation time: 00 hr 12 min 14 sec)
Heartbeat CPU 0 instructions: 85000477 cycles: 83503227 heartbeat IPC: 1.177 cumulative IPC: 0.5074 (Simulation time: 00 hr 12 min 19 sec)
Heartbeat CPU 0 instructions: 85500482 cycles: 84224755 heartbeat IPC: 0.693 cumulative IPC: 0.5093 (Simulation time: 00 hr 12 min 24 sec)
Heartbeat CPU 0 instructions: 86000482 cycles: 85763303 heartbeat IPC: 0.325 cumulative IPC: 0.5053 (Simulation time: 00 hr 12 min 35 sec)
Heartbeat CPU 0 instructions: 86500482 cycles: 87530099 heartbeat IPC: 0.283 cumulative IPC: 0.4999 (Simulation time: 00 hr 12 min 47 sec)
Heartbeat CPU 0 instructions: 87000482 cycles: 88996512 heartbeat IPC: 0.341 cumulative IPC: 0.4968 (Simulation time: 00 hr 12 min 56 sec)
Heartbeat CPU 0 instructions: 87500485 cycles: 89616569 heartbeat IPC: 0.8064 cumulative IPC: 0.4994 (Simulation time: 00 hr 13 min 01 sec)
Heartbeat CPU 0 instructions: 88000485 cycles: 91333456 heartbeat IPC: 0.2912 cumulative IPC: 0.4947 (Simulation time: 00 hr 13 min 12 sec)
Heartbeat CPU 0 instructions: 88500485 cycles: 91871241 heartbeat IPC: 0.9297 cumulative IPC: 0.4977 (Simulation time: 00 hr 13 min 17 sec)
Heartbeat CPU 0 instructions: 89000485 cycles: 92302022 heartbeat IPC: 1.161 cumulative IPC: 0.5014 (Simulation time: 00 hr 13 min 21 sec)
Heartbeat CPU 0 instructions: 89500485 cycles: 92704519 heartbeat IPC: 1.242 cumulative IPC: 0.5052 (Simulation time: 00 hr 13 min 25 sec)
Heartbeat CPU 0 instructions: 90000485 cycles: 93657005 heartbeat IPC: 0.5249 cumulative IPC: 0.5054 (Simulation time: 00 hr 13 min 32 sec)
Heartbeat CPU 0 instructions: 90500486 cycles: 94362048 heartbeat IPC: 0.7092 cumulative IPC: 0.5072 (Simulation time: 00 hr 13 min 38 sec)
Heartbeat CPU 0 instructions: 91000493 cycles: 94848977 heartbeat IPC: 1.027 cumulative IPC: 0.5104 (Simulation time: 00 hr 13 min 42 sec)
Heartbeat CPU 0 instructions: 91500498 cycles: 95251914 heartbeat IPC: 1.241 cumulative IPC: 0.514 (Simulation time: 00 hr 13 min 46 sec)
Heartbeat CPU 0 instructions: 92000498 cycles: 95522306 heartbeat IPC: 1.849 cumulative IPC: 0.5185 (Simulation time: 00 hr 13 min 49 sec)
Heartbeat CPU 0 instructions: 92500499 cycles: 95847001 heartbeat IPC: 1.54 cumulative IPC: 0.5226 (Simulation time: 00 hr 13 min 53 sec)
Heartbeat CPU 0 instructions: 93000499 cycles: 97116406 heartbeat IPC: 0.3939 cumulative IPC: 0.5206 (Simulation time: 00 hr 14 min 02 sec)
Heartbeat CPU 0 instructions: 93500499 cycles: 97767639 heartbeat IPC: 0.7678 cumulative IPC: 0.5225 (Simulation time: 00 hr 14 min 08 sec)
Heartbeat CPU 0 instructions: 94000502 cycles: 98227704 heartbeat IPC: 1.087 cumulative IPC: 0.5256 (Simulation time: 00 hr 14 min 13 sec)
Heartbeat CPU 0 instructions: 94500504 cycles: 98896812 heartbeat IPC: 0.7473 cumulative IPC: 0.5274 (Simulation time: 00 hr 14 min 19 sec)
Heartbeat CPU 0 instructions: 95000505 cycles: 99394589 heartbeat IPC: 1.004 cumulative IPC: 0.5302 (Simulation time: 00 hr 14 min 24 sec)
Heartbeat CPU 0 instructions: 95500505 cycles: 100913265 heartbeat IPC: 0.3292 cumulative IPC: 0.5267 (Simulation time: 00 hr 14 min 33 sec)
Heartbeat CPU 0 instructions: 96000512 cycles: 101452620 heartbeat IPC: 0.927 cumulative IPC: 0.5291 (Simulation time: 00 hr 14 min 38 sec)
Heartbeat CPU 0 instructions: 96500518 cycles: 102978421 heartbeat IPC: 0.3277 cumulative IPC: 0.5257 (Simulation time: 00 hr 14 min 47 sec)
Heartbeat CPU 0 instructions: 97000523 cycles: 104108265 heartbeat IPC: 0.4425 cumulative IPC: 0.5246 (Simulation time: 00 hr 14 min 55 sec)
Heartbeat CPU 0 instructions: 97500523 cycles: 105182182 heartbeat IPC: 0.4656 cumulative IPC: 0.5239 (Simulation time: 00 hr 15 min 02 sec)
Heartbeat CPU 0 instructions: 98000523 cycles: 106663831 heartbeat IPC: 0.3375 cumulative IPC: 0.5209 (Simulation time: 00 hr 15 min 12 sec)
Heartbeat CPU 0 instructions: 98500530 cycles: 107928293 heartbeat IPC: 0.3954 cumulative IPC: 0.5192 (Simulation time: 00 hr 15 min 20 sec)
Heartbeat CPU 0 instructions: 99000534 cycles: 108743256 heartbeat IPC: 0.6135 cumulative IPC: 0.52 (Simulation time: 00 hr 15 min 26 sec)
Heartbeat CPU 0 instructions: 99500537 cycles: 109612067 heartbeat IPC: 0.5755 cumulative IPC: 0.5205 (Simulation time: 00 hr 15 min 32 sec)
Heartbeat CPU 0 instructions: 100000543 cycles: 109996421 heartbeat IPC: 1.301 cumulative IPC: 0.5237 (Simulation time: 00 hr 15 min 36 sec)
Heartbeat CPU 0 instructions: 100500544 cycles: 111702732 heartbeat IPC: 0.293 cumulative IPC: 0.5196 (Simulation time: 00 hr 15 min 47 sec)
Heartbeat CPU 0 instructions: 101000544 cycles: 112639536 heartbeat IPC: 0.5337 cumulative IPC: 0.5198 (Simulation time: 00 hr 15 min 53 sec)
Heartbeat CPU 0 instructions: 101500545 cycles: 113914633 heartbeat IPC: 0.3921 cumulative IPC: 0.5181 (Simulation time: 00 hr 16 min 02 sec)
Heartbeat CPU 0 instructions: 102000546 cycles: 115181064 heartbeat IPC: 0.3948 cumulative IPC: 0.5166 (Simulation time: 00 hr 16 min 10 sec)
Heartbeat CPU 0 instructions: 102500549 cycles: 116265000 heartbeat IPC: 0.4613 cumulative IPC: 0.516 (Simulation time: 00 hr 16 min 17 sec)
Heartbeat CPU 0 instructions: 103000549 cycles: 117573026 heartbeat IPC: 0.3823 cumulative IPC: 0.5143 (Simulation time: 00 hr 16 min 28 sec)
Heartbeat CPU 0 instructions: 103500554 cycles: 118521578 heartbeat IPC: 0.5271 cumulative IPC: 0.5144 (Simulation time: 00 hr 16 min 34 sec)
Heartbeat CPU 0 instructions: 104000559 cycles: 120249028 heartbeat IPC: 0.2894 cumulative IPC: 0.5107 (Simulation time: 00 hr 16 min 46 sec)
Heartbeat CPU 0 instructions: 104500563 cycles: 120627552 heartbeat IPC: 1.321 cumulative IPC: 0.5136 (Simulation time: 00 hr 16 min 49 sec)
Heartbeat CPU 0 instructions: 105000563 cycles: 122053563 heartbeat IPC: 0.3506 cumulative IPC: 0.5115 (Simulation time: 00 hr 16 min 59 sec)
Heartbeat CPU 0 instructions: 105500568 cycles: 122513171 heartbeat IPC: 1.088 cumulative IPC: 0.5139 (Simulation time: 00 hr 17 min 03 sec)
Heartbeat CPU 0 instructions: 106000570 cycles: 122949813 heartbeat IPC: 1.145 cumulative IPC: 0.5165 (Simulation time: 00 hr 17 min 07 sec)
Heartbeat CPU 0 instructions: 106500572 cycles: 123294116 heartbeat IPC: 1.452 cumulative IPC: 0.5194 (Simulation time: 00 hr 17 min 10 sec)
Heartbeat CPU 0 instructions: 107000573 cycles: 123608648 heartbeat IPC: 1.59 cumulative IPC: 0.5225 (Simulation time: 00 hr 17 min 13 sec)
Heartbeat CPU 0 instructions: 107500573 cycles: 125470397 heartbeat IPC: 0.2686 cumulative IPC: 0.5182 (Simulation time: 00 hr 17 min 24 sec)
Heartbeat CPU 0 instructions: 108000574 cycles: 127168368 heartbeat IPC: 0.2945 cumulative IPC: 0.5149 (Simulation time: 00 hr 17 min 35 sec)
Heartbeat CPU 0 instructions: 108500576 cycles: 128608030 heartbeat IPC: 0.3473 cumulative IPC: 0.5128 (Simulation time: 00 hr 17 min 44 sec)
Heartbeat CPU 0 instructions: 109000576 cycles: 129573745 heartbeat IPC: 0.5178 cumulative IPC: 0.5128 (Simulation time: 00 hr 17 min 51 sec)
Heartbeat CPU 0 instructions: 109500577 cycles: 130571106 heartbeat IPC: 0.5013 cumulative IPC: 0.5127 (Simulation time: 00 hr 17 min 58 sec)
Heartbeat CPU 0 instructions: 110000578 cycles: 131801249 heartbeat IPC: 0.4065 cumulative IPC: 0.5116 (Simulation time: 00 hr 18 min 06 sec)
Heartbeat CPU 0 instructions: 110500578 cycles: 133377954 heartbeat IPC: 0.3171 cumulative IPC: 0.509 (Simulation time: 00 hr 18 min 15 sec)
Heartbeat CPU 0 instructions: 111000581 cycles: 134963022 heartbeat IPC: 0.3154 cumulative IPC: 0.5065 (Simulation time: 00 hr 18 min 25 sec)
Heartbeat CPU 0 instructions: 111500582 cycles: 135824810 heartbeat IPC: 0.5802 cumulative IPC: 0.507 (Simulation time: 00 hr 18 min 32 sec)
Heartbeat CPU 0 instructions: 112000583 cycles: 137035876 heartbeat IPC: 0.4129 cumulative IPC: 0.5061 (Simulation time: 00 hr 18 min 40 sec)
Heartbeat CPU 0 instructions: 112500588 cycles: 137719256 heartbeat IPC: 0.7317 cumulative IPC: 0.5073 (Simulation time: 00 hr 18 min 45 sec)
Heartbeat CPU 0 instructions: 113000594 cycles: 138490909 heartbeat IPC: 0.648 cumulative IPC: 0.5082 (Simulation time: 00 hr 18 min 51 sec)
Heartbeat CPU 0 instructions: 113500600 cycles: 138778577 heartbeat IPC: 1.738 cumulative IPC: 0.511 (Simulation time: 00 hr 18 min 54 sec)
Heartbeat CPU 0 instructions: 114000601 cycles: 139134082 heartbeat IPC: 1.406 cumulative IPC: 0.5136 (Simulation time: 00 hr 18 min 57 sec)
Heartbeat CPU 0 instructions: 114500604 cycles: 139427561 heartbeat IPC: 1.704 cumulative IPC: 0.5164 (Simulation time: 00 hr 19 min 00 sec)
Heartbeat CPU 0 instructions: 115000605 cycles: 140944492 heartbeat IPC: 0.3296 cumulative IPC: 0.5141 (Simulation time: 00 hr 19 min 10 sec)
Heartbeat CPU 0 instructions: 115500605 cycles: 142692025 heartbeat IPC: 0.2861 cumulative IPC: 0.511 (Simulation time: 00 hr 19 min 21 sec)
Heartbeat CPU 0 instructions: 116000607 cycles: 144226865 heartbeat IPC: 0.3258 cumulative IPC: 0.5088 (Simulation time: 00 hr 19 min 31 sec)
Heartbeat CPU 0 instructions: 116500607 cycles: 145206130 heartbeat IPC: 0.5106 cumulative IPC: 0.5089 (Simulation time: 00 hr 19 min 37 sec)
Heartbeat CPU 0 instructions: 117000609 cycles: 146083341 heartbeat IPC: 0.57 cumulative IPC: 0.5093 (Simulation time: 00 hr 19 min 44 sec)
Heartbeat CPU 0 instructions: 117500609 cycles: 146957987 heartbeat IPC: 0.5717 cumulative IPC: 0.5097 (Simulation time: 00 hr 19 min 50 sec)
Heartbeat CPU 0 instructions: 118000613 cycles: 148266173 heartbeat IPC: 0.3822 cumulative IPC: 0.5084 (Simulation time: 00 hr 19 min 59 sec)
Heartbeat CPU 0 instructions: 118500618 cycles: 148949949 heartbeat IPC: 0.7312 cumulative IPC: 0.5096 (Simulation time: 00 hr 20 min 04 sec)
Heartbeat CPU 0 instructions: 119000618 cycles: 150448883 heartbeat IPC: 0.3336 cumulative IPC: 0.5076 (Simulation time: 00 hr 20 min 13 sec)
Heartbeat CPU 0 instructions: 119500619 cycles: 151145516 heartbeat IPC: 0.7177 cumulative IPC: 0.5087 (Simulation time: 00 hr 20 min 18 sec)
Heartbeat CPU 0 instructions: 120000619 cycles: 152153231 heartbeat IPC: 0.4962 cumulative IPC: 0.5086 (Simulation time: 00 hr 20 min 25 sec)
Heartbeat CPU 0 instructions: 120500621 cycles: 153408273 heartbeat IPC: 0.3984 cumulative IPC: 0.5076 (Simulation time: 00 hr 20 min 33 sec)
Heartbeat CPU 0 instructions: 121000625 cycles: 154253933 heartbeat IPC: 0.5913 cumulative IPC: 0.5081 (Simulation time: 00 hr 20 min 39 sec)
Heartbeat CPU 0 instructions: 121500626 cycles: 154993228 heartbeat IPC: 0.6763 cumulative IPC: 0.509 (Simulation time: 00 hr 20 min 45 sec)
Heartbeat CPU 0 instructions: 122000627 cycles: 156346259 heartbeat IPC: 0.3695 cumulative IPC: 0.5077 (Simulation time: 00 hr 20 min 53 sec)
Heartbeat CPU 0 instructions: 122500634 cycles: 157656103 heartbeat IPC: 0.3817 cumulative IPC: 0.5065 (Simulation time: 00 hr 21 min 02 sec)
Heartbeat CPU 0 instructions: 123000635 cycles: 159912794 heartbeat IPC: 0.2216 cumulative IPC: 0.5021 (Simulation time: 00 hr 21 min 18 sec)
Heartbeat CPU 0 instructions: 123500635 cycles: 161145408 heartbeat IPC: 0.4056 cumulative IPC: 0.5013 (Simulation time: 00 hr 21 min 27 sec)
Heartbeat CPU 0 instructions: 124000641 cycles: 162137008 heartbeat IPC: 0.5042 cumulative IPC: 0.5013 (Simulation time: 00 hr 21 min 34 sec)
Heartbeat CPU 0 instructions: 124500646 cycles: 162793407 heartbeat IPC: 0.7617 cumulative IPC: 0.5024 (Simulation time: 00 hr 21 min 39 sec)
Heartbeat CPU 0 instructions: 125000647 cycles: 164365422 heartbeat IPC: 0.3181 cumulative IPC: 0.5005 (Simulation time: 00 hr 21 min 48 sec)
Heartbeat CPU 0 instructions: 125500651 cycles: 165895201 heartbeat IPC: 0.3268 cumulative IPC: 0.4988 (Simulation time: 00 hr 21 min 57 sec)
Heartbeat CPU 0 instructions: 126000656 cycles: 167365945 heartbeat IPC: 0.34 cumulative IPC: 0.4972 (Simulation time: 00 hr 22 min 08 sec)
Heartbeat CPU 0 instructions: 126500658 cycles: 168193612 heartbeat IPC: 0.6041 cumulative IPC: 0.4978 (Simulation time: 00 hr 22 min 15 sec)
Heartbeat CPU 0 instructions: 127000658 cycles: 169426878 heartbeat IPC: 0.4054 cumulative IPC: 0.4971 (Simulation time: 00 hr 22 min 24 sec)
Heartbeat CPU 0 instructions: 127500664 cycles: 171087529 heartbeat IPC: 0.3011 cumulative IPC: 0.495 (Simulation time: 00 hr 22 min 37 sec)
Heartbeat CPU 0 instructions: 128000665 cycles: 172339643 heartbeat IPC: 0.3993 cumulative IPC: 0.4942 (Simulation time: 00 hr 22 min 47 sec)
Heartbeat CPU 0 instructions: 128500668 cycles: 173563009 heartbeat IPC: 0.4087 cumulative IPC: 0.4936 (Simulation time: 00 hr 22 min 56 sec)
Heartbeat CPU 0 instructions: 129000675 cycles: 174909904 heartbeat IPC: 0.3712 cumulative IPC: 0.4925 (Simulation time: 00 hr 23 min 05 sec)
Heartbeat CPU 0 instructions: 129500681 cycles: 175488999 heartbeat IPC: 0.8634 cumulative IPC: 0.4939 (Simulation time: 00 hr 23 min 09 sec)
Heartbeat CPU 0 instructions: 130000683 cycles: 176226993 heartbeat IPC: 0.6775 cumulative IPC: 0.4947 (Simulation time: 00 hr 23 min 15 sec)
Heartbeat CPU 0 instructions: 130500688 cycles: 176725021 heartbeat IPC: 1.004 cumulative IPC: 0.4963 (Simulation time: 00 hr 23 min 19 sec)
Heartbeat CPU 0 instructions: 131000689 cycles: 177306614 heartbeat IPC: 0.8597 cumulative IPC: 0.4976 (Simulation time: 00 hr 23 min 24 sec)
Heartbeat CPU 0 instructions: 131500696 cycles: 177877092 heartbeat IPC: 0.8765 cumulative IPC: 0.4989 (Simulation time: 00 hr 23 min 28 sec)
Heartbeat CPU 0 instructions: 132000697 cycles: 178482496 heartbeat IPC: 0.8259 cumulative IPC: 0.5001 (Simulation time: 00 hr 23 min 33 sec)
Heartbeat CPU 0 instructions: 132500697 cycles: 178886103 heartbeat IPC: 1.239 cumulative IPC: 0.5019 (Simulation time: 00 hr 23 min 37 sec)
Heartbeat CPU 0 instructions: 133000703 cycles: 179565611 heartbeat IPC: 0.7358 cumulative IPC: 0.5029 (Simulation time: 00 hr 23 min 42 sec)
Heartbeat CPU 0 instructions: 133500706 cycles: 180051639 heartbeat IPC: 1.029 cumulative IPC: 0.5044 (Simulation time: 00 hr 23 min 46 sec)
Heartbeat CPU 0 instructions: 134000706 cycles: 180591074 heartbeat IPC: 0.9269 cumulative IPC: 0.5058 (Simulation time: 00 hr 23 min 50 sec)
Heartbeat CPU 0 instructions: 134500712 cycles: 180974390 heartbeat IPC: 1.304 cumulative IPC: 0.5076 (Simulation time: 00 hr 23 min 53 sec)
Heartbeat CPU 0 instructions: 135000715 cycles: 181506503 heartbeat IPC: 0.9397 cumulative IPC: 0.509 (Simulation time: 00 hr 23 min 58 sec)
Heartbeat CPU 0 instructions: 135500722 cycles: 181903014 heartbeat IPC: 1.261 cumulative IPC: 0.5108 (Simulation time: 00 hr 24 min 01 sec)
Heartbeat CPU 0 instructions: 136000728 cycles: 182203493 heartbeat IPC: 1.664 cumulative IPC: 0.5129 (Simulation time: 00 hr 24 min 04 sec)
Heartbeat CPU 0 instructions: 136500732 cycles: 182774072 heartbeat IPC: 0.8763 cumulative IPC: 0.5141 (Simulation time: 00 hr 24 min 09 sec)
Heartbeat CPU 0 instructions: 137000736 cycles: 183186113 heartbeat IPC: 1.213 cumulative IPC: 0.5158 (Simulation time: 00 hr 24 min 12 sec)
Heartbeat CPU 0 instructions: 137500740 cycles: 183728291 heartbeat IPC: 0.9222 cumulative IPC: 0.5171 (Simulation time: 00 hr 24 min 16 sec)
Heartbeat CPU 0 instructions: 138000740 cycles: 184226702 heartbeat IPC: 1.003 cumulative IPC: 0.5185 (Simulation time: 00 hr 24 min 20 sec)
Heartbeat CPU 0 instructions: 138500740 cycles: 184763493 heartbeat IPC: 0.9315 cumulative IPC: 0.5198 (Simulation time: 00 hr 24 min 24 sec)
Heartbeat CPU 0 instructions: 139000747 cycles: 185079006 heartbeat IPC: 1.585 cumulative IPC: 0.5218 (Simulation time: 00 hr 24 min 27 sec)
Heartbeat CPU 0 instructions: 139500753 cycles: 185358306 heartbeat IPC: 1.79 cumulative IPC: 0.5239 (Simulation time: 00 hr 24 min 30 sec)
Heartbeat CPU 0 instructions: 140000760 cycles: 185653487 heartbeat IPC: 1.694 cumulative IPC: 0.5259 (Simulation time: 00 hr 24 min 33 sec)
Heartbeat CPU 0 instructions: 140500767 cycles: 186259496 heartbeat IPC: 0.8251 cumulative IPC: 0.527 (Simulation time: 00 hr 24 min 39 sec)
Heartbeat CPU 0 instructions: 141000767 cycles: 186573436 heartbeat IPC: 1.593 cumulative IPC: 0.5289 (Simulation time: 00 hr 24 min 42 sec)
Heartbeat CPU 0 instructions: 141500767 cycles: 187436891 heartbeat IPC: 0.5791 cumulative IPC: 0.5292 (Simulation time: 00 hr 24 min 48 sec)
Heartbeat CPU 0 instructions: 142000768 cycles: 187940863 heartbeat IPC: 0.9921 cumulative IPC: 0.5305 (Simulation time: 00 hr 24 min 52 sec)
Heartbeat CPU 0 instructions: 142500772 cycles: 188324910 heartbeat IPC: 1.302 cumulative IPC: 0.5322 (Simulation time: 00 hr 24 min 56 sec)
Heartbeat CPU 0 instructions: 143000774 cycles: 188723508 heartbeat IPC: 1.254 cumulative IPC: 0.5339 (Simulation time: 00 hr 24 min 59 sec)
Heartbeat CPU 0 instructions: 143500774 cycles: 189187237 heartbeat IPC: 1.078 cumulative IPC: 0.5353 (Simulation time: 00 hr 25 min 03 sec)
Heartbeat CPU 0 instructions: 144000776 cycles: 190429412 heartbeat IPC: 0.4025 cumulative IPC: 0.5344 (Simulation time: 00 hr 25 min 12 sec)
Heartbeat CPU 0 instructions: 144500778 cycles: 191476933 heartbeat IPC: 0.4773 cumulative IPC: 0.534 (Simulation time: 00 hr 25 min 19 sec)
Heartbeat CPU 0 instructions: 145000779 cycles: 192242994 heartbeat IPC: 0.6527 cumulative IPC: 0.5345 (Simulation time: 00 hr 25 min 25 sec)
Heartbeat CPU 0 instructions: 145500783 cycles: 192857328 heartbeat IPC: 0.8139 cumulative IPC: 0.5355 (Simulation time: 00 hr 25 min 30 sec)
Heartbeat CPU 0 instructions: 146000790 cycles: 194092186 heartbeat IPC: 0.4049 cumulative IPC: 0.5346 (Simulation time: 00 hr 25 min 38 sec)
Heartbeat CPU 0 instructions: 146500796 cycles: 194878023 heartbeat IPC: 0.6363 cumulative IPC: 0.535 (Simulation time: 00 hr 25 min 44 sec)
Heartbeat CPU 0 instructions: 147000801 cycles: 195768672 heartbeat IPC: 0.5614 cumulative IPC: 0.5352 (Simulation time: 00 hr 25 min 51 sec)
Heartbeat CPU 0 instructions: 147500802 cycles: 196222597 heartbeat IPC: 1.102 cumulative IPC: 0.5366 (Simulation time: 00 hr 25 min 55 sec)
Heartbeat CPU 0 instructions: 148000804 cycles: 196441028 heartbeat IPC: 2.289 cumulative IPC: 0.5387 (Simulation time: 00 hr 25 min 57 sec)
Heartbeat CPU 0 instructions: 148500804 cycles: 197996194 heartbeat IPC: 0.3215 cumulative IPC: 0.5369 (Simulation time: 00 hr 26 min 07 sec)
Heartbeat CPU 0 instructions: 149000804 cycles: 198490513 heartbeat IPC: 1.011 cumulative IPC: 0.5381 (Simulation time: 00 hr 26 min 12 sec)
Heartbeat CPU 0 instructions: 149500805 cycles: 199531413 heartbeat IPC: 0.4804 cumulative IPC: 0.5378 (Simulation time: 00 hr 26 min 18 sec)
Heartbeat CPU 0 instructions: 150000808 cycles: 199901120 heartbeat IPC: 1.352 cumulative IPC: 0.5394 (Simulation time: 00 hr 26 min 22 sec)
Heartbeat CPU 0 instructions: 150500808 cycles: 201272514 heartbeat IPC: 0.3646 cumulative IPC: 0.5381 (Simulation time: 00 hr 26 min 30 sec)
Heartbeat CPU 0 instructions: 151000808 cycles: 202987054 heartbeat IPC: 0.2916 cumulative IPC: 0.5359 (Simulation time: 00 hr 26 min 40 sec)
Heartbeat CPU 0 instructions: 151500810 cycles: 203843554 heartbeat IPC: 0.5838 cumulative IPC: 0.5361 (Simulation time: 00 hr 26 min 45 sec)
Heartbeat CPU 0 instructions: 152000810 cycles: 204789699 heartbeat IPC: 0.5285 cumulative IPC: 0.5361 (Simulation time: 00 hr 26 min 52 sec)
Heartbeat CPU 0 instructions: 152500813 cycles: 205984486 heartbeat IPC: 0.4185 cumulative IPC: 0.5353 (Simulation time: 00 hr 27 min 00 sec)
Heartbeat CPU 0 instructions: 153000819 cycles: 207253002 heartbeat IPC: 0.3942 cumulative IPC: 0.5344 (Simulation time: 00 hr 27 min 08 sec)
Heartbeat CPU 0 instructions: 153500823 cycles: 207629330 heartbeat IPC: 1.329 cumulative IPC: 0.536 (Simulation time: 00 hr 27 min 12 sec)
Heartbeat CPU 0 instructions: 154000828 cycles: 208344646 heartbeat IPC: 0.699 cumulative IPC: 0.5366 (Simulation time: 00 hr 27 min 18 sec)
Heartbeat CPU 0 instructions: 154500828 cycles: 210277023 heartbeat IPC: 0.2587 cumulative IPC: 0.5338 (Simulation time: 00 hr 27 min 30 sec)
Heartbeat CPU 0 instructions: 155000830 cycles: 211395440 heartbeat IPC: 0.4471 cumulative IPC: 0.5333 (Simulation time: 00 hr 27 min 36 sec)
Heartbeat CPU 0 instructions: 155500837 cycles: 212535154 heartbeat IPC: 0.4387 cumulative IPC: 0.5328 (Simulation time: 00 hr 27 min 43 sec)
Heartbeat CPU 0 instructions: 156000841 cycles: 213189647 heartbeat IPC: 0.764 cumulative IPC: 0.5335 (Simulation time: 00 hr 27 min 47 sec)
Heartbeat CPU 0 instructions: 156500841 cycles: 214003230 heartbeat IPC: 0.6146 cumulative IPC: 0.5339 (Simulation time: 00 hr 27 min 53 sec)
Heartbeat CPU 0 instructions: 157000842 cycles: 214310620 heartbeat IPC: 1.627 cumulative IPC: 0.5356 (Simulation time: 00 hr 27 min 55 sec)
Heartbeat CPU 0 instructions: 157500842 cycles: 215326196 heartbeat IPC: 0.4923 cumulative IPC: 0.5353 (Simulation time: 00 hr 28 min 01 sec)
Heartbeat CPU 0 instructions: 158000842 cycles: 216862437 heartbeat IPC: 0.3255 cumulative IPC: 0.5337 (Simulation time: 00 hr 28 min 10 sec)
Heartbeat CPU 0 instructions: 158500842 cycles: 218325528 heartbeat IPC: 0.3417 cumulative IPC: 0.5324 (Simulation time: 00 hr 28 min 19 sec)
Heartbeat CPU 0 instructions: 159000842 cycles: 220462228 heartbeat IPC: 0.234 cumulative IPC: 0.5293 (Simulation time: 00 hr 28 min 31 sec)
Heartbeat CPU 0 instructions: 159500843 cycles: 221201940 heartbeat IPC: 0.6759 cumulative IPC: 0.5298 (Simulation time: 00 hr 28 min 37 sec)
Heartbeat CPU 0 instructions: 160000845 cycles: 222067875 heartbeat IPC: 0.5774 cumulative IPC: 0.53 (Simulation time: 00 hr 28 min 43 sec)
Heartbeat CPU 0 instructions: 160500848 cycles: 222986090 heartbeat IPC: 0.5445 cumulative IPC: 0.5301 (Simulation time: 00 hr 28 min 50 sec)
Heartbeat CPU 0 instructions: 161000851 cycles: 223997637 heartbeat IPC: 0.4943 cumulative IPC: 0.5299 (Simulation time: 00 hr 28 min 58 sec)
Heartbeat CPU 0 instructions: 161500851 cycles: 224488146 heartbeat IPC: 1.019 cumulative IPC: 0.531 (Simulation time: 00 hr 29 min 03 sec)
Heartbeat CPU 0 instructions: 162000852 cycles: 226023994 heartbeat IPC: 0.3256 cumulative IPC: 0.5295 (Simulation time: 00 hr 29 min 13 sec)
Heartbeat CPU 0 instructions: 162500852 cycles: 226980910 heartbeat IPC: 0.5225 cumulative IPC: 0.5295 (Simulation time: 00 hr 29 min 19 sec)
Heartbeat CPU 0 instructions: 163000853 cycles: 227988959 heartbeat IPC: 0.496 cumulative IPC: 0.5294 (Simulation time: 00 hr 29 min 25 sec)
Heartbeat CPU 0 instructions: 163500857 cycles: 228919933 heartbeat IPC: 0.5371 cumulative IPC: 0.5294 (Simulation time: 00 hr 29 min 31 sec)
Heartbeat CPU 0 instructions: 164000857 cycles: 230042154 heartbeat IPC: 0.4455 cumulative IPC: 0.5289 (Simulation time: 00 hr 29 min 38 sec)
Heartbeat CPU 0 instructions: 164500859 cycles: 231057431 heartbeat IPC: 0.4925 cumulative IPC: 0.5288 (Simulation time: 00 hr 29 min 44 sec)
Heartbeat CPU 0 instructions: 165000864 cycles: 232132315 heartbeat IPC: 0.4652 cumulative IPC: 0.5285 (Simulation time: 00 hr 29 min 51 sec)
Heartbeat CPU 0 instructions: 165500865 cycles: 233191711 heartbeat IPC: 0.472 cumulative IPC: 0.5282 (Simulation time: 00 hr 29 min 57 sec)
Heartbeat CPU 0 instructions: 166000867 cycles: 234184208 heartbeat IPC: 0.5038 cumulative IPC: 0.5281 (Simulation time: 00 hr 30 min 04 sec)
Heartbeat CPU 0 instructions: 166500867 cycles: 235175565 heartbeat IPC: 0.5044 cumulative IPC: 0.528 (Simulation time: 00 hr 30 min 10 sec)
Heartbeat CPU 0 instructions: 167000868 cycles: 236177418 heartbeat IPC: 0.4991 cumulative IPC: 0.5278 (Simulation time: 00 hr 30 min 16 sec)
Heartbeat CPU 0 instructions: 167500870 cycles: 236339904 heartbeat IPC: 3.077 cumulative IPC: 0.5297 (Simulation time: 00 hr 30 min 18 sec)
Heartbeat CPU 0 instructions: 168000870 cycles: 236520689 heartbeat IPC: 2.766 cumulative IPC: 0.5315 (Simulation time: 00 hr 30 min 21 sec)
Heartbeat CPU 0 instructions: 168500870 cycles: 236980484 heartbeat IPC: 1.087 cumulative IPC: 0.5327 (Simulation time: 00 hr 30 min 25 sec)
Heartbeat CPU 0 instructions: 169000872 cycles: 237361952 heartbeat IPC: 1.311 cumulative IPC: 0.534 (Simulation time: 00 hr 30 min 30 sec)
Heartbeat CPU 0 instructions: 169500874 cycles: 237838515 heartbeat IPC: 1.049 cumulative IPC: 0.5351 (Simulation time: 00 hr 30 min 35 sec)
Heartbeat CPU 0 instructions: 170000881 cycles: 238236914 heartbeat IPC: 1.255 cumulative IPC: 0.5364 (Simulation time: 00 hr 30 min 39 sec)
Heartbeat CPU 0 instructions: 170500885 cycles: 238670073 heartbeat IPC: 1.154 cumulative IPC: 0.5376 (Simulation time: 00 hr 30 min 44 sec)
Heartbeat CPU 0 instructions: 171000885 cycles: 238971548 heartbeat IPC: 1.659 cumulative IPC: 0.5391 (Simulation time: 00 hr 30 min 48 sec)
Heartbeat CPU 0 instructions: 171500888 cycles: 240805819 heartbeat IPC: 0.2726 cumulative IPC: 0.5369 (Simulation time: 00 hr 30 min 59 sec)
Heartbeat CPU 0 instructions: 172000892 cycles: 241562081 heartbeat IPC: 0.6612 cumulative IPC: 0.5373 (Simulation time: 00 hr 31 min 04 sec)
Heartbeat CPU 0 instructions: 172500895 cycles: 241944966 heartbeat IPC: 1.306 cumulative IPC: 0.5386 (Simulation time: 00 hr 31 min 08 sec)
Heartbeat CPU 0 instructions: 173000895 cycles: 242341697 heartbeat IPC: 1.26 cumulative IPC: 0.5399 (Simulation time: 00 hr 31 min 12 sec)
Heartbeat CPU 0 instructions: 173500899 cycles: 243027231 heartbeat IPC: 0.7294 cumulative IPC: 0.5405 (Simulation time: 00 hr 31 min 17 sec)
Heartbeat CPU 0 instructions: 174000899 cycles: 243788197 heartbeat IPC: 0.6571 cumulative IPC: 0.5409 (Simulation time: 00 hr 31 min 23 sec)
Heartbeat CPU 0 instructions: 174500906 cycles: 244545285 heartbeat IPC: 0.6604 cumulative IPC: 0.5412 (Simulation time: 00 hr 31 min 28 sec)
Heartbeat CPU 0 instructions: 175000909 cycles: 246115548 heartbeat IPC: 0.3184 cumulative IPC: 0.5397 (Simulation time: 00 hr 31 min 37 sec)
Heartbeat CPU 0 instructions: 175500911 cycles: 246559027 heartbeat IPC: 1.127 cumulative IPC: 0.5409 (Simulation time: 00 hr 31 min 42 sec)
Heartbeat CPU 0 instructions: 176000912 cycles: 247246674 heartbeat IPC: 0.7271 cumulative IPC: 0.5414 (Simulation time: 00 hr 31 min 47 sec)
Heartbeat CPU 0 instructions: 176500917 cycles: 247866189 heartbeat IPC: 0.8071 cumulative IPC: 0.5421 (Simulation time: 00 hr 31 min 51 sec)
Heartbeat CPU 0 instructions: 177000918 cycles: 248999422 heartbeat IPC: 0.4412 cumulative IPC: 0.5416 (Simulation time: 00 hr 31 min 58 sec)
Heartbeat CPU 0 instructions: 177500919 cycles: 249905927 heartbeat IPC: 0.5516 cumulative IPC: 0.5417 (Simulation time: 00 hr 32 min 03 sec)
Heartbeat CPU 0 instructions: 178000923 cycles: 250597186 heartbeat IPC: 0.7233 cumulative IPC: 0.5422 (Simulation time: 00 hr 32 min 08 sec)
Heartbeat CPU 0 instructions: 178500924 cycles: 251383772 heartbeat IPC: 0.6357 cumulative IPC: 0.5425 (Simulation time: 00 hr 32 min 14 sec)
Heartbeat CPU 0 instructions: 179000927 cycles: 251816223 heartbeat IPC: 1.156 cumulative IPC: 0.5436 (Simulation time: 00 hr 32 min 18 sec)
Heartbeat CPU 0 instructions: 179500927 cycles: 252154524 heartbeat IPC: 1.478 cumulative IPC: 0.545 (Simulation time: 00 hr 32 min 22 sec)
Heartbeat CPU 0 instructions: 180000928 cycles: 252411572 heartbeat IPC: 1.945 cumulative IPC: 0.5465 (Simulation time: 00 hr 32 min 25 sec)
Heartbeat CPU 0 instructions: 180500933 cycles: 252735874 heartbeat IPC: 1.542 cumulative IPC: 0.5478 (Simulation time: 00 hr 32 min 29 sec)
Heartbeat CPU 0 instructions: 181000933 cycles: 253496357 heartbeat IPC: 0.6575 cumulative IPC: 0.5482 (Simulation time: 00 hr 32 min 35 sec)
Heartbeat CPU 0 instructions: 181500934 cycles: 254575422 heartbeat IPC: 0.4634 cumulative IPC: 0.5478 (Simulation time: 00 hr 32 min 42 sec)
Heartbeat CPU 0 instructions: 182000938 cycles: 255284670 heartbeat IPC: 0.705 cumulative IPC: 0.5483 (Simulation time: 00 hr 32 min 47 sec)
Heartbeat CPU 0 instructions: 182500942 cycles: 256022530 heartbeat IPC: 0.6776 cumulative IPC: 0.5486 (Simulation time: 00 hr 32 min 52 sec)
Heartbeat CPU 0 instructions: 183000949 cycles: 256633324 heartbeat IPC: 0.8186 cumulative IPC: 0.5493 (Simulation time: 00 hr 32 min 57 sec)
Heartbeat CPU 0 instructions: 183500950 cycles: 257455376 heartbeat IPC: 0.6082 cumulative IPC: 0.5495 (Simulation time: 00 hr 33 min 02 sec)
Heartbeat CPU 0 instructions: 184000950 cycles: 258807082 heartbeat IPC: 0.3699 cumulative IPC: 0.5485 (Simulation time: 00 hr 33 min 10 sec)
Heartbeat CPU 0 instructions: 184500950 cycles: 259477994 heartbeat IPC: 0.7453 cumulative IPC: 0.5491 (Simulation time: 00 hr 33 min 15 sec)
Heartbeat CPU 0 instructions: 185000951 cycles: 260127967 heartbeat IPC: 0.7693 cumulative IPC: 0.5497 (Simulation time: 00 hr 33 min 19 sec)
Heartbeat CPU 0 instructions: 185500951 cycles: 261445640 heartbeat IPC: 0.3795 cumulative IPC: 0.5487 (Simulation time: 00 hr 33 min 27 sec)
Heartbeat CPU 0 instructions: 186000951 cycles: 262509268 heartbeat IPC: 0.4701 cumulative IPC: 0.5484 (Simulation time: 00 hr 33 min 34 sec)
Heartbeat CPU 0 instructions: 186500952 cycles: 263127400 heartbeat IPC: 0.8089 cumulative IPC: 0.5491 (Simulation time: 00 hr 33 min 38 sec)
Heartbeat CPU 0 instructions: 187000955 cycles: 263992102 heartbeat IPC: 0.5782 cumulative IPC: 0.5492 (Simulation time: 00 hr 33 min 43 sec)
Heartbeat CPU 0 instructions: 187500962 cycles: 264865585 heartbeat IPC: 0.5724 cumulative IPC: 0.5492 (Simulation time: 00 hr 33 min 49 sec)
Heartbeat CPU 0 instructions: 188000963 cycles: 265640094 heartbeat IPC: 0.6456 cumulative IPC: 0.5495 (Simulation time: 00 hr 33 min 54 sec)
Heartbeat CPU 0 instructions: 188500967 cycles: 266348932 heartbeat IPC: 0.7054 cumulative IPC: 0.55 (Simulation time: 00 hr 33 min 59 sec)
Heartbeat CPU 0 instructions: 189000971 cycles: 267108139 heartbeat IPC: 0.6586 cumulative IPC: 0.5503 (Simulation time: 00 hr 34 min 05 sec)
Heartbeat CPU 0 instructions: 189500973 cycles: 268495514 heartbeat IPC: 0.3604 cumulative IPC: 0.5493 (Simulation time: 00 hr 34 min 13 sec)
Heartbeat CPU 0 instructions: 190000979 cycles: 269140390 heartbeat IPC: 0.7754 cumulative IPC: 0.5498 (Simulation time: 00 hr 34 min 17 sec)
Heartbeat CPU 0 instructions: 190500985 cycles: 270136008 heartbeat IPC: 0.5022 cumulative IPC: 0.5497 (Simulation time: 00 hr 34 min 24 sec)
Heartbeat CPU 0 instructions: 191000989 cycles: 270851640 heartbeat IPC: 0.6987 cumulative IPC: 0.5501 (Simulation time: 00 hr 34 min 29 sec)
Heartbeat CPU 0 instructions: 191500991 cycles: 271594334 heartbeat IPC: 0.6732 cumulative IPC: 0.5504 (Simulation time: 00 hr 34 min 34 sec)
Heartbeat CPU 0 instructions: 192000992 cycles: 272869412 heartbeat IPC: 0.3921 cumulative IPC: 0.5496 (Simulation time: 00 hr 34 min 41 sec)
Heartbeat CPU 0 instructions: 192500992 cycles: 273844493 heartbeat IPC: 0.5128 cumulative IPC: 0.5495 (Simulation time: 00 hr 34 min 48 sec)
Heartbeat CPU 0 instructions: 193000992 cycles: 274636040 heartbeat IPC: 0.6317 cumulative IPC: 0.5498 (Simulation time: 00 hr 34 min 53 sec)
Heartbeat CPU 0 instructions: 193500992 cycles: 275516856 heartbeat IPC: 0.5677 cumulative IPC: 0.5498 (Simulation time: 00 hr 34 min 59 sec)
Heartbeat CPU 0 instructions: 194000994 cycles: 276622122 heartbeat IPC: 0.4524 cumulative IPC: 0.5494 (Simulation time: 00 hr 35 min 06 sec)
Heartbeat CPU 0 instructions: 194500999 cycles: 277499858 heartbeat IPC: 0.5697 cumulative IPC: 0.5495 (Simulation time: 00 hr 35 min 11 sec)
Heartbeat CPU 0 instructions: 195001001 cycles: 278360624 heartbeat IPC: 0.5809 cumulative IPC: 0.5496 (Simulation time: 00 hr 35 min 17 sec)
Heartbeat CPU 0 instructions: 195501007 cycles: 279037145 heartbeat IPC: 0.7391 cumulative IPC: 0.5501 (Simulation time: 00 hr 35 min 21 sec)
Heartbeat CPU 0 instructions: 196001007 cycles: 280065979 heartbeat IPC: 0.486 cumulative IPC: 0.5498 (Simulation time: 00 hr 35 min 28 sec)
Heartbeat CPU 0 instructions: 196501007 cycles: 280973139 heartbeat IPC: 0.5512 cumulative IPC: 0.5498 (Simulation time: 00 hr 35 min 34 sec)
Heartbeat CPU 0 instructions: 197001007 cycles: 281636463 heartbeat IPC: 0.7538 cumulative IPC: 0.5503 (Simulation time: 00 hr 35 min 38 sec)
Heartbeat CPU 0 instructions: 197501008 cycles: 281797705 heartbeat IPC: 3.101 cumulative IPC: 0.5519 (Simulation time: 00 hr 35 min 41 sec)
Heartbeat CPU 0 instructions: 198001008 cycles: 281973185 heartbeat IPC: 2.849 cumulative IPC: 0.5534 (Simulation time: 00 hr 35 min 43 sec)
Heartbeat CPU 0 instructions: 198501009 cycles: 282550099 heartbeat IPC: 0.8667 cumulative IPC: 0.554 (Simulation time: 00 hr 35 min 48 sec)
Heartbeat CPU 0 instructions: 199001009 cycles: 283780846 heartbeat IPC: 0.4063 cumulative IPC: 0.5534 (Simulation time: 00 hr 35 min 56 sec)
Heartbeat CPU 0 instructions: 199501009 cycles: 285023950 heartbeat IPC: 0.4022 cumulative IPC: 0.5527 (Simulation time: 00 hr 36 min 04 sec)
Heartbeat CPU 0 instructions: 200001014 cycles: 285433636 heartbeat IPC: 1.22 cumulative IPC: 0.5537 (Simulation time: 00 hr 36 min 08 sec)
Heartbeat CPU 0 instructions: 200501017 cycles: 285878102 heartbeat IPC: 1.125 cumulative IPC: 0.5546 (Simulation time: 00 hr 36 min 13 sec)
Heartbeat CPU 0 instructions: 201001018 cycles: 286297125 heartbeat IPC: 1.193 cumulative IPC: 0.5556 (Simulation time: 00 hr 36 min 18 sec)
Heartbeat CPU 0 instructions: 201501023 cycles: 286673457 heartbeat IPC: 1.329 cumulative IPC: 0.5567 (Simulation time: 00 hr 36 min 22 sec)
Heartbeat CPU 0 instructions: 202001026 cycles: 286972816 heartbeat IPC: 1.67 cumulative IPC: 0.5579 (Simulation time: 00 hr 36 min 26 sec)
Heartbeat CPU 0 instructions: 202501031 cycles: 287345508 heartbeat IPC: 1.342 cumulative IPC: 0.559 (Simulation time: 00 hr 36 min 30 sec)
Heartbeat CPU 0 instructions: 203001033 cycles: 287715597 heartbeat IPC: 1.351 cumulative IPC: 0.56 (Simulation time: 00 hr 36 min 34 sec)
Heartbeat CPU 0 instructions: 203501034 cycles: 287980089 heartbeat IPC: 1.89 cumulative IPC: 0.5613 (Simulation time: 00 hr 36 min 37 sec)
Heartbeat CPU 0 instructions: 204001037 cycles: 288685280 heartbeat IPC: 0.709 cumulative IPC: 0.5617 (Simulation time: 00 hr 36 min 43 sec)
Heartbeat CPU 0 instructions: 204501038 cycles: 290207717 heartbeat IPC: 0.3284 cumulative IPC: 0.5604 (Simulation time: 00 hr 36 min 52 sec)
Heartbeat CPU 0 instructions: 205001039 cycles: 291084410 heartbeat IPC: 0.5703 cumulative IPC: 0.5604 (Simulation time: 00 hr 36 min 58 sec)
Heartbeat CPU 0 instructions: 205501045 cycles: 291843607 heartbeat IPC: 0.6586 cumulative IPC: 0.5607 (Simulation time: 00 hr 37 min 03 sec)
Heartbeat CPU 0 instructions: 206001046 cycles: 292474782 heartbeat IPC: 0.7922 cumulative IPC: 0.5612 (Simulation time: 00 hr 37 min 08 sec)
Heartbeat CPU 0 instructions: 206501048 cycles: 293670582 heartbeat IPC: 0.4181 cumulative IPC: 0.5606 (Simulation time: 00 hr 37 min 15 sec)
Heartbeat CPU 0 instructions: 207001048 cycles: 294121793 heartbeat IPC: 1.108 cumulative IPC: 0.5615 (Simulation time: 00 hr 37 min 20 sec)
Heartbeat CPU 0 instructions: 207501048 cycles: 294509124 heartbeat IPC: 1.291 cumulative IPC: 0.5625 (Simulation time: 00 hr 37 min 24 sec)
Heartbeat CPU 0 instructions: 208001053 cycles: 294844988 heartbeat IPC: 1.489 cumulative IPC: 0.5636 (Simulation time: 00 hr 37 min 28 sec)
Heartbeat CPU 0 instructions: 208501059 cycles: 295176022 heartbeat IPC: 1.51 cumulative IPC: 0.5647 (Simulation time: 00 hr 37 min 31 sec)
Heartbeat CPU 0 instructions: 209001064 cycles: 296881859 heartbeat IPC: 0.2931 cumulative IPC: 0.5631 (Simulation time: 00 hr 37 min 42 sec)
Heartbeat CPU 0 instructions: 209501065 cycles: 297716114 heartbeat IPC: 0.5993 cumulative IPC: 0.5632 (Simulation time: 00 hr 37 min 47 sec)
Heartbeat CPU 0 instructions: 210001072 cycles: 298532599 heartbeat IPC: 0.6124 cumulative IPC: 0.5634 (Simulation time: 00 hr 37 min 53 sec)
Heartbeat CPU 0 instructions: 210501072 cycles: 299822824 heartbeat IPC: 0.3875 cumulative IPC: 0.5626 (Simulation time: 00 hr 38 min 01 sec)
Heartbeat CPU 0 instructions: 211001076 cycles: 300593196 heartbeat IPC: 0.649 cumulative IPC: 0.5628 (Simulation time: 00 hr 38 min 06 sec)
Heartbeat CPU 0 instructions: 211501082 cycles: 301775611 heartbeat IPC: 0.4229 cumulative IPC: 0.5622 (Simulation time: 00 hr 38 min 13 sec)
Heartbeat CPU 0 instructions: 212001088 cycles: 302583634 heartbeat IPC: 0.6188 cumulative IPC: 0.5624 (Simulation time: 00 hr 38 min 19 sec)
Heartbeat CPU 0 instructions: 212501094 cycles: 303226183 heartbeat IPC: 0.7782 cumulative IPC: 0.5629 (Simulation time: 00 hr 38 min 23 sec)
Heartbeat CPU 0 instructions: 213001094 cycles: 304298971 heartbeat IPC: 0.4661 cumulative IPC: 0.5625 (Simulation time: 00 hr 38 min 30 sec)
Heartbeat CPU 0 instructions: 213501098 cycles: 305190266 heartbeat IPC: 0.561 cumulative IPC: 0.5625 (Simulation time: 00 hr 38 min 36 sec)
Heartbeat CPU 0 instructions: 214001099 cycles: 306192354 heartbeat IPC: 0.499 cumulative IPC: 0.5623 (Simulation time: 00 hr 38 min 42 sec)
Heartbeat CPU 0 instructions: 214501099 cycles: 307253429 heartbeat IPC: 0.4712 cumulative IPC: 0.5619 (Simulation time: 00 hr 38 min 48 sec)
Heartbeat CPU 0 instructions: 215001104 cycles: 308087406 heartbeat IPC: 0.5995 cumulative IPC: 0.5621 (Simulation time: 00 hr 38 min 54 sec)
Heartbeat CPU 0 instructions: 215501104 cycles: 308778321 heartbeat IPC: 0.7237 cumulative IPC: 0.5624 (Simulation time: 00 hr 38 min 59 sec)
Heartbeat CPU 0 instructions: 216001106 cycles: 309767514 heartbeat IPC: 0.5055 cumulative IPC: 0.5622 (Simulation time: 00 hr 39 min 05 sec)
Heartbeat CPU 0 instructions: 216501108 cycles: 310588806 heartbeat IPC: 0.6088 cumulative IPC: 0.5624 (Simulation time: 00 hr 39 min 11 sec)
Heartbeat CPU 0 instructions: 217001110 cycles: 311207835 heartbeat IPC: 0.8077 cumulative IPC: 0.5629 (Simulation time: 00 hr 39 min 16 sec)
Heartbeat CPU 0 instructions: 217501110 cycles: 311386354 heartbeat IPC: 2.801 cumulative IPC: 0.5642 (Simulation time: 00 hr 39 min 19 sec)
Heartbeat CPU 0 instructions: 218001110 cycles: 311710943 heartbeat IPC: 1.54 cumulative IPC: 0.5653 (Simulation time: 00 hr 39 min 22 sec)
Heartbeat CPU 0 instructions: 218501116 cycles: 312127025 heartbeat IPC: 1.202 cumulative IPC: 0.5662 (Simulation time: 00 hr 39 min 26 sec)
Heartbeat CPU 0 instructions: 219001121 cycles: 312473280 heartbeat IPC: 1.444 cumulative IPC: 0.5672 (Simulation time: 00 hr 39 min 30 sec)
Heartbeat CPU 0 instructions: 219501125 cycles: 312865605 heartbeat IPC: 1.274 cumulative IPC: 0.5681 (Simulation time: 00 hr 39 min 35 sec)
Heartbeat CPU 0 instructions: 220001128 cycles: 313231092 heartbeat IPC: 1.368 cumulative IPC: 0.5691 (Simulation time: 00 hr 39 min 39 sec)
Heartbeat CPU 0 instructions: 220501132 cycles: 313592609 heartbeat IPC: 1.383 cumulative IPC: 0.5701 (Simulation time: 00 hr 39 min 43 sec)
Heartbeat CPU 0 instructions: 221001137 cycles: 313981594 heartbeat IPC: 1.285 cumulative IPC: 0.571 (Simulation time: 00 hr 39 min 47 sec)
Heartbeat CPU 0 instructions: 221501144 cycles: 314385340 heartbeat IPC: 1.238 cumulative IPC: 0.5719 (Simulation time: 00 hr 39 min 52 sec)
Heartbeat CPU 0 instructions: 222001147 cycles: 315263384 heartbeat IPC: 0.5695 cumulative IPC: 0.5719 (Simulation time: 00 hr 39 min 58 sec)
Heartbeat CPU 0 instructions: 222501150 cycles: 315650190 heartbeat IPC: 1.293 cumulative IPC: 0.5728 (Simulation time: 00 hr 40 min 02 sec)
Heartbeat CPU 0 instructions: 223001151 cycles: 316019931 heartbeat IPC: 1.352 cumulative IPC: 0.5738 (Simulation time: 00 hr 40 min 06 sec)
Heartbeat CPU 0 instructions: 223501157 cycles: 316470102 heartbeat IPC: 1.111 cumulative IPC: 0.5746 (Simulation time: 00 hr 40 min 11 sec)
Heartbeat CPU 0 instructions: 224001157 cycles: 316950887 heartbeat IPC: 1.04 cumulative IPC: 0.5753 (Simulation time: 00 hr 40 min 15 sec)
Heartbeat CPU 0 instructions: 224501162 cycles: 318639975 heartbeat IPC: 0.296 cumulative IPC: 0.5738 (Simulation time: 00 hr 40 min 26 sec)
Heartbeat CPU 0 instructions: 225001166 cycles: 319608365 heartbeat IPC: 0.5163 cumulative IPC: 0.5736 (Simulation time: 00 hr 40 min 32 sec)
Heartbeat CPU 0 instructions: 225501170 cycles: 320099229 heartbeat IPC: 1.019 cumulative IPC: 0.5743 (Simulation time: 00 hr 40 min 36 sec)
Heartbeat CPU 0 instructions: 226001174 cycles: 320411985 heartbeat IPC: 1.599 cumulative IPC: 0.5754 (Simulation time: 00 hr 40 min 40 sec)
Heartbeat CPU 0 instructions: 226501181 cycles: 320812998 heartbeat IPC: 1.247 cumulative IPC: 0.5762 (Simulation time: 00 hr 40 min 44 sec)
Heartbeat CPU 0 instructions: 227001181 cycles: 322427630 heartbeat IPC: 0.3097 cumulative IPC: 0.5748 (Simulation time: 00 hr 40 min 54 sec)
Heartbeat CPU 0 instructions: 227501181 cycles: 323451197 heartbeat IPC: 0.4885 cumulative IPC: 0.5746 (Simulation time: 00 hr 41 min 01 sec)
Heartbeat CPU 0 instructions: 228001182 cycles: 324128815 heartbeat IPC: 0.7379 cumulative IPC: 0.5749 (Simulation time: 00 hr 41 min 05 sec)
Heartbeat CPU 0 instructions: 228501183 cycles: 324704717 heartbeat IPC: 0.8682 cumulative IPC: 0.5755 (Simulation time: 00 hr 41 min 10 sec)
Heartbeat CPU 0 instructions: 229001184 cycles: 326116866 heartbeat IPC: 0.3541 cumulative IPC: 0.5745 (Simulation time: 00 hr 41 min 18 sec)
Heartbeat CPU 0 instructions: 229501184 cycles: 327188629 heartbeat IPC: 0.4665 cumulative IPC: 0.5741 (Simulation time: 00 hr 41 min 24 sec)
Heartbeat CPU 0 instructions: 230001184 cycles: 328087516 heartbeat IPC: 0.5562 cumulative IPC: 0.574 (Simulation time: 00 hr 41 min 30 sec)
Heartbeat CPU 0 instructions: 230501185 cycles: 329098325 heartbeat IPC: 0.4947 cumulative IPC: 0.5738 (Simulation time: 00 hr 41 min 37 sec)
Heartbeat CPU 0 instructions: 231001190 cycles: 330179114 heartbeat IPC: 0.4626 cumulative IPC: 0.5734 (Simulation time: 00 hr 41 min 43 sec)
Heartbeat CPU 0 instructions: 231501190 cycles: 330857168 heartbeat IPC: 0.7374 cumulative IPC: 0.5738 (Simulation time: 00 hr 41 min 48 sec)
Heartbeat CPU 0 instructions: 232001190 cycles: 332059224 heartbeat IPC: 0.416 cumulative IPC: 0.5732 (Simulation time: 00 hr 41 min 56 sec)
Heartbeat CPU 0 instructions: 232501191 cycles: 333043396 heartbeat IPC: 0.508 cumulative IPC: 0.573 (Simulation time: 00 hr 42 min 02 sec)
Heartbeat CPU 0 instructions: 233001191 cycles: 334359081 heartbeat IPC: 0.38 cumulative IPC: 0.5722 (Simulation time: 00 hr 42 min 10 sec)
Heartbeat CPU 0 instructions: 233501193 cycles: 334856349 heartbeat IPC: 1.005 cumulative IPC: 0.5728 (Simulation time: 00 hr 42 min 14 sec)
Heartbeat CPU 0 instructions: 234001199 cycles: 335037186 heartbeat IPC: 2.765 cumulative IPC: 0.5741 (Simulation time: 00 hr 42 min 17 sec)
Heartbeat CPU 0 instructions: 234501201 cycles: 335460702 heartbeat IPC: 1.181 cumulative IPC: 0.5749 (Simulation time: 00 hr 42 min 21 sec)
Heartbeat CPU 0 instructions: 235001201 cycles: 336815867 heartbeat IPC: 0.369 cumulative IPC: 0.574 (Simulation time: 00 hr 42 min 29 sec)
Heartbeat CPU 0 instructions: 235501202 cycles: 337359079 heartbeat IPC: 0.9205 cumulative IPC: 0.5746 (Simulation time: 00 hr 42 min 34 sec)
Heartbeat CPU 0 instructions: 236001205 cycles: 338180211 heartbeat IPC: 0.6089 cumulative IPC: 0.5747 (Simulation time: 00 hr 42 min 40 sec)
Heartbeat CPU 0 instructions: 236501207 cycles: 338477223 heartbeat IPC: 1.683 cumulative IPC: 0.5757 (Simulation time: 00 hr 42 min 43 sec)
Heartbeat CPU 0 instructions: 237001213 cycles: 338815523 heartbeat IPC: 1.478 cumulative IPC: 0.5766 (Simulation time: 00 hr 42 min 47 sec)
Heartbeat CPU 0 instructions: 237501215 cycles: 339195197 heartbeat IPC: 1.317 cumulative IPC: 0.5775 (Simulation time: 00 hr 42 min 51 sec)
Heartbeat CPU 0 instructions: 238001215 cycles: 339587845 heartbeat IPC: 1.273 cumulative IPC: 0.5783 (Simulation time: 00 hr 42 min 56 sec)
Heartbeat CPU 0 instructions: 238501216 cycles: 339956358 heartbeat IPC: 1.357 cumulative IPC: 0.5792 (Simulation time: 00 hr 43 min 00 sec)
Heartbeat CPU 0 instructions: 239001216 cycles: 340313253 heartbeat IPC: 1.401 cumulative IPC: 0.5801 (Simulation time: 00 hr 43 min 04 sec)
Heartbeat CPU 0 instructions: 239501216 cycles: 340732050 heartbeat IPC: 1.194 cumulative IPC: 0.5809 (Simulation time: 00 hr 43 min 09 sec)
Heartbeat CPU 0 instructions: 240001216 cycles: 341175922 heartbeat IPC: 1.126 cumulative IPC: 0.5817 (Simulation time: 00 hr 43 min 14 sec)
Heartbeat CPU 0 instructions: 240501217 cycles: 341590244 heartbeat IPC: 1.207 cumulative IPC: 0.5824 (Simulation time: 00 hr 43 min 18 sec)
Heartbeat CPU 0 instructions: 241001220 cycles: 341977667 heartbeat IPC: 1.291 cumulative IPC: 0.5833 (Simulation time: 00 hr 43 min 23 sec)
Heartbeat CPU 0 instructions: 241501220 cycles: 342290495 heartbeat IPC: 1.598 cumulative IPC: 0.5843 (Simulation time: 00 hr 43 min 26 sec)
Heartbeat CPU 0 instructions: 242001220 cycles: 342667332 heartbeat IPC: 1.327 cumulative IPC: 0.5851 (Simulation time: 00 hr 43 min 30 sec)
Heartbeat CPU 0 instructions: 242501222 cycles: 343051435 heartbeat IPC: 1.302 cumulative IPC: 0.5859 (Simulation time: 00 hr 43 min 35 sec)
Heartbeat CPU 0 instructions: 243001228 cycles: 344460026 heartbeat IPC: 0.355 cumulative IPC: 0.585 (Simulation time: 00 hr 43 min 44 sec)
Heartbeat CPU 0 instructions: 243501229 cycles: 345959472 heartbeat IPC: 0.3335 cumulative IPC: 0.5838 (Simulation time: 00 hr 43 min 53 sec)
Heartbeat CPU 0 instructions: 244001229 cycles: 346742310 heartbeat IPC: 0.6387 cumulative IPC: 0.5839 (Simulation time: 00 hr 43 min 58 sec)
Heartbeat CPU 0 instructions: 244501230 cycles: 348594112 heartbeat IPC: 0.27 cumulative IPC: 0.5822 (Simulation time: 00 hr 44 min 09 sec)
Heartbeat CPU 0 instructions: 245001231 cycles: 350479320 heartbeat IPC: 0.2652 cumulative IPC: 0.5804 (Simulation time: 00 hr 44 min 20 sec)
Heartbeat CPU 0 instructions: 245501231 cycles: 351944932 heartbeat IPC: 0.3412 cumulative IPC: 0.5794 (Simulation time: 00 hr 44 min 29 sec)
Heartbeat CPU 0 instructions: 246001231 cycles: 353225203 heartbeat IPC: 0.3905 cumulative IPC: 0.5787 (Simulation time: 00 hr 44 min 36 sec)
Heartbeat CPU 0 instructions: 246501231 cycles: 354716071 heartbeat IPC: 0.3354 cumulative IPC: 0.5776 (Simulation time: 00 hr 44 min 44 sec)
Heartbeat CPU 0 instructions: 247001231 cycles: 355870223 heartbeat IPC: 0.4332 cumulative IPC: 0.5771 (Simulation time: 00 hr 44 min 52 sec)
Heartbeat CPU 0 instructions: 247501232 cycles: 356745171 heartbeat IPC: 0.5715 cumulative IPC: 0.5771 (Simulation time: 00 hr 44 min 58 sec)
Heartbeat CPU 0 instructions: 248001237 cycles: 358294647 heartbeat IPC: 0.3227 cumulative IPC: 0.576 (Simulation time: 00 hr 45 min 07 sec)
Heartbeat CPU 0 instructions: 248501239 cycles: 359571264 heartbeat IPC: 0.3917 cumulative IPC: 0.5753 (Simulation time: 00 hr 45 min 15 sec)
Heartbeat CPU 0 instructions: 249001242 cycles: 361103257 heartbeat IPC: 0.3264 cumulative IPC: 0.5742 (Simulation time: 00 hr 45 min 26 sec)
Heartbeat CPU 0 instructions: 249501249 cycles: 362935275 heartbeat IPC: 0.2729 cumulative IPC: 0.5726 (Simulation time: 00 hr 45 min 36 sec)
Simulation finished CPU 0 instructions: 200000000 cycles: 349486004 cumulative IPC: 0.5723 (Simulation time: 00 hr 45 min 43 sec)
Simulation complete CPU 0 instructions: 200000000 cycles: 349486004 cumulative IPC: 0.5723 (Simulation time: 00 hr 45 min 43 sec)

ChampSim completed all CPUs

=== Simulation ===
CPU 0 runs /local-ssd/ben/dpc4-traces/gtraces_v2/tango_0001.champsim.gz

Region of Interest Statistics

CPU 0 cumulative IPC: 0.5723 instructions: 200000000 cycles: 349486004
CPU 0 Branch Prediction Accuracy: 92.19% MPKI: 14.1 Average ROB Occupancy at Mispredict: 29.74
Branch type MPKI
BRANCH_DIRECT_JUMP: 0.3006
BRANCH_INDIRECT: 0.1757
BRANCH_CONDITIONAL: 12.47
BRANCH_DIRECT_CALL: 0.4152
BRANCH_INDIRECT_CALL: 0.3046
BRANCH_RETURN: 0.4265

cpu0->cpu0_STLB TOTAL        ACCESS:    2980536 HIT:    2215958 MISS:     764578 MSHR_MERGE:          0
cpu0->cpu0_STLB LOAD         ACCESS:    2980536 HIT:    2215958 MISS:     764578 MSHR_MERGE:          0
cpu0->cpu0_STLB RFO          ACCESS:          0 HIT:          0 MISS:          0 MSHR_MERGE:          0
cpu0->cpu0_STLB PREFETCH     ACCESS:          0 HIT:          0 MISS:          0 MSHR_MERGE:          0
cpu0->cpu0_STLB WRITE        ACCESS:          0 HIT:          0 MISS:          0 MSHR_MERGE:          0
cpu0->cpu0_STLB TRANSLATION  ACCESS:          0 HIT:          0 MISS:          0 MSHR_MERGE:          0
cpu0->cpu0_STLB PREFETCH REQUESTED:          0 ISSUED:          0 USEFUL:          0 USELESS:          0
cpu0->cpu0_STLB AVERAGE MISS LATENCY: 126.9 cycles
cpu0->cpu0_L2C TOTAL        ACCESS:   15416568 HIT:   10179400 MISS:    5237168 MSHR_MERGE:     784501
cpu0->cpu0_L2C LOAD         ACCESS:    3505957 HIT:    2312335 MISS:    1193622 MSHR_MERGE:      19863
cpu0->cpu0_L2C RFO          ACCESS:     799988 HIT:     257513 MISS:     542475 MSHR_MERGE:       1340
cpu0->cpu0_L2C PREFETCH     ACCESS:    9129973 HIT:    5899117 MISS:    3230856 MSHR_MERGE:     763298
cpu0->cpu0_L2C WRITE        ACCESS:    1277321 HIT:    1277251 MISS:         70 MSHR_MERGE:          0
cpu0->cpu0_L2C TRANSLATION  ACCESS:     703329 HIT:     433184 MISS:     270145 MSHR_MERGE:          0
cpu0->cpu0_L2C PREFETCH REQUESTED:    7252999 ISSUED:    6997091 USEFUL:     487093 USELESS:    1253470
cpu0->cpu0_L2C AVERAGE MISS LATENCY: 228.3 cycles
cpu0->cpu0_L1I TOTAL        ACCESS:   18313186 HIT:   16091293 MISS:    2221893 MSHR_MERGE:     490695
cpu0->cpu0_L1I LOAD         ACCESS:   18313186 HIT:   16091293 MISS:    2221893 MSHR_MERGE:     490695
cpu0->cpu0_L1I RFO          ACCESS:          0 HIT:          0 MISS:          0 MSHR_MERGE:          0
cpu0->cpu0_L1I PREFETCH     ACCESS:          0 HIT:          0 MISS:          0 MSHR_MERGE:          0
cpu0->cpu0_L1I WRITE        ACCESS:          0 HIT:          0 MISS:          0 MSHR_MERGE:          0
cpu0->cpu0_L1I TRANSLATION  ACCESS:          0 HIT:          0 MISS:          0 MSHR_MERGE:          0
cpu0->cpu0_L1I PREFETCH REQUESTED:          0 ISSUED:          0 USEFUL:          0 USELESS:          0
cpu0->cpu0_L1I AVERAGE MISS LATENCY: 70.72 cycles
cpu0->cpu0_L1D TOTAL        ACCESS:   82979212 HIT:   73239091 MISS:    9740121 MSHR_MERGE:    4329103
cpu0->cpu0_L1D LOAD         ACCESS:   29024170 HIT:   26546244 MISS:    2477926 MSHR_MERGE:     703161
cpu0->cpu0_L1D RFO          ACCESS:          0 HIT:          0 MISS:          0 MSHR_MERGE:          0
cpu0->cpu0_L1D PREFETCH     ACCESS:   26515764 HIT:   23231295 MISS:    3284469 MSHR_MERGE:    1151586
cpu0->cpu0_L1D WRITE        ACCESS:   25580455 HIT:   22311572 MISS:    3268883 MSHR_MERGE:    2468842
cpu0->cpu0_L1D TRANSLATION  ACCESS:    1858823 HIT:    1149980 MISS:     708843 MSHR_MERGE:       5514
cpu0->cpu0_L1D PREFETCH REQUESTED:   29967921 ISSUED:   26515756 USEFUL:     144967 USELESS:    1987724
cpu0->cpu0_L1D AVERAGE MISS LATENCY: 115 cycles
cpu0->cpu0_ITLB TOTAL        ACCESS:   15477968 HIT:   15193239 MISS:     284729 MSHR_MERGE:     134680
cpu0->cpu0_ITLB LOAD         ACCESS:   15477968 HIT:   15193239 MISS:     284729 MSHR_MERGE:     134680
cpu0->cpu0_ITLB RFO          ACCESS:          0 HIT:          0 MISS:          0 MSHR_MERGE:          0
cpu0->cpu0_ITLB PREFETCH     ACCESS:          0 HIT:          0 MISS:          0 MSHR_MERGE:          0
cpu0->cpu0_ITLB WRITE        ACCESS:          0 HIT:          0 MISS:          0 MSHR_MERGE:          0
cpu0->cpu0_ITLB TRANSLATION  ACCESS:          0 HIT:          0 MISS:          0 MSHR_MERGE:          0
cpu0->cpu0_ITLB PREFETCH REQUESTED:          0 ISSUED:          0 USEFUL:          0 USELESS:          0
cpu0->cpu0_ITLB AVERAGE MISS LATENCY: 33.04 cycles
cpu0->cpu0_DTLB TOTAL        ACCESS:   74483484 HIT:   69667235 MISS:    4816249 MSHR_MERGE:    1985762
cpu0->cpu0_DTLB LOAD         ACCESS:   74483484 HIT:   69667235 MISS:    4816249 MSHR_MERGE:    1985762
cpu0->cpu0_DTLB RFO          ACCESS:          0 HIT:          0 MISS:          0 MSHR_MERGE:          0
cpu0->cpu0_DTLB PREFETCH     ACCESS:          0 HIT:          0 MISS:          0 MSHR_MERGE:          0
cpu0->cpu0_DTLB WRITE        ACCESS:          0 HIT:          0 MISS:          0 MSHR_MERGE:          0
cpu0->cpu0_DTLB TRANSLATION  ACCESS:          0 HIT:          0 MISS:          0 MSHR_MERGE:          0
cpu0->cpu0_DTLB PREFETCH REQUESTED:          0 ISSUED:          0 USEFUL:          0 USELESS:          0
cpu0->cpu0_DTLB AVERAGE MISS LATENCY: 38.07 cycles
cpu0->LLC TOTAL        ACCESS:    7351756 HIT:    1082907 MISS:    6268849 MSHR_MERGE:     633105
cpu0->LLC LOAD         ACCESS:    1173759 HIT:     196000 MISS:     977759 MSHR_MERGE:       4731
cpu0->LLC RFO          ACCESS:     541135 HIT:      19556 MISS:     521579 MSHR_MERGE:        153
cpu0->LLC PREFETCH     ACCESS:    4489814 HIT:     562240 MISS:    3927574 MSHR_MERGE:     628221
cpu0->LLC WRITE        ACCESS:     876903 HIT:     274045 MISS:     602858 MSHR_MERGE:          0
cpu0->LLC TRANSLATION  ACCESS:     270145 HIT:      31066 MISS:     239079 MSHR_MERGE:          0
cpu0->LLC PREFETCH REQUESTED:    2045165 ISSUED:    2022256 USEFUL:     211583 USELESS:    1019175
cpu0->LLC AVERAGE MISS LATENCY: 179.3 cycles

DRAM Statistics

Channel 0 RQ ROW_BUFFER_HIT:     321069
  ROW_BUFFER_MISS:    4711722
  AVG DBUS CONGESTED CYCLE: 17.11
Channel 0 WQ ROW_BUFFER_HIT:     200376
  ROW_BUFFER_MISS:     641630
  FULL:          0
Channel 0 REFRESHES ISSUED:      29122
