[VMEM] WARNING: physical memory size is smaller than virtual memory size.

*** ChampSim Multicore Out-of-Order Simulator ***
Warmup Instructions: 50000000
Simulation Instructions: 200000000
Number of CPUs: 1
Page size: 4096
Core 0: /local-ssd/ben/dpc4-traces/ai-ml/llama2.c-stories15M.3.champsimtrace.gz
Off-chip DRAM Size: 64 GiB Channels: 1 Width: 64-bit Data Rate: 4807 MT/s
Heartbeat CPU 0 instructions: 500002 cycles: 117134 heartbeat IPC: 4.269 cumulative IPC: 4.269 (Simulation time: 00 hr 00 min 02 sec)
Heartbeat CPU 0 instructions: 1000004 cycles: 232626 heartbeat IPC: 4.329 cumulative IPC: 4.299 (Simulation time: 00 hr 00 min 04 sec)
Heartbeat CPU 0 instructions: 1500007 cycles: 347913 heartbeat IPC: 4.337 cumulative IPC: 4.311 (Simulation time: 00 hr 00 min 05 sec)
Heartbeat CPU 0 instructions: 2000007 cycles: 464881 heartbeat IPC: 4.275 cumulative IPC: 4.302 (Simulation time: 00 hr 00 min 07 sec)
Heartbeat CPU 0 instructions: 2500007 cycles: 574135 heartbeat IPC: 4.576 cumulative IPC: 4.354 (Simulation time: 00 hr 00 min 09 sec)
Heartbeat CPU 0 instructions: 3000012 cycles: 712621 heartbeat IPC: 3.611 cumulative IPC: 4.21 (Simulation time: 00 hr 00 min 10 sec)
Heartbeat CPU 0 instructions: 3500012 cycles: 830219 heartbeat IPC: 4.252 cumulative IPC: 4.216 (Simulation time: 00 hr 00 min 12 sec)
Heartbeat CPU 0 instructions: 4000014 cycles: 945940 heartbeat IPC: 4.321 cumulative IPC: 4.229 (Simulation time: 00 hr 00 min 14 sec)
Heartbeat CPU 0 instructions: 4500020 cycles: 1062891 heartbeat IPC: 4.275 cumulative IPC: 4.234 (Simulation time: 00 hr 00 min 16 sec)
Heartbeat CPU 0 instructions: 5000020 cycles: 1180084 heartbeat IPC: 4.266 cumulative IPC: 4.237 (Simulation time: 00 hr 00 min 18 sec)
Heartbeat CPU 0 instructions: 5500020 cycles: 1296244 heartbeat IPC: 4.304 cumulative IPC: 4.243 (Simulation time: 00 hr 00 min 20 sec)
Heartbeat CPU 0 instructions: 6000020 cycles: 1411829 heartbeat IPC: 4.326 cumulative IPC: 4.25 (Simulation time: 00 hr 00 min 22 sec)
Heartbeat CPU 0 instructions: 6500022 cycles: 1528898 heartbeat IPC: 4.271 cumulative IPC: 4.251 (Simulation time: 00 hr 00 min 24 sec)
Heartbeat CPU 0 instructions: 7000029 cycles: 1645363 heartbeat IPC: 4.293 cumulative IPC: 4.254 (Simulation time: 00 hr 00 min 25 sec)
Heartbeat CPU 0 instructions: 7500029 cycles: 1761514 heartbeat IPC: 4.305 cumulative IPC: 4.258 (Simulation time: 00 hr 00 min 27 sec)
Heartbeat CPU 0 instructions: 8000031 cycles: 1876780 heartbeat IPC: 4.338 cumulative IPC: 4.263 (Simulation time: 00 hr 00 min 29 sec)
Heartbeat CPU 0 instructions: 8500033 cycles: 1994781 heartbeat IPC: 4.237 cumulative IPC: 4.261 (Simulation time: 00 hr 00 min 31 sec)
Heartbeat CPU 0 instructions: 9000033 cycles: 2111284 heartbeat IPC: 4.292 cumulative IPC: 4.263 (Simulation time: 00 hr 00 min 33 sec)
Heartbeat CPU 0 instructions: 9500036 cycles: 2226657 heartbeat IPC: 4.334 cumulative IPC: 4.267 (Simulation time: 00 hr 00 min 35 sec)
Heartbeat CPU 0 instructions: 10000041 cycles: 2342464 heartbeat IPC: 4.318 cumulative IPC: 4.269 (Simulation time: 00 hr 00 min 37 sec)
Heartbeat CPU 0 instructions: 10500043 cycles: 2460133 heartbeat IPC: 4.249 cumulative IPC: 4.268 (Simulation time: 00 hr 00 min 39 sec)
Heartbeat CPU 0 instructions: 11000044 cycles: 2576360 heartbeat IPC: 4.302 cumulative IPC: 4.27 (Simulation time: 00 hr 00 min 41 sec)
Heartbeat CPU 0 instructions: 11500045 cycles: 2691938 heartbeat IPC: 4.326 cumulative IPC: 4.272 (Simulation time: 00 hr 00 min 43 sec)
Heartbeat CPU 0 instructions: 12000048 cycles: 2808266 heartbeat IPC: 4.298 cumulative IPC: 4.273 (Simulation time: 00 hr 00 min 45 sec)
Heartbeat CPU 0 instructions: 12500052 cycles: 2925471 heartbeat IPC: 4.266 cumulative IPC: 4.273 (Simulation time: 00 hr 00 min 46 sec)
Heartbeat CPU 0 instructions: 13000052 cycles: 3041312 heartbeat IPC: 4.316 cumulative IPC: 4.274 (Simulation time: 00 hr 00 min 48 sec)
Heartbeat CPU 0 instructions: 13500053 cycles: 3156609 heartbeat IPC: 4.337 cumulative IPC: 4.277 (Simulation time: 00 hr 00 min 50 sec)
Heartbeat CPU 0 instructions: 14000058 cycles: 3273190 heartbeat IPC: 4.289 cumulative IPC: 4.277 (Simulation time: 00 hr 00 min 52 sec)
Heartbeat CPU 0 instructions: 14500064 cycles: 3388612 heartbeat IPC: 4.332 cumulative IPC: 4.279 (Simulation time: 00 hr 00 min 54 sec)
Heartbeat CPU 0 instructions: 15000066 cycles: 3503705 heartbeat IPC: 4.344 cumulative IPC: 4.281 (Simulation time: 00 hr 00 min 56 sec)
Heartbeat CPU 0 instructions: 15500070 cycles: 3619018 heartbeat IPC: 4.336 cumulative IPC: 4.283 (Simulation time: 00 hr 00 min 58 sec)
Heartbeat CPU 0 instructions: 16000071 cycles: 3734286 heartbeat IPC: 4.338 cumulative IPC: 4.285 (Simulation time: 00 hr 01 min 00 sec)
Heartbeat CPU 0 instructions: 16500078 cycles: 3849755 heartbeat IPC: 4.33 cumulative IPC: 4.286 (Simulation time: 00 hr 01 min 02 sec)
Heartbeat CPU 0 instructions: 17000081 cycles: 3965023 heartbeat IPC: 4.338 cumulative IPC: 4.288 (Simulation time: 00 hr 01 min 03 sec)
Heartbeat CPU 0 instructions: 17500085 cycles: 4080525 heartbeat IPC: 4.329 cumulative IPC: 4.289 (Simulation time: 00 hr 01 min 05 sec)
Heartbeat CPU 0 instructions: 18000086 cycles: 4195800 heartbeat IPC: 4.337 cumulative IPC: 4.29 (Simulation time: 00 hr 01 min 07 sec)
Heartbeat CPU 0 instructions: 18500091 cycles: 4311086 heartbeat IPC: 4.337 cumulative IPC: 4.291 (Simulation time: 00 hr 01 min 09 sec)
Heartbeat CPU 0 instructions: 19000094 cycles: 4426361 heartbeat IPC: 4.337 cumulative IPC: 4.292 (Simulation time: 00 hr 01 min 11 sec)
Heartbeat CPU 0 instructions: 19500098 cycles: 4541815 heartbeat IPC: 4.331 cumulative IPC: 4.293 (Simulation time: 00 hr 01 min 13 sec)
Heartbeat CPU 0 instructions: 20000101 cycles: 4657290 heartbeat IPC: 4.33 cumulative IPC: 4.294 (Simulation time: 00 hr 01 min 15 sec)
Heartbeat CPU 0 instructions: 20500103 cycles: 4772581 heartbeat IPC: 4.337 cumulative IPC: 4.295 (Simulation time: 00 hr 01 min 17 sec)
Heartbeat CPU 0 instructions: 21000106 cycles: 4888081 heartbeat IPC: 4.329 cumulative IPC: 4.296 (Simulation time: 00 hr 01 min 19 sec)
Heartbeat CPU 0 instructions: 21500112 cycles: 5003197 heartbeat IPC: 4.343 cumulative IPC: 4.297 (Simulation time: 00 hr 01 min 20 sec)
Heartbeat CPU 0 instructions: 22000114 cycles: 5118668 heartbeat IPC: 4.33 cumulative IPC: 4.298 (Simulation time: 00 hr 01 min 22 sec)
Heartbeat CPU 0 instructions: 22500117 cycles: 5233958 heartbeat IPC: 4.337 cumulative IPC: 4.299 (Simulation time: 00 hr 01 min 24 sec)
Heartbeat CPU 0 instructions: 23000120 cycles: 5349451 heartbeat IPC: 4.329 cumulative IPC: 4.3 (Simulation time: 00 hr 01 min 26 sec)
Heartbeat CPU 0 instructions: 23500122 cycles: 5464669 heartbeat IPC: 4.34 cumulative IPC: 4.3 (Simulation time: 00 hr 01 min 28 sec)
Heartbeat CPU 0 instructions: 24000125 cycles: 5580153 heartbeat IPC: 4.33 cumulative IPC: 4.301 (Simulation time: 00 hr 01 min 30 sec)
Heartbeat CPU 0 instructions: 24500128 cycles: 5695459 heartbeat IPC: 4.336 cumulative IPC: 4.302 (Simulation time: 00 hr 01 min 32 sec)
Heartbeat CPU 0 instructions: 25000129 cycles: 5810761 heartbeat IPC: 4.336 cumulative IPC: 4.302 (Simulation time: 00 hr 01 min 34 sec)
Heartbeat CPU 0 instructions: 25500132 cycles: 5926027 heartbeat IPC: 4.338 cumulative IPC: 4.303 (Simulation time: 00 hr 01 min 36 sec)
Heartbeat CPU 0 instructions: 26000132 cycles: 6041511 heartbeat IPC: 4.33 cumulative IPC: 4.304 (Simulation time: 00 hr 01 min 38 sec)
Heartbeat CPU 0 instructions: 26500134 cycles: 6156768 heartbeat IPC: 4.338 cumulative IPC: 4.304 (Simulation time: 00 hr 01 min 39 sec)
Heartbeat CPU 0 instructions: 27000137 cycles: 6272259 heartbeat IPC: 4.329 cumulative IPC: 4.305 (Simulation time: 00 hr 01 min 41 sec)
Heartbeat CPU 0 instructions: 27500139 cycles: 6387543 heartbeat IPC: 4.337 cumulative IPC: 4.305 (Simulation time: 00 hr 01 min 43 sec)
Heartbeat CPU 0 instructions: 28000144 cycles: 6502830 heartbeat IPC: 4.337 cumulative IPC: 4.306 (Simulation time: 00 hr 01 min 45 sec)
Heartbeat CPU 0 instructions: 28500148 cycles: 6618082 heartbeat IPC: 4.338 cumulative IPC: 4.306 (Simulation time: 00 hr 01 min 47 sec)
Heartbeat CPU 0 instructions: 29000151 cycles: 6732527 heartbeat IPC: 4.369 cumulative IPC: 4.307 (Simulation time: 00 hr 01 min 49 sec)
Heartbeat CPU 0 instructions: 29500154 cycles: 6832528 heartbeat IPC: 5 cumulative IPC: 4.318 (Simulation time: 00 hr 01 min 50 sec)
Heartbeat CPU 0 instructions: 30000159 cycles: 6932527 heartbeat IPC: 5 cumulative IPC: 4.327 (Simulation time: 00 hr 01 min 52 sec)
Heartbeat CPU 0 instructions: 30500162 cycles: 7032527 heartbeat IPC: 5 cumulative IPC: 4.337 (Simulation time: 00 hr 01 min 53 sec)
Heartbeat CPU 0 instructions: 31000168 cycles: 7132887 heartbeat IPC: 4.982 cumulative IPC: 4.346 (Simulation time: 00 hr 01 min 54 sec)
Heartbeat CPU 0 instructions: 31500171 cycles: 7239773 heartbeat IPC: 4.678 cumulative IPC: 4.351 (Simulation time: 00 hr 01 min 56 sec)
Heartbeat CPU 0 instructions: 32000173 cycles: 7359675 heartbeat IPC: 4.17 cumulative IPC: 4.348 (Simulation time: 00 hr 01 min 57 sec)
Heartbeat CPU 0 instructions: 32500180 cycles: 7459723 heartbeat IPC: 4.998 cumulative IPC: 4.357 (Simulation time: 00 hr 01 min 59 sec)
Heartbeat CPU 0 instructions: 33000181 cycles: 7559722 heartbeat IPC: 5 cumulative IPC: 4.365 (Simulation time: 00 hr 02 min 00 sec)
Heartbeat CPU 0 instructions: 33500185 cycles: 7659725 heartbeat IPC: 5 cumulative IPC: 4.374 (Simulation time: 00 hr 02 min 02 sec)
Heartbeat CPU 0 instructions: 34000192 cycles: 7759768 heartbeat IPC: 4.998 cumulative IPC: 4.382 (Simulation time: 00 hr 02 min 03 sec)
Heartbeat CPU 0 instructions: 34500192 cycles: 7859769 heartbeat IPC: 5 cumulative IPC: 4.389 (Simulation time: 00 hr 02 min 04 sec)
Heartbeat CPU 0 instructions: 35000192 cycles: 7959768 heartbeat IPC: 5 cumulative IPC: 4.397 (Simulation time: 00 hr 02 min 06 sec)
Heartbeat CPU 0 instructions: 35500192 cycles: 8059767 heartbeat IPC: 5 cumulative IPC: 4.405 (Simulation time: 00 hr 02 min 07 sec)
Heartbeat CPU 0 instructions: 36000196 cycles: 8159813 heartbeat IPC: 4.998 cumulative IPC: 4.412 (Simulation time: 00 hr 02 min 09 sec)
Heartbeat CPU 0 instructions: 36500203 cycles: 8259818 heartbeat IPC: 5 cumulative IPC: 4.419 (Simulation time: 00 hr 02 min 10 sec)
Heartbeat CPU 0 instructions: 37000207 cycles: 8359817 heartbeat IPC: 5 cumulative IPC: 4.426 (Simulation time: 00 hr 02 min 11 sec)
Heartbeat CPU 0 instructions: 37500209 cycles: 8459819 heartbeat IPC: 5 cumulative IPC: 4.433 (Simulation time: 00 hr 02 min 13 sec)
Heartbeat CPU 0 instructions: 38000211 cycles: 8559863 heartbeat IPC: 4.998 cumulative IPC: 4.439 (Simulation time: 00 hr 02 min 14 sec)
Heartbeat CPU 0 instructions: 38500214 cycles: 8659864 heartbeat IPC: 5 cumulative IPC: 4.446 (Simulation time: 00 hr 02 min 15 sec)
Heartbeat CPU 0 instructions: 39000215 cycles: 8759865 heartbeat IPC: 5 cumulative IPC: 4.452 (Simulation time: 00 hr 02 min 17 sec)
Heartbeat CPU 0 instructions: 39500220 cycles: 8859868 heartbeat IPC: 5 cumulative IPC: 4.458 (Simulation time: 00 hr 02 min 18 sec)
Heartbeat CPU 0 instructions: 40000225 cycles: 8959912 heartbeat IPC: 4.998 cumulative IPC: 4.464 (Simulation time: 00 hr 02 min 20 sec)
Heartbeat CPU 0 instructions: 40500229 cycles: 9059916 heartbeat IPC: 5 cumulative IPC: 4.47 (Simulation time: 00 hr 02 min 21 sec)
Heartbeat CPU 0 instructions: 41000230 cycles: 9159914 heartbeat IPC: 5 cumulative IPC: 4.476 (Simulation time: 00 hr 02 min 22 sec)
Heartbeat CPU 0 instructions: 41500237 cycles: 9259961 heartbeat IPC: 4.998 cumulative IPC: 4.482 (Simulation time: 00 hr 02 min 24 sec)
Heartbeat CPU 0 instructions: 42000237 cycles: 9359961 heartbeat IPC: 5 cumulative IPC: 4.487 (Simulation time: 00 hr 02 min 25 sec)
Heartbeat CPU 0 instructions: 42500237 cycles: 9459961 heartbeat IPC: 5 cumulative IPC: 4.493 (Simulation time: 00 hr 02 min 27 sec)
Heartbeat CPU 0 instructions: 43000241 cycles: 9559961 heartbeat IPC: 5 cumulative IPC: 4.498 (Simulation time: 00 hr 02 min 28 sec)
Heartbeat CPU 0 instructions: 43500242 cycles: 9659964 heartbeat IPC: 5 cumulative IPC: 4.503 (Simulation time: 00 hr 02 min 29 sec)
Heartbeat CPU 0 instructions: 44000245 cycles: 9759966 heartbeat IPC: 5 cumulative IPC: 4.508 (Simulation time: 00 hr 02 min 31 sec)
Heartbeat CPU 0 instructions: 44500245 cycles: 9859964 heartbeat IPC: 5 cumulative IPC: 4.513 (Simulation time: 00 hr 02 min 32 sec)
Heartbeat CPU 0 instructions: 45000252 cycles: 9959966 heartbeat IPC: 5 cumulative IPC: 4.518 (Simulation time: 00 hr 02 min 33 sec)
Heartbeat CPU 0 instructions: 45500257 cycles: 10059966 heartbeat IPC: 5 cumulative IPC: 4.523 (Simulation time: 00 hr 02 min 35 sec)
Heartbeat CPU 0 instructions: 46000260 cycles: 10159967 heartbeat IPC: 5 cumulative IPC: 4.528 (Simulation time: 00 hr 02 min 36 sec)
Heartbeat CPU 0 instructions: 46500267 cycles: 10259967 heartbeat IPC: 5 cumulative IPC: 4.532 (Simulation time: 00 hr 02 min 38 sec)
Heartbeat CPU 0 instructions: 47000267 cycles: 10359968 heartbeat IPC: 5 cumulative IPC: 4.537 (Simulation time: 00 hr 02 min 39 sec)
Heartbeat CPU 0 instructions: 47500270 cycles: 10459968 heartbeat IPC: 5 cumulative IPC: 4.541 (Simulation time: 00 hr 02 min 40 sec)
Heartbeat CPU 0 instructions: 48000275 cycles: 10559971 heartbeat IPC: 5 cumulative IPC: 4.545 (Simulation time: 00 hr 02 min 42 sec)
Heartbeat CPU 0 instructions: 48500280 cycles: 10659970 heartbeat IPC: 5 cumulative IPC: 4.55 (Simulation time: 00 hr 02 min 43 sec)
Heartbeat CPU 0 instructions: 49000280 cycles: 10759970 heartbeat IPC: 5 cumulative IPC: 4.554 (Simulation time: 00 hr 02 min 45 sec)
Heartbeat CPU 0 instructions: 49500285 cycles: 10859973 heartbeat IPC: 5 cumulative IPC: 4.558 (Simulation time: 00 hr 02 min 46 sec)
Warmup halting CPU 0 at instruction 50000007 cycle 10959918 for remainder of phase
Warmup finished CPU 0 instructions: 50000007 cycles: 10959918 cumulative IPC: 4.562 (Simulation time: 00 hr 02 min 47 sec)
Warmup complete CPU 0 instructions: 50000007 cycles: 10959918 cumulative IPC: 4.562 (Simulation time: 00 hr 02 min 47 sec)
Heartbeat CPU 0 instructions: 50000291 cycles: 10959975 heartbeat IPC: 5 cumulative IPC: 4.982 (Simulation time: 00 hr 02 min 47 sec)
Heartbeat CPU 0 instructions: 50500295 cycles: 11158272 heartbeat IPC: 2.521 cumulative IPC: 2.522 (Simulation time: 00 hr 02 min 50 sec)
Heartbeat CPU 0 instructions: 51000300 cycles: 11358586 heartbeat IPC: 2.496 cumulative IPC: 2.509 (Simulation time: 00 hr 02 min 53 sec)
Heartbeat CPU 0 instructions: 51500301 cycles: 11560125 heartbeat IPC: 2.481 cumulative IPC: 2.5 (Simulation time: 00 hr 02 min 56 sec)
Heartbeat CPU 0 instructions: 52000305 cycles: 11760016 heartbeat IPC: 2.501 cumulative IPC: 2.5 (Simulation time: 00 hr 02 min 58 sec)
Heartbeat CPU 0 instructions: 52500306 cycles: 11958349 heartbeat IPC: 2.521 cumulative IPC: 2.504 (Simulation time: 00 hr 03 min 01 sec)
Heartbeat CPU 0 instructions: 53000313 cycles: 12160210 heartbeat IPC: 2.477 cumulative IPC: 2.5 (Simulation time: 00 hr 03 min 04 sec)
Heartbeat CPU 0 instructions: 53500315 cycles: 12358987 heartbeat IPC: 2.515 cumulative IPC: 2.502 (Simulation time: 00 hr 03 min 07 sec)
Heartbeat CPU 0 instructions: 54000319 cycles: 12561631 heartbeat IPC: 2.467 cumulative IPC: 2.498 (Simulation time: 00 hr 03 min 10 sec)
Heartbeat CPU 0 instructions: 54500323 cycles: 12763043 heartbeat IPC: 2.482 cumulative IPC: 2.496 (Simulation time: 00 hr 03 min 12 sec)
Heartbeat CPU 0 instructions: 55000327 cycles: 12964055 heartbeat IPC: 2.487 cumulative IPC: 2.495 (Simulation time: 00 hr 03 min 15 sec)
Heartbeat CPU 0 instructions: 55500329 cycles: 13163910 heartbeat IPC: 2.502 cumulative IPC: 2.496 (Simulation time: 00 hr 03 min 18 sec)
Heartbeat CPU 0 instructions: 56000333 cycles: 13365914 heartbeat IPC: 2.475 cumulative IPC: 2.494 (Simulation time: 00 hr 03 min 21 sec)
Heartbeat CPU 0 instructions: 56500337 cycles: 13565155 heartbeat IPC: 2.51 cumulative IPC: 2.495 (Simulation time: 00 hr 03 min 24 sec)
Heartbeat CPU 0 instructions: 57000341 cycles: 13769074 heartbeat IPC: 2.452 cumulative IPC: 2.492 (Simulation time: 00 hr 03 min 26 sec)
Heartbeat CPU 0 instructions: 57500342 cycles: 13971985 heartbeat IPC: 2.464 cumulative IPC: 2.49 (Simulation time: 00 hr 03 min 29 sec)
Heartbeat CPU 0 instructions: 58000347 cycles: 14171540 heartbeat IPC: 2.506 cumulative IPC: 2.491 (Simulation time: 00 hr 03 min 32 sec)
Heartbeat CPU 0 instructions: 58500351 cycles: 14386037 heartbeat IPC: 2.331 cumulative IPC: 2.481 (Simulation time: 00 hr 03 min 35 sec)
Heartbeat CPU 0 instructions: 59000352 cycles: 14619377 heartbeat IPC: 2.143 cumulative IPC: 2.459 (Simulation time: 00 hr 03 min 38 sec)
Heartbeat CPU 0 instructions: 59500355 cycles: 14839886 heartbeat IPC: 2.267 cumulative IPC: 2.449 (Simulation time: 00 hr 03 min 41 sec)
Heartbeat CPU 0 instructions: 60000356 cycles: 15065875 heartbeat IPC: 2.213 cumulative IPC: 2.436 (Simulation time: 00 hr 03 min 44 sec)
Heartbeat CPU 0 instructions: 60500358 cycles: 15508516 heartbeat IPC: 1.13 cumulative IPC: 2.308 (Simulation time: 00 hr 03 min 50 sec)
Heartbeat CPU 0 instructions: 61000358 cycles: 15716758 heartbeat IPC: 2.401 cumulative IPC: 2.313 (Simulation time: 00 hr 03 min 52 sec)
Heartbeat CPU 0 instructions: 61500358 cycles: 15938644 heartbeat IPC: 2.253 cumulative IPC: 2.31 (Simulation time: 00 hr 03 min 55 sec)
Heartbeat CPU 0 instructions: 62000364 cycles: 16157183 heartbeat IPC: 2.288 cumulative IPC: 2.309 (Simulation time: 00 hr 03 min 58 sec)
Heartbeat CPU 0 instructions: 62500364 cycles: 16372035 heartbeat IPC: 2.327 cumulative IPC: 2.31 (Simulation time: 00 hr 04 min 01 sec)
Heartbeat CPU 0 instructions: 63000369 cycles: 16589586 heartbeat IPC: 2.298 cumulative IPC: 2.309 (Simulation time: 00 hr 04 min 04 sec)
Heartbeat CPU 0 instructions: 63500369 cycles: 16815070 heartbeat IPC: 2.217 cumulative IPC: 2.306 (Simulation time: 00 hr 04 min 07 sec)
Heartbeat CPU 0 instructions: 64000374 cycles: 17023512 heartbeat IPC: 2.399 cumulative IPC: 2.309 (Simulation time: 00 hr 04 min 09 sec)
Heartbeat CPU 0 instructions: 64500374 cycles: 17228944 heartbeat IPC: 2.434 cumulative IPC: 2.313 (Simulation time: 00 hr 04 min 12 sec)
Heartbeat CPU 0 instructions: 65000376 cycles: 17445780 heartbeat IPC: 2.306 cumulative IPC: 2.313 (Simulation time: 00 hr 04 min 15 sec)
Heartbeat CPU 0 instructions: 65500376 cycles: 17651645 heartbeat IPC: 2.429 cumulative IPC: 2.316 (Simulation time: 00 hr 04 min 18 sec)
Heartbeat CPU 0 instructions: 66000382 cycles: 17861380 heartbeat IPC: 2.384 cumulative IPC: 2.318 (Simulation time: 00 hr 04 min 21 sec)
Heartbeat CPU 0 instructions: 66500382 cycles: 18059616 heartbeat IPC: 2.522 cumulative IPC: 2.324 (Simulation time: 00 hr 04 min 24 sec)
Heartbeat CPU 0 instructions: 67000388 cycles: 18287671 heartbeat IPC: 2.192 cumulative IPC: 2.32 (Simulation time: 00 hr 04 min 27 sec)
Heartbeat CPU 0 instructions: 67500391 cycles: 18487302 heartbeat IPC: 2.505 cumulative IPC: 2.325 (Simulation time: 00 hr 04 min 29 sec)
Heartbeat CPU 0 instructions: 68000392 cycles: 18694078 heartbeat IPC: 2.418 cumulative IPC: 2.327 (Simulation time: 00 hr 04 min 32 sec)
Heartbeat CPU 0 instructions: 68500396 cycles: 18895861 heartbeat IPC: 2.478 cumulative IPC: 2.331 (Simulation time: 00 hr 04 min 35 sec)
Heartbeat CPU 0 instructions: 69000396 cycles: 19113106 heartbeat IPC: 2.302 cumulative IPC: 2.33 (Simulation time: 00 hr 04 min 38 sec)
Heartbeat CPU 0 instructions: 69500397 cycles: 19314918 heartbeat IPC: 2.478 cumulative IPC: 2.334 (Simulation time: 00 hr 04 min 40 sec)
Heartbeat CPU 0 instructions: 70000402 cycles: 19522351 heartbeat IPC: 2.41 cumulative IPC: 2.336 (Simulation time: 00 hr 04 min 43 sec)
Heartbeat CPU 0 instructions: 70500402 cycles: 19723155 heartbeat IPC: 2.49 cumulative IPC: 2.339 (Simulation time: 00 hr 04 min 46 sec)
Heartbeat CPU 0 instructions: 71000406 cycles: 19959143 heartbeat IPC: 2.119 cumulative IPC: 2.334 (Simulation time: 00 hr 04 min 49 sec)
Heartbeat CPU 0 instructions: 71500410 cycles: 20166088 heartbeat IPC: 2.416 cumulative IPC: 2.335 (Simulation time: 00 hr 04 min 52 sec)
Heartbeat CPU 0 instructions: 72000416 cycles: 20368289 heartbeat IPC: 2.473 cumulative IPC: 2.338 (Simulation time: 00 hr 04 min 55 sec)
Heartbeat CPU 0 instructions: 72500417 cycles: 20567676 heartbeat IPC: 2.508 cumulative IPC: 2.342 (Simulation time: 00 hr 04 min 57 sec)
Heartbeat CPU 0 instructions: 73000419 cycles: 20772756 heartbeat IPC: 2.438 cumulative IPC: 2.344 (Simulation time: 00 hr 05 min 00 sec)
Heartbeat CPU 0 instructions: 73500423 cycles: 20976226 heartbeat IPC: 2.457 cumulative IPC: 2.346 (Simulation time: 00 hr 05 min 03 sec)
Heartbeat CPU 0 instructions: 74000427 cycles: 21178708 heartbeat IPC: 2.469 cumulative IPC: 2.349 (Simulation time: 00 hr 05 min 05 sec)
Heartbeat CPU 0 instructions: 74500431 cycles: 21382386 heartbeat IPC: 2.455 cumulative IPC: 2.351 (Simulation time: 00 hr 05 min 08 sec)
Heartbeat CPU 0 instructions: 75000433 cycles: 21586888 heartbeat IPC: 2.445 cumulative IPC: 2.353 (Simulation time: 00 hr 05 min 11 sec)
Heartbeat CPU 0 instructions: 75500437 cycles: 21793366 heartbeat IPC: 2.422 cumulative IPC: 2.354 (Simulation time: 00 hr 05 min 14 sec)
Heartbeat CPU 0 instructions: 76000441 cycles: 21995896 heartbeat IPC: 2.469 cumulative IPC: 2.356 (Simulation time: 00 hr 05 min 17 sec)
Heartbeat CPU 0 instructions: 76500445 cycles: 22200772 heartbeat IPC: 2.441 cumulative IPC: 2.358 (Simulation time: 00 hr 05 min 19 sec)
Heartbeat CPU 0 instructions: 77000446 cycles: 22408971 heartbeat IPC: 2.402 cumulative IPC: 2.358 (Simulation time: 00 hr 05 min 22 sec)
Heartbeat CPU 0 instructions: 77500451 cycles: 22620885 heartbeat IPC: 2.359 cumulative IPC: 2.358 (Simulation time: 00 hr 05 min 25 sec)
Heartbeat CPU 0 instructions: 78000455 cycles: 22839732 heartbeat IPC: 2.285 cumulative IPC: 2.357 (Simulation time: 00 hr 05 min 28 sec)
Heartbeat CPU 0 instructions: 78500459 cycles: 23059044 heartbeat IPC: 2.28 cumulative IPC: 2.356 (Simulation time: 00 hr 05 min 30 sec)
Heartbeat CPU 0 instructions: 79000463 cycles: 23273684 heartbeat IPC: 2.33 cumulative IPC: 2.355 (Simulation time: 00 hr 05 min 33 sec)
Heartbeat CPU 0 instructions: 79500463 cycles: 23479597 heartbeat IPC: 2.428 cumulative IPC: 2.356 (Simulation time: 00 hr 05 min 36 sec)
Heartbeat CPU 0 instructions: 80000466 cycles: 23688408 heartbeat IPC: 2.395 cumulative IPC: 2.357 (Simulation time: 00 hr 05 min 39 sec)
Heartbeat CPU 0 instructions: 80500466 cycles: 23894858 heartbeat IPC: 2.422 cumulative IPC: 2.358 (Simulation time: 00 hr 05 min 41 sec)
Heartbeat CPU 0 instructions: 81000470 cycles: 24103881 heartbeat IPC: 2.392 cumulative IPC: 2.359 (Simulation time: 00 hr 05 min 44 sec)
Heartbeat CPU 0 instructions: 81500474 cycles: 24307169 heartbeat IPC: 2.46 cumulative IPC: 2.36 (Simulation time: 00 hr 05 min 47 sec)
Heartbeat CPU 0 instructions: 82000476 cycles: 24511405 heartbeat IPC: 2.448 cumulative IPC: 2.361 (Simulation time: 00 hr 05 min 50 sec)
Heartbeat CPU 0 instructions: 82500480 cycles: 24716854 heartbeat IPC: 2.434 cumulative IPC: 2.362 (Simulation time: 00 hr 05 min 52 sec)
Heartbeat CPU 0 instructions: 83000481 cycles: 24922223 heartbeat IPC: 2.435 cumulative IPC: 2.364 (Simulation time: 00 hr 05 min 55 sec)
Heartbeat CPU 0 instructions: 83500488 cycles: 25128558 heartbeat IPC: 2.423 cumulative IPC: 2.364 (Simulation time: 00 hr 05 min 58 sec)
Heartbeat CPU 0 instructions: 84000490 cycles: 25340365 heartbeat IPC: 2.361 cumulative IPC: 2.364 (Simulation time: 00 hr 06 min 01 sec)
Heartbeat CPU 0 instructions: 84500494 cycles: 25552128 heartbeat IPC: 2.361 cumulative IPC: 2.364 (Simulation time: 00 hr 06 min 03 sec)
Heartbeat CPU 0 instructions: 85000498 cycles: 25759041 heartbeat IPC: 2.416 cumulative IPC: 2.365 (Simulation time: 00 hr 06 min 06 sec)
Heartbeat CPU 0 instructions: 85500501 cycles: 25963947 heartbeat IPC: 2.44 cumulative IPC: 2.366 (Simulation time: 00 hr 06 min 09 sec)
Heartbeat CPU 0 instructions: 86000504 cycles: 26171572 heartbeat IPC: 2.408 cumulative IPC: 2.367 (Simulation time: 00 hr 06 min 12 sec)
Heartbeat CPU 0 instructions: 86500508 cycles: 26381614 heartbeat IPC: 2.38 cumulative IPC: 2.367 (Simulation time: 00 hr 06 min 14 sec)
Heartbeat CPU 0 instructions: 87000512 cycles: 26586690 heartbeat IPC: 2.438 cumulative IPC: 2.368 (Simulation time: 00 hr 06 min 17 sec)
Heartbeat CPU 0 instructions: 87500516 cycles: 26804660 heartbeat IPC: 2.294 cumulative IPC: 2.367 (Simulation time: 00 hr 06 min 20 sec)
Heartbeat CPU 0 instructions: 88000517 cycles: 27043419 heartbeat IPC: 2.094 cumulative IPC: 2.363 (Simulation time: 00 hr 06 min 23 sec)
Heartbeat CPU 0 instructions: 88500522 cycles: 27270257 heartbeat IPC: 2.204 cumulative IPC: 2.36 (Simulation time: 00 hr 06 min 26 sec)
Heartbeat CPU 0 instructions: 89000522 cycles: 27495684 heartbeat IPC: 2.218 cumulative IPC: 2.359 (Simulation time: 00 hr 06 min 28 sec)
Heartbeat CPU 0 instructions: 89500522 cycles: 27943246 heartbeat IPC: 1.117 cumulative IPC: 2.326 (Simulation time: 00 hr 06 min 34 sec)
Heartbeat CPU 0 instructions: 90000528 cycles: 28144630 heartbeat IPC: 2.483 cumulative IPC: 2.328 (Simulation time: 00 hr 06 min 37 sec)
Heartbeat CPU 0 instructions: 90500534 cycles: 28362560 heartbeat IPC: 2.294 cumulative IPC: 2.327 (Simulation time: 00 hr 06 min 40 sec)
Heartbeat CPU 0 instructions: 91000536 cycles: 28569035 heartbeat IPC: 2.422 cumulative IPC: 2.328 (Simulation time: 00 hr 06 min 43 sec)
Heartbeat CPU 0 instructions: 91500537 cycles: 28779176 heartbeat IPC: 2.379 cumulative IPC: 2.329 (Simulation time: 00 hr 06 min 46 sec)
Heartbeat CPU 0 instructions: 92000537 cycles: 28983438 heartbeat IPC: 2.448 cumulative IPC: 2.33 (Simulation time: 00 hr 06 min 49 sec)
Heartbeat CPU 0 instructions: 92500543 cycles: 29202144 heartbeat IPC: 2.286 cumulative IPC: 2.33 (Simulation time: 00 hr 06 min 52 sec)
Heartbeat CPU 0 instructions: 93000548 cycles: 29415513 heartbeat IPC: 2.343 cumulative IPC: 2.33 (Simulation time: 00 hr 06 min 54 sec)
Heartbeat CPU 0 instructions: 93500548 cycles: 29620406 heartbeat IPC: 2.44 cumulative IPC: 2.331 (Simulation time: 00 hr 06 min 57 sec)
Heartbeat CPU 0 instructions: 94000552 cycles: 29839863 heartbeat IPC: 2.278 cumulative IPC: 2.331 (Simulation time: 00 hr 07 min 00 sec)
Heartbeat CPU 0 instructions: 94500552 cycles: 30049046 heartbeat IPC: 2.39 cumulative IPC: 2.331 (Simulation time: 00 hr 07 min 03 sec)
Heartbeat CPU 0 instructions: 95000558 cycles: 30261277 heartbeat IPC: 2.356 cumulative IPC: 2.331 (Simulation time: 00 hr 07 min 06 sec)
Heartbeat CPU 0 instructions: 95500558 cycles: 30459637 heartbeat IPC: 2.521 cumulative IPC: 2.333 (Simulation time: 00 hr 07 min 09 sec)
Heartbeat CPU 0 instructions: 96000564 cycles: 30673857 heartbeat IPC: 2.334 cumulative IPC: 2.333 (Simulation time: 00 hr 07 min 11 sec)
Heartbeat CPU 0 instructions: 96500568 cycles: 30871929 heartbeat IPC: 2.524 cumulative IPC: 2.335 (Simulation time: 00 hr 07 min 14 sec)
Heartbeat CPU 0 instructions: 97000568 cycles: 31074102 heartbeat IPC: 2.473 cumulative IPC: 2.337 (Simulation time: 00 hr 07 min 17 sec)
Heartbeat CPU 0 instructions: 97500570 cycles: 31266655 heartbeat IPC: 2.597 cumulative IPC: 2.339 (Simulation time: 00 hr 07 min 20 sec)
Heartbeat CPU 0 instructions: 98000577 cycles: 31478337 heartbeat IPC: 2.362 cumulative IPC: 2.339 (Simulation time: 00 hr 07 min 23 sec)
Heartbeat CPU 0 instructions: 98500577 cycles: 31681566 heartbeat IPC: 2.46 cumulative IPC: 2.341 (Simulation time: 00 hr 07 min 25 sec)
Heartbeat CPU 0 instructions: 99000578 cycles: 31888364 heartbeat IPC: 2.418 cumulative IPC: 2.341 (Simulation time: 00 hr 07 min 28 sec)
Heartbeat CPU 0 instructions: 99500584 cycles: 32091607 heartbeat IPC: 2.46 cumulative IPC: 2.342 (Simulation time: 00 hr 07 min 31 sec)
Heartbeat CPU 0 instructions: 100000586 cycles: 32312818 heartbeat IPC: 2.26 cumulative IPC: 2.342 (Simulation time: 00 hr 07 min 34 sec)
Heartbeat CPU 0 instructions: 100500586 cycles: 32518438 heartbeat IPC: 2.432 cumulative IPC: 2.342 (Simulation time: 00 hr 07 min 37 sec)
Heartbeat CPU 0 instructions: 101000588 cycles: 32723657 heartbeat IPC: 2.436 cumulative IPC: 2.343 (Simulation time: 00 hr 07 min 39 sec)
Heartbeat CPU 0 instructions: 101500594 cycles: 32927791 heartbeat IPC: 2.449 cumulative IPC: 2.344 (Simulation time: 00 hr 07 min 42 sec)
Heartbeat CPU 0 instructions: 102000596 cycles: 33129412 heartbeat IPC: 2.48 cumulative IPC: 2.346 (Simulation time: 00 hr 07 min 45 sec)
Heartbeat CPU 0 instructions: 102500600 cycles: 33336424 heartbeat IPC: 2.415 cumulative IPC: 2.346 (Simulation time: 00 hr 07 min 47 sec)
Heartbeat CPU 0 instructions: 103000604 cycles: 33546007 heartbeat IPC: 2.386 cumulative IPC: 2.347 (Simulation time: 00 hr 07 min 50 sec)
Heartbeat CPU 0 instructions: 103500608 cycles: 33753768 heartbeat IPC: 2.407 cumulative IPC: 2.347 (Simulation time: 00 hr 07 min 53 sec)
Heartbeat CPU 0 instructions: 104000611 cycles: 33957555 heartbeat IPC: 2.454 cumulative IPC: 2.348 (Simulation time: 00 hr 07 min 56 sec)
Heartbeat CPU 0 instructions: 104500614 cycles: 34169775 heartbeat IPC: 2.356 cumulative IPC: 2.348 (Simulation time: 00 hr 07 min 59 sec)
Heartbeat CPU 0 instructions: 105000618 cycles: 34376658 heartbeat IPC: 2.417 cumulative IPC: 2.349 (Simulation time: 00 hr 08 min 01 sec)
Heartbeat CPU 0 instructions: 105500622 cycles: 34583432 heartbeat IPC: 2.418 cumulative IPC: 2.349 (Simulation time: 00 hr 08 min 04 sec)
Heartbeat CPU 0 instructions: 106000624 cycles: 34793749 heartbeat IPC: 2.377 cumulative IPC: 2.35 (Simulation time: 00 hr 08 min 07 sec)
Heartbeat CPU 0 instructions: 106500628 cycles: 35006112 heartbeat IPC: 2.354 cumulative IPC: 2.35 (Simulation time: 00 hr 08 min 10 sec)
Heartbeat CPU 0 instructions: 107000632 cycles: 35226674 heartbeat IPC: 2.267 cumulative IPC: 2.349 (Simulation time: 00 hr 08 min 13 sec)
Heartbeat CPU 0 instructions: 107500634 cycles: 35448586 heartbeat IPC: 2.253 cumulative IPC: 2.348 (Simulation time: 00 hr 08 min 15 sec)
Heartbeat CPU 0 instructions: 108000640 cycles: 35669406 heartbeat IPC: 2.264 cumulative IPC: 2.347 (Simulation time: 00 hr 08 min 18 sec)
Heartbeat CPU 0 instructions: 108500640 cycles: 35878958 heartbeat IPC: 2.386 cumulative IPC: 2.348 (Simulation time: 00 hr 08 min 21 sec)
Heartbeat CPU 0 instructions: 109000646 cycles: 36087857 heartbeat IPC: 2.394 cumulative IPC: 2.348 (Simulation time: 00 hr 08 min 24 sec)
Heartbeat CPU 0 instructions: 109500647 cycles: 36294268 heartbeat IPC: 2.422 cumulative IPC: 2.349 (Simulation time: 00 hr 08 min 27 sec)
Heartbeat CPU 0 instructions: 110000647 cycles: 36501638 heartbeat IPC: 2.411 cumulative IPC: 2.349 (Simulation time: 00 hr 08 min 29 sec)
Heartbeat CPU 0 instructions: 110500653 cycles: 36710099 heartbeat IPC: 2.399 cumulative IPC: 2.35 (Simulation time: 00 hr 08 min 32 sec)
Heartbeat CPU 0 instructions: 111000653 cycles: 36918103 heartbeat IPC: 2.404 cumulative IPC: 2.35 (Simulation time: 00 hr 08 min 35 sec)
Heartbeat CPU 0 instructions: 111500657 cycles: 37128080 heartbeat IPC: 2.381 cumulative IPC: 2.35 (Simulation time: 00 hr 08 min 38 sec)
Heartbeat CPU 0 instructions: 112000663 cycles: 37336578 heartbeat IPC: 2.398 cumulative IPC: 2.351 (Simulation time: 00 hr 08 min 41 sec)
Heartbeat CPU 0 instructions: 112500664 cycles: 37543108 heartbeat IPC: 2.421 cumulative IPC: 2.351 (Simulation time: 00 hr 08 min 43 sec)
Heartbeat CPU 0 instructions: 113000667 cycles: 37751000 heartbeat IPC: 2.405 cumulative IPC: 2.352 (Simulation time: 00 hr 08 min 46 sec)
Heartbeat CPU 0 instructions: 113500671 cycles: 37960158 heartbeat IPC: 2.391 cumulative IPC: 2.352 (Simulation time: 00 hr 08 min 49 sec)
Heartbeat CPU 0 instructions: 114000675 cycles: 38172926 heartbeat IPC: 2.35 cumulative IPC: 2.352 (Simulation time: 00 hr 08 min 52 sec)
Heartbeat CPU 0 instructions: 114500679 cycles: 38376899 heartbeat IPC: 2.451 cumulative IPC: 2.353 (Simulation time: 00 hr 08 min 55 sec)
Heartbeat CPU 0 instructions: 115000682 cycles: 38585397 heartbeat IPC: 2.398 cumulative IPC: 2.353 (Simulation time: 00 hr 08 min 57 sec)
Heartbeat CPU 0 instructions: 115500685 cycles: 38794781 heartbeat IPC: 2.388 cumulative IPC: 2.353 (Simulation time: 00 hr 09 min 00 sec)
Heartbeat CPU 0 instructions: 116000689 cycles: 39001581 heartbeat IPC: 2.418 cumulative IPC: 2.354 (Simulation time: 00 hr 09 min 03 sec)
Heartbeat CPU 0 instructions: 116500693 cycles: 39222064 heartbeat IPC: 2.268 cumulative IPC: 2.353 (Simulation time: 00 hr 09 min 06 sec)
Heartbeat CPU 0 instructions: 117000695 cycles: 39461419 heartbeat IPC: 2.089 cumulative IPC: 2.351 (Simulation time: 00 hr 09 min 09 sec)
Heartbeat CPU 0 instructions: 117500699 cycles: 39689067 heartbeat IPC: 2.196 cumulative IPC: 2.35 (Simulation time: 00 hr 09 min 11 sec)
Heartbeat CPU 0 instructions: 118000701 cycles: 39912108 heartbeat IPC: 2.242 cumulative IPC: 2.349 (Simulation time: 00 hr 09 min 14 sec)
Heartbeat CPU 0 instructions: 118500703 cycles: 40364634 heartbeat IPC: 1.105 cumulative IPC: 2.33 (Simulation time: 00 hr 09 min 20 sec)
Heartbeat CPU 0 instructions: 119000707 cycles: 40585867 heartbeat IPC: 2.26 cumulative IPC: 2.329 (Simulation time: 00 hr 09 min 23 sec)
Heartbeat CPU 0 instructions: 119500710 cycles: 40800804 heartbeat IPC: 2.326 cumulative IPC: 2.329 (Simulation time: 00 hr 09 min 25 sec)
Heartbeat CPU 0 instructions: 120000717 cycles: 41005436 heartbeat IPC: 2.443 cumulative IPC: 2.33 (Simulation time: 00 hr 09 min 28 sec)
Heartbeat CPU 0 instructions: 120500720 cycles: 41217794 heartbeat IPC: 2.355 cumulative IPC: 2.33 (Simulation time: 00 hr 09 min 32 sec)
Heartbeat CPU 0 instructions: 121000721 cycles: 41424548 heartbeat IPC: 2.418 cumulative IPC: 2.331 (Simulation time: 00 hr 09 min 35 sec)
Heartbeat CPU 0 instructions: 121500728 cycles: 41634474 heartbeat IPC: 2.382 cumulative IPC: 2.331 (Simulation time: 00 hr 09 min 37 sec)
Heartbeat CPU 0 instructions: 122000734 cycles: 41838607 heartbeat IPC: 2.449 cumulative IPC: 2.332 (Simulation time: 00 hr 09 min 40 sec)
Heartbeat CPU 0 instructions: 122500737 cycles: 42040917 heartbeat IPC: 2.471 cumulative IPC: 2.333 (Simulation time: 00 hr 09 min 43 sec)
Heartbeat CPU 0 instructions: 123000740 cycles: 42240565 heartbeat IPC: 2.504 cumulative IPC: 2.334 (Simulation time: 00 hr 09 min 46 sec)
Heartbeat CPU 0 instructions: 123500740 cycles: 42463406 heartbeat IPC: 2.244 cumulative IPC: 2.333 (Simulation time: 00 hr 09 min 49 sec)
Heartbeat CPU 0 instructions: 124000743 cycles: 42666039 heartbeat IPC: 2.468 cumulative IPC: 2.334 (Simulation time: 00 hr 09 min 52 sec)
Heartbeat CPU 0 instructions: 124500744 cycles: 42872213 heartbeat IPC: 2.425 cumulative IPC: 2.335 (Simulation time: 00 hr 09 min 55 sec)
Heartbeat CPU 0 instructions: 125000746 cycles: 43092501 heartbeat IPC: 2.27 cumulative IPC: 2.334 (Simulation time: 00 hr 09 min 57 sec)
Heartbeat CPU 0 instructions: 125500750 cycles: 43298685 heartbeat IPC: 2.425 cumulative IPC: 2.335 (Simulation time: 00 hr 10 min 00 sec)
Heartbeat CPU 0 instructions: 126000754 cycles: 43518630 heartbeat IPC: 2.273 cumulative IPC: 2.334 (Simulation time: 00 hr 10 min 03 sec)
Heartbeat CPU 0 instructions: 126500760 cycles: 43720471 heartbeat IPC: 2.477 cumulative IPC: 2.335 (Simulation time: 00 hr 10 min 06 sec)
Heartbeat CPU 0 instructions: 127000763 cycles: 43942444 heartbeat IPC: 2.253 cumulative IPC: 2.335 (Simulation time: 00 hr 10 min 09 sec)
Heartbeat CPU 0 instructions: 127500768 cycles: 44145288 heartbeat IPC: 2.465 cumulative IPC: 2.335 (Simulation time: 00 hr 10 min 11 sec)
Heartbeat CPU 0 instructions: 128000771 cycles: 44352196 heartbeat IPC: 2.417 cumulative IPC: 2.336 (Simulation time: 00 hr 10 min 14 sec)
Heartbeat CPU 0 instructions: 128500776 cycles: 44553285 heartbeat IPC: 2.486 cumulative IPC: 2.337 (Simulation time: 00 hr 10 min 17 sec)
Heartbeat CPU 0 instructions: 129000779 cycles: 44771063 heartbeat IPC: 2.296 cumulative IPC: 2.337 (Simulation time: 00 hr 10 min 20 sec)
Heartbeat CPU 0 instructions: 129500780 cycles: 44974951 heartbeat IPC: 2.452 cumulative IPC: 2.337 (Simulation time: 00 hr 10 min 23 sec)
Heartbeat CPU 0 instructions: 130000785 cycles: 45180938 heartbeat IPC: 2.427 cumulative IPC: 2.338 (Simulation time: 00 hr 10 min 25 sec)
Heartbeat CPU 0 instructions: 130500786 cycles: 45382686 heartbeat IPC: 2.478 cumulative IPC: 2.339 (Simulation time: 00 hr 10 min 28 sec)
Heartbeat CPU 0 instructions: 131000791 cycles: 45587094 heartbeat IPC: 2.446 cumulative IPC: 2.339 (Simulation time: 00 hr 10 min 31 sec)
Heartbeat CPU 0 instructions: 131500792 cycles: 45794466 heartbeat IPC: 2.411 cumulative IPC: 2.34 (Simulation time: 00 hr 10 min 34 sec)
Heartbeat CPU 0 instructions: 132000796 cycles: 45998029 heartbeat IPC: 2.456 cumulative IPC: 2.34 (Simulation time: 00 hr 10 min 36 sec)
Heartbeat CPU 0 instructions: 132500800 cycles: 46208262 heartbeat IPC: 2.378 cumulative IPC: 2.341 (Simulation time: 00 hr 10 min 39 sec)
Heartbeat CPU 0 instructions: 133000804 cycles: 46413229 heartbeat IPC: 2.439 cumulative IPC: 2.341 (Simulation time: 00 hr 10 min 42 sec)
Heartbeat CPU 0 instructions: 133500806 cycles: 46624678 heartbeat IPC: 2.365 cumulative IPC: 2.341 (Simulation time: 00 hr 10 min 45 sec)
Heartbeat CPU 0 instructions: 134000810 cycles: 46830042 heartbeat IPC: 2.435 cumulative IPC: 2.342 (Simulation time: 00 hr 10 min 47 sec)
Heartbeat CPU 0 instructions: 134500814 cycles: 47037973 heartbeat IPC: 2.405 cumulative IPC: 2.342 (Simulation time: 00 hr 10 min 50 sec)
Heartbeat CPU 0 instructions: 135000818 cycles: 47249098 heartbeat IPC: 2.368 cumulative IPC: 2.342 (Simulation time: 00 hr 10 min 53 sec)
Heartbeat CPU 0 instructions: 135500820 cycles: 47465041 heartbeat IPC: 2.315 cumulative IPC: 2.342 (Simulation time: 00 hr 10 min 56 sec)
Heartbeat CPU 0 instructions: 136000824 cycles: 47681051 heartbeat IPC: 2.315 cumulative IPC: 2.342 (Simulation time: 00 hr 10 min 59 sec)
Heartbeat CPU 0 instructions: 136500828 cycles: 47903750 heartbeat IPC: 2.245 cumulative IPC: 2.341 (Simulation time: 00 hr 11 min 01 sec)
Heartbeat CPU 0 instructions: 137000832 cycles: 48127983 heartbeat IPC: 2.23 cumulative IPC: 2.341 (Simulation time: 00 hr 11 min 04 sec)
Heartbeat CPU 0 instructions: 137500833 cycles: 48342652 heartbeat IPC: 2.329 cumulative IPC: 2.341 (Simulation time: 00 hr 11 min 07 sec)
Heartbeat CPU 0 instructions: 138000838 cycles: 48550050 heartbeat IPC: 2.411 cumulative IPC: 2.341 (Simulation time: 00 hr 11 min 10 sec)
Heartbeat CPU 0 instructions: 138500842 cycles: 48756881 heartbeat IPC: 2.417 cumulative IPC: 2.341 (Simulation time: 00 hr 11 min 13 sec)
Heartbeat CPU 0 instructions: 139000843 cycles: 48961015 heartbeat IPC: 2.449 cumulative IPC: 2.342 (Simulation time: 00 hr 11 min 15 sec)
Heartbeat CPU 0 instructions: 139500843 cycles: 49170031 heartbeat IPC: 2.392 cumulative IPC: 2.342 (Simulation time: 00 hr 11 min 18 sec)
Heartbeat CPU 0 instructions: 140000844 cycles: 49375943 heartbeat IPC: 2.428 cumulative IPC: 2.343 (Simulation time: 00 hr 11 min 21 sec)
Heartbeat CPU 0 instructions: 140500849 cycles: 49586371 heartbeat IPC: 2.376 cumulative IPC: 2.343 (Simulation time: 00 hr 11 min 24 sec)
Heartbeat CPU 0 instructions: 141000853 cycles: 49796637 heartbeat IPC: 2.378 cumulative IPC: 2.343 (Simulation time: 00 hr 11 min 27 sec)
Heartbeat CPU 0 instructions: 141500857 cycles: 50006369 heartbeat IPC: 2.384 cumulative IPC: 2.343 (Simulation time: 00 hr 11 min 29 sec)
Heartbeat CPU 0 instructions: 142000861 cycles: 50217992 heartbeat IPC: 2.363 cumulative IPC: 2.343 (Simulation time: 00 hr 11 min 32 sec)
Heartbeat CPU 0 instructions: 142500863 cycles: 50430582 heartbeat IPC: 2.352 cumulative IPC: 2.344 (Simulation time: 00 hr 11 min 35 sec)
Heartbeat CPU 0 instructions: 143000867 cycles: 50642327 heartbeat IPC: 2.361 cumulative IPC: 2.344 (Simulation time: 00 hr 11 min 38 sec)
Heartbeat CPU 0 instructions: 143500870 cycles: 50851161 heartbeat IPC: 2.394 cumulative IPC: 2.344 (Simulation time: 00 hr 11 min 40 sec)
Heartbeat CPU 0 instructions: 144000875 cycles: 51058747 heartbeat IPC: 2.409 cumulative IPC: 2.344 (Simulation time: 00 hr 11 min 43 sec)
Heartbeat CPU 0 instructions: 144500877 cycles: 51269726 heartbeat IPC: 2.37 cumulative IPC: 2.344 (Simulation time: 00 hr 11 min 46 sec)
Heartbeat CPU 0 instructions: 145000881 cycles: 51478887 heartbeat IPC: 2.391 cumulative IPC: 2.345 (Simulation time: 00 hr 11 min 49 sec)
Heartbeat CPU 0 instructions: 145500885 cycles: 51695826 heartbeat IPC: 2.305 cumulative IPC: 2.344 (Simulation time: 00 hr 11 min 52 sec)
Heartbeat CPU 0 instructions: 146000889 cycles: 51935340 heartbeat IPC: 2.088 cumulative IPC: 2.343 (Simulation time: 00 hr 11 min 55 sec)
Heartbeat CPU 0 instructions: 146500891 cycles: 52162849 heartbeat IPC: 2.198 cumulative IPC: 2.342 (Simulation time: 00 hr 11 min 57 sec)
Heartbeat CPU 0 instructions: 147000898 cycles: 52381343 heartbeat IPC: 2.288 cumulative IPC: 2.342 (Simulation time: 00 hr 12 min 00 sec)
Heartbeat CPU 0 instructions: 147500903 cycles: 52843736 heartbeat IPC: 1.081 cumulative IPC: 2.328 (Simulation time: 00 hr 12 min 06 sec)
Heartbeat CPU 0 instructions: 148000908 cycles: 53043392 heartbeat IPC: 2.504 cumulative IPC: 2.329 (Simulation time: 00 hr 12 min 09 sec)
Heartbeat CPU 0 instructions: 148500908 cycles: 53268921 heartbeat IPC: 2.217 cumulative IPC: 2.328 (Simulation time: 00 hr 12 min 11 sec)
Heartbeat CPU 0 instructions: 149000914 cycles: 53497099 heartbeat IPC: 2.191 cumulative IPC: 2.327 (Simulation time: 00 hr 12 min 14 sec)
Heartbeat CPU 0 instructions: 149500917 cycles: 53718725 heartbeat IPC: 2.256 cumulative IPC: 2.327 (Simulation time: 00 hr 12 min 17 sec)
Heartbeat CPU 0 instructions: 150000919 cycles: 53932710 heartbeat IPC: 2.337 cumulative IPC: 2.327 (Simulation time: 00 hr 12 min 20 sec)
Heartbeat CPU 0 instructions: 150500920 cycles: 54159477 heartbeat IPC: 2.205 cumulative IPC: 2.326 (Simulation time: 00 hr 12 min 23 sec)
Heartbeat CPU 0 instructions: 151000921 cycles: 54380682 heartbeat IPC: 2.26 cumulative IPC: 2.326 (Simulation time: 00 hr 12 min 26 sec)
Heartbeat CPU 0 instructions: 151500927 cycles: 54594989 heartbeat IPC: 2.333 cumulative IPC: 2.326 (Simulation time: 00 hr 12 min 29 sec)
Heartbeat CPU 0 instructions: 152000931 cycles: 54801749 heartbeat IPC: 2.418 cumulative IPC: 2.327 (Simulation time: 00 hr 12 min 32 sec)
Heartbeat CPU 0 instructions: 152500934 cycles: 55010166 heartbeat IPC: 2.399 cumulative IPC: 2.327 (Simulation time: 00 hr 12 min 35 sec)
Heartbeat CPU 0 instructions: 153000939 cycles: 55206156 heartbeat IPC: 2.551 cumulative IPC: 2.328 (Simulation time: 00 hr 12 min 38 sec)
Heartbeat CPU 0 instructions: 153500939 cycles: 55407214 heartbeat IPC: 2.487 cumulative IPC: 2.329 (Simulation time: 00 hr 12 min 40 sec)
Heartbeat CPU 0 instructions: 154000945 cycles: 55619329 heartbeat IPC: 2.357 cumulative IPC: 2.329 (Simulation time: 00 hr 12 min 43 sec)
Heartbeat CPU 0 instructions: 154500948 cycles: 55826784 heartbeat IPC: 2.41 cumulative IPC: 2.329 (Simulation time: 00 hr 12 min 46 sec)
Heartbeat CPU 0 instructions: 155000953 cycles: 56043275 heartbeat IPC: 2.31 cumulative IPC: 2.329 (Simulation time: 00 hr 12 min 49 sec)
Heartbeat CPU 0 instructions: 155500957 cycles: 56244433 heartbeat IPC: 2.486 cumulative IPC: 2.33 (Simulation time: 00 hr 12 min 52 sec)
Heartbeat CPU 0 instructions: 156000959 cycles: 56458398 heartbeat IPC: 2.337 cumulative IPC: 2.33 (Simulation time: 00 hr 12 min 55 sec)
Heartbeat CPU 0 instructions: 156500961 cycles: 56657584 heartbeat IPC: 2.51 cumulative IPC: 2.331 (Simulation time: 00 hr 12 min 57 sec)
Heartbeat CPU 0 instructions: 157000966 cycles: 56861985 heartbeat IPC: 2.446 cumulative IPC: 2.331 (Simulation time: 00 hr 13 min 00 sec)
Heartbeat CPU 0 instructions: 157500969 cycles: 57054952 heartbeat IPC: 2.591 cumulative IPC: 2.332 (Simulation time: 00 hr 13 min 03 sec)
Heartbeat CPU 0 instructions: 158000970 cycles: 57274412 heartbeat IPC: 2.278 cumulative IPC: 2.332 (Simulation time: 00 hr 13 min 06 sec)
Heartbeat CPU 0 instructions: 158500975 cycles: 57481807 heartbeat IPC: 2.411 cumulative IPC: 2.332 (Simulation time: 00 hr 13 min 09 sec)
Heartbeat CPU 0 instructions: 159000976 cycles: 57690913 heartbeat IPC: 2.391 cumulative IPC: 2.333 (Simulation time: 00 hr 13 min 12 sec)
Heartbeat CPU 0 instructions: 159500982 cycles: 57891496 heartbeat IPC: 2.493 cumulative IPC: 2.333 (Simulation time: 00 hr 13 min 14 sec)
Heartbeat CPU 0 instructions: 160000987 cycles: 58095315 heartbeat IPC: 2.453 cumulative IPC: 2.334 (Simulation time: 00 hr 13 min 17 sec)
Heartbeat CPU 0 instructions: 160500991 cycles: 58301751 heartbeat IPC: 2.422 cumulative IPC: 2.334 (Simulation time: 00 hr 13 min 20 sec)
Heartbeat CPU 0 instructions: 161000992 cycles: 58507529 heartbeat IPC: 2.43 cumulative IPC: 2.335 (Simulation time: 00 hr 13 min 22 sec)
Heartbeat CPU 0 instructions: 161500995 cycles: 58714000 heartbeat IPC: 2.422 cumulative IPC: 2.335 (Simulation time: 00 hr 13 min 25 sec)
Heartbeat CPU 0 instructions: 162001001 cycles: 58920450 heartbeat IPC: 2.422 cumulative IPC: 2.335 (Simulation time: 00 hr 13 min 28 sec)
Heartbeat CPU 0 instructions: 162501005 cycles: 59130172 heartbeat IPC: 2.384 cumulative IPC: 2.335 (Simulation time: 00 hr 13 min 31 sec)
Heartbeat CPU 0 instructions: 163001009 cycles: 59339061 heartbeat IPC: 2.394 cumulative IPC: 2.336 (Simulation time: 00 hr 13 min 34 sec)
Heartbeat CPU 0 instructions: 163501016 cycles: 59549265 heartbeat IPC: 2.379 cumulative IPC: 2.336 (Simulation time: 00 hr 13 min 36 sec)
Heartbeat CPU 0 instructions: 164001018 cycles: 59757485 heartbeat IPC: 2.401 cumulative IPC: 2.336 (Simulation time: 00 hr 13 min 39 sec)
Heartbeat CPU 0 instructions: 164501019 cycles: 59972363 heartbeat IPC: 2.327 cumulative IPC: 2.336 (Simulation time: 00 hr 13 min 42 sec)
Heartbeat CPU 0 instructions: 165001023 cycles: 60188931 heartbeat IPC: 2.309 cumulative IPC: 2.336 (Simulation time: 00 hr 13 min 45 sec)
Heartbeat CPU 0 instructions: 165501027 cycles: 60409818 heartbeat IPC: 2.264 cumulative IPC: 2.336 (Simulation time: 00 hr 13 min 48 sec)
Heartbeat CPU 0 instructions: 166001030 cycles: 60633994 heartbeat IPC: 2.23 cumulative IPC: 2.335 (Simulation time: 00 hr 13 min 51 sec)
Heartbeat CPU 0 instructions: 166501033 cycles: 60851112 heartbeat IPC: 2.303 cumulative IPC: 2.335 (Simulation time: 00 hr 13 min 53 sec)
Heartbeat CPU 0 instructions: 167001037 cycles: 61060092 heartbeat IPC: 2.393 cumulative IPC: 2.335 (Simulation time: 00 hr 13 min 56 sec)
Heartbeat CPU 0 instructions: 167501038 cycles: 61265650 heartbeat IPC: 2.432 cumulative IPC: 2.336 (Simulation time: 00 hr 13 min 59 sec)
Heartbeat CPU 0 instructions: 168001045 cycles: 61473116 heartbeat IPC: 2.41 cumulative IPC: 2.336 (Simulation time: 00 hr 14 min 02 sec)
Heartbeat CPU 0 instructions: 168501047 cycles: 61682422 heartbeat IPC: 2.389 cumulative IPC: 2.336 (Simulation time: 00 hr 14 min 05 sec)
Heartbeat CPU 0 instructions: 169001051 cycles: 61889361 heartbeat IPC: 2.416 cumulative IPC: 2.337 (Simulation time: 00 hr 14 min 07 sec)
Heartbeat CPU 0 instructions: 169501055 cycles: 62094332 heartbeat IPC: 2.439 cumulative IPC: 2.337 (Simulation time: 00 hr 14 min 10 sec)
Heartbeat CPU 0 instructions: 170001058 cycles: 62300841 heartbeat IPC: 2.421 cumulative IPC: 2.337 (Simulation time: 00 hr 14 min 13 sec)
Heartbeat CPU 0 instructions: 170501061 cycles: 62509677 heartbeat IPC: 2.394 cumulative IPC: 2.338 (Simulation time: 00 hr 14 min 16 sec)
Heartbeat CPU 0 instructions: 171001065 cycles: 62719248 heartbeat IPC: 2.386 cumulative IPC: 2.338 (Simulation time: 00 hr 14 min 19 sec)
Heartbeat CPU 0 instructions: 171501069 cycles: 62926616 heartbeat IPC: 2.411 cumulative IPC: 2.338 (Simulation time: 00 hr 14 min 21 sec)
Heartbeat CPU 0 instructions: 172001073 cycles: 63136097 heartbeat IPC: 2.387 cumulative IPC: 2.338 (Simulation time: 00 hr 14 min 24 sec)
Heartbeat CPU 0 instructions: 172501074 cycles: 63346771 heartbeat IPC: 2.373 cumulative IPC: 2.338 (Simulation time: 00 hr 14 min 27 sec)
Heartbeat CPU 0 instructions: 173001079 cycles: 63559653 heartbeat IPC: 2.349 cumulative IPC: 2.338 (Simulation time: 00 hr 14 min 30 sec)
Heartbeat CPU 0 instructions: 173501083 cycles: 63770691 heartbeat IPC: 2.369 cumulative IPC: 2.339 (Simulation time: 00 hr 14 min 33 sec)
Heartbeat CPU 0 instructions: 174001086 cycles: 63979192 heartbeat IPC: 2.398 cumulative IPC: 2.339 (Simulation time: 00 hr 14 min 35 sec)
Heartbeat CPU 0 instructions: 174501087 cycles: 64189706 heartbeat IPC: 2.375 cumulative IPC: 2.339 (Simulation time: 00 hr 14 min 38 sec)
Heartbeat CPU 0 instructions: 175001089 cycles: 64431323 heartbeat IPC: 2.069 cumulative IPC: 2.338 (Simulation time: 00 hr 14 min 41 sec)
Heartbeat CPU 0 instructions: 175501090 cycles: 64659240 heartbeat IPC: 2.194 cumulative IPC: 2.337 (Simulation time: 00 hr 14 min 44 sec)
Heartbeat CPU 0 instructions: 176001094 cycles: 64873162 heartbeat IPC: 2.337 cumulative IPC: 2.337 (Simulation time: 00 hr 14 min 47 sec)
Heartbeat CPU 0 instructions: 176501095 cycles: 65327019 heartbeat IPC: 1.102 cumulative IPC: 2.327 (Simulation time: 00 hr 14 min 53 sec)
Heartbeat CPU 0 instructions: 177001097 cycles: 65539563 heartbeat IPC: 2.352 cumulative IPC: 2.327 (Simulation time: 00 hr 14 min 55 sec)
Heartbeat CPU 0 instructions: 177501102 cycles: 65760753 heartbeat IPC: 2.261 cumulative IPC: 2.327 (Simulation time: 00 hr 14 min 58 sec)
Heartbeat CPU 0 instructions: 178001106 cycles: 65988173 heartbeat IPC: 2.199 cumulative IPC: 2.326 (Simulation time: 00 hr 15 min 01 sec)
Heartbeat CPU 0 instructions: 178501110 cycles: 66211878 heartbeat IPC: 2.235 cumulative IPC: 2.326 (Simulation time: 00 hr 15 min 04 sec)
Heartbeat CPU 0 instructions: 179001110 cycles: 66423082 heartbeat IPC: 2.367 cumulative IPC: 2.326 (Simulation time: 00 hr 15 min 07 sec)
Heartbeat CPU 0 instructions: 179501117 cycles: 66644440 heartbeat IPC: 2.259 cumulative IPC: 2.326 (Simulation time: 00 hr 15 min 10 sec)
Heartbeat CPU 0 instructions: 180001118 cycles: 66843755 heartbeat IPC: 2.509 cumulative IPC: 2.326 (Simulation time: 00 hr 15 min 13 sec)
Heartbeat CPU 0 instructions: 180501118 cycles: 67046041 heartbeat IPC: 2.472 cumulative IPC: 2.327 (Simulation time: 00 hr 15 min 16 sec)
Heartbeat CPU 0 instructions: 181001121 cycles: 67241928 heartbeat IPC: 2.553 cumulative IPC: 2.328 (Simulation time: 00 hr 15 min 19 sec)
Heartbeat CPU 0 instructions: 181501127 cycles: 67472916 heartbeat IPC: 2.165 cumulative IPC: 2.327 (Simulation time: 00 hr 15 min 22 sec)
Heartbeat CPU 0 instructions: 182001132 cycles: 67675101 heartbeat IPC: 2.473 cumulative IPC: 2.327 (Simulation time: 00 hr 15 min 24 sec)
Heartbeat CPU 0 instructions: 182501135 cycles: 67885272 heartbeat IPC: 2.379 cumulative IPC: 2.328 (Simulation time: 00 hr 15 min 27 sec)
Heartbeat CPU 0 instructions: 183001136 cycles: 68106112 heartbeat IPC: 2.264 cumulative IPC: 2.327 (Simulation time: 00 hr 15 min 30 sec)
Heartbeat CPU 0 instructions: 183501141 cycles: 68314119 heartbeat IPC: 2.404 cumulative IPC: 2.328 (Simulation time: 00 hr 15 min 33 sec)
Heartbeat CPU 0 instructions: 184001145 cycles: 68528823 heartbeat IPC: 2.329 cumulative IPC: 2.328 (Simulation time: 00 hr 15 min 36 sec)
Heartbeat CPU 0 instructions: 184501148 cycles: 68731825 heartbeat IPC: 2.463 cumulative IPC: 2.328 (Simulation time: 00 hr 15 min 39 sec)
Heartbeat CPU 0 instructions: 185001152 cycles: 68959294 heartbeat IPC: 2.198 cumulative IPC: 2.328 (Simulation time: 00 hr 15 min 41 sec)
Heartbeat CPU 0 instructions: 185501157 cycles: 69164950 heartbeat IPC: 2.431 cumulative IPC: 2.328 (Simulation time: 00 hr 15 min 44 sec)
Heartbeat CPU 0 instructions: 186001159 cycles: 69378905 heartbeat IPC: 2.337 cumulative IPC: 2.328 (Simulation time: 00 hr 15 min 47 sec)
Heartbeat CPU 0 instructions: 186501165 cycles: 69580685 heartbeat IPC: 2.478 cumulative IPC: 2.329 (Simulation time: 00 hr 15 min 50 sec)
Heartbeat CPU 0 instructions: 187001166 cycles: 69800173 heartbeat IPC: 2.278 cumulative IPC: 2.328 (Simulation time: 00 hr 15 min 53 sec)
Heartbeat CPU 0 instructions: 187501171 cycles: 69998448 heartbeat IPC: 2.522 cumulative IPC: 2.329 (Simulation time: 00 hr 15 min 56 sec)
Heartbeat CPU 0 instructions: 188001172 cycles: 70203782 heartbeat IPC: 2.435 cumulative IPC: 2.329 (Simulation time: 00 hr 15 min 59 sec)
Heartbeat CPU 0 instructions: 188501174 cycles: 70402293 heartbeat IPC: 2.519 cumulative IPC: 2.33 (Simulation time: 00 hr 16 min 02 sec)
Heartbeat CPU 0 instructions: 189001178 cycles: 70603806 heartbeat IPC: 2.481 cumulative IPC: 2.331 (Simulation time: 00 hr 16 min 05 sec)
Heartbeat CPU 0 instructions: 189501178 cycles: 70807435 heartbeat IPC: 2.455 cumulative IPC: 2.331 (Simulation time: 00 hr 16 min 07 sec)
Heartbeat CPU 0 instructions: 190001180 cycles: 71010500 heartbeat IPC: 2.462 cumulative IPC: 2.331 (Simulation time: 00 hr 16 min 10 sec)
Heartbeat CPU 0 instructions: 190501181 cycles: 71212590 heartbeat IPC: 2.474 cumulative IPC: 2.332 (Simulation time: 00 hr 16 min 13 sec)
Heartbeat CPU 0 instructions: 191001185 cycles: 71415516 heartbeat IPC: 2.464 cumulative IPC: 2.332 (Simulation time: 00 hr 16 min 16 sec)
Heartbeat CPU 0 instructions: 191501189 cycles: 71617769 heartbeat IPC: 2.472 cumulative IPC: 2.333 (Simulation time: 00 hr 16 min 19 sec)
Heartbeat CPU 0 instructions: 192001194 cycles: 71820027 heartbeat IPC: 2.472 cumulative IPC: 2.333 (Simulation time: 00 hr 16 min 22 sec)
Heartbeat CPU 0 instructions: 192501195 cycles: 72023000 heartbeat IPC: 2.463 cumulative IPC: 2.334 (Simulation time: 00 hr 16 min 25 sec)
Heartbeat CPU 0 instructions: 193001199 cycles: 72225213 heartbeat IPC: 2.473 cumulative IPC: 2.334 (Simulation time: 00 hr 16 min 28 sec)
Heartbeat CPU 0 instructions: 193501203 cycles: 72424422 heartbeat IPC: 2.51 cumulative IPC: 2.335 (Simulation time: 00 hr 16 min 30 sec)
Heartbeat CPU 0 instructions: 194001207 cycles: 72623727 heartbeat IPC: 2.509 cumulative IPC: 2.335 (Simulation time: 00 hr 16 min 33 sec)
Heartbeat CPU 0 instructions: 194501209 cycles: 72813167 heartbeat IPC: 2.639 cumulative IPC: 2.336 (Simulation time: 00 hr 16 min 36 sec)
Heartbeat CPU 0 instructions: 195001213 cycles: 72995049 heartbeat IPC: 2.749 cumulative IPC: 2.337 (Simulation time: 00 hr 16 min 38 sec)
Heartbeat CPU 0 instructions: 195501217 cycles: 73190147 heartbeat IPC: 2.563 cumulative IPC: 2.338 (Simulation time: 00 hr 16 min 41 sec)
Heartbeat CPU 0 instructions: 196001221 cycles: 73391159 heartbeat IPC: 2.487 cumulative IPC: 2.339 (Simulation time: 00 hr 16 min 44 sec)
Heartbeat CPU 0 instructions: 196501223 cycles: 73593361 heartbeat IPC: 2.473 cumulative IPC: 2.339 (Simulation time: 00 hr 16 min 47 sec)
Heartbeat CPU 0 instructions: 197001227 cycles: 73794292 heartbeat IPC: 2.488 cumulative IPC: 2.34 (Simulation time: 00 hr 16 min 50 sec)
Heartbeat CPU 0 instructions: 197501231 cycles: 73996258 heartbeat IPC: 2.476 cumulative IPC: 2.34 (Simulation time: 00 hr 16 min 52 sec)
Heartbeat CPU 0 instructions: 198001233 cycles: 74199734 heartbeat IPC: 2.457 cumulative IPC: 2.34 (Simulation time: 00 hr 16 min 55 sec)
Heartbeat CPU 0 instructions: 198501236 cycles: 74402153 heartbeat IPC: 2.47 cumulative IPC: 2.341 (Simulation time: 00 hr 16 min 58 sec)
Heartbeat CPU 0 instructions: 199001241 cycles: 74604754 heartbeat IPC: 2.468 cumulative IPC: 2.341 (Simulation time: 00 hr 17 min 01 sec)
Heartbeat CPU 0 instructions: 199501245 cycles: 74806452 heartbeat IPC: 2.479 cumulative IPC: 2.342 (Simulation time: 00 hr 17 min 04 sec)
Heartbeat CPU 0 instructions: 200001249 cycles: 75008518 heartbeat IPC: 2.474 cumulative IPC: 2.342 (Simulation time: 00 hr 17 min 07 sec)
Heartbeat CPU 0 instructions: 200501253 cycles: 75208911 heartbeat IPC: 2.495 cumulative IPC: 2.342 (Simulation time: 00 hr 17 min 10 sec)
Heartbeat CPU 0 instructions: 201001253 cycles: 75410684 heartbeat IPC: 2.478 cumulative IPC: 2.343 (Simulation time: 00 hr 17 min 12 sec)
Heartbeat CPU 0 instructions: 201501259 cycles: 75610631 heartbeat IPC: 2.501 cumulative IPC: 2.343 (Simulation time: 00 hr 17 min 15 sec)
Heartbeat CPU 0 instructions: 202001262 cycles: 75811769 heartbeat IPC: 2.486 cumulative IPC: 2.344 (Simulation time: 00 hr 17 min 18 sec)
Heartbeat CPU 0 instructions: 202501267 cycles: 76012794 heartbeat IPC: 2.487 cumulative IPC: 2.344 (Simulation time: 00 hr 17 min 21 sec)
Heartbeat CPU 0 instructions: 203001273 cycles: 76214232 heartbeat IPC: 2.482 cumulative IPC: 2.345 (Simulation time: 00 hr 17 min 24 sec)
Heartbeat CPU 0 instructions: 203501273 cycles: 76414560 heartbeat IPC: 2.496 cumulative IPC: 2.345 (Simulation time: 00 hr 17 min 27 sec)
Heartbeat CPU 0 instructions: 204001277 cycles: 76616278 heartbeat IPC: 2.479 cumulative IPC: 2.346 (Simulation time: 00 hr 17 min 30 sec)
Heartbeat CPU 0 instructions: 204501281 cycles: 76817072 heartbeat IPC: 2.49 cumulative IPC: 2.346 (Simulation time: 00 hr 17 min 32 sec)
Heartbeat CPU 0 instructions: 205001285 cycles: 77020004 heartbeat IPC: 2.464 cumulative IPC: 2.346 (Simulation time: 00 hr 17 min 35 sec)
Heartbeat CPU 0 instructions: 205501285 cycles: 77453256 heartbeat IPC: 1.154 cumulative IPC: 2.339 (Simulation time: 00 hr 17 min 41 sec)
Heartbeat CPU 0 instructions: 206001285 cycles: 77693132 heartbeat IPC: 2.084 cumulative IPC: 2.338 (Simulation time: 00 hr 17 min 44 sec)
Heartbeat CPU 0 instructions: 206501290 cycles: 77908324 heartbeat IPC: 2.324 cumulative IPC: 2.338 (Simulation time: 00 hr 17 min 47 sec)
Heartbeat CPU 0 instructions: 207001291 cycles: 78114262 heartbeat IPC: 2.428 cumulative IPC: 2.338 (Simulation time: 00 hr 17 min 50 sec)
Heartbeat CPU 0 instructions: 207501293 cycles: 78325496 heartbeat IPC: 2.367 cumulative IPC: 2.338 (Simulation time: 00 hr 17 min 53 sec)
Heartbeat CPU 0 instructions: 208001295 cycles: 78527309 heartbeat IPC: 2.478 cumulative IPC: 2.338 (Simulation time: 00 hr 17 min 56 sec)
Heartbeat CPU 0 instructions: 208501299 cycles: 78752195 heartbeat IPC: 2.223 cumulative IPC: 2.338 (Simulation time: 00 hr 17 min 59 sec)
Heartbeat CPU 0 instructions: 209001301 cycles: 78973467 heartbeat IPC: 2.26 cumulative IPC: 2.338 (Simulation time: 00 hr 18 min 02 sec)
Heartbeat CPU 0 instructions: 209501307 cycles: 79186081 heartbeat IPC: 2.352 cumulative IPC: 2.338 (Simulation time: 00 hr 18 min 05 sec)
Heartbeat CPU 0 instructions: 210001309 cycles: 79391888 heartbeat IPC: 2.429 cumulative IPC: 2.338 (Simulation time: 00 hr 18 min 08 sec)
Heartbeat CPU 0 instructions: 210501309 cycles: 79619083 heartbeat IPC: 2.201 cumulative IPC: 2.338 (Simulation time: 00 hr 18 min 11 sec)
Heartbeat CPU 0 instructions: 211001314 cycles: 79825885 heartbeat IPC: 2.418 cumulative IPC: 2.338 (Simulation time: 00 hr 18 min 13 sec)
Heartbeat CPU 0 instructions: 211501314 cycles: 80036148 heartbeat IPC: 2.378 cumulative IPC: 2.338 (Simulation time: 00 hr 18 min 16 sec)
Heartbeat CPU 0 instructions: 212001314 cycles: 80247087 heartbeat IPC: 2.37 cumulative IPC: 2.338 (Simulation time: 00 hr 18 min 19 sec)
Heartbeat CPU 0 instructions: 212501319 cycles: 80462592 heartbeat IPC: 2.32 cumulative IPC: 2.338 (Simulation time: 00 hr 18 min 22 sec)
Heartbeat CPU 0 instructions: 213001321 cycles: 80672316 heartbeat IPC: 2.384 cumulative IPC: 2.338 (Simulation time: 00 hr 18 min 25 sec)
Heartbeat CPU 0 instructions: 213501322 cycles: 80880720 heartbeat IPC: 2.399 cumulative IPC: 2.338 (Simulation time: 00 hr 18 min 28 sec)
Heartbeat CPU 0 instructions: 214001322 cycles: 81103157 heartbeat IPC: 2.248 cumulative IPC: 2.338 (Simulation time: 00 hr 18 min 31 sec)
Heartbeat CPU 0 instructions: 214501322 cycles: 81310538 heartbeat IPC: 2.411 cumulative IPC: 2.338 (Simulation time: 00 hr 18 min 33 sec)
Heartbeat CPU 0 instructions: 215001322 cycles: 81521125 heartbeat IPC: 2.374 cumulative IPC: 2.338 (Simulation time: 00 hr 18 min 36 sec)
Heartbeat CPU 0 instructions: 215501324 cycles: 81719988 heartbeat IPC: 2.514 cumulative IPC: 2.339 (Simulation time: 00 hr 18 min 39 sec)
Heartbeat CPU 0 instructions: 216001324 cycles: 81943043 heartbeat IPC: 2.242 cumulative IPC: 2.339 (Simulation time: 00 hr 18 min 42 sec)
Heartbeat CPU 0 instructions: 216501327 cycles: 82147370 heartbeat IPC: 2.447 cumulative IPC: 2.339 (Simulation time: 00 hr 18 min 45 sec)
Heartbeat CPU 0 instructions: 217001330 cycles: 82356613 heartbeat IPC: 2.39 cumulative IPC: 2.339 (Simulation time: 00 hr 18 min 47 sec)
Heartbeat CPU 0 instructions: 217501330 cycles: 82557714 heartbeat IPC: 2.486 cumulative IPC: 2.339 (Simulation time: 00 hr 18 min 50 sec)
Heartbeat CPU 0 instructions: 218001332 cycles: 82760268 heartbeat IPC: 2.468 cumulative IPC: 2.34 (Simulation time: 00 hr 18 min 53 sec)
Heartbeat CPU 0 instructions: 218501336 cycles: 82964583 heartbeat IPC: 2.447 cumulative IPC: 2.34 (Simulation time: 00 hr 18 min 56 sec)
Heartbeat CPU 0 instructions: 219001340 cycles: 83170888 heartbeat IPC: 2.424 cumulative IPC: 2.34 (Simulation time: 00 hr 18 min 58 sec)
Heartbeat CPU 0 instructions: 219501344 cycles: 83378179 heartbeat IPC: 2.412 cumulative IPC: 2.341 (Simulation time: 00 hr 19 min 01 sec)
Heartbeat CPU 0 instructions: 220001346 cycles: 83583693 heartbeat IPC: 2.433 cumulative IPC: 2.341 (Simulation time: 00 hr 19 min 04 sec)
Heartbeat CPU 0 instructions: 220501350 cycles: 83792294 heartbeat IPC: 2.397 cumulative IPC: 2.341 (Simulation time: 00 hr 19 min 07 sec)
Heartbeat CPU 0 instructions: 221001354 cycles: 84001703 heartbeat IPC: 2.388 cumulative IPC: 2.341 (Simulation time: 00 hr 19 min 09 sec)
Heartbeat CPU 0 instructions: 221501358 cycles: 84213255 heartbeat IPC: 2.364 cumulative IPC: 2.341 (Simulation time: 00 hr 19 min 12 sec)
Heartbeat CPU 0 instructions: 222001359 cycles: 84423240 heartbeat IPC: 2.381 cumulative IPC: 2.341 (Simulation time: 00 hr 19 min 15 sec)
Heartbeat CPU 0 instructions: 222501364 cycles: 84639724 heartbeat IPC: 2.31 cumulative IPC: 2.341 (Simulation time: 00 hr 19 min 18 sec)
Heartbeat CPU 0 instructions: 223001368 cycles: 84860385 heartbeat IPC: 2.266 cumulative IPC: 2.341 (Simulation time: 00 hr 19 min 21 sec)
Heartbeat CPU 0 instructions: 223501369 cycles: 85083051 heartbeat IPC: 2.246 cumulative IPC: 2.341 (Simulation time: 00 hr 19 min 23 sec)
Heartbeat CPU 0 instructions: 224001369 cycles: 85308469 heartbeat IPC: 2.218 cumulative IPC: 2.34 (Simulation time: 00 hr 19 min 26 sec)
Heartbeat CPU 0 instructions: 224501371 cycles: 85525995 heartbeat IPC: 2.299 cumulative IPC: 2.34 (Simulation time: 00 hr 19 min 29 sec)
Heartbeat CPU 0 instructions: 225001375 cycles: 85736418 heartbeat IPC: 2.376 cumulative IPC: 2.34 (Simulation time: 00 hr 19 min 32 sec)
Heartbeat CPU 0 instructions: 225501379 cycles: 85947220 heartbeat IPC: 2.372 cumulative IPC: 2.34 (Simulation time: 00 hr 19 min 35 sec)
Heartbeat CPU 0 instructions: 226001383 cycles: 86156634 heartbeat IPC: 2.388 cumulative IPC: 2.341 (Simulation time: 00 hr 19 min 38 sec)
Heartbeat CPU 0 instructions: 226501388 cycles: 86369674 heartbeat IPC: 2.347 cumulative IPC: 2.341 (Simulation time: 00 hr 19 min 40 sec)
Heartbeat CPU 0 instructions: 227001389 cycles: 86581541 heartbeat IPC: 2.36 cumulative IPC: 2.341 (Simulation time: 00 hr 19 min 43 sec)
Heartbeat CPU 0 instructions: 227501393 cycles: 86792953 heartbeat IPC: 2.365 cumulative IPC: 2.341 (Simulation time: 00 hr 19 min 46 sec)
Heartbeat CPU 0 instructions: 228001394 cycles: 87004942 heartbeat IPC: 2.359 cumulative IPC: 2.341 (Simulation time: 00 hr 19 min 49 sec)
Heartbeat CPU 0 instructions: 228501401 cycles: 87217911 heartbeat IPC: 2.348 cumulative IPC: 2.341 (Simulation time: 00 hr 19 min 51 sec)
Heartbeat CPU 0 instructions: 229001403 cycles: 87431768 heartbeat IPC: 2.338 cumulative IPC: 2.341 (Simulation time: 00 hr 19 min 54 sec)
Heartbeat CPU 0 instructions: 229501407 cycles: 87647526 heartbeat IPC: 2.317 cumulative IPC: 2.341 (Simulation time: 00 hr 19 min 57 sec)
Heartbeat CPU 0 instructions: 230001411 cycles: 87862622 heartbeat IPC: 2.325 cumulative IPC: 2.341 (Simulation time: 00 hr 20 min 00 sec)
Heartbeat CPU 0 instructions: 230501415 cycles: 88076510 heartbeat IPC: 2.338 cumulative IPC: 2.341 (Simulation time: 00 hr 20 min 03 sec)
Heartbeat CPU 0 instructions: 231001417 cycles: 88289717 heartbeat IPC: 2.345 cumulative IPC: 2.341 (Simulation time: 00 hr 20 min 06 sec)
Heartbeat CPU 0 instructions: 231501421 cycles: 88508241 heartbeat IPC: 2.288 cumulative IPC: 2.34 (Simulation time: 00 hr 20 min 08 sec)
Heartbeat CPU 0 instructions: 232001425 cycles: 88725307 heartbeat IPC: 2.303 cumulative IPC: 2.34 (Simulation time: 00 hr 20 min 11 sec)
Heartbeat CPU 0 instructions: 232501429 cycles: 88939344 heartbeat IPC: 2.336 cumulative IPC: 2.34 (Simulation time: 00 hr 20 min 14 sec)
Heartbeat CPU 0 instructions: 233001430 cycles: 89177528 heartbeat IPC: 2.099 cumulative IPC: 2.34 (Simulation time: 00 hr 20 min 17 sec)
Heartbeat CPU 0 instructions: 233501435 cycles: 89410725 heartbeat IPC: 2.144 cumulative IPC: 2.339 (Simulation time: 00 hr 20 min 20 sec)
Heartbeat CPU 0 instructions: 234001439 cycles: 89629564 heartbeat IPC: 2.285 cumulative IPC: 2.339 (Simulation time: 00 hr 20 min 22 sec)
Heartbeat CPU 0 instructions: 234501439 cycles: 90026599 heartbeat IPC: 1.259 cumulative IPC: 2.333 (Simulation time: 00 hr 20 min 28 sec)
Heartbeat CPU 0 instructions: 235001439 cycles: 90299115 heartbeat IPC: 1.835 cumulative IPC: 2.332 (Simulation time: 00 hr 20 min 31 sec)
Heartbeat CPU 0 instructions: 235501445 cycles: 90529176 heartbeat IPC: 2.173 cumulative IPC: 2.331 (Simulation time: 00 hr 20 min 34 sec)
Heartbeat CPU 0 instructions: 236001449 cycles: 90751800 heartbeat IPC: 2.246 cumulative IPC: 2.331 (Simulation time: 00 hr 20 min 37 sec)
Heartbeat CPU 0 instructions: 236501452 cycles: 90976457 heartbeat IPC: 2.226 cumulative IPC: 2.331 (Simulation time: 00 hr 20 min 40 sec)
Heartbeat CPU 0 instructions: 237001453 cycles: 91189542 heartbeat IPC: 2.346 cumulative IPC: 2.331 (Simulation time: 00 hr 20 min 43 sec)
Heartbeat CPU 0 instructions: 237501453 cycles: 91425797 heartbeat IPC: 2.116 cumulative IPC: 2.33 (Simulation time: 00 hr 20 min 46 sec)
Heartbeat CPU 0 instructions: 238001458 cycles: 91642801 heartbeat IPC: 2.304 cumulative IPC: 2.33 (Simulation time: 00 hr 20 min 48 sec)
Heartbeat CPU 0 instructions: 238501459 cycles: 91857417 heartbeat IPC: 2.33 cumulative IPC: 2.33 (Simulation time: 00 hr 20 min 51 sec)
Heartbeat CPU 0 instructions: 239001463 cycles: 92060498 heartbeat IPC: 2.462 cumulative IPC: 2.33 (Simulation time: 00 hr 20 min 54 sec)
Heartbeat CPU 0 instructions: 239501467 cycles: 92285737 heartbeat IPC: 2.22 cumulative IPC: 2.33 (Simulation time: 00 hr 20 min 57 sec)
Heartbeat CPU 0 instructions: 240001471 cycles: 92496266 heartbeat IPC: 2.375 cumulative IPC: 2.33 (Simulation time: 00 hr 21 min 00 sec)
Heartbeat CPU 0 instructions: 240501477 cycles: 92704383 heartbeat IPC: 2.403 cumulative IPC: 2.33 (Simulation time: 00 hr 21 min 02 sec)
Heartbeat CPU 0 instructions: 241001483 cycles: 92912038 heartbeat IPC: 2.408 cumulative IPC: 2.331 (Simulation time: 00 hr 21 min 05 sec)
Heartbeat CPU 0 instructions: 241501489 cycles: 93128288 heartbeat IPC: 2.312 cumulative IPC: 2.331 (Simulation time: 00 hr 21 min 08 sec)
Heartbeat CPU 0 instructions: 242001494 cycles: 93331902 heartbeat IPC: 2.456 cumulative IPC: 2.331 (Simulation time: 00 hr 21 min 11 sec)
Heartbeat CPU 0 instructions: 242501497 cycles: 93536113 heartbeat IPC: 2.448 cumulative IPC: 2.331 (Simulation time: 00 hr 21 min 14 sec)
Heartbeat CPU 0 instructions: 243001500 cycles: 93750806 heartbeat IPC: 2.329 cumulative IPC: 2.331 (Simulation time: 00 hr 21 min 17 sec)
Heartbeat CPU 0 instructions: 243501504 cycles: 93961547 heartbeat IPC: 2.373 cumulative IPC: 2.331 (Simulation time: 00 hr 21 min 20 sec)
Heartbeat CPU 0 instructions: 244001505 cycles: 94164402 heartbeat IPC: 2.465 cumulative IPC: 2.332 (Simulation time: 00 hr 21 min 23 sec)
Heartbeat CPU 0 instructions: 244501511 cycles: 94356911 heartbeat IPC: 2.597 cumulative IPC: 2.332 (Simulation time: 00 hr 21 min 25 sec)
Heartbeat CPU 0 instructions: 245001516 cycles: 94574751 heartbeat IPC: 2.295 cumulative IPC: 2.332 (Simulation time: 00 hr 21 min 28 sec)
Heartbeat CPU 0 instructions: 245501520 cycles: 94785822 heartbeat IPC: 2.369 cumulative IPC: 2.332 (Simulation time: 00 hr 21 min 31 sec)
Heartbeat CPU 0 instructions: 246001526 cycles: 94999355 heartbeat IPC: 2.342 cumulative IPC: 2.332 (Simulation time: 00 hr 21 min 34 sec)
Heartbeat CPU 0 instructions: 246501530 cycles: 95199872 heartbeat IPC: 2.494 cumulative IPC: 2.333 (Simulation time: 00 hr 21 min 37 sec)
Heartbeat CPU 0 instructions: 247001534 cycles: 95404108 heartbeat IPC: 2.448 cumulative IPC: 2.333 (Simulation time: 00 hr 21 min 39 sec)
Heartbeat CPU 0 instructions: 247501538 cycles: 95611834 heartbeat IPC: 2.407 cumulative IPC: 2.333 (Simulation time: 00 hr 21 min 42 sec)
Heartbeat CPU 0 instructions: 248001543 cycles: 95822434 heartbeat IPC: 2.374 cumulative IPC: 2.333 (Simulation time: 00 hr 21 min 45 sec)
Heartbeat CPU 0 instructions: 248501544 cycles: 96031691 heartbeat IPC: 2.389 cumulative IPC: 2.333 (Simulation time: 00 hr 21 min 47 sec)
Heartbeat CPU 0 instructions: 249001548 cycles: 96239041 heartbeat IPC: 2.411 cumulative IPC: 2.334 (Simulation time: 00 hr 21 min 50 sec)
Heartbeat CPU 0 instructions: 249501549 cycles: 96449126 heartbeat IPC: 2.38 cumulative IPC: 2.334 (Simulation time: 00 hr 21 min 53 sec)
Simulation finished CPU 0 instructions: 200000000 cycles: 85699664 cumulative IPC: 2.334 (Simulation time: 00 hr 21 min 56 sec)
Simulation complete CPU 0 instructions: 200000000 cycles: 85699664 cumulative IPC: 2.334 (Simulation time: 00 hr 21 min 56 sec)

ChampSim completed all CPUs

=== Simulation ===
CPU 0 runs /local-ssd/ben/dpc4-traces/ai-ml/llama2.c-stories15M.3.champsimtrace.gz

Region of Interest Statistics

CPU 0 cumulative IPC: 2.334 instructions: 200000000 cycles: 85699664
CPU 0 Branch Prediction Accuracy: 98.73% MPKI: 1.825 Average ROB Occupancy at Mispredict: 257
Branch type MPKI
BRANCH_DIRECT_JUMP: 0
BRANCH_INDIRECT: 0
BRANCH_CONDITIONAL: 1.825
BRANCH_DIRECT_CALL: 1e-05
BRANCH_INDIRECT_CALL: 0.000145
BRANCH_RETURN: 8e-05

cpu0->cpu0_STLB TOTAL        ACCESS:     105035 HIT:       1394 MISS:     103641 MSHR_MERGE:          0
cpu0->cpu0_STLB LOAD         ACCESS:     105035 HIT:       1394 MISS:     103641 MSHR_MERGE:          0
cpu0->cpu0_STLB RFO          ACCESS:          0 HIT:          0 MISS:          0 MSHR_MERGE:          0
cpu0->cpu0_STLB PREFETCH     ACCESS:          0 HIT:          0 MISS:          0 MSHR_MERGE:          0
cpu0->cpu0_STLB WRITE        ACCESS:          0 HIT:          0 MISS:          0 MSHR_MERGE:          0
cpu0->cpu0_STLB TRANSLATION  ACCESS:          0 HIT:          0 MISS:          0 MSHR_MERGE:          0
cpu0->cpu0_STLB PREFETCH REQUESTED:          0 ISSUED:          0 USEFUL:          0 USELESS:          0
cpu0->cpu0_STLB AVERAGE MISS LATENCY: 45.35 cycles
cpu0->cpu0_L2C TOTAL        ACCESS:   29200074 HIT:    2398769 MISS:   26801305 MSHR_MERGE:   20151593
cpu0->cpu0_L2C LOAD         ACCESS:    1096974 HIT:     316387 MISS:     780587 MSHR_MERGE:     690448
cpu0->cpu0_L2C RFO          ACCESS:      23141 HIT:       3121 MISS:      20020 MSHR_MERGE:         29
cpu0->cpu0_L2C PREFETCH     ACCESS:   27992455 HIT:    2006627 MISS:   25985828 MSHR_MERGE:   19461116
cpu0->cpu0_L2C WRITE        ACCESS:      73596 HIT:      72289 MISS:       1307 MSHR_MERGE:          0
cpu0->cpu0_L2C TRANSLATION  ACCESS:      13908 HIT:        345 MISS:      13563 MSHR_MERGE:          0
cpu0->cpu0_L2C PREFETCH REQUESTED:   25594187 ISSUED:   22360172 USEFUL:    1437656 USELESS:    3887776
cpu0->cpu0_L2C AVERAGE MISS LATENCY: 86.32 cycles
cpu0->cpu0_L1I TOTAL        ACCESS:   17673371 HIT:   17673371 MISS:          0 MSHR_MERGE:          0
cpu0->cpu0_L1I LOAD         ACCESS:   17673371 HIT:   17673371 MISS:          0 MSHR_MERGE:          0
cpu0->cpu0_L1I RFO          ACCESS:          0 HIT:          0 MISS:          0 MSHR_MERGE:          0
cpu0->cpu0_L1I PREFETCH     ACCESS:          0 HIT:          0 MISS:          0 MSHR_MERGE:          0
cpu0->cpu0_L1I WRITE        ACCESS:          0 HIT:          0 MISS:          0 MSHR_MERGE:          0
cpu0->cpu0_L1I TRANSLATION  ACCESS:          0 HIT:          0 MISS:          0 MSHR_MERGE:          0
cpu0->cpu0_L1I PREFETCH REQUESTED:          0 ISSUED:          0 USEFUL:          0 USELESS:          0
cpu0->cpu0_L1I AVERAGE MISS LATENCY: - cycles
cpu0->cpu0_L1D TOTAL        ACCESS:   57065217 HIT:   34940969 MISS:   22124248 MSHR_MERGE:   15357949
cpu0->cpu0_L1D LOAD         ACCESS:   35147374 HIT:   22361224 MISS:   12786150 MSHR_MERGE:   11689176
cpu0->cpu0_L1D RFO          ACCESS:          0 HIT:          0 MISS:          0 MSHR_MERGE:          0
cpu0->cpu0_L1D PREFETCH     ACCESS:   20800040 HIT:   11515503 MISS:    9284537 MSHR_MERGE:    3652264
cpu0->cpu0_L1D WRITE        ACCESS:     910361 HIT:     870710 MISS:      39651 MSHR_MERGE:      16507
cpu0->cpu0_L1D TRANSLATION  ACCESS:     207442 HIT:     193532 MISS:      13910 MSHR_MERGE:          2
cpu0->cpu0_L1D PREFETCH REQUESTED:   35180077 ISSUED:   20800041 USEFUL:    5576279 USELESS:      56002
cpu0->cpu0_L1D AVERAGE MISS LATENCY: 63.69 cycles
cpu0->cpu0_ITLB TOTAL        ACCESS:   16663114 HIT:   16663114 MISS:          0 MSHR_MERGE:          0
cpu0->cpu0_ITLB LOAD         ACCESS:   16663114 HIT:   16663114 MISS:          0 MSHR_MERGE:          0
cpu0->cpu0_ITLB RFO          ACCESS:          0 HIT:          0 MISS:          0 MSHR_MERGE:          0
cpu0->cpu0_ITLB PREFETCH     ACCESS:          0 HIT:          0 MISS:          0 MSHR_MERGE:          0
cpu0->cpu0_ITLB WRITE        ACCESS:          0 HIT:          0 MISS:          0 MSHR_MERGE:          0
cpu0->cpu0_ITLB TRANSLATION  ACCESS:          0 HIT:          0 MISS:          0 MSHR_MERGE:          0
cpu0->cpu0_ITLB PREFETCH REQUESTED:          0 ISSUED:          0 USEFUL:          0 USELESS:          0
cpu0->cpu0_ITLB AVERAGE MISS LATENCY: - cycles
cpu0->cpu0_DTLB TOTAL        ACCESS:   44095585 HIT:   43615631 MISS:     479954 MSHR_MERGE:     374919
cpu0->cpu0_DTLB LOAD         ACCESS:   44095585 HIT:   43615631 MISS:     479954 MSHR_MERGE:     374919
cpu0->cpu0_DTLB RFO          ACCESS:          0 HIT:          0 MISS:          0 MSHR_MERGE:          0
cpu0->cpu0_DTLB PREFETCH     ACCESS:          0 HIT:          0 MISS:          0 MSHR_MERGE:          0
cpu0->cpu0_DTLB WRITE        ACCESS:          0 HIT:          0 MISS:          0 MSHR_MERGE:          0
cpu0->cpu0_DTLB TRANSLATION  ACCESS:          0 HIT:          0 MISS:          0 MSHR_MERGE:          0
cpu0->cpu0_DTLB PREFETCH REQUESTED:          0 ISSUED:          0 USEFUL:          0 USELESS:          0
cpu0->cpu0_DTLB AVERAGE MISS LATENCY: 50.74 cycles
cpu0->LLC TOTAL        ACCESS:   13066154 HIT:     601726 MISS:   12464428 MSHR_MERGE:    5942510
cpu0->LLC LOAD         ACCESS:      90139 HIT:      21028 MISS:      69111 MSHR_MERGE:      41703
cpu0->LLC RFO          ACCESS:      19991 HIT:       7818 MISS:      12173 MSHR_MERGE:         48
cpu0->LLC PREFETCH     ACCESS:   12905440 HIT:     550472 MISS:   12354968 MSHR_MERGE:    5900759
cpu0->LLC WRITE        ACCESS:      37021 HIT:      22389 MISS:      14632 MSHR_MERGE:          0
cpu0->LLC TRANSLATION  ACCESS:      13563 HIT:         19 MISS:      13544 MSHR_MERGE:          0
cpu0->LLC PREFETCH REQUESTED:    6410386 ISSUED:    6380729 USEFUL:     305401 USELESS:    4622217
cpu0->LLC AVERAGE MISS LATENCY: 198.1 cycles

DRAM Statistics

Channel 0 RQ ROW_BUFFER_HIT:    2885245
  ROW_BUFFER_MISS:    3621792
  AVG DBUS CONGESTED CYCLE: 4.758
Channel 0 WQ ROW_BUFFER_HIT:        848
  ROW_BUFFER_MISS:      18457
  FULL:          0
Channel 0 REFRESHES ISSUED:       7141
