[VMEM] WARNING: physical memory size is smaller than virtual memory size.

*** ChampSim Multicore Out-of-Order Simulator ***
Warmup Instructions: 50000000
Simulation Instructions: 200000000
Number of CPUs: 1
Page size: 4096
Core 0: /local-ssd/ben/dpc4-traces/ai-ml/llama2.c-stories15M.1.champsimtrace.gz
Off-chip DRAM Size: 64 GiB Channels: 1 Width: 64-bit Data Rate: 4807 MT/s
Heartbeat CPU 0 instructions: 500005 cycles: 117266 heartbeat IPC: 4.264 cumulative IPC: 4.264 (Simulation time: 00 hr 00 min 02 sec)
Heartbeat CPU 0 instructions: 1000008 cycles: 232547 heartbeat IPC: 4.337 cumulative IPC: 4.3 (Simulation time: 00 hr 00 min 04 sec)
Heartbeat CPU 0 instructions: 1500010 cycles: 348049 heartbeat IPC: 4.329 cumulative IPC: 4.31 (Simulation time: 00 hr 00 min 05 sec)
Heartbeat CPU 0 instructions: 2000017 cycles: 463139 heartbeat IPC: 4.344 cumulative IPC: 4.318 (Simulation time: 00 hr 00 min 07 sec)
Heartbeat CPU 0 instructions: 2500019 cycles: 578617 heartbeat IPC: 4.33 cumulative IPC: 4.321 (Simulation time: 00 hr 00 min 09 sec)
Heartbeat CPU 0 instructions: 3000022 cycles: 693880 heartbeat IPC: 4.338 cumulative IPC: 4.324 (Simulation time: 00 hr 00 min 11 sec)
Heartbeat CPU 0 instructions: 3500025 cycles: 809349 heartbeat IPC: 4.33 cumulative IPC: 4.324 (Simulation time: 00 hr 00 min 13 sec)
Heartbeat CPU 0 instructions: 4000027 cycles: 924635 heartbeat IPC: 4.337 cumulative IPC: 4.326 (Simulation time: 00 hr 00 min 14 sec)
Heartbeat CPU 0 instructions: 4500030 cycles: 1040124 heartbeat IPC: 4.329 cumulative IPC: 4.326 (Simulation time: 00 hr 00 min 16 sec)
Heartbeat CPU 0 instructions: 5000037 cycles: 1155239 heartbeat IPC: 4.344 cumulative IPC: 4.328 (Simulation time: 00 hr 00 min 18 sec)
Heartbeat CPU 0 instructions: 5500042 cycles: 1270696 heartbeat IPC: 4.331 cumulative IPC: 4.328 (Simulation time: 00 hr 00 min 20 sec)
Heartbeat CPU 0 instructions: 6000042 cycles: 1385967 heartbeat IPC: 4.338 cumulative IPC: 4.329 (Simulation time: 00 hr 00 min 22 sec)
Heartbeat CPU 0 instructions: 6500045 cycles: 1501461 heartbeat IPC: 4.329 cumulative IPC: 4.329 (Simulation time: 00 hr 00 min 24 sec)
Heartbeat CPU 0 instructions: 7000047 cycles: 1616928 heartbeat IPC: 4.33 cumulative IPC: 4.329 (Simulation time: 00 hr 00 min 26 sec)
Heartbeat CPU 0 instructions: 7500049 cycles: 1732201 heartbeat IPC: 4.338 cumulative IPC: 4.33 (Simulation time: 00 hr 00 min 28 sec)
Heartbeat CPU 0 instructions: 8000052 cycles: 1847531 heartbeat IPC: 4.335 cumulative IPC: 4.33 (Simulation time: 00 hr 00 min 29 sec)
Heartbeat CPU 0 instructions: 8500058 cycles: 1962814 heartbeat IPC: 4.337 cumulative IPC: 4.331 (Simulation time: 00 hr 00 min 31 sec)
Heartbeat CPU 0 instructions: 9000065 cycles: 2078289 heartbeat IPC: 4.33 cumulative IPC: 4.331 (Simulation time: 00 hr 00 min 33 sec)
Heartbeat CPU 0 instructions: 9500072 cycles: 2193555 heartbeat IPC: 4.338 cumulative IPC: 4.331 (Simulation time: 00 hr 00 min 35 sec)
Heartbeat CPU 0 instructions: 10000075 cycles: 2309059 heartbeat IPC: 4.329 cumulative IPC: 4.331 (Simulation time: 00 hr 00 min 37 sec)
Heartbeat CPU 0 instructions: 10500077 cycles: 2424298 heartbeat IPC: 4.339 cumulative IPC: 4.331 (Simulation time: 00 hr 00 min 39 sec)
Heartbeat CPU 0 instructions: 11000080 cycles: 2539776 heartbeat IPC: 4.33 cumulative IPC: 4.331 (Simulation time: 00 hr 00 min 41 sec)
Heartbeat CPU 0 instructions: 11500083 cycles: 2654889 heartbeat IPC: 4.344 cumulative IPC: 4.332 (Simulation time: 00 hr 00 min 43 sec)
Heartbeat CPU 0 instructions: 12000088 cycles: 2770372 heartbeat IPC: 4.33 cumulative IPC: 4.332 (Simulation time: 00 hr 00 min 44 sec)
Heartbeat CPU 0 instructions: 12500091 cycles: 2885637 heartbeat IPC: 4.338 cumulative IPC: 4.332 (Simulation time: 00 hr 00 min 46 sec)
Heartbeat CPU 0 instructions: 13000094 cycles: 3001123 heartbeat IPC: 4.33 cumulative IPC: 4.332 (Simulation time: 00 hr 00 min 48 sec)
Heartbeat CPU 0 instructions: 13500097 cycles: 3116403 heartbeat IPC: 4.337 cumulative IPC: 4.332 (Simulation time: 00 hr 00 min 50 sec)
Heartbeat CPU 0 instructions: 14000099 cycles: 3231883 heartbeat IPC: 4.33 cumulative IPC: 4.332 (Simulation time: 00 hr 00 min 52 sec)
Heartbeat CPU 0 instructions: 14500104 cycles: 3346974 heartbeat IPC: 4.344 cumulative IPC: 4.332 (Simulation time: 00 hr 00 min 54 sec)
Heartbeat CPU 0 instructions: 15000108 cycles: 3462469 heartbeat IPC: 4.329 cumulative IPC: 4.332 (Simulation time: 00 hr 00 min 56 sec)
Heartbeat CPU 0 instructions: 15500111 cycles: 3577747 heartbeat IPC: 4.337 cumulative IPC: 4.332 (Simulation time: 00 hr 00 min 58 sec)
Heartbeat CPU 0 instructions: 16000114 cycles: 3693228 heartbeat IPC: 4.33 cumulative IPC: 4.332 (Simulation time: 00 hr 01 min 00 sec)
Heartbeat CPU 0 instructions: 16500117 cycles: 3813504 heartbeat IPC: 4.157 cumulative IPC: 4.327 (Simulation time: 00 hr 01 min 01 sec)
Heartbeat CPU 0 instructions: 17000117 cycles: 3932449 heartbeat IPC: 4.204 cumulative IPC: 4.323 (Simulation time: 00 hr 01 min 03 sec)
Heartbeat CPU 0 instructions: 17500117 cycles: 4048181 heartbeat IPC: 4.32 cumulative IPC: 4.323 (Simulation time: 00 hr 01 min 05 sec)
Heartbeat CPU 0 instructions: 18000120 cycles: 4164733 heartbeat IPC: 4.29 cumulative IPC: 4.322 (Simulation time: 00 hr 01 min 07 sec)
Heartbeat CPU 0 instructions: 18500121 cycles: 4282258 heartbeat IPC: 4.254 cumulative IPC: 4.32 (Simulation time: 00 hr 01 min 09 sec)
Heartbeat CPU 0 instructions: 19000125 cycles: 4398673 heartbeat IPC: 4.295 cumulative IPC: 4.32 (Simulation time: 00 hr 01 min 11 sec)
Heartbeat CPU 0 instructions: 19500126 cycles: 4513884 heartbeat IPC: 4.34 cumulative IPC: 4.32 (Simulation time: 00 hr 01 min 13 sec)
Heartbeat CPU 0 instructions: 20000127 cycles: 4630491 heartbeat IPC: 4.288 cumulative IPC: 4.319 (Simulation time: 00 hr 01 min 15 sec)
Heartbeat CPU 0 instructions: 20500127 cycles: 4747461 heartbeat IPC: 4.275 cumulative IPC: 4.318 (Simulation time: 00 hr 01 min 17 sec)
Heartbeat CPU 0 instructions: 21000133 cycles: 4863540 heartbeat IPC: 4.307 cumulative IPC: 4.318 (Simulation time: 00 hr 01 min 19 sec)
Heartbeat CPU 0 instructions: 21500139 cycles: 4978566 heartbeat IPC: 4.347 cumulative IPC: 4.319 (Simulation time: 00 hr 01 min 21 sec)
Heartbeat CPU 0 instructions: 22000144 cycles: 5096475 heartbeat IPC: 4.241 cumulative IPC: 4.317 (Simulation time: 00 hr 01 min 23 sec)
Heartbeat CPU 0 instructions: 22500146 cycles: 5213053 heartbeat IPC: 4.289 cumulative IPC: 4.316 (Simulation time: 00 hr 01 min 25 sec)
Heartbeat CPU 0 instructions: 23000148 cycles: 5328801 heartbeat IPC: 4.32 cumulative IPC: 4.316 (Simulation time: 00 hr 01 min 27 sec)
Heartbeat CPU 0 instructions: 23500148 cycles: 5444537 heartbeat IPC: 4.32 cumulative IPC: 4.316 (Simulation time: 00 hr 01 min 29 sec)
Heartbeat CPU 0 instructions: 24000148 cycles: 5562207 heartbeat IPC: 4.249 cumulative IPC: 4.315 (Simulation time: 00 hr 01 min 31 sec)
Heartbeat CPU 0 instructions: 24500154 cycles: 5678472 heartbeat IPC: 4.301 cumulative IPC: 4.315 (Simulation time: 00 hr 01 min 32 sec)
Heartbeat CPU 0 instructions: 25000156 cycles: 5793858 heartbeat IPC: 4.333 cumulative IPC: 4.315 (Simulation time: 00 hr 01 min 34 sec)
Heartbeat CPU 0 instructions: 25500158 cycles: 5910184 heartbeat IPC: 4.298 cumulative IPC: 4.315 (Simulation time: 00 hr 01 min 36 sec)
Heartbeat CPU 0 instructions: 26000158 cycles: 6027196 heartbeat IPC: 4.273 cumulative IPC: 4.314 (Simulation time: 00 hr 01 min 38 sec)
Heartbeat CPU 0 instructions: 26500163 cycles: 6143014 heartbeat IPC: 4.317 cumulative IPC: 4.314 (Simulation time: 00 hr 01 min 40 sec)
Heartbeat CPU 0 instructions: 27000163 cycles: 6258523 heartbeat IPC: 4.329 cumulative IPC: 4.314 (Simulation time: 00 hr 01 min 42 sec)
Heartbeat CPU 0 instructions: 27500168 cycles: 6375231 heartbeat IPC: 4.284 cumulative IPC: 4.314 (Simulation time: 00 hr 01 min 44 sec)
Heartbeat CPU 0 instructions: 28000168 cycles: 6490346 heartbeat IPC: 4.343 cumulative IPC: 4.314 (Simulation time: 00 hr 01 min 46 sec)
Heartbeat CPU 0 instructions: 28500173 cycles: 6591190 heartbeat IPC: 4.958 cumulative IPC: 4.324 (Simulation time: 00 hr 01 min 47 sec)
Heartbeat CPU 0 instructions: 29000176 cycles: 6691192 heartbeat IPC: 5 cumulative IPC: 4.334 (Simulation time: 00 hr 01 min 49 sec)
Heartbeat CPU 0 instructions: 29500179 cycles: 6791192 heartbeat IPC: 5 cumulative IPC: 4.344 (Simulation time: 00 hr 01 min 50 sec)
Heartbeat CPU 0 instructions: 30000179 cycles: 6891192 heartbeat IPC: 5 cumulative IPC: 4.353 (Simulation time: 00 hr 01 min 51 sec)
Heartbeat CPU 0 instructions: 30500186 cycles: 6991194 heartbeat IPC: 5 cumulative IPC: 4.363 (Simulation time: 00 hr 01 min 53 sec)
Heartbeat CPU 0 instructions: 31000189 cycles: 7091193 heartbeat IPC: 5 cumulative IPC: 4.372 (Simulation time: 00 hr 01 min 54 sec)
Heartbeat CPU 0 instructions: 31500193 cycles: 7191195 heartbeat IPC: 5 cumulative IPC: 4.38 (Simulation time: 00 hr 01 min 56 sec)
Heartbeat CPU 0 instructions: 32000197 cycles: 7291198 heartbeat IPC: 5 cumulative IPC: 4.389 (Simulation time: 00 hr 01 min 57 sec)
Heartbeat CPU 0 instructions: 32500199 cycles: 7391195 heartbeat IPC: 5 cumulative IPC: 4.397 (Simulation time: 00 hr 01 min 58 sec)
Heartbeat CPU 0 instructions: 33000206 cycles: 7491196 heartbeat IPC: 5 cumulative IPC: 4.405 (Simulation time: 00 hr 02 min 00 sec)
Heartbeat CPU 0 instructions: 33500207 cycles: 7591200 heartbeat IPC: 5 cumulative IPC: 4.413 (Simulation time: 00 hr 02 min 01 sec)
Heartbeat CPU 0 instructions: 34000210 cycles: 7691200 heartbeat IPC: 5 cumulative IPC: 4.421 (Simulation time: 00 hr 02 min 02 sec)
Heartbeat CPU 0 instructions: 34500216 cycles: 7791198 heartbeat IPC: 5 cumulative IPC: 4.428 (Simulation time: 00 hr 02 min 04 sec)
Heartbeat CPU 0 instructions: 35000219 cycles: 7891200 heartbeat IPC: 5 cumulative IPC: 4.435 (Simulation time: 00 hr 02 min 05 sec)
Heartbeat CPU 0 instructions: 35500220 cycles: 7991202 heartbeat IPC: 5 cumulative IPC: 4.442 (Simulation time: 00 hr 02 min 07 sec)
Heartbeat CPU 0 instructions: 36000221 cycles: 8091199 heartbeat IPC: 5 cumulative IPC: 4.449 (Simulation time: 00 hr 02 min 08 sec)
Heartbeat CPU 0 instructions: 36500224 cycles: 8191201 heartbeat IPC: 5 cumulative IPC: 4.456 (Simulation time: 00 hr 02 min 09 sec)
Heartbeat CPU 0 instructions: 37000224 cycles: 8291201 heartbeat IPC: 5 cumulative IPC: 4.463 (Simulation time: 00 hr 02 min 11 sec)
Heartbeat CPU 0 instructions: 37500229 cycles: 8391203 heartbeat IPC: 5 cumulative IPC: 4.469 (Simulation time: 00 hr 02 min 12 sec)
Heartbeat CPU 0 instructions: 38000234 cycles: 8491203 heartbeat IPC: 5 cumulative IPC: 4.475 (Simulation time: 00 hr 02 min 13 sec)
Heartbeat CPU 0 instructions: 38500237 cycles: 8591204 heartbeat IPC: 5 cumulative IPC: 4.481 (Simulation time: 00 hr 02 min 15 sec)
Heartbeat CPU 0 instructions: 39000239 cycles: 8691205 heartbeat IPC: 5 cumulative IPC: 4.487 (Simulation time: 00 hr 02 min 16 sec)
Heartbeat CPU 0 instructions: 39500242 cycles: 8791206 heartbeat IPC: 5 cumulative IPC: 4.493 (Simulation time: 00 hr 02 min 18 sec)
Heartbeat CPU 0 instructions: 40000247 cycles: 8891206 heartbeat IPC: 5 cumulative IPC: 4.499 (Simulation time: 00 hr 02 min 19 sec)
Heartbeat CPU 0 instructions: 40500250 cycles: 8991205 heartbeat IPC: 5 cumulative IPC: 4.504 (Simulation time: 00 hr 02 min 20 sec)
Heartbeat CPU 0 instructions: 41000250 cycles: 9091206 heartbeat IPC: 5 cumulative IPC: 4.51 (Simulation time: 00 hr 02 min 22 sec)
Heartbeat CPU 0 instructions: 41500255 cycles: 9191210 heartbeat IPC: 5 cumulative IPC: 4.515 (Simulation time: 00 hr 02 min 23 sec)
Heartbeat CPU 0 instructions: 42000256 cycles: 9291206 heartbeat IPC: 5 cumulative IPC: 4.52 (Simulation time: 00 hr 02 min 25 sec)
Heartbeat CPU 0 instructions: 42500259 cycles: 9391208 heartbeat IPC: 5 cumulative IPC: 4.526 (Simulation time: 00 hr 02 min 26 sec)
Heartbeat CPU 0 instructions: 43000260 cycles: 9491210 heartbeat IPC: 5 cumulative IPC: 4.531 (Simulation time: 00 hr 02 min 27 sec)
Heartbeat CPU 0 instructions: 43500263 cycles: 9591209 heartbeat IPC: 5 cumulative IPC: 4.535 (Simulation time: 00 hr 02 min 29 sec)
Heartbeat CPU 0 instructions: 44000269 cycles: 9691210 heartbeat IPC: 5 cumulative IPC: 4.54 (Simulation time: 00 hr 02 min 30 sec)
Heartbeat CPU 0 instructions: 44500269 cycles: 9791383 heartbeat IPC: 4.991 cumulative IPC: 4.545 (Simulation time: 00 hr 02 min 31 sec)
Heartbeat CPU 0 instructions: 45000269 cycles: 9891384 heartbeat IPC: 5 cumulative IPC: 4.549 (Simulation time: 00 hr 02 min 33 sec)
Heartbeat CPU 0 instructions: 45500273 cycles: 9991388 heartbeat IPC: 5 cumulative IPC: 4.554 (Simulation time: 00 hr 02 min 34 sec)
Heartbeat CPU 0 instructions: 46000276 cycles: 10091388 heartbeat IPC: 5 cumulative IPC: 4.558 (Simulation time: 00 hr 02 min 36 sec)
Heartbeat CPU 0 instructions: 46500283 cycles: 10191388 heartbeat IPC: 5 cumulative IPC: 4.563 (Simulation time: 00 hr 02 min 37 sec)
Heartbeat CPU 0 instructions: 47000286 cycles: 10291388 heartbeat IPC: 5 cumulative IPC: 4.567 (Simulation time: 00 hr 02 min 38 sec)
Heartbeat CPU 0 instructions: 47500286 cycles: 10391386 heartbeat IPC: 5 cumulative IPC: 4.571 (Simulation time: 00 hr 02 min 40 sec)
Heartbeat CPU 0 instructions: 48000287 cycles: 10491386 heartbeat IPC: 5 cumulative IPC: 4.575 (Simulation time: 00 hr 02 min 41 sec)
Heartbeat CPU 0 instructions: 48500294 cycles: 10591388 heartbeat IPC: 5 cumulative IPC: 4.579 (Simulation time: 00 hr 02 min 42 sec)
Heartbeat CPU 0 instructions: 49000296 cycles: 10691388 heartbeat IPC: 5 cumulative IPC: 4.583 (Simulation time: 00 hr 02 min 44 sec)
Heartbeat CPU 0 instructions: 49500300 cycles: 10791390 heartbeat IPC: 5 cumulative IPC: 4.587 (Simulation time: 00 hr 02 min 45 sec)
Warmup halting CPU 0 at instruction 50000007 cycle 10891333 for remainder of phase
Warmup finished CPU 0 instructions: 50000007 cycles: 10891333 cumulative IPC: 4.591 (Simulation time: 00 hr 02 min 47 sec)
Warmup complete CPU 0 instructions: 50000007 cycles: 10891333 cumulative IPC: 4.591 (Simulation time: 00 hr 02 min 47 sec)
Heartbeat CPU 0 instructions: 50000301 cycles: 10891394 heartbeat IPC: 5 cumulative IPC: 4.82 (Simulation time: 00 hr 02 min 47 sec)
Heartbeat CPU 0 instructions: 50500304 cycles: 11104894 heartbeat IPC: 2.342 cumulative IPC: 2.343 (Simulation time: 00 hr 02 min 49 sec)
Heartbeat CPU 0 instructions: 51000309 cycles: 11300977 heartbeat IPC: 2.55 cumulative IPC: 2.442 (Simulation time: 00 hr 02 min 52 sec)
Heartbeat CPU 0 instructions: 51500310 cycles: 11506562 heartbeat IPC: 2.432 cumulative IPC: 2.439 (Simulation time: 00 hr 02 min 55 sec)
Heartbeat CPU 0 instructions: 52000310 cycles: 11705913 heartbeat IPC: 2.508 cumulative IPC: 2.456 (Simulation time: 00 hr 02 min 58 sec)
Heartbeat CPU 0 instructions: 52500315 cycles: 11916059 heartbeat IPC: 2.379 cumulative IPC: 2.44 (Simulation time: 00 hr 03 min 01 sec)
Heartbeat CPU 0 instructions: 53000320 cycles: 12114446 heartbeat IPC: 2.52 cumulative IPC: 2.453 (Simulation time: 00 hr 03 min 03 sec)
Heartbeat CPU 0 instructions: 53500324 cycles: 12319743 heartbeat IPC: 2.436 cumulative IPC: 2.45 (Simulation time: 00 hr 03 min 06 sec)
Heartbeat CPU 0 instructions: 54000329 cycles: 12521420 heartbeat IPC: 2.479 cumulative IPC: 2.454 (Simulation time: 00 hr 03 min 09 sec)
Heartbeat CPU 0 instructions: 54500330 cycles: 12730028 heartbeat IPC: 2.397 cumulative IPC: 2.448 (Simulation time: 00 hr 03 min 12 sec)
Heartbeat CPU 0 instructions: 55000335 cycles: 12928635 heartbeat IPC: 2.518 cumulative IPC: 2.454 (Simulation time: 00 hr 03 min 14 sec)
Heartbeat CPU 0 instructions: 55500337 cycles: 13135418 heartbeat IPC: 2.418 cumulative IPC: 2.451 (Simulation time: 00 hr 03 min 17 sec)
Heartbeat CPU 0 instructions: 56000338 cycles: 13338516 heartbeat IPC: 2.462 cumulative IPC: 2.452 (Simulation time: 00 hr 03 min 20 sec)
Heartbeat CPU 0 instructions: 56500343 cycles: 13552020 heartbeat IPC: 2.342 cumulative IPC: 2.443 (Simulation time: 00 hr 03 min 23 sec)
Heartbeat CPU 0 instructions: 57000346 cycles: 13789038 heartbeat IPC: 2.11 cumulative IPC: 2.416 (Simulation time: 00 hr 03 min 26 sec)
Heartbeat CPU 0 instructions: 57500348 cycles: 14016010 heartbeat IPC: 2.203 cumulative IPC: 2.4 (Simulation time: 00 hr 03 min 28 sec)
Heartbeat CPU 0 instructions: 58000352 cycles: 14225442 heartbeat IPC: 2.387 cumulative IPC: 2.4 (Simulation time: 00 hr 03 min 31 sec)
Heartbeat CPU 0 instructions: 58500356 cycles: 14427490 heartbeat IPC: 2.475 cumulative IPC: 2.404 (Simulation time: 00 hr 03 min 34 sec)
Heartbeat CPU 0 instructions: 59000360 cycles: 14628180 heartbeat IPC: 2.491 cumulative IPC: 2.409 (Simulation time: 00 hr 03 min 37 sec)
Heartbeat CPU 0 instructions: 59500362 cycles: 14833086 heartbeat IPC: 2.44 cumulative IPC: 2.41 (Simulation time: 00 hr 03 min 39 sec)
Heartbeat CPU 0 instructions: 60000366 cycles: 15035627 heartbeat IPC: 2.469 cumulative IPC: 2.413 (Simulation time: 00 hr 03 min 42 sec)
Heartbeat CPU 0 instructions: 60500370 cycles: 15240253 heartbeat IPC: 2.444 cumulative IPC: 2.414 (Simulation time: 00 hr 03 min 45 sec)
Heartbeat CPU 0 instructions: 61000372 cycles: 15443808 heartbeat IPC: 2.456 cumulative IPC: 2.416 (Simulation time: 00 hr 03 min 48 sec)
Heartbeat CPU 0 instructions: 61500375 cycles: 15646057 heartbeat IPC: 2.472 cumulative IPC: 2.419 (Simulation time: 00 hr 03 min 50 sec)
Heartbeat CPU 0 instructions: 62000380 cycles: 15848708 heartbeat IPC: 2.467 cumulative IPC: 2.421 (Simulation time: 00 hr 03 min 53 sec)
Heartbeat CPU 0 instructions: 62500384 cycles: 16049958 heartbeat IPC: 2.484 cumulative IPC: 2.423 (Simulation time: 00 hr 03 min 56 sec)
Heartbeat CPU 0 instructions: 63000385 cycles: 16252712 heartbeat IPC: 2.466 cumulative IPC: 2.425 (Simulation time: 00 hr 03 min 59 sec)
Heartbeat CPU 0 instructions: 63500388 cycles: 16456499 heartbeat IPC: 2.454 cumulative IPC: 2.426 (Simulation time: 00 hr 04 min 02 sec)
Heartbeat CPU 0 instructions: 64000394 cycles: 16660995 heartbeat IPC: 2.445 cumulative IPC: 2.427 (Simulation time: 00 hr 04 min 04 sec)
Heartbeat CPU 0 instructions: 64500395 cycles: 16867022 heartbeat IPC: 2.427 cumulative IPC: 2.427 (Simulation time: 00 hr 04 min 07 sec)
Heartbeat CPU 0 instructions: 65000395 cycles: 17071204 heartbeat IPC: 2.449 cumulative IPC: 2.427 (Simulation time: 00 hr 04 min 10 sec)
Heartbeat CPU 0 instructions: 65500399 cycles: 17275910 heartbeat IPC: 2.443 cumulative IPC: 2.428 (Simulation time: 00 hr 04 min 13 sec)
Heartbeat CPU 0 instructions: 66000401 cycles: 17478675 heartbeat IPC: 2.466 cumulative IPC: 2.429 (Simulation time: 00 hr 04 min 15 sec)
Heartbeat CPU 0 instructions: 66500405 cycles: 17684769 heartbeat IPC: 2.426 cumulative IPC: 2.429 (Simulation time: 00 hr 04 min 18 sec)
Heartbeat CPU 0 instructions: 67000409 cycles: 17890563 heartbeat IPC: 2.43 cumulative IPC: 2.429 (Simulation time: 00 hr 04 min 21 sec)
Heartbeat CPU 0 instructions: 67500413 cycles: 18095511 heartbeat IPC: 2.44 cumulative IPC: 2.429 (Simulation time: 00 hr 04 min 24 sec)
Heartbeat CPU 0 instructions: 68000417 cycles: 18300243 heartbeat IPC: 2.442 cumulative IPC: 2.43 (Simulation time: 00 hr 04 min 27 sec)
Heartbeat CPU 0 instructions: 68500419 cycles: 18504882 heartbeat IPC: 2.443 cumulative IPC: 2.43 (Simulation time: 00 hr 04 min 29 sec)
Heartbeat CPU 0 instructions: 69000423 cycles: 18711911 heartbeat IPC: 2.415 cumulative IPC: 2.43 (Simulation time: 00 hr 04 min 32 sec)
Heartbeat CPU 0 instructions: 69500427 cycles: 18915816 heartbeat IPC: 2.452 cumulative IPC: 2.43 (Simulation time: 00 hr 04 min 35 sec)
Heartbeat CPU 0 instructions: 70000430 cycles: 19120115 heartbeat IPC: 2.447 cumulative IPC: 2.431 (Simulation time: 00 hr 04 min 38 sec)
Heartbeat CPU 0 instructions: 70500430 cycles: 19324189 heartbeat IPC: 2.45 cumulative IPC: 2.431 (Simulation time: 00 hr 04 min 41 sec)
Heartbeat CPU 0 instructions: 71000430 cycles: 19531967 heartbeat IPC: 2.406 cumulative IPC: 2.43 (Simulation time: 00 hr 04 min 43 sec)
Heartbeat CPU 0 instructions: 71500434 cycles: 19735561 heartbeat IPC: 2.456 cumulative IPC: 2.431 (Simulation time: 00 hr 04 min 46 sec)
Heartbeat CPU 0 instructions: 72000435 cycles: 19942229 heartbeat IPC: 2.419 cumulative IPC: 2.431 (Simulation time: 00 hr 04 min 49 sec)
Heartbeat CPU 0 instructions: 72500439 cycles: 20159475 heartbeat IPC: 2.302 cumulative IPC: 2.428 (Simulation time: 00 hr 04 min 52 sec)
Heartbeat CPU 0 instructions: 73000445 cycles: 20381059 heartbeat IPC: 2.257 cumulative IPC: 2.424 (Simulation time: 00 hr 04 min 55 sec)
Heartbeat CPU 0 instructions: 73500446 cycles: 20589440 heartbeat IPC: 2.399 cumulative IPC: 2.423 (Simulation time: 00 hr 04 min 58 sec)
Heartbeat CPU 0 instructions: 74000446 cycles: 20801257 heartbeat IPC: 2.361 cumulative IPC: 2.422 (Simulation time: 00 hr 05 min 00 sec)
Heartbeat CPU 0 instructions: 74500448 cycles: 21003466 heartbeat IPC: 2.473 cumulative IPC: 2.423 (Simulation time: 00 hr 05 min 03 sec)
Heartbeat CPU 0 instructions: 75000449 cycles: 21219368 heartbeat IPC: 2.316 cumulative IPC: 2.421 (Simulation time: 00 hr 05 min 06 sec)
Heartbeat CPU 0 instructions: 75500454 cycles: 21417838 heartbeat IPC: 2.519 cumulative IPC: 2.422 (Simulation time: 00 hr 05 min 09 sec)
Heartbeat CPU 0 instructions: 76000458 cycles: 21631801 heartbeat IPC: 2.337 cumulative IPC: 2.421 (Simulation time: 00 hr 05 min 12 sec)
Heartbeat CPU 0 instructions: 76500459 cycles: 21853448 heartbeat IPC: 2.256 cumulative IPC: 2.417 (Simulation time: 00 hr 05 min 15 sec)
Heartbeat CPU 0 instructions: 77000463 cycles: 22080838 heartbeat IPC: 2.199 cumulative IPC: 2.413 (Simulation time: 00 hr 05 min 17 sec)
Heartbeat CPU 0 instructions: 77500468 cycles: 22299097 heartbeat IPC: 2.291 cumulative IPC: 2.411 (Simulation time: 00 hr 05 min 20 sec)
Heartbeat CPU 0 instructions: 78000474 cycles: 22515372 heartbeat IPC: 2.312 cumulative IPC: 2.409 (Simulation time: 00 hr 05 min 23 sec)
Heartbeat CPU 0 instructions: 78500480 cycles: 22732462 heartbeat IPC: 2.303 cumulative IPC: 2.407 (Simulation time: 00 hr 05 min 26 sec)
Heartbeat CPU 0 instructions: 79000481 cycles: 22928947 heartbeat IPC: 2.545 cumulative IPC: 2.409 (Simulation time: 00 hr 05 min 28 sec)
Heartbeat CPU 0 instructions: 79500483 cycles: 23137151 heartbeat IPC: 2.402 cumulative IPC: 2.409 (Simulation time: 00 hr 05 min 31 sec)
Heartbeat CPU 0 instructions: 80000484 cycles: 23335425 heartbeat IPC: 2.522 cumulative IPC: 2.411 (Simulation time: 00 hr 05 min 34 sec)
Heartbeat CPU 0 instructions: 80500485 cycles: 23548768 heartbeat IPC: 2.344 cumulative IPC: 2.41 (Simulation time: 00 hr 05 min 37 sec)
Heartbeat CPU 0 instructions: 81000490 cycles: 23745476 heartbeat IPC: 2.542 cumulative IPC: 2.412 (Simulation time: 00 hr 05 min 39 sec)
Heartbeat CPU 0 instructions: 81500490 cycles: 23949176 heartbeat IPC: 2.455 cumulative IPC: 2.412 (Simulation time: 00 hr 05 min 42 sec)
Heartbeat CPU 0 instructions: 82000491 cycles: 24152286 heartbeat IPC: 2.462 cumulative IPC: 2.413 (Simulation time: 00 hr 05 min 45 sec)
Heartbeat CPU 0 instructions: 82500492 cycles: 24365718 heartbeat IPC: 2.343 cumulative IPC: 2.412 (Simulation time: 00 hr 05 min 48 sec)
Heartbeat CPU 0 instructions: 83000494 cycles: 24561994 heartbeat IPC: 2.547 cumulative IPC: 2.414 (Simulation time: 00 hr 05 min 51 sec)
Heartbeat CPU 0 instructions: 83500500 cycles: 24766685 heartbeat IPC: 2.443 cumulative IPC: 2.414 (Simulation time: 00 hr 05 min 53 sec)
Heartbeat CPU 0 instructions: 84000506 cycles: 24972660 heartbeat IPC: 2.428 cumulative IPC: 2.415 (Simulation time: 00 hr 05 min 56 sec)
Heartbeat CPU 0 instructions: 84500510 cycles: 25186775 heartbeat IPC: 2.335 cumulative IPC: 2.413 (Simulation time: 00 hr 05 min 59 sec)
Heartbeat CPU 0 instructions: 85000513 cycles: 25426007 heartbeat IPC: 2.09 cumulative IPC: 2.408 (Simulation time: 00 hr 06 min 02 sec)
Heartbeat CPU 0 instructions: 85500516 cycles: 25655798 heartbeat IPC: 2.176 cumulative IPC: 2.404 (Simulation time: 00 hr 06 min 05 sec)
Heartbeat CPU 0 instructions: 86000520 cycles: 25870008 heartbeat IPC: 2.334 cumulative IPC: 2.403 (Simulation time: 00 hr 06 min 07 sec)
Heartbeat CPU 0 instructions: 86500524 cycles: 26072981 heartbeat IPC: 2.463 cumulative IPC: 2.404 (Simulation time: 00 hr 06 min 10 sec)
Heartbeat CPU 0 instructions: 87000526 cycles: 26277234 heartbeat IPC: 2.448 cumulative IPC: 2.405 (Simulation time: 00 hr 06 min 13 sec)
Heartbeat CPU 0 instructions: 87500530 cycles: 26481698 heartbeat IPC: 2.445 cumulative IPC: 2.405 (Simulation time: 00 hr 06 min 16 sec)
Heartbeat CPU 0 instructions: 88000534 cycles: 26685275 heartbeat IPC: 2.456 cumulative IPC: 2.406 (Simulation time: 00 hr 06 min 18 sec)
Heartbeat CPU 0 instructions: 88500538 cycles: 26890277 heartbeat IPC: 2.439 cumulative IPC: 2.406 (Simulation time: 00 hr 06 min 21 sec)
Heartbeat CPU 0 instructions: 89000539 cycles: 27097165 heartbeat IPC: 2.417 cumulative IPC: 2.407 (Simulation time: 00 hr 06 min 24 sec)
Heartbeat CPU 0 instructions: 89500539 cycles: 27300604 heartbeat IPC: 2.458 cumulative IPC: 2.407 (Simulation time: 00 hr 06 min 27 sec)
Heartbeat CPU 0 instructions: 90000540 cycles: 27505767 heartbeat IPC: 2.437 cumulative IPC: 2.408 (Simulation time: 00 hr 06 min 29 sec)
Heartbeat CPU 0 instructions: 90500545 cycles: 27715791 heartbeat IPC: 2.381 cumulative IPC: 2.407 (Simulation time: 00 hr 06 min 32 sec)
Heartbeat CPU 0 instructions: 91000549 cycles: 27919828 heartbeat IPC: 2.451 cumulative IPC: 2.408 (Simulation time: 00 hr 06 min 35 sec)
Heartbeat CPU 0 instructions: 91500553 cycles: 28128779 heartbeat IPC: 2.393 cumulative IPC: 2.408 (Simulation time: 00 hr 06 min 38 sec)
Heartbeat CPU 0 instructions: 92000555 cycles: 28335827 heartbeat IPC: 2.415 cumulative IPC: 2.408 (Simulation time: 00 hr 06 min 40 sec)
Heartbeat CPU 0 instructions: 92500559 cycles: 28544947 heartbeat IPC: 2.391 cumulative IPC: 2.407 (Simulation time: 00 hr 06 min 43 sec)
Heartbeat CPU 0 instructions: 93000563 cycles: 28749560 heartbeat IPC: 2.444 cumulative IPC: 2.408 (Simulation time: 00 hr 06 min 46 sec)
Heartbeat CPU 0 instructions: 93500568 cycles: 28956818 heartbeat IPC: 2.412 cumulative IPC: 2.408 (Simulation time: 00 hr 06 min 49 sec)
Heartbeat CPU 0 instructions: 94000569 cycles: 29160990 heartbeat IPC: 2.449 cumulative IPC: 2.408 (Simulation time: 00 hr 06 min 52 sec)
Heartbeat CPU 0 instructions: 94500573 cycles: 29365284 heartbeat IPC: 2.447 cumulative IPC: 2.409 (Simulation time: 00 hr 06 min 54 sec)
Heartbeat CPU 0 instructions: 95000577 cycles: 29577818 heartbeat IPC: 2.353 cumulative IPC: 2.408 (Simulation time: 00 hr 06 min 57 sec)
Heartbeat CPU 0 instructions: 95500581 cycles: 29784070 heartbeat IPC: 2.424 cumulative IPC: 2.408 (Simulation time: 00 hr 07 min 00 sec)
Heartbeat CPU 0 instructions: 96000584 cycles: 29992219 heartbeat IPC: 2.402 cumulative IPC: 2.408 (Simulation time: 00 hr 07 min 03 sec)
Heartbeat CPU 0 instructions: 96500587 cycles: 30200618 heartbeat IPC: 2.399 cumulative IPC: 2.408 (Simulation time: 00 hr 07 min 05 sec)
Heartbeat CPU 0 instructions: 97000591 cycles: 30408850 heartbeat IPC: 2.401 cumulative IPC: 2.408 (Simulation time: 00 hr 07 min 08 sec)
Heartbeat CPU 0 instructions: 97500595 cycles: 30615977 heartbeat IPC: 2.414 cumulative IPC: 2.408 (Simulation time: 00 hr 07 min 11 sec)
Heartbeat CPU 0 instructions: 98000597 cycles: 30823430 heartbeat IPC: 2.41 cumulative IPC: 2.408 (Simulation time: 00 hr 07 min 14 sec)
Heartbeat CPU 0 instructions: 98500601 cycles: 31028559 heartbeat IPC: 2.438 cumulative IPC: 2.409 (Simulation time: 00 hr 07 min 17 sec)
Heartbeat CPU 0 instructions: 99000605 cycles: 31240588 heartbeat IPC: 2.358 cumulative IPC: 2.408 (Simulation time: 00 hr 07 min 19 sec)
Heartbeat CPU 0 instructions: 99500609 cycles: 31447713 heartbeat IPC: 2.414 cumulative IPC: 2.408 (Simulation time: 00 hr 07 min 22 sec)
Heartbeat CPU 0 instructions: 100000613 cycles: 31655319 heartbeat IPC: 2.408 cumulative IPC: 2.408 (Simulation time: 00 hr 07 min 25 sec)
Heartbeat CPU 0 instructions: 100500615 cycles: 31869150 heartbeat IPC: 2.338 cumulative IPC: 2.407 (Simulation time: 00 hr 07 min 28 sec)
Heartbeat CPU 0 instructions: 101000618 cycles: 32085587 heartbeat IPC: 2.31 cumulative IPC: 2.406 (Simulation time: 00 hr 07 min 31 sec)
Heartbeat CPU 0 instructions: 101500625 cycles: 32293590 heartbeat IPC: 2.404 cumulative IPC: 2.406 (Simulation time: 00 hr 07 min 33 sec)
Heartbeat CPU 0 instructions: 102000627 cycles: 32505642 heartbeat IPC: 2.358 cumulative IPC: 2.406 (Simulation time: 00 hr 07 min 36 sec)
Heartbeat CPU 0 instructions: 102500628 cycles: 32707115 heartbeat IPC: 2.482 cumulative IPC: 2.407 (Simulation time: 00 hr 07 min 39 sec)
Heartbeat CPU 0 instructions: 103000631 cycles: 32918090 heartbeat IPC: 2.37 cumulative IPC: 2.406 (Simulation time: 00 hr 07 min 42 sec)
Heartbeat CPU 0 instructions: 103500636 cycles: 33118186 heartbeat IPC: 2.499 cumulative IPC: 2.407 (Simulation time: 00 hr 07 min 45 sec)
Heartbeat CPU 0 instructions: 104000642 cycles: 33334318 heartbeat IPC: 2.313 cumulative IPC: 2.406 (Simulation time: 00 hr 07 min 48 sec)
Heartbeat CPU 0 instructions: 104500642 cycles: 33553605 heartbeat IPC: 2.28 cumulative IPC: 2.405 (Simulation time: 00 hr 07 min 50 sec)
Heartbeat CPU 0 instructions: 105000644 cycles: 33781517 heartbeat IPC: 2.194 cumulative IPC: 2.403 (Simulation time: 00 hr 07 min 53 sec)
Heartbeat CPU 0 instructions: 105500649 cycles: 34002024 heartbeat IPC: 2.268 cumulative IPC: 2.402 (Simulation time: 00 hr 07 min 56 sec)
Heartbeat CPU 0 instructions: 106000650 cycles: 34220552 heartbeat IPC: 2.288 cumulative IPC: 2.4 (Simulation time: 00 hr 07 min 59 sec)
Heartbeat CPU 0 instructions: 106500653 cycles: 34433113 heartbeat IPC: 2.352 cumulative IPC: 2.4 (Simulation time: 00 hr 08 min 02 sec)
Heartbeat CPU 0 instructions: 107000657 cycles: 34638191 heartbeat IPC: 2.438 cumulative IPC: 2.4 (Simulation time: 00 hr 08 min 04 sec)
Heartbeat CPU 0 instructions: 107500657 cycles: 34843658 heartbeat IPC: 2.433 cumulative IPC: 2.401 (Simulation time: 00 hr 08 min 07 sec)
Heartbeat CPU 0 instructions: 108000657 cycles: 35041678 heartbeat IPC: 2.525 cumulative IPC: 2.402 (Simulation time: 00 hr 08 min 10 sec)
Heartbeat CPU 0 instructions: 108500657 cycles: 35256916 heartbeat IPC: 2.323 cumulative IPC: 2.401 (Simulation time: 00 hr 08 min 13 sec)
Heartbeat CPU 0 instructions: 109000658 cycles: 35458856 heartbeat IPC: 2.476 cumulative IPC: 2.402 (Simulation time: 00 hr 08 min 15 sec)
Heartbeat CPU 0 instructions: 109500661 cycles: 35662659 heartbeat IPC: 2.453 cumulative IPC: 2.402 (Simulation time: 00 hr 08 min 18 sec)
Heartbeat CPU 0 instructions: 110000662 cycles: 35864006 heartbeat IPC: 2.483 cumulative IPC: 2.403 (Simulation time: 00 hr 08 min 21 sec)
Heartbeat CPU 0 instructions: 110500664 cycles: 36076006 heartbeat IPC: 2.358 cumulative IPC: 2.402 (Simulation time: 00 hr 08 min 24 sec)
Heartbeat CPU 0 instructions: 111000664 cycles: 36273055 heartbeat IPC: 2.537 cumulative IPC: 2.403 (Simulation time: 00 hr 08 min 26 sec)
Heartbeat CPU 0 instructions: 111500670 cycles: 36479123 heartbeat IPC: 2.426 cumulative IPC: 2.404 (Simulation time: 00 hr 08 min 29 sec)
Heartbeat CPU 0 instructions: 112000672 cycles: 36681136 heartbeat IPC: 2.475 cumulative IPC: 2.404 (Simulation time: 00 hr 08 min 32 sec)
Heartbeat CPU 0 instructions: 112500676 cycles: 36888548 heartbeat IPC: 2.411 cumulative IPC: 2.404 (Simulation time: 00 hr 08 min 35 sec)
Heartbeat CPU 0 instructions: 113000680 cycles: 37127615 heartbeat IPC: 2.091 cumulative IPC: 2.401 (Simulation time: 00 hr 08 min 38 sec)
Heartbeat CPU 0 instructions: 113500682 cycles: 37358415 heartbeat IPC: 2.166 cumulative IPC: 2.399 (Simulation time: 00 hr 08 min 40 sec)
Heartbeat CPU 0 instructions: 114000686 cycles: 37574140 heartbeat IPC: 2.318 cumulative IPC: 2.399 (Simulation time: 00 hr 08 min 43 sec)
Heartbeat CPU 0 instructions: 114500690 cycles: 37779931 heartbeat IPC: 2.43 cumulative IPC: 2.399 (Simulation time: 00 hr 08 min 46 sec)
Heartbeat CPU 0 instructions: 115000691 cycles: 37984128 heartbeat IPC: 2.449 cumulative IPC: 2.399 (Simulation time: 00 hr 08 min 49 sec)
Heartbeat CPU 0 instructions: 115500691 cycles: 38190702 heartbeat IPC: 2.42 cumulative IPC: 2.399 (Simulation time: 00 hr 08 min 51 sec)
Heartbeat CPU 0 instructions: 116000692 cycles: 38397136 heartbeat IPC: 2.422 cumulative IPC: 2.4 (Simulation time: 00 hr 08 min 54 sec)
Heartbeat CPU 0 instructions: 116500697 cycles: 38605254 heartbeat IPC: 2.403 cumulative IPC: 2.4 (Simulation time: 00 hr 08 min 57 sec)
Heartbeat CPU 0 instructions: 117000701 cycles: 38812640 heartbeat IPC: 2.411 cumulative IPC: 2.4 (Simulation time: 00 hr 09 min 00 sec)
Heartbeat CPU 0 instructions: 117500707 cycles: 39021862 heartbeat IPC: 2.39 cumulative IPC: 2.4 (Simulation time: 00 hr 09 min 03 sec)
Heartbeat CPU 0 instructions: 118000707 cycles: 39228943 heartbeat IPC: 2.415 cumulative IPC: 2.4 (Simulation time: 00 hr 09 min 05 sec)
Heartbeat CPU 0 instructions: 118500711 cycles: 39436201 heartbeat IPC: 2.412 cumulative IPC: 2.4 (Simulation time: 00 hr 09 min 08 sec)
Heartbeat CPU 0 instructions: 119000715 cycles: 39645306 heartbeat IPC: 2.391 cumulative IPC: 2.4 (Simulation time: 00 hr 09 min 11 sec)
Heartbeat CPU 0 instructions: 119500720 cycles: 39856300 heartbeat IPC: 2.37 cumulative IPC: 2.399 (Simulation time: 00 hr 09 min 14 sec)
Heartbeat CPU 0 instructions: 120000721 cycles: 40061317 heartbeat IPC: 2.439 cumulative IPC: 2.4 (Simulation time: 00 hr 09 min 16 sec)
Heartbeat CPU 0 instructions: 120500725 cycles: 40268223 heartbeat IPC: 2.417 cumulative IPC: 2.4 (Simulation time: 00 hr 09 min 19 sec)
Heartbeat CPU 0 instructions: 121000729 cycles: 40478030 heartbeat IPC: 2.383 cumulative IPC: 2.4 (Simulation time: 00 hr 09 min 22 sec)
Heartbeat CPU 0 instructions: 121500733 cycles: 40684932 heartbeat IPC: 2.417 cumulative IPC: 2.4 (Simulation time: 00 hr 09 min 25 sec)
Heartbeat CPU 0 instructions: 122000736 cycles: 40888902 heartbeat IPC: 2.451 cumulative IPC: 2.4 (Simulation time: 00 hr 09 min 28 sec)
Heartbeat CPU 0 instructions: 122500739 cycles: 41094854 heartbeat IPC: 2.428 cumulative IPC: 2.4 (Simulation time: 00 hr 09 min 30 sec)
Heartbeat CPU 0 instructions: 123000743 cycles: 41303145 heartbeat IPC: 2.401 cumulative IPC: 2.4 (Simulation time: 00 hr 09 min 33 sec)
Heartbeat CPU 0 instructions: 123500747 cycles: 41512467 heartbeat IPC: 2.389 cumulative IPC: 2.4 (Simulation time: 00 hr 09 min 36 sec)
Heartbeat CPU 0 instructions: 124000749 cycles: 41718753 heartbeat IPC: 2.424 cumulative IPC: 2.4 (Simulation time: 00 hr 09 min 39 sec)
Heartbeat CPU 0 instructions: 124500753 cycles: 41924715 heartbeat IPC: 2.428 cumulative IPC: 2.401 (Simulation time: 00 hr 09 min 42 sec)
Heartbeat CPU 0 instructions: 125000757 cycles: 42132980 heartbeat IPC: 2.401 cumulative IPC: 2.401 (Simulation time: 00 hr 09 min 44 sec)
Heartbeat CPU 0 instructions: 125500761 cycles: 42341614 heartbeat IPC: 2.397 cumulative IPC: 2.401 (Simulation time: 00 hr 09 min 47 sec)
Heartbeat CPU 0 instructions: 126000765 cycles: 42548962 heartbeat IPC: 2.411 cumulative IPC: 2.401 (Simulation time: 00 hr 09 min 50 sec)
Heartbeat CPU 0 instructions: 126500765 cycles: 42757268 heartbeat IPC: 2.4 cumulative IPC: 2.401 (Simulation time: 00 hr 09 min 53 sec)
Heartbeat CPU 0 instructions: 127000771 cycles: 42967793 heartbeat IPC: 2.375 cumulative IPC: 2.401 (Simulation time: 00 hr 09 min 56 sec)
Heartbeat CPU 0 instructions: 127500772 cycles: 43178611 heartbeat IPC: 2.372 cumulative IPC: 2.4 (Simulation time: 00 hr 09 min 58 sec)
Heartbeat CPU 0 instructions: 128000772 cycles: 43387771 heartbeat IPC: 2.391 cumulative IPC: 2.4 (Simulation time: 00 hr 10 min 01 sec)
Heartbeat CPU 0 instructions: 128500772 cycles: 43605216 heartbeat IPC: 2.299 cumulative IPC: 2.4 (Simulation time: 00 hr 10 min 04 sec)
Heartbeat CPU 0 instructions: 129000774 cycles: 43824933 heartbeat IPC: 2.276 cumulative IPC: 2.399 (Simulation time: 00 hr 10 min 07 sec)
Heartbeat CPU 0 instructions: 129500775 cycles: 44037572 heartbeat IPC: 2.351 cumulative IPC: 2.398 (Simulation time: 00 hr 10 min 10 sec)
Heartbeat CPU 0 instructions: 130000779 cycles: 44253391 heartbeat IPC: 2.317 cumulative IPC: 2.398 (Simulation time: 00 hr 10 min 13 sec)
Heartbeat CPU 0 instructions: 130500783 cycles: 44454378 heartbeat IPC: 2.488 cumulative IPC: 2.398 (Simulation time: 00 hr 10 min 16 sec)
Heartbeat CPU 0 instructions: 131000786 cycles: 44666393 heartbeat IPC: 2.358 cumulative IPC: 2.398 (Simulation time: 00 hr 10 min 18 sec)
Heartbeat CPU 0 instructions: 131500792 cycles: 44863105 heartbeat IPC: 2.542 cumulative IPC: 2.399 (Simulation time: 00 hr 10 min 21 sec)
Heartbeat CPU 0 instructions: 132000793 cycles: 45077504 heartbeat IPC: 2.332 cumulative IPC: 2.399 (Simulation time: 00 hr 10 min 24 sec)
Heartbeat CPU 0 instructions: 132500796 cycles: 45295531 heartbeat IPC: 2.293 cumulative IPC: 2.398 (Simulation time: 00 hr 10 min 27 sec)
Heartbeat CPU 0 instructions: 133000798 cycles: 45511908 heartbeat IPC: 2.311 cumulative IPC: 2.397 (Simulation time: 00 hr 10 min 30 sec)
Heartbeat CPU 0 instructions: 133500803 cycles: 45706661 heartbeat IPC: 2.567 cumulative IPC: 2.398 (Simulation time: 00 hr 10 min 32 sec)
Heartbeat CPU 0 instructions: 134000804 cycles: 45906246 heartbeat IPC: 2.505 cumulative IPC: 2.399 (Simulation time: 00 hr 10 min 35 sec)
Heartbeat CPU 0 instructions: 134500808 cycles: 46099981 heartbeat IPC: 2.581 cumulative IPC: 2.4 (Simulation time: 00 hr 10 min 38 sec)
Heartbeat CPU 0 instructions: 135000812 cycles: 46316300 heartbeat IPC: 2.311 cumulative IPC: 2.399 (Simulation time: 00 hr 10 min 40 sec)
Heartbeat CPU 0 instructions: 135500817 cycles: 46520427 heartbeat IPC: 2.449 cumulative IPC: 2.4 (Simulation time: 00 hr 10 min 43 sec)
Heartbeat CPU 0 instructions: 136000822 cycles: 46727414 heartbeat IPC: 2.416 cumulative IPC: 2.4 (Simulation time: 00 hr 10 min 46 sec)
Heartbeat CPU 0 instructions: 136500825 cycles: 46943631 heartbeat IPC: 2.313 cumulative IPC: 2.399 (Simulation time: 00 hr 10 min 49 sec)
Heartbeat CPU 0 instructions: 137000830 cycles: 47147866 heartbeat IPC: 2.448 cumulative IPC: 2.4 (Simulation time: 00 hr 10 min 51 sec)
Heartbeat CPU 0 instructions: 137500830 cycles: 47357434 heartbeat IPC: 2.386 cumulative IPC: 2.4 (Simulation time: 00 hr 10 min 54 sec)
Heartbeat CPU 0 instructions: 138000833 cycles: 47556328 heartbeat IPC: 2.514 cumulative IPC: 2.4 (Simulation time: 00 hr 10 min 57 sec)
Heartbeat CPU 0 instructions: 138500834 cycles: 47772382 heartbeat IPC: 2.314 cumulative IPC: 2.4 (Simulation time: 00 hr 11 min 00 sec)
Heartbeat CPU 0 instructions: 139000839 cycles: 47977411 heartbeat IPC: 2.439 cumulative IPC: 2.4 (Simulation time: 00 hr 11 min 03 sec)
Heartbeat CPU 0 instructions: 139500841 cycles: 48186161 heartbeat IPC: 2.395 cumulative IPC: 2.4 (Simulation time: 00 hr 11 min 06 sec)
Heartbeat CPU 0 instructions: 140000841 cycles: 48388575 heartbeat IPC: 2.47 cumulative IPC: 2.4 (Simulation time: 00 hr 11 min 08 sec)
Heartbeat CPU 0 instructions: 140500845 cycles: 48591454 heartbeat IPC: 2.465 cumulative IPC: 2.401 (Simulation time: 00 hr 11 min 11 sec)
Heartbeat CPU 0 instructions: 141000849 cycles: 48833245 heartbeat IPC: 2.068 cumulative IPC: 2.398 (Simulation time: 00 hr 11 min 14 sec)
Heartbeat CPU 0 instructions: 141500853 cycles: 49068514 heartbeat IPC: 2.125 cumulative IPC: 2.397 (Simulation time: 00 hr 11 min 17 sec)
Heartbeat CPU 0 instructions: 142000855 cycles: 49288796 heartbeat IPC: 2.27 cumulative IPC: 2.396 (Simulation time: 00 hr 11 min 20 sec)
Heartbeat CPU 0 instructions: 142500859 cycles: 49494798 heartbeat IPC: 2.427 cumulative IPC: 2.396 (Simulation time: 00 hr 11 min 22 sec)
Heartbeat CPU 0 instructions: 143000863 cycles: 49698155 heartbeat IPC: 2.459 cumulative IPC: 2.397 (Simulation time: 00 hr 11 min 25 sec)
Heartbeat CPU 0 instructions: 143500867 cycles: 49906069 heartbeat IPC: 2.405 cumulative IPC: 2.397 (Simulation time: 00 hr 11 min 28 sec)
Heartbeat CPU 0 instructions: 144000869 cycles: 50113267 heartbeat IPC: 2.413 cumulative IPC: 2.397 (Simulation time: 00 hr 11 min 31 sec)
Heartbeat CPU 0 instructions: 144500873 cycles: 50322157 heartbeat IPC: 2.394 cumulative IPC: 2.397 (Simulation time: 00 hr 11 min 33 sec)
Heartbeat CPU 0 instructions: 145000877 cycles: 50531233 heartbeat IPC: 2.391 cumulative IPC: 2.397 (Simulation time: 00 hr 11 min 36 sec)
Heartbeat CPU 0 instructions: 145500881 cycles: 50738555 heartbeat IPC: 2.412 cumulative IPC: 2.397 (Simulation time: 00 hr 11 min 39 sec)
Heartbeat CPU 0 instructions: 146000882 cycles: 50947970 heartbeat IPC: 2.388 cumulative IPC: 2.397 (Simulation time: 00 hr 11 min 42 sec)
Heartbeat CPU 0 instructions: 146500887 cycles: 51158464 heartbeat IPC: 2.375 cumulative IPC: 2.397 (Simulation time: 00 hr 11 min 44 sec)
Heartbeat CPU 0 instructions: 147000891 cycles: 51368650 heartbeat IPC: 2.379 cumulative IPC: 2.396 (Simulation time: 00 hr 11 min 47 sec)
Heartbeat CPU 0 instructions: 147500895 cycles: 51579412 heartbeat IPC: 2.372 cumulative IPC: 2.396 (Simulation time: 00 hr 11 min 50 sec)
Heartbeat CPU 0 instructions: 148000895 cycles: 51793662 heartbeat IPC: 2.334 cumulative IPC: 2.396 (Simulation time: 00 hr 11 min 53 sec)
Heartbeat CPU 0 instructions: 148500897 cycles: 52002810 heartbeat IPC: 2.391 cumulative IPC: 2.396 (Simulation time: 00 hr 11 min 56 sec)
Heartbeat CPU 0 instructions: 149000898 cycles: 52212388 heartbeat IPC: 2.386 cumulative IPC: 2.396 (Simulation time: 00 hr 11 min 59 sec)
Heartbeat CPU 0 instructions: 149500902 cycles: 52424776 heartbeat IPC: 2.354 cumulative IPC: 2.396 (Simulation time: 00 hr 12 min 01 sec)
Heartbeat CPU 0 instructions: 150000906 cycles: 52633388 heartbeat IPC: 2.397 cumulative IPC: 2.396 (Simulation time: 00 hr 12 min 04 sec)
Heartbeat CPU 0 instructions: 150500911 cycles: 52838888 heartbeat IPC: 2.433 cumulative IPC: 2.396 (Simulation time: 00 hr 12 min 07 sec)
Heartbeat CPU 0 instructions: 151000912 cycles: 53047161 heartbeat IPC: 2.401 cumulative IPC: 2.396 (Simulation time: 00 hr 12 min 10 sec)
Heartbeat CPU 0 instructions: 151500916 cycles: 53256964 heartbeat IPC: 2.383 cumulative IPC: 2.396 (Simulation time: 00 hr 12 min 13 sec)
Heartbeat CPU 0 instructions: 152000917 cycles: 53463245 heartbeat IPC: 2.424 cumulative IPC: 2.396 (Simulation time: 00 hr 12 min 15 sec)
Heartbeat CPU 0 instructions: 152500917 cycles: 53669835 heartbeat IPC: 2.42 cumulative IPC: 2.396 (Simulation time: 00 hr 12 min 18 sec)
Heartbeat CPU 0 instructions: 153000918 cycles: 53877165 heartbeat IPC: 2.412 cumulative IPC: 2.396 (Simulation time: 00 hr 12 min 21 sec)
Heartbeat CPU 0 instructions: 153500923 cycles: 54087031 heartbeat IPC: 2.382 cumulative IPC: 2.396 (Simulation time: 00 hr 12 min 24 sec)
Heartbeat CPU 0 instructions: 154000926 cycles: 54296442 heartbeat IPC: 2.388 cumulative IPC: 2.396 (Simulation time: 00 hr 12 min 27 sec)
Heartbeat CPU 0 instructions: 154500931 cycles: 54503449 heartbeat IPC: 2.415 cumulative IPC: 2.396 (Simulation time: 00 hr 12 min 29 sec)
Heartbeat CPU 0 instructions: 155000932 cycles: 54716261 heartbeat IPC: 2.349 cumulative IPC: 2.396 (Simulation time: 00 hr 12 min 32 sec)
Heartbeat CPU 0 instructions: 155500937 cycles: 54924588 heartbeat IPC: 2.4 cumulative IPC: 2.396 (Simulation time: 00 hr 12 min 35 sec)
Heartbeat CPU 0 instructions: 156000941 cycles: 55134056 heartbeat IPC: 2.387 cumulative IPC: 2.396 (Simulation time: 00 hr 12 min 38 sec)
Heartbeat CPU 0 instructions: 156500945 cycles: 55342554 heartbeat IPC: 2.398 cumulative IPC: 2.396 (Simulation time: 00 hr 12 min 41 sec)
Heartbeat CPU 0 instructions: 157000945 cycles: 55561502 heartbeat IPC: 2.284 cumulative IPC: 2.395 (Simulation time: 00 hr 12 min 44 sec)
Heartbeat CPU 0 instructions: 157500950 cycles: 55782218 heartbeat IPC: 2.265 cumulative IPC: 2.395 (Simulation time: 00 hr 12 min 46 sec)
Heartbeat CPU 0 instructions: 158000955 cycles: 55991690 heartbeat IPC: 2.387 cumulative IPC: 2.395 (Simulation time: 00 hr 12 min 49 sec)
Heartbeat CPU 0 instructions: 158500958 cycles: 56199122 heartbeat IPC: 2.41 cumulative IPC: 2.395 (Simulation time: 00 hr 12 min 52 sec)
Heartbeat CPU 0 instructions: 159000963 cycles: 56411743 heartbeat IPC: 2.352 cumulative IPC: 2.395 (Simulation time: 00 hr 12 min 55 sec)
Heartbeat CPU 0 instructions: 159500967 cycles: 56621466 heartbeat IPC: 2.384 cumulative IPC: 2.395 (Simulation time: 00 hr 12 min 58 sec)
Heartbeat CPU 0 instructions: 160000969 cycles: 56840407 heartbeat IPC: 2.284 cumulative IPC: 2.394 (Simulation time: 00 hr 13 min 01 sec)
Heartbeat CPU 0 instructions: 160500972 cycles: 57055672 heartbeat IPC: 2.323 cumulative IPC: 2.394 (Simulation time: 00 hr 13 min 04 sec)
Heartbeat CPU 0 instructions: 161000975 cycles: 57273635 heartbeat IPC: 2.294 cumulative IPC: 2.393 (Simulation time: 00 hr 13 min 07 sec)
Heartbeat CPU 0 instructions: 161500979 cycles: 57466961 heartbeat IPC: 2.586 cumulative IPC: 2.394 (Simulation time: 00 hr 13 min 09 sec)
Heartbeat CPU 0 instructions: 162000981 cycles: 57666098 heartbeat IPC: 2.511 cumulative IPC: 2.394 (Simulation time: 00 hr 13 min 12 sec)
Heartbeat CPU 0 instructions: 162500984 cycles: 57860393 heartbeat IPC: 2.573 cumulative IPC: 2.395 (Simulation time: 00 hr 13 min 14 sec)
Heartbeat CPU 0 instructions: 163000989 cycles: 58075325 heartbeat IPC: 2.326 cumulative IPC: 2.395 (Simulation time: 00 hr 13 min 17 sec)
Heartbeat CPU 0 instructions: 163500994 cycles: 58279498 heartbeat IPC: 2.449 cumulative IPC: 2.395 (Simulation time: 00 hr 13 min 20 sec)
Heartbeat CPU 0 instructions: 164000997 cycles: 58484717 heartbeat IPC: 2.436 cumulative IPC: 2.395 (Simulation time: 00 hr 13 min 23 sec)
Heartbeat CPU 0 instructions: 164500998 cycles: 58698693 heartbeat IPC: 2.337 cumulative IPC: 2.395 (Simulation time: 00 hr 13 min 26 sec)
Heartbeat CPU 0 instructions: 165001001 cycles: 58901388 heartbeat IPC: 2.467 cumulative IPC: 2.395 (Simulation time: 00 hr 13 min 28 sec)
Heartbeat CPU 0 instructions: 165501001 cycles: 59112764 heartbeat IPC: 2.365 cumulative IPC: 2.395 (Simulation time: 00 hr 13 min 31 sec)
Heartbeat CPU 0 instructions: 166001003 cycles: 59313145 heartbeat IPC: 2.495 cumulative IPC: 2.396 (Simulation time: 00 hr 13 min 34 sec)
Heartbeat CPU 0 instructions: 166501008 cycles: 59531242 heartbeat IPC: 2.293 cumulative IPC: 2.395 (Simulation time: 00 hr 13 min 37 sec)
Heartbeat CPU 0 instructions: 167001015 cycles: 59735872 heartbeat IPC: 2.443 cumulative IPC: 2.395 (Simulation time: 00 hr 13 min 40 sec)
Heartbeat CPU 0 instructions: 167501021 cycles: 59946399 heartbeat IPC: 2.375 cumulative IPC: 2.395 (Simulation time: 00 hr 13 min 43 sec)
Heartbeat CPU 0 instructions: 168001024 cycles: 60147289 heartbeat IPC: 2.489 cumulative IPC: 2.396 (Simulation time: 00 hr 13 min 45 sec)
Heartbeat CPU 0 instructions: 168501024 cycles: 60351062 heartbeat IPC: 2.454 cumulative IPC: 2.396 (Simulation time: 00 hr 13 min 48 sec)
Heartbeat CPU 0 instructions: 169001026 cycles: 60589760 heartbeat IPC: 2.095 cumulative IPC: 2.394 (Simulation time: 00 hr 13 min 51 sec)
Heartbeat CPU 0 instructions: 169501030 cycles: 60826650 heartbeat IPC: 2.111 cumulative IPC: 2.393 (Simulation time: 00 hr 13 min 54 sec)
Heartbeat CPU 0 instructions: 170001034 cycles: 61047978 heartbeat IPC: 2.259 cumulative IPC: 2.393 (Simulation time: 00 hr 13 min 57 sec)
Heartbeat CPU 0 instructions: 170501038 cycles: 61256715 heartbeat IPC: 2.395 cumulative IPC: 2.393 (Simulation time: 00 hr 13 min 59 sec)
Heartbeat CPU 0 instructions: 171001043 cycles: 61462328 heartbeat IPC: 2.432 cumulative IPC: 2.393 (Simulation time: 00 hr 14 min 02 sec)
Heartbeat CPU 0 instructions: 171501044 cycles: 61669343 heartbeat IPC: 2.415 cumulative IPC: 2.393 (Simulation time: 00 hr 14 min 05 sec)
Heartbeat CPU 0 instructions: 172001048 cycles: 61875196 heartbeat IPC: 2.429 cumulative IPC: 2.393 (Simulation time: 00 hr 14 min 08 sec)
Heartbeat CPU 0 instructions: 172501052 cycles: 62085541 heartbeat IPC: 2.377 cumulative IPC: 2.393 (Simulation time: 00 hr 14 min 10 sec)
Heartbeat CPU 0 instructions: 173001056 cycles: 62295118 heartbeat IPC: 2.386 cumulative IPC: 2.393 (Simulation time: 00 hr 14 min 13 sec)
Heartbeat CPU 0 instructions: 173501058 cycles: 62499705 heartbeat IPC: 2.444 cumulative IPC: 2.393 (Simulation time: 00 hr 14 min 16 sec)
Heartbeat CPU 0 instructions: 174001062 cycles: 62707609 heartbeat IPC: 2.405 cumulative IPC: 2.393 (Simulation time: 00 hr 14 min 19 sec)
Heartbeat CPU 0 instructions: 174501066 cycles: 62914070 heartbeat IPC: 2.422 cumulative IPC: 2.393 (Simulation time: 00 hr 14 min 22 sec)
Heartbeat CPU 0 instructions: 175001070 cycles: 63121603 heartbeat IPC: 2.409 cumulative IPC: 2.393 (Simulation time: 00 hr 14 min 24 sec)
Heartbeat CPU 0 instructions: 175501072 cycles: 63333195 heartbeat IPC: 2.363 cumulative IPC: 2.393 (Simulation time: 00 hr 14 min 27 sec)
Heartbeat CPU 0 instructions: 176001076 cycles: 63547530 heartbeat IPC: 2.333 cumulative IPC: 2.393 (Simulation time: 00 hr 14 min 30 sec)
Heartbeat CPU 0 instructions: 176501080 cycles: 63761568 heartbeat IPC: 2.336 cumulative IPC: 2.393 (Simulation time: 00 hr 14 min 33 sec)
Heartbeat CPU 0 instructions: 177001084 cycles: 63974069 heartbeat IPC: 2.353 cumulative IPC: 2.393 (Simulation time: 00 hr 14 min 36 sec)
Heartbeat CPU 0 instructions: 177501085 cycles: 64185069 heartbeat IPC: 2.37 cumulative IPC: 2.392 (Simulation time: 00 hr 14 min 39 sec)
Heartbeat CPU 0 instructions: 178001090 cycles: 64393068 heartbeat IPC: 2.404 cumulative IPC: 2.392 (Simulation time: 00 hr 14 min 42 sec)
Heartbeat CPU 0 instructions: 178501094 cycles: 64600398 heartbeat IPC: 2.412 cumulative IPC: 2.393 (Simulation time: 00 hr 14 min 44 sec)
Heartbeat CPU 0 instructions: 179001098 cycles: 64809863 heartbeat IPC: 2.387 cumulative IPC: 2.393 (Simulation time: 00 hr 14 min 47 sec)
Heartbeat CPU 0 instructions: 179501102 cycles: 65017570 heartbeat IPC: 2.407 cumulative IPC: 2.393 (Simulation time: 00 hr 14 min 50 sec)
Heartbeat CPU 0 instructions: 180001102 cycles: 65227312 heartbeat IPC: 2.384 cumulative IPC: 2.393 (Simulation time: 00 hr 14 min 53 sec)
Heartbeat CPU 0 instructions: 180501108 cycles: 65435012 heartbeat IPC: 2.407 cumulative IPC: 2.393 (Simulation time: 00 hr 14 min 56 sec)
Heartbeat CPU 0 instructions: 181001112 cycles: 65646309 heartbeat IPC: 2.366 cumulative IPC: 2.392 (Simulation time: 00 hr 14 min 58 sec)
Heartbeat CPU 0 instructions: 181501116 cycles: 65853832 heartbeat IPC: 2.409 cumulative IPC: 2.393 (Simulation time: 00 hr 15 min 01 sec)
Heartbeat CPU 0 instructions: 182001120 cycles: 66061043 heartbeat IPC: 2.413 cumulative IPC: 2.393 (Simulation time: 00 hr 15 min 04 sec)
Heartbeat CPU 0 instructions: 182501122 cycles: 66266009 heartbeat IPC: 2.439 cumulative IPC: 2.393 (Simulation time: 00 hr 15 min 07 sec)
Heartbeat CPU 0 instructions: 183001126 cycles: 66478367 heartbeat IPC: 2.355 cumulative IPC: 2.393 (Simulation time: 00 hr 15 min 10 sec)
Heartbeat CPU 0 instructions: 183501130 cycles: 66691538 heartbeat IPC: 2.346 cumulative IPC: 2.392 (Simulation time: 00 hr 15 min 13 sec)
Heartbeat CPU 0 instructions: 184001134 cycles: 66901138 heartbeat IPC: 2.386 cumulative IPC: 2.392 (Simulation time: 00 hr 15 min 16 sec)
Heartbeat CPU 0 instructions: 184501136 cycles: 67112496 heartbeat IPC: 2.366 cumulative IPC: 2.392 (Simulation time: 00 hr 15 min 18 sec)
Heartbeat CPU 0 instructions: 185001140 cycles: 67331592 heartbeat IPC: 2.282 cumulative IPC: 2.392 (Simulation time: 00 hr 15 min 21 sec)
Heartbeat CPU 0 instructions: 185501141 cycles: 67544870 heartbeat IPC: 2.344 cumulative IPC: 2.392 (Simulation time: 00 hr 15 min 24 sec)
Heartbeat CPU 0 instructions: 186001142 cycles: 67743839 heartbeat IPC: 2.513 cumulative IPC: 2.392 (Simulation time: 00 hr 15 min 27 sec)
Heartbeat CPU 0 instructions: 186501144 cycles: 67947958 heartbeat IPC: 2.45 cumulative IPC: 2.392 (Simulation time: 00 hr 15 min 30 sec)
Heartbeat CPU 0 instructions: 187001148 cycles: 68166513 heartbeat IPC: 2.288 cumulative IPC: 2.392 (Simulation time: 00 hr 15 min 33 sec)
Heartbeat CPU 0 instructions: 187501151 cycles: 68372814 heartbeat IPC: 2.424 cumulative IPC: 2.392 (Simulation time: 00 hr 15 min 36 sec)
Heartbeat CPU 0 instructions: 188001155 cycles: 68593146 heartbeat IPC: 2.269 cumulative IPC: 2.392 (Simulation time: 00 hr 15 min 39 sec)
Heartbeat CPU 0 instructions: 188501157 cycles: 68808302 heartbeat IPC: 2.324 cumulative IPC: 2.391 (Simulation time: 00 hr 15 min 42 sec)
Heartbeat CPU 0 instructions: 189001162 cycles: 69033008 heartbeat IPC: 2.225 cumulative IPC: 2.391 (Simulation time: 00 hr 15 min 44 sec)
Heartbeat CPU 0 instructions: 189501165 cycles: 69230393 heartbeat IPC: 2.533 cumulative IPC: 2.391 (Simulation time: 00 hr 15 min 47 sec)
Heartbeat CPU 0 instructions: 190001167 cycles: 69430156 heartbeat IPC: 2.503 cumulative IPC: 2.392 (Simulation time: 00 hr 15 min 50 sec)
Heartbeat CPU 0 instructions: 190501168 cycles: 69622519 heartbeat IPC: 2.599 cumulative IPC: 2.392 (Simulation time: 00 hr 15 min 52 sec)
Heartbeat CPU 0 instructions: 191001170 cycles: 69834520 heartbeat IPC: 2.358 cumulative IPC: 2.392 (Simulation time: 00 hr 15 min 55 sec)
Heartbeat CPU 0 instructions: 191501170 cycles: 70040014 heartbeat IPC: 2.433 cumulative IPC: 2.392 (Simulation time: 00 hr 15 min 58 sec)
Heartbeat CPU 0 instructions: 192001172 cycles: 70247818 heartbeat IPC: 2.406 cumulative IPC: 2.392 (Simulation time: 00 hr 16 min 01 sec)
Heartbeat CPU 0 instructions: 192501174 cycles: 70452522 heartbeat IPC: 2.443 cumulative IPC: 2.393 (Simulation time: 00 hr 16 min 04 sec)
Heartbeat CPU 0 instructions: 193001177 cycles: 70668827 heartbeat IPC: 2.312 cumulative IPC: 2.392 (Simulation time: 00 hr 16 min 07 sec)
Heartbeat CPU 0 instructions: 193501178 cycles: 70873146 heartbeat IPC: 2.447 cumulative IPC: 2.392 (Simulation time: 00 hr 16 min 09 sec)
Heartbeat CPU 0 instructions: 194001182 cycles: 71078532 heartbeat IPC: 2.434 cumulative IPC: 2.393 (Simulation time: 00 hr 16 min 12 sec)
Heartbeat CPU 0 instructions: 194501185 cycles: 71291207 heartbeat IPC: 2.351 cumulative IPC: 2.392 (Simulation time: 00 hr 16 min 15 sec)
Heartbeat CPU 0 instructions: 195001187 cycles: 71493521 heartbeat IPC: 2.471 cumulative IPC: 2.393 (Simulation time: 00 hr 16 min 18 sec)
Heartbeat CPU 0 instructions: 195501188 cycles: 71702880 heartbeat IPC: 2.388 cumulative IPC: 2.393 (Simulation time: 00 hr 16 min 21 sec)
Heartbeat CPU 0 instructions: 196001191 cycles: 71902826 heartbeat IPC: 2.501 cumulative IPC: 2.393 (Simulation time: 00 hr 16 min 23 sec)
Heartbeat CPU 0 instructions: 196501192 cycles: 72111094 heartbeat IPC: 2.401 cumulative IPC: 2.393 (Simulation time: 00 hr 16 min 26 sec)
Heartbeat CPU 0 instructions: 197001197 cycles: 72342741 heartbeat IPC: 2.158 cumulative IPC: 2.392 (Simulation time: 00 hr 16 min 29 sec)
Heartbeat CPU 0 instructions: 197501200 cycles: 72582319 heartbeat IPC: 2.087 cumulative IPC: 2.391 (Simulation time: 00 hr 16 min 32 sec)
Heartbeat CPU 0 instructions: 198001205 cycles: 72804822 heartbeat IPC: 2.247 cumulative IPC: 2.39 (Simulation time: 00 hr 16 min 35 sec)
Heartbeat CPU 0 instructions: 198501206 cycles: 73015070 heartbeat IPC: 2.378 cumulative IPC: 2.39 (Simulation time: 00 hr 16 min 38 sec)
Heartbeat CPU 0 instructions: 199001211 cycles: 73221271 heartbeat IPC: 2.425 cumulative IPC: 2.391 (Simulation time: 00 hr 16 min 40 sec)
Heartbeat CPU 0 instructions: 199501215 cycles: 73428736 heartbeat IPC: 2.41 cumulative IPC: 2.391 (Simulation time: 00 hr 16 min 43 sec)
Heartbeat CPU 0 instructions: 200001216 cycles: 73635452 heartbeat IPC: 2.419 cumulative IPC: 2.391 (Simulation time: 00 hr 16 min 46 sec)
Heartbeat CPU 0 instructions: 200501219 cycles: 73848633 heartbeat IPC: 2.345 cumulative IPC: 2.391 (Simulation time: 00 hr 16 min 49 sec)
Heartbeat CPU 0 instructions: 201001225 cycles: 74059384 heartbeat IPC: 2.372 cumulative IPC: 2.39 (Simulation time: 00 hr 16 min 52 sec)
Heartbeat CPU 0 instructions: 201501229 cycles: 74266170 heartbeat IPC: 2.418 cumulative IPC: 2.391 (Simulation time: 00 hr 16 min 54 sec)
Heartbeat CPU 0 instructions: 202001233 cycles: 74473409 heartbeat IPC: 2.413 cumulative IPC: 2.391 (Simulation time: 00 hr 16 min 57 sec)
Heartbeat CPU 0 instructions: 202501240 cycles: 74682057 heartbeat IPC: 2.396 cumulative IPC: 2.391 (Simulation time: 00 hr 17 min 00 sec)
Heartbeat CPU 0 instructions: 203001242 cycles: 74889172 heartbeat IPC: 2.414 cumulative IPC: 2.391 (Simulation time: 00 hr 17 min 03 sec)
Heartbeat CPU 0 instructions: 203501243 cycles: 75097905 heartbeat IPC: 2.395 cumulative IPC: 2.391 (Simulation time: 00 hr 17 min 06 sec)
Heartbeat CPU 0 instructions: 204001247 cycles: 75311194 heartbeat IPC: 2.344 cumulative IPC: 2.391 (Simulation time: 00 hr 17 min 09 sec)
Heartbeat CPU 0 instructions: 204501251 cycles: 75522938 heartbeat IPC: 2.361 cumulative IPC: 2.39 (Simulation time: 00 hr 17 min 11 sec)
Heartbeat CPU 0 instructions: 205001256 cycles: 75733997 heartbeat IPC: 2.369 cumulative IPC: 2.39 (Simulation time: 00 hr 17 min 14 sec)
Heartbeat CPU 0 instructions: 205501257 cycles: 75946126 heartbeat IPC: 2.357 cumulative IPC: 2.39 (Simulation time: 00 hr 17 min 17 sec)
Heartbeat CPU 0 instructions: 206001261 cycles: 76155921 heartbeat IPC: 2.383 cumulative IPC: 2.39 (Simulation time: 00 hr 17 min 20 sec)
Heartbeat CPU 0 instructions: 206501262 cycles: 76365942 heartbeat IPC: 2.381 cumulative IPC: 2.39 (Simulation time: 00 hr 17 min 23 sec)
Heartbeat CPU 0 instructions: 207001269 cycles: 76573747 heartbeat IPC: 2.406 cumulative IPC: 2.39 (Simulation time: 00 hr 17 min 26 sec)
Heartbeat CPU 0 instructions: 207501271 cycles: 76784104 heartbeat IPC: 2.377 cumulative IPC: 2.39 (Simulation time: 00 hr 17 min 29 sec)
Heartbeat CPU 0 instructions: 208001272 cycles: 76992104 heartbeat IPC: 2.404 cumulative IPC: 2.39 (Simulation time: 00 hr 17 min 31 sec)
Heartbeat CPU 0 instructions: 208501272 cycles: 77199696 heartbeat IPC: 2.409 cumulative IPC: 2.39 (Simulation time: 00 hr 17 min 34 sec)
Heartbeat CPU 0 instructions: 209001274 cycles: 77407749 heartbeat IPC: 2.403 cumulative IPC: 2.39 (Simulation time: 00 hr 17 min 37 sec)
Heartbeat CPU 0 instructions: 209501277 cycles: 77617062 heartbeat IPC: 2.389 cumulative IPC: 2.39 (Simulation time: 00 hr 17 min 40 sec)
Heartbeat CPU 0 instructions: 210001282 cycles: 77829295 heartbeat IPC: 2.356 cumulative IPC: 2.39 (Simulation time: 00 hr 17 min 43 sec)
Heartbeat CPU 0 instructions: 210501286 cycles: 78039329 heartbeat IPC: 2.381 cumulative IPC: 2.39 (Simulation time: 00 hr 17 min 46 sec)
Heartbeat CPU 0 instructions: 211001290 cycles: 78249853 heartbeat IPC: 2.375 cumulative IPC: 2.39 (Simulation time: 00 hr 17 min 48 sec)
Heartbeat CPU 0 instructions: 211501290 cycles: 78459294 heartbeat IPC: 2.387 cumulative IPC: 2.39 (Simulation time: 00 hr 17 min 51 sec)
Heartbeat CPU 0 instructions: 212001296 cycles: 78671130 heartbeat IPC: 2.36 cumulative IPC: 2.39 (Simulation time: 00 hr 17 min 54 sec)
Heartbeat CPU 0 instructions: 212501297 cycles: 78877834 heartbeat IPC: 2.419 cumulative IPC: 2.39 (Simulation time: 00 hr 17 min 57 sec)
Heartbeat CPU 0 instructions: 213001298 cycles: 79209347 heartbeat IPC: 1.508 cumulative IPC: 2.386 (Simulation time: 00 hr 18 min 01 sec)
Heartbeat CPU 0 instructions: 213501303 cycles: 79558969 heartbeat IPC: 1.43 cumulative IPC: 2.381 (Simulation time: 00 hr 18 min 06 sec)
Heartbeat CPU 0 instructions: 214001307 cycles: 79773138 heartbeat IPC: 2.335 cumulative IPC: 2.381 (Simulation time: 00 hr 18 min 08 sec)
Heartbeat CPU 0 instructions: 214501307 cycles: 79992396 heartbeat IPC: 2.28 cumulative IPC: 2.381 (Simulation time: 00 hr 18 min 11 sec)
Heartbeat CPU 0 instructions: 215001313 cycles: 80223494 heartbeat IPC: 2.164 cumulative IPC: 2.38 (Simulation time: 00 hr 18 min 15 sec)
Heartbeat CPU 0 instructions: 215501315 cycles: 80431881 heartbeat IPC: 2.399 cumulative IPC: 2.38 (Simulation time: 00 hr 18 min 17 sec)
Heartbeat CPU 0 instructions: 216001315 cycles: 80654979 heartbeat IPC: 2.241 cumulative IPC: 2.379 (Simulation time: 00 hr 18 min 20 sec)
Heartbeat CPU 0 instructions: 216501320 cycles: 80867630 heartbeat IPC: 2.351 cumulative IPC: 2.379 (Simulation time: 00 hr 18 min 23 sec)
Heartbeat CPU 0 instructions: 217001322 cycles: 81091035 heartbeat IPC: 2.238 cumulative IPC: 2.379 (Simulation time: 00 hr 18 min 26 sec)
Heartbeat CPU 0 instructions: 217501324 cycles: 81311155 heartbeat IPC: 2.271 cumulative IPC: 2.379 (Simulation time: 00 hr 18 min 29 sec)
Heartbeat CPU 0 instructions: 218001325 cycles: 81546924 heartbeat IPC: 2.121 cumulative IPC: 2.378 (Simulation time: 00 hr 18 min 32 sec)
Heartbeat CPU 0 instructions: 218501330 cycles: 81772776 heartbeat IPC: 2.214 cumulative IPC: 2.377 (Simulation time: 00 hr 18 min 35 sec)
Heartbeat CPU 0 instructions: 219001333 cycles: 82004509 heartbeat IPC: 2.158 cumulative IPC: 2.377 (Simulation time: 00 hr 18 min 38 sec)
Heartbeat CPU 0 instructions: 219501335 cycles: 82224097 heartbeat IPC: 2.277 cumulative IPC: 2.376 (Simulation time: 00 hr 18 min 41 sec)
Heartbeat CPU 0 instructions: 220001335 cycles: 82436837 heartbeat IPC: 2.35 cumulative IPC: 2.376 (Simulation time: 00 hr 18 min 44 sec)
Heartbeat CPU 0 instructions: 220501340 cycles: 82645588 heartbeat IPC: 2.395 cumulative IPC: 2.376 (Simulation time: 00 hr 18 min 47 sec)
Heartbeat CPU 0 instructions: 221001345 cycles: 82851059 heartbeat IPC: 2.433 cumulative IPC: 2.376 (Simulation time: 00 hr 18 min 50 sec)
Heartbeat CPU 0 instructions: 221501345 cycles: 83067469 heartbeat IPC: 2.31 cumulative IPC: 2.376 (Simulation time: 00 hr 18 min 52 sec)
Heartbeat CPU 0 instructions: 222001345 cycles: 83271198 heartbeat IPC: 2.454 cumulative IPC: 2.376 (Simulation time: 00 hr 18 min 55 sec)
Heartbeat CPU 0 instructions: 222501346 cycles: 83483233 heartbeat IPC: 2.358 cumulative IPC: 2.376 (Simulation time: 00 hr 18 min 58 sec)
Heartbeat CPU 0 instructions: 223001348 cycles: 83681438 heartbeat IPC: 2.523 cumulative IPC: 2.377 (Simulation time: 00 hr 19 min 01 sec)
Heartbeat CPU 0 instructions: 223501348 cycles: 83893760 heartbeat IPC: 2.355 cumulative IPC: 2.377 (Simulation time: 00 hr 19 min 04 sec)
Heartbeat CPU 0 instructions: 224001353 cycles: 84096883 heartbeat IPC: 2.462 cumulative IPC: 2.377 (Simulation time: 00 hr 19 min 06 sec)
Heartbeat CPU 0 instructions: 224501358 cycles: 84305017 heartbeat IPC: 2.402 cumulative IPC: 2.377 (Simulation time: 00 hr 19 min 09 sec)
Heartbeat CPU 0 instructions: 225001360 cycles: 84508723 heartbeat IPC: 2.455 cumulative IPC: 2.377 (Simulation time: 00 hr 19 min 12 sec)
Heartbeat CPU 0 instructions: 225501364 cycles: 84717038 heartbeat IPC: 2.4 cumulative IPC: 2.377 (Simulation time: 00 hr 19 min 15 sec)
Heartbeat CPU 0 instructions: 226001366 cycles: 84955361 heartbeat IPC: 2.098 cumulative IPC: 2.376 (Simulation time: 00 hr 19 min 18 sec)
Heartbeat CPU 0 instructions: 226501370 cycles: 85190761 heartbeat IPC: 2.124 cumulative IPC: 2.376 (Simulation time: 00 hr 19 min 21 sec)
Heartbeat CPU 0 instructions: 227001374 cycles: 85408149 heartbeat IPC: 2.3 cumulative IPC: 2.375 (Simulation time: 00 hr 19 min 24 sec)
Heartbeat CPU 0 instructions: 227501378 cycles: 85612885 heartbeat IPC: 2.442 cumulative IPC: 2.376 (Simulation time: 00 hr 19 min 26 sec)
Heartbeat CPU 0 instructions: 228001382 cycles: 85818788 heartbeat IPC: 2.428 cumulative IPC: 2.376 (Simulation time: 00 hr 19 min 29 sec)
Heartbeat CPU 0 instructions: 228501384 cycles: 86026028 heartbeat IPC: 2.413 cumulative IPC: 2.376 (Simulation time: 00 hr 19 min 32 sec)
Heartbeat CPU 0 instructions: 229001388 cycles: 86230001 heartbeat IPC: 2.451 cumulative IPC: 2.376 (Simulation time: 00 hr 19 min 34 sec)
Heartbeat CPU 0 instructions: 229501392 cycles: 86437411 heartbeat IPC: 2.411 cumulative IPC: 2.376 (Simulation time: 00 hr 19 min 37 sec)
Heartbeat CPU 0 instructions: 230001395 cycles: 86645630 heartbeat IPC: 2.401 cumulative IPC: 2.376 (Simulation time: 00 hr 19 min 40 sec)
Heartbeat CPU 0 instructions: 230501398 cycles: 86854368 heartbeat IPC: 2.395 cumulative IPC: 2.376 (Simulation time: 00 hr 19 min 43 sec)
Heartbeat CPU 0 instructions: 231001402 cycles: 87060395 heartbeat IPC: 2.427 cumulative IPC: 2.376 (Simulation time: 00 hr 19 min 46 sec)
Heartbeat CPU 0 instructions: 231501406 cycles: 87269253 heartbeat IPC: 2.394 cumulative IPC: 2.376 (Simulation time: 00 hr 19 min 48 sec)
Heartbeat CPU 0 instructions: 232001410 cycles: 87475354 heartbeat IPC: 2.426 cumulative IPC: 2.376 (Simulation time: 00 hr 19 min 51 sec)
Heartbeat CPU 0 instructions: 232501411 cycles: 87686386 heartbeat IPC: 2.369 cumulative IPC: 2.376 (Simulation time: 00 hr 19 min 54 sec)
Heartbeat CPU 0 instructions: 233001416 cycles: 87897448 heartbeat IPC: 2.369 cumulative IPC: 2.376 (Simulation time: 00 hr 19 min 57 sec)
Heartbeat CPU 0 instructions: 233501420 cycles: 88109373 heartbeat IPC: 2.359 cumulative IPC: 2.376 (Simulation time: 00 hr 20 min 00 sec)
Heartbeat CPU 0 instructions: 234001421 cycles: 88320780 heartbeat IPC: 2.365 cumulative IPC: 2.376 (Simulation time: 00 hr 20 min 02 sec)
Heartbeat CPU 0 instructions: 234501424 cycles: 88533286 heartbeat IPC: 2.353 cumulative IPC: 2.376 (Simulation time: 00 hr 20 min 05 sec)
Heartbeat CPU 0 instructions: 235001430 cycles: 88741433 heartbeat IPC: 2.402 cumulative IPC: 2.376 (Simulation time: 00 hr 20 min 08 sec)
Heartbeat CPU 0 instructions: 235501434 cycles: 88951230 heartbeat IPC: 2.383 cumulative IPC: 2.376 (Simulation time: 00 hr 20 min 11 sec)
Heartbeat CPU 0 instructions: 236001438 cycles: 89162597 heartbeat IPC: 2.366 cumulative IPC: 2.376 (Simulation time: 00 hr 20 min 14 sec)
Heartbeat CPU 0 instructions: 236501445 cycles: 89373942 heartbeat IPC: 2.366 cumulative IPC: 2.376 (Simulation time: 00 hr 20 min 17 sec)
Heartbeat CPU 0 instructions: 237001447 cycles: 89583983 heartbeat IPC: 2.38 cumulative IPC: 2.376 (Simulation time: 00 hr 20 min 19 sec)
Heartbeat CPU 0 instructions: 237501448 cycles: 89792970 heartbeat IPC: 2.392 cumulative IPC: 2.376 (Simulation time: 00 hr 20 min 22 sec)
Heartbeat CPU 0 instructions: 238001452 cycles: 90002086 heartbeat IPC: 2.391 cumulative IPC: 2.376 (Simulation time: 00 hr 20 min 25 sec)
Heartbeat CPU 0 instructions: 238501456 cycles: 90213390 heartbeat IPC: 2.366 cumulative IPC: 2.376 (Simulation time: 00 hr 20 min 28 sec)
Heartbeat CPU 0 instructions: 239001461 cycles: 90423730 heartbeat IPC: 2.377 cumulative IPC: 2.376 (Simulation time: 00 hr 20 min 31 sec)
Heartbeat CPU 0 instructions: 239501462 cycles: 90634162 heartbeat IPC: 2.376 cumulative IPC: 2.376 (Simulation time: 00 hr 20 min 34 sec)
Heartbeat CPU 0 instructions: 240001466 cycles: 90844334 heartbeat IPC: 2.379 cumulative IPC: 2.376 (Simulation time: 00 hr 20 min 36 sec)
Heartbeat CPU 0 instructions: 240501471 cycles: 91051812 heartbeat IPC: 2.41 cumulative IPC: 2.377 (Simulation time: 00 hr 20 min 39 sec)
Heartbeat CPU 0 instructions: 241001474 cycles: 91263114 heartbeat IPC: 2.366 cumulative IPC: 2.376 (Simulation time: 00 hr 20 min 42 sec)
Heartbeat CPU 0 instructions: 241501476 cycles: 91476892 heartbeat IPC: 2.339 cumulative IPC: 2.376 (Simulation time: 00 hr 20 min 45 sec)
Heartbeat CPU 0 instructions: 242001481 cycles: 91882804 heartbeat IPC: 1.232 cumulative IPC: 2.371 (Simulation time: 00 hr 20 min 50 sec)
Heartbeat CPU 0 instructions: 242501484 cycles: 92146199 heartbeat IPC: 1.898 cumulative IPC: 2.369 (Simulation time: 00 hr 20 min 53 sec)
Heartbeat CPU 0 instructions: 243001486 cycles: 92362306 heartbeat IPC: 2.314 cumulative IPC: 2.369 (Simulation time: 00 hr 20 min 56 sec)
Heartbeat CPU 0 instructions: 243501492 cycles: 92567263 heartbeat IPC: 2.44 cumulative IPC: 2.369 (Simulation time: 00 hr 20 min 59 sec)
Heartbeat CPU 0 instructions: 244001492 cycles: 92775778 heartbeat IPC: 2.398 cumulative IPC: 2.369 (Simulation time: 00 hr 21 min 02 sec)
Heartbeat CPU 0 instructions: 244501493 cycles: 92976814 heartbeat IPC: 2.487 cumulative IPC: 2.369 (Simulation time: 00 hr 21 min 05 sec)
Heartbeat CPU 0 instructions: 245001494 cycles: 93191494 heartbeat IPC: 2.329 cumulative IPC: 2.369 (Simulation time: 00 hr 21 min 08 sec)
Heartbeat CPU 0 instructions: 245501499 cycles: 93407915 heartbeat IPC: 2.31 cumulative IPC: 2.369 (Simulation time: 00 hr 21 min 11 sec)
Heartbeat CPU 0 instructions: 246001499 cycles: 93626488 heartbeat IPC: 2.288 cumulative IPC: 2.369 (Simulation time: 00 hr 21 min 13 sec)
Heartbeat CPU 0 instructions: 246501504 cycles: 93847641 heartbeat IPC: 2.261 cumulative IPC: 2.369 (Simulation time: 00 hr 21 min 16 sec)
Heartbeat CPU 0 instructions: 247001505 cycles: 94056391 heartbeat IPC: 2.395 cumulative IPC: 2.369 (Simulation time: 00 hr 21 min 19 sec)
Heartbeat CPU 0 instructions: 247501507 cycles: 94244592 heartbeat IPC: 2.657 cumulative IPC: 2.369 (Simulation time: 00 hr 21 min 22 sec)
Heartbeat CPU 0 instructions: 248001507 cycles: 94433123 heartbeat IPC: 2.652 cumulative IPC: 2.37 (Simulation time: 00 hr 21 min 24 sec)
Heartbeat CPU 0 instructions: 248501512 cycles: 94645377 heartbeat IPC: 2.356 cumulative IPC: 2.37 (Simulation time: 00 hr 21 min 27 sec)
Heartbeat CPU 0 instructions: 249001512 cycles: 94854048 heartbeat IPC: 2.396 cumulative IPC: 2.37 (Simulation time: 00 hr 21 min 30 sec)
Heartbeat CPU 0 instructions: 249501512 cycles: 95074525 heartbeat IPC: 2.268 cumulative IPC: 2.37 (Simulation time: 00 hr 21 min 33 sec)
Simulation finished CPU 0 instructions: 200000001 cycles: 84381973 cumulative IPC: 2.37 (Simulation time: 00 hr 21 min 36 sec)
Simulation complete CPU 0 instructions: 200000001 cycles: 84381973 cumulative IPC: 2.37 (Simulation time: 00 hr 21 min 36 sec)

ChampSim completed all CPUs

=== Simulation ===
CPU 0 runs /local-ssd/ben/dpc4-traces/ai-ml/llama2.c-stories15M.1.champsimtrace.gz

Region of Interest Statistics

CPU 0 cumulative IPC: 2.37 instructions: 200000001 cycles: 84381973
CPU 0 Branch Prediction Accuracy: 98.74% MPKI: 1.817 Average ROB Occupancy at Mispredict: 268
Branch type MPKI
BRANCH_DIRECT_JUMP: 7.5e-05
BRANCH_INDIRECT: 0
BRANCH_CONDITIONAL: 1.817
BRANCH_DIRECT_CALL: 5e-05
BRANCH_INDIRECT_CALL: 0.000345
BRANCH_RETURN: 9e-05

cpu0->cpu0_STLB TOTAL        ACCESS:     107413 HIT:       1620 MISS:     105793 MSHR_MERGE:          0
cpu0->cpu0_STLB LOAD         ACCESS:     107413 HIT:       1620 MISS:     105793 MSHR_MERGE:          0
cpu0->cpu0_STLB RFO          ACCESS:          0 HIT:          0 MISS:          0 MSHR_MERGE:          0
cpu0->cpu0_STLB PREFETCH     ACCESS:          0 HIT:          0 MISS:          0 MSHR_MERGE:          0
cpu0->cpu0_STLB WRITE        ACCESS:          0 HIT:          0 MISS:          0 MSHR_MERGE:          0
cpu0->cpu0_STLB TRANSLATION  ACCESS:          0 HIT:          0 MISS:          0 MSHR_MERGE:          0
cpu0->cpu0_STLB PREFETCH REQUESTED:          0 ISSUED:          0 USEFUL:          0 USELESS:          0
cpu0->cpu0_STLB AVERAGE MISS LATENCY: 44.86 cycles
cpu0->cpu0_L2C TOTAL        ACCESS:   30224875 HIT:    1795732 MISS:   28429143 MSHR_MERGE:   21642935
cpu0->cpu0_L2C LOAD         ACCESS:    1060949 HIT:     234377 MISS:     826572 MSHR_MERGE:     756437
cpu0->cpu0_L2C RFO          ACCESS:      23168 HIT:       2790 MISS:      20378 MSHR_MERGE:          7
cpu0->cpu0_L2C PREFETCH     ACCESS:   29083972 HIT:    1516626 MISS:   27567346 MSHR_MERGE:   20886491
cpu0->cpu0_L2C WRITE        ACCESS:      42598 HIT:      41564 MISS:       1034 MSHR_MERGE:          0
cpu0->cpu0_L2C TRANSLATION  ACCESS:      14188 HIT:        375 MISS:      13813 MSHR_MERGE:          0
cpu0->cpu0_L2C PREFETCH REQUESTED:   26625560 ISSUED:   23369109 USEFUL:    1345250 USELESS:    4029725
cpu0->cpu0_L2C AVERAGE MISS LATENCY: 83.41 cycles
cpu0->cpu0_L1I TOTAL        ACCESS:   17380749 HIT:   17380698 MISS:         51 MSHR_MERGE:          4
cpu0->cpu0_L1I LOAD         ACCESS:   17380749 HIT:   17380698 MISS:         51 MSHR_MERGE:          4
cpu0->cpu0_L1I RFO          ACCESS:          0 HIT:          0 MISS:          0 MSHR_MERGE:          0
cpu0->cpu0_L1I PREFETCH     ACCESS:          0 HIT:          0 MISS:          0 MSHR_MERGE:          0
cpu0->cpu0_L1I WRITE        ACCESS:          0 HIT:          0 MISS:          0 MSHR_MERGE:          0
cpu0->cpu0_L1I TRANSLATION  ACCESS:          0 HIT:          0 MISS:          0 MSHR_MERGE:          0
cpu0->cpu0_L1I PREFETCH REQUESTED:          0 ISSUED:          0 USEFUL:          0 USELESS:          0
cpu0->cpu0_L1I AVERAGE MISS LATENCY: 250.3 cycles
cpu0->cpu0_L1D TOTAL        ACCESS:   56421718 HIT:   33012714 MISS:   23409004 MSHR_MERGE:   16595889
cpu0->cpu0_L1D LOAD         ACCESS:   35018705 HIT:   21254590 MISS:   13764115 MSHR_MERGE:   12703213
cpu0->cpu0_L1D RFO          ACCESS:          0 HIT:          0 MISS:          0 MSHR_MERGE:          0
cpu0->cpu0_L1D PREFETCH     ACCESS:   20596911 HIT:   11008199 MISS:    9588712 MSHR_MERGE:    3873859
cpu0->cpu0_L1D WRITE        ACCESS:     594290 HIT:     552320 MISS:      41970 MSHR_MERGE:      18798
cpu0->cpu0_L1D TRANSLATION  ACCESS:     211812 HIT:     197605 MISS:      14207 MSHR_MERGE:         19
cpu0->cpu0_L1D PREFETCH REQUESTED:   35033231 ISSUED:   20596910 USEFUL:    5705017 USELESS:       9835
cpu0->cpu0_L1D AVERAGE MISS LATENCY: 63.22 cycles
cpu0->cpu0_ITLB TOTAL        ACCESS:   16350507 HIT:   16350504 MISS:          3 MSHR_MERGE:          0
cpu0->cpu0_ITLB LOAD         ACCESS:   16350507 HIT:   16350504 MISS:          3 MSHR_MERGE:          0
cpu0->cpu0_ITLB RFO          ACCESS:          0 HIT:          0 MISS:          0 MSHR_MERGE:          0
cpu0->cpu0_ITLB PREFETCH     ACCESS:          0 HIT:          0 MISS:          0 MSHR_MERGE:          0
cpu0->cpu0_ITLB WRITE        ACCESS:          0 HIT:          0 MISS:          0 MSHR_MERGE:          0
cpu0->cpu0_ITLB TRANSLATION  ACCESS:          0 HIT:          0 MISS:          0 MSHR_MERGE:          0
cpu0->cpu0_ITLB PREFETCH REQUESTED:          0 ISSUED:          0 USEFUL:          0 USELESS:          0
cpu0->cpu0_ITLB AVERAGE MISS LATENCY: 575 cycles
cpu0->cpu0_DTLB TOTAL        ACCESS:   43493754 HIT:   43001937 MISS:     491817 MSHR_MERGE:     384407
cpu0->cpu0_DTLB LOAD         ACCESS:   43493754 HIT:   43001937 MISS:     491817 MSHR_MERGE:     384407
cpu0->cpu0_DTLB RFO          ACCESS:          0 HIT:          0 MISS:          0 MSHR_MERGE:          0
cpu0->cpu0_DTLB PREFETCH     ACCESS:          0 HIT:          0 MISS:          0 MSHR_MERGE:          0
cpu0->cpu0_DTLB WRITE        ACCESS:          0 HIT:          0 MISS:          0 MSHR_MERGE:          0
cpu0->cpu0_DTLB TRANSLATION  ACCESS:          0 HIT:          0 MISS:          0 MSHR_MERGE:          0
cpu0->cpu0_DTLB PREFETCH REQUESTED:          0 ISSUED:          0 USEFUL:          0 USELESS:          0
cpu0->cpu0_DTLB AVERAGE MISS LATENCY: 50.15 cycles
cpu0->LLC TOTAL        ACCESS:   13333847 HIT:     620626 MISS:   12713221 MSHR_MERGE:    6067734
cpu0->LLC LOAD         ACCESS:      70135 HIT:      14749 MISS:      55386 MSHR_MERGE:      32994
cpu0->LLC RFO          ACCESS:      20371 HIT:       6528 MISS:      13843 MSHR_MERGE:         15
cpu0->LLC PREFETCH     ACCESS:   13202793 HIT:     586058 MISS:   12616735 MSHR_MERGE:    6034725
cpu0->LLC WRITE        ACCESS:      26735 HIT:      13230 MISS:      13505 MSHR_MERGE:          0
cpu0->LLC TRANSLATION  ACCESS:      13813 HIT:         61 MISS:      13752 MSHR_MERGE:          0
cpu0->LLC PREFETCH REQUESTED:    6526222 ISSUED:    6521938 USEFUL:     320580 USELESS:    4862216
cpu0->LLC AVERAGE MISS LATENCY: 200 cycles

DRAM Statistics

Channel 0 RQ ROW_BUFFER_HIT:    2925237
  ROW_BUFFER_MISS:    3706479
  AVG DBUS CONGESTED CYCLE: 4.857
Channel 0 WQ ROW_BUFFER_HIT:        784
  ROW_BUFFER_MISS:      14881
  FULL:          0
Channel 0 REFRESHES ISSUED:       7031
