[VMEM] WARNING: physical memory size is smaller than virtual memory size.

*** ChampSim Multicore Out-of-Order Simulator ***
Warmup Instructions: 50000000
Simulation Instructions: 200000000
Number of CPUs: 1
Page size: 4096
Core 0: /local-ssd/ben/dpc4-traces/ai-ml/stable-diffusion.cpp-v1-5-pruned-emaonly.2.champsimtrace.gz
Off-chip DRAM Size: 64 GiB Channels: 1 Width: 64-bit Data Rate: 4807 MT/s
Heartbeat CPU 0 instructions: 500007 cycles: 321025 heartbeat IPC: 1.558 cumulative IPC: 1.558 (Simulation time: 00 hr 00 min 05 sec)
Heartbeat CPU 0 instructions: 1000009 cycles: 651150 heartbeat IPC: 1.515 cumulative IPC: 1.536 (Simulation time: 00 hr 00 min 11 sec)
Heartbeat CPU 0 instructions: 1500010 cycles: 978400 heartbeat IPC: 1.528 cumulative IPC: 1.533 (Simulation time: 00 hr 00 min 16 sec)
Heartbeat CPU 0 instructions: 2000013 cycles: 1297443 heartbeat IPC: 1.567 cumulative IPC: 1.542 (Simulation time: 00 hr 00 min 21 sec)
Heartbeat CPU 0 instructions: 2500018 cycles: 1615572 heartbeat IPC: 1.572 cumulative IPC: 1.547 (Simulation time: 00 hr 00 min 27 sec)
Heartbeat CPU 0 instructions: 3000021 cycles: 1923548 heartbeat IPC: 1.624 cumulative IPC: 1.56 (Simulation time: 00 hr 00 min 32 sec)
Heartbeat CPU 0 instructions: 3500023 cycles: 2242626 heartbeat IPC: 1.567 cumulative IPC: 1.561 (Simulation time: 00 hr 00 min 37 sec)
Heartbeat CPU 0 instructions: 4000025 cycles: 2562042 heartbeat IPC: 1.565 cumulative IPC: 1.561 (Simulation time: 00 hr 00 min 43 sec)
Heartbeat CPU 0 instructions: 4500032 cycles: 2881253 heartbeat IPC: 1.566 cumulative IPC: 1.562 (Simulation time: 00 hr 00 min 48 sec)
Heartbeat CPU 0 instructions: 5000033 cycles: 3200591 heartbeat IPC: 1.566 cumulative IPC: 1.562 (Simulation time: 00 hr 00 min 54 sec)
Heartbeat CPU 0 instructions: 5500035 cycles: 3524285 heartbeat IPC: 1.545 cumulative IPC: 1.561 (Simulation time: 00 hr 00 min 59 sec)
Heartbeat CPU 0 instructions: 6000035 cycles: 3847064 heartbeat IPC: 1.549 cumulative IPC: 1.56 (Simulation time: 00 hr 01 min 05 sec)
Heartbeat CPU 0 instructions: 6500040 cycles: 4167233 heartbeat IPC: 1.562 cumulative IPC: 1.56 (Simulation time: 00 hr 01 min 10 sec)
Heartbeat CPU 0 instructions: 7000045 cycles: 4486377 heartbeat IPC: 1.567 cumulative IPC: 1.56 (Simulation time: 00 hr 01 min 15 sec)
Heartbeat CPU 0 instructions: 7500045 cycles: 4805897 heartbeat IPC: 1.565 cumulative IPC: 1.561 (Simulation time: 00 hr 01 min 21 sec)
Heartbeat CPU 0 instructions: 8000049 cycles: 5124809 heartbeat IPC: 1.568 cumulative IPC: 1.561 (Simulation time: 00 hr 01 min 26 sec)
Heartbeat CPU 0 instructions: 8500052 cycles: 5433367 heartbeat IPC: 1.62 cumulative IPC: 1.564 (Simulation time: 00 hr 01 min 31 sec)
Heartbeat CPU 0 instructions: 9000059 cycles: 5756007 heartbeat IPC: 1.55 cumulative IPC: 1.564 (Simulation time: 00 hr 01 min 37 sec)
Heartbeat CPU 0 instructions: 9500062 cycles: 6075326 heartbeat IPC: 1.566 cumulative IPC: 1.564 (Simulation time: 00 hr 01 min 42 sec)
Heartbeat CPU 0 instructions: 10000064 cycles: 6395035 heartbeat IPC: 1.564 cumulative IPC: 1.564 (Simulation time: 00 hr 01 min 48 sec)
Heartbeat CPU 0 instructions: 10500066 cycles: 6714266 heartbeat IPC: 1.566 cumulative IPC: 1.564 (Simulation time: 00 hr 01 min 53 sec)
Heartbeat CPU 0 instructions: 11000066 cycles: 7033289 heartbeat IPC: 1.567 cumulative IPC: 1.564 (Simulation time: 00 hr 01 min 59 sec)
Heartbeat CPU 0 instructions: 11500070 cycles: 7357188 heartbeat IPC: 1.544 cumulative IPC: 1.563 (Simulation time: 00 hr 02 min 04 sec)
Heartbeat CPU 0 instructions: 12000072 cycles: 7680337 heartbeat IPC: 1.547 cumulative IPC: 1.562 (Simulation time: 00 hr 02 min 10 sec)
Heartbeat CPU 0 instructions: 12500073 cycles: 7999524 heartbeat IPC: 1.566 cumulative IPC: 1.563 (Simulation time: 00 hr 02 min 15 sec)
Heartbeat CPU 0 instructions: 13000075 cycles: 8318919 heartbeat IPC: 1.565 cumulative IPC: 1.563 (Simulation time: 00 hr 02 min 20 sec)
Heartbeat CPU 0 instructions: 13500075 cycles: 8638099 heartbeat IPC: 1.567 cumulative IPC: 1.563 (Simulation time: 00 hr 02 min 26 sec)
Heartbeat CPU 0 instructions: 14000076 cycles: 8957461 heartbeat IPC: 1.566 cumulative IPC: 1.563 (Simulation time: 00 hr 02 min 31 sec)
Heartbeat CPU 0 instructions: 14500078 cycles: 9280801 heartbeat IPC: 1.546 cumulative IPC: 1.562 (Simulation time: 00 hr 02 min 37 sec)
Heartbeat CPU 0 instructions: 15000084 cycles: 9603288 heartbeat IPC: 1.55 cumulative IPC: 1.562 (Simulation time: 00 hr 02 min 42 sec)
Heartbeat CPU 0 instructions: 15500086 cycles: 9922865 heartbeat IPC: 1.565 cumulative IPC: 1.562 (Simulation time: 00 hr 02 min 48 sec)
Heartbeat CPU 0 instructions: 16000088 cycles: 10241736 heartbeat IPC: 1.568 cumulative IPC: 1.562 (Simulation time: 00 hr 02 min 53 sec)
Heartbeat CPU 0 instructions: 16500088 cycles: 10561106 heartbeat IPC: 1.566 cumulative IPC: 1.562 (Simulation time: 00 hr 02 min 58 sec)
Heartbeat CPU 0 instructions: 17000092 cycles: 10880887 heartbeat IPC: 1.564 cumulative IPC: 1.562 (Simulation time: 00 hr 03 min 04 sec)
Heartbeat CPU 0 instructions: 17500098 cycles: 11189559 heartbeat IPC: 1.62 cumulative IPC: 1.564 (Simulation time: 00 hr 03 min 09 sec)
Heartbeat CPU 0 instructions: 18000102 cycles: 11513061 heartbeat IPC: 1.546 cumulative IPC: 1.563 (Simulation time: 00 hr 03 min 15 sec)
Heartbeat CPU 0 instructions: 18500103 cycles: 11832228 heartbeat IPC: 1.567 cumulative IPC: 1.564 (Simulation time: 00 hr 03 min 20 sec)
Heartbeat CPU 0 instructions: 19000105 cycles: 12151798 heartbeat IPC: 1.565 cumulative IPC: 1.564 (Simulation time: 00 hr 03 min 25 sec)
Heartbeat CPU 0 instructions: 19500109 cycles: 12471415 heartbeat IPC: 1.564 cumulative IPC: 1.564 (Simulation time: 00 hr 03 min 31 sec)
Heartbeat CPU 0 instructions: 20000109 cycles: 12791225 heartbeat IPC: 1.563 cumulative IPC: 1.564 (Simulation time: 00 hr 03 min 36 sec)
Heartbeat CPU 0 instructions: 20500112 cycles: 13328194 heartbeat IPC: 0.9312 cumulative IPC: 1.538 (Simulation time: 00 hr 03 min 41 sec)
Heartbeat CPU 0 instructions: 21000117 cycles: 13428194 heartbeat IPC: 5 cumulative IPC: 1.564 (Simulation time: 00 hr 03 min 43 sec)
Heartbeat CPU 0 instructions: 21500121 cycles: 13528196 heartbeat IPC: 5 cumulative IPC: 1.589 (Simulation time: 00 hr 03 min 44 sec)
Heartbeat CPU 0 instructions: 22000125 cycles: 13628298 heartbeat IPC: 4.995 cumulative IPC: 1.614 (Simulation time: 00 hr 03 min 45 sec)
Heartbeat CPU 0 instructions: 22500129 cycles: 13728304 heartbeat IPC: 5 cumulative IPC: 1.639 (Simulation time: 00 hr 03 min 47 sec)
Heartbeat CPU 0 instructions: 23000133 cycles: 13828300 heartbeat IPC: 5 cumulative IPC: 1.663 (Simulation time: 00 hr 03 min 48 sec)
Heartbeat CPU 0 instructions: 23500137 cycles: 13928303 heartbeat IPC: 5 cumulative IPC: 1.687 (Simulation time: 00 hr 03 min 49 sec)
Heartbeat CPU 0 instructions: 24000143 cycles: 14031458 heartbeat IPC: 4.847 cumulative IPC: 1.71 (Simulation time: 00 hr 03 min 51 sec)
Heartbeat CPU 0 instructions: 24500143 cycles: 14144899 heartbeat IPC: 4.408 cumulative IPC: 1.732 (Simulation time: 00 hr 03 min 52 sec)
Heartbeat CPU 0 instructions: 25000143 cycles: 14244898 heartbeat IPC: 5 cumulative IPC: 1.755 (Simulation time: 00 hr 03 min 54 sec)
Heartbeat CPU 0 instructions: 25500146 cycles: 14344900 heartbeat IPC: 5 cumulative IPC: 1.778 (Simulation time: 00 hr 03 min 55 sec)
Heartbeat CPU 0 instructions: 26000147 cycles: 14444899 heartbeat IPC: 5 cumulative IPC: 1.8 (Simulation time: 00 hr 03 min 57 sec)
Heartbeat CPU 0 instructions: 26500149 cycles: 14544899 heartbeat IPC: 5 cumulative IPC: 1.822 (Simulation time: 00 hr 03 min 58 sec)
Heartbeat CPU 0 instructions: 27000155 cycles: 14644901 heartbeat IPC: 5 cumulative IPC: 1.844 (Simulation time: 00 hr 03 min 59 sec)
Heartbeat CPU 0 instructions: 27500159 cycles: 14744902 heartbeat IPC: 5 cumulative IPC: 1.865 (Simulation time: 00 hr 04 min 01 sec)
Heartbeat CPU 0 instructions: 28000165 cycles: 14844901 heartbeat IPC: 5 cumulative IPC: 1.886 (Simulation time: 00 hr 04 min 02 sec)
Heartbeat CPU 0 instructions: 28500165 cycles: 14944905 heartbeat IPC: 5 cumulative IPC: 1.907 (Simulation time: 00 hr 04 min 03 sec)
Heartbeat CPU 0 instructions: 29000169 cycles: 15044906 heartbeat IPC: 5 cumulative IPC: 1.928 (Simulation time: 00 hr 04 min 05 sec)
Heartbeat CPU 0 instructions: 29500172 cycles: 15144905 heartbeat IPC: 5 cumulative IPC: 1.948 (Simulation time: 00 hr 04 min 06 sec)
Heartbeat CPU 0 instructions: 30000174 cycles: 15244904 heartbeat IPC: 5 cumulative IPC: 1.968 (Simulation time: 00 hr 04 min 07 sec)
Heartbeat CPU 0 instructions: 30500176 cycles: 15344905 heartbeat IPC: 5 cumulative IPC: 1.988 (Simulation time: 00 hr 04 min 09 sec)
Heartbeat CPU 0 instructions: 31000176 cycles: 15444906 heartbeat IPC: 5 cumulative IPC: 2.007 (Simulation time: 00 hr 04 min 10 sec)
Heartbeat CPU 0 instructions: 31500177 cycles: 15544905 heartbeat IPC: 5 cumulative IPC: 2.026 (Simulation time: 00 hr 04 min 12 sec)
Heartbeat CPU 0 instructions: 32000182 cycles: 15644907 heartbeat IPC: 5 cumulative IPC: 2.045 (Simulation time: 00 hr 04 min 13 sec)
Heartbeat CPU 0 instructions: 32500187 cycles: 15744905 heartbeat IPC: 5 cumulative IPC: 2.064 (Simulation time: 00 hr 04 min 14 sec)
Heartbeat CPU 0 instructions: 33000194 cycles: 15844907 heartbeat IPC: 5 cumulative IPC: 2.083 (Simulation time: 00 hr 04 min 16 sec)
Heartbeat CPU 0 instructions: 33500194 cycles: 15944908 heartbeat IPC: 5 cumulative IPC: 2.101 (Simulation time: 00 hr 04 min 17 sec)
Heartbeat CPU 0 instructions: 34000196 cycles: 16044910 heartbeat IPC: 5 cumulative IPC: 2.119 (Simulation time: 00 hr 04 min 18 sec)
Heartbeat CPU 0 instructions: 34500196 cycles: 16144910 heartbeat IPC: 5 cumulative IPC: 2.137 (Simulation time: 00 hr 04 min 20 sec)
Heartbeat CPU 0 instructions: 35000196 cycles: 16390508 heartbeat IPC: 2.036 cumulative IPC: 2.135 (Simulation time: 00 hr 04 min 24 sec)
Heartbeat CPU 0 instructions: 35500198 cycles: 16685511 heartbeat IPC: 1.695 cumulative IPC: 2.128 (Simulation time: 00 hr 04 min 29 sec)
Heartbeat CPU 0 instructions: 36000200 cycles: 16982797 heartbeat IPC: 1.682 cumulative IPC: 2.12 (Simulation time: 00 hr 04 min 34 sec)
Heartbeat CPU 0 instructions: 36500203 cycles: 17277359 heartbeat IPC: 1.697 cumulative IPC: 2.113 (Simulation time: 00 hr 04 min 39 sec)
Heartbeat CPU 0 instructions: 37000203 cycles: 17574762 heartbeat IPC: 1.681 cumulative IPC: 2.105 (Simulation time: 00 hr 04 min 44 sec)
Heartbeat CPU 0 instructions: 37500203 cycles: 17872227 heartbeat IPC: 1.681 cumulative IPC: 2.098 (Simulation time: 00 hr 04 min 49 sec)
Heartbeat CPU 0 instructions: 38000205 cycles: 18170036 heartbeat IPC: 1.679 cumulative IPC: 2.091 (Simulation time: 00 hr 04 min 54 sec)
Heartbeat CPU 0 instructions: 38500205 cycles: 18465058 heartbeat IPC: 1.695 cumulative IPC: 2.085 (Simulation time: 00 hr 04 min 59 sec)
Heartbeat CPU 0 instructions: 39000207 cycles: 18763327 heartbeat IPC: 1.676 cumulative IPC: 2.079 (Simulation time: 00 hr 05 min 05 sec)
Heartbeat CPU 0 instructions: 39500210 cycles: 19060693 heartbeat IPC: 1.681 cumulative IPC: 2.072 (Simulation time: 00 hr 05 min 10 sec)
Heartbeat CPU 0 instructions: 40000215 cycles: 19359539 heartbeat IPC: 1.673 cumulative IPC: 2.066 (Simulation time: 00 hr 05 min 15 sec)
Heartbeat CPU 0 instructions: 40500218 cycles: 19657463 heartbeat IPC: 1.678 cumulative IPC: 2.06 (Simulation time: 00 hr 05 min 20 sec)
Heartbeat CPU 0 instructions: 41000221 cycles: 19954840 heartbeat IPC: 1.681 cumulative IPC: 2.055 (Simulation time: 00 hr 05 min 25 sec)
Heartbeat CPU 0 instructions: 41500227 cycles: 20251866 heartbeat IPC: 1.683 cumulative IPC: 2.049 (Simulation time: 00 hr 05 min 30 sec)
Heartbeat CPU 0 instructions: 42000229 cycles: 20550335 heartbeat IPC: 1.675 cumulative IPC: 2.044 (Simulation time: 00 hr 05 min 35 sec)
Heartbeat CPU 0 instructions: 42500234 cycles: 20848657 heartbeat IPC: 1.676 cumulative IPC: 2.039 (Simulation time: 00 hr 05 min 40 sec)
Heartbeat CPU 0 instructions: 43000241 cycles: 21143716 heartbeat IPC: 1.695 cumulative IPC: 2.034 (Simulation time: 00 hr 05 min 45 sec)
Heartbeat CPU 0 instructions: 43500241 cycles: 21441497 heartbeat IPC: 1.679 cumulative IPC: 2.029 (Simulation time: 00 hr 05 min 50 sec)
Heartbeat CPU 0 instructions: 44000243 cycles: 21739659 heartbeat IPC: 1.677 cumulative IPC: 2.024 (Simulation time: 00 hr 05 min 55 sec)
Heartbeat CPU 0 instructions: 44500245 cycles: 22036106 heartbeat IPC: 1.687 cumulative IPC: 2.019 (Simulation time: 00 hr 06 min 01 sec)
Heartbeat CPU 0 instructions: 45000248 cycles: 22334592 heartbeat IPC: 1.675 cumulative IPC: 2.015 (Simulation time: 00 hr 06 min 06 sec)
Heartbeat CPU 0 instructions: 45500253 cycles: 22632424 heartbeat IPC: 1.679 cumulative IPC: 2.01 (Simulation time: 00 hr 06 min 11 sec)
Heartbeat CPU 0 instructions: 46000259 cycles: 22927377 heartbeat IPC: 1.695 cumulative IPC: 2.006 (Simulation time: 00 hr 06 min 16 sec)
Heartbeat CPU 0 instructions: 46500261 cycles: 23224787 heartbeat IPC: 1.681 cumulative IPC: 2.002 (Simulation time: 00 hr 06 min 21 sec)
Heartbeat CPU 0 instructions: 47000266 cycles: 23520378 heartbeat IPC: 1.692 cumulative IPC: 1.998 (Simulation time: 00 hr 06 min 26 sec)
Heartbeat CPU 0 instructions: 47500266 cycles: 23817749 heartbeat IPC: 1.681 cumulative IPC: 1.994 (Simulation time: 00 hr 06 min 31 sec)
Heartbeat CPU 0 instructions: 48000273 cycles: 24116350 heartbeat IPC: 1.674 cumulative IPC: 1.99 (Simulation time: 00 hr 06 min 36 sec)
Heartbeat CPU 0 instructions: 48500279 cycles: 24414327 heartbeat IPC: 1.678 cumulative IPC: 1.987 (Simulation time: 00 hr 06 min 41 sec)
Heartbeat CPU 0 instructions: 49000280 cycles: 24711603 heartbeat IPC: 1.682 cumulative IPC: 1.983 (Simulation time: 00 hr 06 min 46 sec)
Heartbeat CPU 0 instructions: 49500280 cycles: 25009197 heartbeat IPC: 1.68 cumulative IPC: 1.979 (Simulation time: 00 hr 06 min 51 sec)
Warmup halting CPU 0 at instruction 50000005 cycle 25308200 for remainder of phase
Warmup finished CPU 0 instructions: 50000005 cycles: 25308200 cumulative IPC: 1.976 (Simulation time: 00 hr 06 min 56 sec)
Warmup complete CPU 0 instructions: 50000005 cycles: 25308200 cumulative IPC: 1.976 (Simulation time: 00 hr 06 min 56 sec)
Heartbeat CPU 0 instructions: 50000285 cycles: 25308241 heartbeat IPC: 1.672 cumulative IPC: 6.829 (Simulation time: 00 hr 06 min 56 sec)
Heartbeat CPU 0 instructions: 50500285 cycles: 25465973 heartbeat IPC: 3.17 cumulative IPC: 3.171 (Simulation time: 00 hr 06 min 59 sec)
Heartbeat CPU 0 instructions: 51000285 cycles: 25622017 heartbeat IPC: 3.204 cumulative IPC: 3.187 (Simulation time: 00 hr 07 min 01 sec)
Heartbeat CPU 0 instructions: 51500290 cycles: 25783983 heartbeat IPC: 3.087 cumulative IPC: 3.153 (Simulation time: 00 hr 07 min 04 sec)
Heartbeat CPU 0 instructions: 52000292 cycles: 25946484 heartbeat IPC: 3.077 cumulative IPC: 3.134 (Simulation time: 00 hr 07 min 07 sec)
Heartbeat CPU 0 instructions: 52500294 cycles: 26098306 heartbeat IPC: 3.293 cumulative IPC: 3.164 (Simulation time: 00 hr 07 min 09 sec)
Heartbeat CPU 0 instructions: 53000294 cycles: 26259194 heartbeat IPC: 3.108 cumulative IPC: 3.155 (Simulation time: 00 hr 07 min 12 sec)
Heartbeat CPU 0 instructions: 53500301 cycles: 26420660 heartbeat IPC: 3.097 cumulative IPC: 3.146 (Simulation time: 00 hr 07 min 15 sec)
Heartbeat CPU 0 instructions: 54000302 cycles: 26571924 heartbeat IPC: 3.305 cumulative IPC: 3.165 (Simulation time: 00 hr 07 min 17 sec)
Heartbeat CPU 0 instructions: 54500309 cycles: 26734026 heartbeat IPC: 3.085 cumulative IPC: 3.156 (Simulation time: 00 hr 07 min 20 sec)
Heartbeat CPU 0 instructions: 55000311 cycles: 26895223 heartbeat IPC: 3.102 cumulative IPC: 3.151 (Simulation time: 00 hr 07 min 23 sec)
Heartbeat CPU 0 instructions: 55500317 cycles: 27051522 heartbeat IPC: 3.199 cumulative IPC: 3.155 (Simulation time: 00 hr 07 min 25 sec)
Heartbeat CPU 0 instructions: 56000317 cycles: 27208473 heartbeat IPC: 3.186 cumulative IPC: 3.158 (Simulation time: 00 hr 07 min 28 sec)
Heartbeat CPU 0 instructions: 56500318 cycles: 27369753 heartbeat IPC: 3.1 cumulative IPC: 3.153 (Simulation time: 00 hr 07 min 30 sec)
Heartbeat CPU 0 instructions: 57000322 cycles: 27531058 heartbeat IPC: 3.1 cumulative IPC: 3.149 (Simulation time: 00 hr 07 min 33 sec)
Heartbeat CPU 0 instructions: 57500322 cycles: 27683951 heartbeat IPC: 3.27 cumulative IPC: 3.157 (Simulation time: 00 hr 07 min 36 sec)
Heartbeat CPU 0 instructions: 58000328 cycles: 27845746 heartbeat IPC: 3.09 cumulative IPC: 3.153 (Simulation time: 00 hr 07 min 38 sec)
Heartbeat CPU 0 instructions: 58500328 cycles: 28009308 heartbeat IPC: 3.057 cumulative IPC: 3.147 (Simulation time: 00 hr 07 min 41 sec)
Heartbeat CPU 0 instructions: 59000334 cycles: 28160153 heartbeat IPC: 3.315 cumulative IPC: 3.156 (Simulation time: 00 hr 07 min 44 sec)
Heartbeat CPU 0 instructions: 59500336 cycles: 28321597 heartbeat IPC: 3.097 cumulative IPC: 3.153 (Simulation time: 00 hr 07 min 47 sec)
Heartbeat CPU 0 instructions: 60000340 cycles: 28482287 heartbeat IPC: 3.112 cumulative IPC: 3.151 (Simulation time: 00 hr 07 min 49 sec)
Heartbeat CPU 0 instructions: 60500341 cycles: 28636651 heartbeat IPC: 3.239 cumulative IPC: 3.155 (Simulation time: 00 hr 07 min 52 sec)
Heartbeat CPU 0 instructions: 61000346 cycles: 28793263 heartbeat IPC: 3.193 cumulative IPC: 3.156 (Simulation time: 00 hr 07 min 55 sec)
Heartbeat CPU 0 instructions: 61500350 cycles: 28954146 heartbeat IPC: 3.108 cumulative IPC: 3.154 (Simulation time: 00 hr 07 min 57 sec)
Heartbeat CPU 0 instructions: 62000351 cycles: 29112375 heartbeat IPC: 3.16 cumulative IPC: 3.155 (Simulation time: 00 hr 08 min 00 sec)
Heartbeat CPU 0 instructions: 62500356 cycles: 29264676 heartbeat IPC: 3.283 cumulative IPC: 3.159 (Simulation time: 00 hr 08 min 02 sec)
Heartbeat CPU 0 instructions: 63000357 cycles: 29425464 heartbeat IPC: 3.11 cumulative IPC: 3.158 (Simulation time: 00 hr 08 min 05 sec)
Heartbeat CPU 0 instructions: 63500362 cycles: 29587014 heartbeat IPC: 3.095 cumulative IPC: 3.155 (Simulation time: 00 hr 08 min 08 sec)
Heartbeat CPU 0 instructions: 64000366 cycles: 29737146 heartbeat IPC: 3.33 cumulative IPC: 3.161 (Simulation time: 00 hr 08 min 10 sec)
Heartbeat CPU 0 instructions: 64500373 cycles: 29897838 heartbeat IPC: 3.112 cumulative IPC: 3.159 (Simulation time: 00 hr 08 min 13 sec)
Heartbeat CPU 0 instructions: 65000374 cycles: 30058484 heartbeat IPC: 3.112 cumulative IPC: 3.158 (Simulation time: 00 hr 08 min 16 sec)
Heartbeat CPU 0 instructions: 65500374 cycles: 30214400 heartbeat IPC: 3.207 cumulative IPC: 3.159 (Simulation time: 00 hr 08 min 19 sec)
Heartbeat CPU 0 instructions: 66000375 cycles: 30371871 heartbeat IPC: 3.175 cumulative IPC: 3.16 (Simulation time: 00 hr 08 min 21 sec)
Heartbeat CPU 0 instructions: 66500376 cycles: 30533849 heartbeat IPC: 3.087 cumulative IPC: 3.158 (Simulation time: 00 hr 08 min 24 sec)
Heartbeat CPU 0 instructions: 67000376 cycles: 30693467 heartbeat IPC: 3.132 cumulative IPC: 3.157 (Simulation time: 00 hr 08 min 27 sec)
Heartbeat CPU 0 instructions: 67500378 cycles: 30847511 heartbeat IPC: 3.246 cumulative IPC: 3.159 (Simulation time: 00 hr 08 min 29 sec)
Heartbeat CPU 0 instructions: 68000382 cycles: 31009596 heartbeat IPC: 3.085 cumulative IPC: 3.157 (Simulation time: 00 hr 08 min 32 sec)
Heartbeat CPU 0 instructions: 68500389 cycles: 31173402 heartbeat IPC: 3.052 cumulative IPC: 3.154 (Simulation time: 00 hr 08 min 35 sec)
Heartbeat CPU 0 instructions: 69000391 cycles: 31323543 heartbeat IPC: 3.33 cumulative IPC: 3.159 (Simulation time: 00 hr 08 min 37 sec)
Heartbeat CPU 0 instructions: 69500394 cycles: 31483980 heartbeat IPC: 3.117 cumulative IPC: 3.158 (Simulation time: 00 hr 08 min 40 sec)
Heartbeat CPU 0 instructions: 70000397 cycles: 31645485 heartbeat IPC: 3.096 cumulative IPC: 3.156 (Simulation time: 00 hr 08 min 43 sec)
Heartbeat CPU 0 instructions: 70500401 cycles: 31796474 heartbeat IPC: 3.312 cumulative IPC: 3.16 (Simulation time: 00 hr 08 min 45 sec)
Heartbeat CPU 0 instructions: 71000407 cycles: 31957371 heartbeat IPC: 3.108 cumulative IPC: 3.158 (Simulation time: 00 hr 08 min 48 sec)
Heartbeat CPU 0 instructions: 71500408 cycles: 32120085 heartbeat IPC: 3.073 cumulative IPC: 3.156 (Simulation time: 00 hr 08 min 51 sec)
Heartbeat CPU 0 instructions: 72000413 cycles: 32275105 heartbeat IPC: 3.225 cumulative IPC: 3.158 (Simulation time: 00 hr 08 min 53 sec)
Heartbeat CPU 0 instructions: 72500414 cycles: 32431636 heartbeat IPC: 3.194 cumulative IPC: 3.159 (Simulation time: 00 hr 08 min 56 sec)
Heartbeat CPU 0 instructions: 73000417 cycles: 32592166 heartbeat IPC: 3.115 cumulative IPC: 3.158 (Simulation time: 00 hr 08 min 59 sec)
Heartbeat CPU 0 instructions: 73500417 cycles: 32751949 heartbeat IPC: 3.129 cumulative IPC: 3.157 (Simulation time: 00 hr 09 min 01 sec)
Heartbeat CPU 0 instructions: 74000417 cycles: 32904951 heartbeat IPC: 3.268 cumulative IPC: 3.159 (Simulation time: 00 hr 09 min 04 sec)
Heartbeat CPU 0 instructions: 74500421 cycles: 33065825 heartbeat IPC: 3.108 cumulative IPC: 3.158 (Simulation time: 00 hr 09 min 07 sec)
Heartbeat CPU 0 instructions: 75000422 cycles: 33227879 heartbeat IPC: 3.085 cumulative IPC: 3.157 (Simulation time: 00 hr 09 min 09 sec)
Heartbeat CPU 0 instructions: 75500425 cycles: 33379193 heartbeat IPC: 3.304 cumulative IPC: 3.16 (Simulation time: 00 hr 09 min 12 sec)
Heartbeat CPU 0 instructions: 76000431 cycles: 33539781 heartbeat IPC: 3.114 cumulative IPC: 3.159 (Simulation time: 00 hr 09 min 15 sec)
Heartbeat CPU 0 instructions: 76500433 cycles: 33700054 heartbeat IPC: 3.12 cumulative IPC: 3.158 (Simulation time: 00 hr 09 min 17 sec)
Heartbeat CPU 0 instructions: 77000440 cycles: 33855597 heartbeat IPC: 3.215 cumulative IPC: 3.159 (Simulation time: 00 hr 09 min 20 sec)
Heartbeat CPU 0 instructions: 77500446 cycles: 34014061 heartbeat IPC: 3.155 cumulative IPC: 3.159 (Simulation time: 00 hr 09 min 23 sec)
Heartbeat CPU 0 instructions: 78000453 cycles: 34174712 heartbeat IPC: 3.112 cumulative IPC: 3.158 (Simulation time: 00 hr 09 min 25 sec)
Heartbeat CPU 0 instructions: 78500455 cycles: 34332402 heartbeat IPC: 3.171 cumulative IPC: 3.158 (Simulation time: 00 hr 09 min 28 sec)
Heartbeat CPU 0 instructions: 79000459 cycles: 34487440 heartbeat IPC: 3.225 cumulative IPC: 3.159 (Simulation time: 00 hr 09 min 31 sec)
Heartbeat CPU 0 instructions: 79500459 cycles: 34650000 heartbeat IPC: 3.076 cumulative IPC: 3.158 (Simulation time: 00 hr 09 min 33 sec)
Heartbeat CPU 0 instructions: 80000465 cycles: 34811969 heartbeat IPC: 3.087 cumulative IPC: 3.157 (Simulation time: 00 hr 09 min 36 sec)
Heartbeat CPU 0 instructions: 80500471 cycles: 34963930 heartbeat IPC: 3.29 cumulative IPC: 3.159 (Simulation time: 00 hr 09 min 39 sec)
Heartbeat CPU 0 instructions: 81000472 cycles: 35123728 heartbeat IPC: 3.129 cumulative IPC: 3.158 (Simulation time: 00 hr 09 min 41 sec)
Heartbeat CPU 0 instructions: 81500477 cycles: 35285190 heartbeat IPC: 3.097 cumulative IPC: 3.157 (Simulation time: 00 hr 09 min 44 sec)
Heartbeat CPU 0 instructions: 82000478 cycles: 35440653 heartbeat IPC: 3.216 cumulative IPC: 3.158 (Simulation time: 00 hr 09 min 47 sec)
Heartbeat CPU 0 instructions: 82500482 cycles: 35598775 heartbeat IPC: 3.162 cumulative IPC: 3.158 (Simulation time: 00 hr 09 min 49 sec)
Heartbeat CPU 0 instructions: 83000488 cycles: 35761243 heartbeat IPC: 3.078 cumulative IPC: 3.157 (Simulation time: 00 hr 09 min 52 sec)
Heartbeat CPU 0 instructions: 83500492 cycles: 35918243 heartbeat IPC: 3.185 cumulative IPC: 3.157 (Simulation time: 00 hr 09 min 55 sec)
Heartbeat CPU 0 instructions: 84000494 cycles: 36072682 heartbeat IPC: 3.238 cumulative IPC: 3.159 (Simulation time: 00 hr 09 min 57 sec)
Heartbeat CPU 0 instructions: 84500496 cycles: 36232756 heartbeat IPC: 3.124 cumulative IPC: 3.158 (Simulation time: 00 hr 10 min 00 sec)
Heartbeat CPU 0 instructions: 85000503 cycles: 36393815 heartbeat IPC: 3.104 cumulative IPC: 3.157 (Simulation time: 00 hr 10 min 03 sec)
Heartbeat CPU 0 instructions: 85500506 cycles: 36543690 heartbeat IPC: 3.336 cumulative IPC: 3.16 (Simulation time: 00 hr 10 min 05 sec)
Heartbeat CPU 0 instructions: 86000506 cycles: 36704804 heartbeat IPC: 3.103 cumulative IPC: 3.159 (Simulation time: 00 hr 10 min 08 sec)
Heartbeat CPU 0 instructions: 86500510 cycles: 36865024 heartbeat IPC: 3.121 cumulative IPC: 3.158 (Simulation time: 00 hr 10 min 11 sec)
Heartbeat CPU 0 instructions: 87000512 cycles: 37017875 heartbeat IPC: 3.271 cumulative IPC: 3.16 (Simulation time: 00 hr 10 min 13 sec)
Heartbeat CPU 0 instructions: 87500516 cycles: 37177162 heartbeat IPC: 3.139 cumulative IPC: 3.16 (Simulation time: 00 hr 10 min 16 sec)
Heartbeat CPU 0 instructions: 88000520 cycles: 37337697 heartbeat IPC: 3.115 cumulative IPC: 3.159 (Simulation time: 00 hr 10 min 19 sec)
Heartbeat CPU 0 instructions: 88500522 cycles: 37494826 heartbeat IPC: 3.182 cumulative IPC: 3.159 (Simulation time: 00 hr 10 min 22 sec)
Heartbeat CPU 0 instructions: 89000524 cycles: 37651216 heartbeat IPC: 3.197 cumulative IPC: 3.16 (Simulation time: 00 hr 10 min 24 sec)
Heartbeat CPU 0 instructions: 89500528 cycles: 37812885 heartbeat IPC: 3.093 cumulative IPC: 3.159 (Simulation time: 00 hr 10 min 27 sec)
Heartbeat CPU 0 instructions: 90000532 cycles: 37973227 heartbeat IPC: 3.118 cumulative IPC: 3.158 (Simulation time: 00 hr 10 min 30 sec)
Heartbeat CPU 0 instructions: 90500539 cycles: 38123785 heartbeat IPC: 3.321 cumulative IPC: 3.16 (Simulation time: 00 hr 10 min 32 sec)
Heartbeat CPU 0 instructions: 91000545 cycles: 38284546 heartbeat IPC: 3.11 cumulative IPC: 3.16 (Simulation time: 00 hr 10 min 35 sec)
Heartbeat CPU 0 instructions: 91500552 cycles: 38445856 heartbeat IPC: 3.1 cumulative IPC: 3.159 (Simulation time: 00 hr 10 min 38 sec)
Heartbeat CPU 0 instructions: 92000552 cycles: 38645905 heartbeat IPC: 2.499 cumulative IPC: 3.149 (Simulation time: 00 hr 10 min 41 sec)
Heartbeat CPU 0 instructions: 92500552 cycles: 40293817 heartbeat IPC: 0.3034 cumulative IPC: 2.836 (Simulation time: 00 hr 10 min 56 sec)
Heartbeat CPU 0 instructions: 93000554 cycles: 40442079 heartbeat IPC: 3.372 cumulative IPC: 2.841 (Simulation time: 00 hr 10 min 58 sec)
Heartbeat CPU 0 instructions: 93500554 cycles: 40590330 heartbeat IPC: 3.373 cumulative IPC: 2.846 (Simulation time: 00 hr 10 min 59 sec)
Heartbeat CPU 0 instructions: 94000554 cycles: 40738592 heartbeat IPC: 3.372 cumulative IPC: 2.852 (Simulation time: 00 hr 11 min 01 sec)
Heartbeat CPU 0 instructions: 94500556 cycles: 40886848 heartbeat IPC: 3.373 cumulative IPC: 2.857 (Simulation time: 00 hr 11 min 03 sec)
Heartbeat CPU 0 instructions: 95000562 cycles: 41035112 heartbeat IPC: 3.372 cumulative IPC: 2.861 (Simulation time: 00 hr 11 min 05 sec)
Heartbeat CPU 0 instructions: 95500564 cycles: 41183362 heartbeat IPC: 3.373 cumulative IPC: 2.866 (Simulation time: 00 hr 11 min 07 sec)
Heartbeat CPU 0 instructions: 96000566 cycles: 41372315 heartbeat IPC: 2.646 cumulative IPC: 2.864 (Simulation time: 00 hr 11 min 10 sec)
Heartbeat CPU 0 instructions: 96500573 cycles: 41641502 heartbeat IPC: 1.857 cumulative IPC: 2.847 (Simulation time: 00 hr 11 min 13 sec)
Heartbeat CPU 0 instructions: 97000573 cycles: 41910654 heartbeat IPC: 1.858 cumulative IPC: 2.831 (Simulation time: 00 hr 11 min 17 sec)
Heartbeat CPU 0 instructions: 97500574 cycles: 42098167 heartbeat IPC: 2.666 cumulative IPC: 2.829 (Simulation time: 00 hr 11 min 19 sec)
Heartbeat CPU 0 instructions: 98000580 cycles: 42273991 heartbeat IPC: 2.844 cumulative IPC: 2.829 (Simulation time: 00 hr 11 min 21 sec)
Heartbeat CPU 0 instructions: 98500587 cycles: 42454185 heartbeat IPC: 2.775 cumulative IPC: 2.829 (Simulation time: 00 hr 11 min 23 sec)
Heartbeat CPU 0 instructions: 99000593 cycles: 42644647 heartbeat IPC: 2.625 cumulative IPC: 2.826 (Simulation time: 00 hr 11 min 25 sec)
Heartbeat CPU 0 instructions: 99500595 cycles: 42835970 heartbeat IPC: 2.613 cumulative IPC: 2.824 (Simulation time: 00 hr 11 min 27 sec)
Heartbeat CPU 0 instructions: 100000597 cycles: 43018482 heartbeat IPC: 2.74 cumulative IPC: 2.823 (Simulation time: 00 hr 11 min 29 sec)
Heartbeat CPU 0 instructions: 100500599 cycles: 43180922 heartbeat IPC: 3.078 cumulative IPC: 2.826 (Simulation time: 00 hr 11 min 31 sec)
Heartbeat CPU 0 instructions: 101000601 cycles: 43336117 heartbeat IPC: 3.222 cumulative IPC: 2.829 (Simulation time: 00 hr 11 min 32 sec)
Heartbeat CPU 0 instructions: 101500604 cycles: 43491552 heartbeat IPC: 3.217 cumulative IPC: 2.832 (Simulation time: 00 hr 11 min 34 sec)
Heartbeat CPU 0 instructions: 102000606 cycles: 43646158 heartbeat IPC: 3.234 cumulative IPC: 2.836 (Simulation time: 00 hr 11 min 36 sec)
Heartbeat CPU 0 instructions: 102500608 cycles: 43803160 heartbeat IPC: 3.185 cumulative IPC: 2.839 (Simulation time: 00 hr 11 min 37 sec)
Heartbeat CPU 0 instructions: 103000610 cycles: 43958037 heartbeat IPC: 3.228 cumulative IPC: 2.842 (Simulation time: 00 hr 11 min 39 sec)
Heartbeat CPU 0 instructions: 103500616 cycles: 44118865 heartbeat IPC: 3.109 cumulative IPC: 2.844 (Simulation time: 00 hr 11 min 41 sec)
Heartbeat CPU 0 instructions: 104000622 cycles: 44267754 heartbeat IPC: 3.358 cumulative IPC: 2.848 (Simulation time: 00 hr 11 min 43 sec)
Heartbeat CPU 0 instructions: 104500624 cycles: 44416035 heartbeat IPC: 3.372 cumulative IPC: 2.852 (Simulation time: 00 hr 11 min 45 sec)
Heartbeat CPU 0 instructions: 105000630 cycles: 44564268 heartbeat IPC: 3.373 cumulative IPC: 2.856 (Simulation time: 00 hr 11 min 46 sec)
Heartbeat CPU 0 instructions: 105500632 cycles: 44712555 heartbeat IPC: 3.372 cumulative IPC: 2.86 (Simulation time: 00 hr 11 min 48 sec)
Heartbeat CPU 0 instructions: 106000638 cycles: 44860788 heartbeat IPC: 3.373 cumulative IPC: 2.864 (Simulation time: 00 hr 11 min 50 sec)
Heartbeat CPU 0 instructions: 106500640 cycles: 45009069 heartbeat IPC: 3.372 cumulative IPC: 2.868 (Simulation time: 00 hr 11 min 52 sec)
Heartbeat CPU 0 instructions: 107000646 cycles: 45157302 heartbeat IPC: 3.373 cumulative IPC: 2.872 (Simulation time: 00 hr 11 min 54 sec)
Heartbeat CPU 0 instructions: 107500648 cycles: 45305583 heartbeat IPC: 3.372 cumulative IPC: 2.875 (Simulation time: 00 hr 11 min 56 sec)
Heartbeat CPU 0 instructions: 108000654 cycles: 45453822 heartbeat IPC: 3.373 cumulative IPC: 2.879 (Simulation time: 00 hr 11 min 58 sec)
Heartbeat CPU 0 instructions: 108500656 cycles: 45602103 heartbeat IPC: 3.372 cumulative IPC: 2.883 (Simulation time: 00 hr 12 min 00 sec)
Heartbeat CPU 0 instructions: 109000662 cycles: 45750336 heartbeat IPC: 3.373 cumulative IPC: 2.886 (Simulation time: 00 hr 12 min 02 sec)
Heartbeat CPU 0 instructions: 109500664 cycles: 45898617 heartbeat IPC: 3.372 cumulative IPC: 2.89 (Simulation time: 00 hr 12 min 03 sec)
Heartbeat CPU 0 instructions: 110000670 cycles: 46046850 heartbeat IPC: 3.373 cumulative IPC: 2.893 (Simulation time: 00 hr 12 min 05 sec)
Heartbeat CPU 0 instructions: 110500671 cycles: 46195812 heartbeat IPC: 3.357 cumulative IPC: 2.896 (Simulation time: 00 hr 12 min 07 sec)
Heartbeat CPU 0 instructions: 111000674 cycles: 46344095 heartbeat IPC: 3.372 cumulative IPC: 2.9 (Simulation time: 00 hr 12 min 09 sec)
Heartbeat CPU 0 instructions: 111500679 cycles: 46492327 heartbeat IPC: 3.373 cumulative IPC: 2.903 (Simulation time: 00 hr 12 min 11 sec)
Heartbeat CPU 0 instructions: 112000682 cycles: 46640609 heartbeat IPC: 3.372 cumulative IPC: 2.906 (Simulation time: 00 hr 12 min 13 sec)
Heartbeat CPU 0 instructions: 112500687 cycles: 46788841 heartbeat IPC: 3.373 cumulative IPC: 2.91 (Simulation time: 00 hr 12 min 15 sec)
Heartbeat CPU 0 instructions: 113000690 cycles: 46937123 heartbeat IPC: 3.372 cumulative IPC: 2.913 (Simulation time: 00 hr 12 min 17 sec)
Heartbeat CPU 0 instructions: 113500695 cycles: 47085355 heartbeat IPC: 3.373 cumulative IPC: 2.916 (Simulation time: 00 hr 12 min 19 sec)
Heartbeat CPU 0 instructions: 114000698 cycles: 47233643 heartbeat IPC: 3.372 cumulative IPC: 2.919 (Simulation time: 00 hr 12 min 20 sec)
Heartbeat CPU 0 instructions: 114500703 cycles: 47381875 heartbeat IPC: 3.373 cumulative IPC: 2.922 (Simulation time: 00 hr 12 min 22 sec)
Heartbeat CPU 0 instructions: 115000706 cycles: 47530157 heartbeat IPC: 3.372 cumulative IPC: 2.925 (Simulation time: 00 hr 12 min 24 sec)
Heartbeat CPU 0 instructions: 115500711 cycles: 47678389 heartbeat IPC: 3.373 cumulative IPC: 2.928 (Simulation time: 00 hr 12 min 26 sec)
Heartbeat CPU 0 instructions: 116000714 cycles: 47826671 heartbeat IPC: 3.372 cumulative IPC: 2.931 (Simulation time: 00 hr 12 min 28 sec)
Heartbeat CPU 0 instructions: 116500719 cycles: 47974909 heartbeat IPC: 3.373 cumulative IPC: 2.934 (Simulation time: 00 hr 12 min 30 sec)
Heartbeat CPU 0 instructions: 117000722 cycles: 48123191 heartbeat IPC: 3.372 cumulative IPC: 2.937 (Simulation time: 00 hr 12 min 32 sec)
Heartbeat CPU 0 instructions: 117500722 cycles: 48334815 heartbeat IPC: 2.363 cumulative IPC: 2.931 (Simulation time: 00 hr 12 min 34 sec)
Heartbeat CPU 0 instructions: 118000722 cycles: 48721065 heartbeat IPC: 1.294 cumulative IPC: 2.904 (Simulation time: 00 hr 12 min 38 sec)
Heartbeat CPU 0 instructions: 118500722 cycles: 49107315 heartbeat IPC: 1.294 cumulative IPC: 2.878 (Simulation time: 00 hr 12 min 42 sec)
Heartbeat CPU 0 instructions: 119000722 cycles: 49493565 heartbeat IPC: 1.294 cumulative IPC: 2.853 (Simulation time: 00 hr 12 min 46 sec)
Heartbeat CPU 0 instructions: 119500722 cycles: 49879815 heartbeat IPC: 1.294 cumulative IPC: 2.828 (Simulation time: 00 hr 12 min 50 sec)
Heartbeat CPU 0 instructions: 120000722 cycles: 50266065 heartbeat IPC: 1.294 cumulative IPC: 2.805 (Simulation time: 00 hr 12 min 54 sec)
Heartbeat CPU 0 instructions: 120500722 cycles: 50652315 heartbeat IPC: 1.294 cumulative IPC: 2.782 (Simulation time: 00 hr 12 min 58 sec)
Heartbeat CPU 0 instructions: 121000722 cycles: 51038565 heartbeat IPC: 1.294 cumulative IPC: 2.759 (Simulation time: 00 hr 13 min 02 sec)
Heartbeat CPU 0 instructions: 121500722 cycles: 51424815 heartbeat IPC: 1.294 cumulative IPC: 2.738 (Simulation time: 00 hr 13 min 06 sec)
Heartbeat CPU 0 instructions: 122000722 cycles: 51811065 heartbeat IPC: 1.294 cumulative IPC: 2.717 (Simulation time: 00 hr 13 min 10 sec)
Heartbeat CPU 0 instructions: 122500722 cycles: 52197315 heartbeat IPC: 1.294 cumulative IPC: 2.696 (Simulation time: 00 hr 13 min 13 sec)
Heartbeat CPU 0 instructions: 123000722 cycles: 52583565 heartbeat IPC: 1.294 cumulative IPC: 2.676 (Simulation time: 00 hr 13 min 17 sec)
Heartbeat CPU 0 instructions: 123500722 cycles: 52969815 heartbeat IPC: 1.294 cumulative IPC: 2.657 (Simulation time: 00 hr 13 min 21 sec)
Heartbeat CPU 0 instructions: 124000722 cycles: 53356065 heartbeat IPC: 1.294 cumulative IPC: 2.638 (Simulation time: 00 hr 13 min 25 sec)
Heartbeat CPU 0 instructions: 124500722 cycles: 53742315 heartbeat IPC: 1.294 cumulative IPC: 2.62 (Simulation time: 00 hr 13 min 29 sec)
Heartbeat CPU 0 instructions: 125000722 cycles: 54128565 heartbeat IPC: 1.294 cumulative IPC: 2.602 (Simulation time: 00 hr 13 min 33 sec)
Heartbeat CPU 0 instructions: 125500722 cycles: 54514815 heartbeat IPC: 1.294 cumulative IPC: 2.585 (Simulation time: 00 hr 13 min 37 sec)
Heartbeat CPU 0 instructions: 126000726 cycles: 54692128 heartbeat IPC: 2.82 cumulative IPC: 2.586 (Simulation time: 00 hr 13 min 40 sec)
Heartbeat CPU 0 instructions: 126500733 cycles: 54822458 heartbeat IPC: 3.836 cumulative IPC: 2.592 (Simulation time: 00 hr 13 min 42 sec)
Heartbeat CPU 0 instructions: 127000739 cycles: 54951633 heartbeat IPC: 3.871 cumulative IPC: 2.598 (Simulation time: 00 hr 13 min 44 sec)
Heartbeat CPU 0 instructions: 127500741 cycles: 55080444 heartbeat IPC: 3.882 cumulative IPC: 2.603 (Simulation time: 00 hr 13 min 46 sec)
Heartbeat CPU 0 instructions: 128000747 cycles: 55209377 heartbeat IPC: 3.878 cumulative IPC: 2.609 (Simulation time: 00 hr 13 min 49 sec)
Heartbeat CPU 0 instructions: 128500752 cycles: 55339210 heartbeat IPC: 3.851 cumulative IPC: 2.614 (Simulation time: 00 hr 13 min 51 sec)
Heartbeat CPU 0 instructions: 129000755 cycles: 55469090 heartbeat IPC: 3.85 cumulative IPC: 2.619 (Simulation time: 00 hr 13 min 53 sec)
Heartbeat CPU 0 instructions: 129500762 cycles: 55615468 heartbeat IPC: 3.416 cumulative IPC: 2.623 (Simulation time: 00 hr 13 min 56 sec)
Heartbeat CPU 0 instructions: 130000764 cycles: 55808759 heartbeat IPC: 2.587 cumulative IPC: 2.623 (Simulation time: 00 hr 13 min 58 sec)
Heartbeat CPU 0 instructions: 130500764 cycles: 55949103 heartbeat IPC: 3.563 cumulative IPC: 2.627 (Simulation time: 00 hr 14 min 00 sec)
Heartbeat CPU 0 instructions: 131000767 cycles: 56087765 heartbeat IPC: 3.606 cumulative IPC: 2.632 (Simulation time: 00 hr 14 min 02 sec)
Heartbeat CPU 0 instructions: 131500767 cycles: 56226066 heartbeat IPC: 3.615 cumulative IPC: 2.636 (Simulation time: 00 hr 14 min 05 sec)
Heartbeat CPU 0 instructions: 132000770 cycles: 56364541 heartbeat IPC: 3.611 cumulative IPC: 2.64 (Simulation time: 00 hr 14 min 07 sec)
Heartbeat CPU 0 instructions: 132500770 cycles: 56503232 heartbeat IPC: 3.605 cumulative IPC: 2.645 (Simulation time: 00 hr 14 min 10 sec)
Heartbeat CPU 0 instructions: 133000770 cycles: 56641967 heartbeat IPC: 3.604 cumulative IPC: 2.649 (Simulation time: 00 hr 14 min 12 sec)
Heartbeat CPU 0 instructions: 133500771 cycles: 56785498 heartbeat IPC: 3.484 cumulative IPC: 2.653 (Simulation time: 00 hr 14 min 15 sec)
Heartbeat CPU 0 instructions: 134000771 cycles: 56984904 heartbeat IPC: 2.507 cumulative IPC: 2.652 (Simulation time: 00 hr 14 min 17 sec)
Heartbeat CPU 0 instructions: 134500776 cycles: 57146806 heartbeat IPC: 3.088 cumulative IPC: 2.654 (Simulation time: 00 hr 14 min 19 sec)
Heartbeat CPU 0 instructions: 135000776 cycles: 57286853 heartbeat IPC: 3.57 cumulative IPC: 2.658 (Simulation time: 00 hr 14 min 22 sec)
Heartbeat CPU 0 instructions: 135500776 cycles: 57427036 heartbeat IPC: 3.567 cumulative IPC: 2.662 (Simulation time: 00 hr 14 min 24 sec)
Heartbeat CPU 0 instructions: 136000780 cycles: 57567023 heartbeat IPC: 3.572 cumulative IPC: 2.666 (Simulation time: 00 hr 14 min 27 sec)
Heartbeat CPU 0 instructions: 136500780 cycles: 57707163 heartbeat IPC: 3.568 cumulative IPC: 2.67 (Simulation time: 00 hr 14 min 29 sec)
Heartbeat CPU 0 instructions: 137000780 cycles: 57846410 heartbeat IPC: 3.591 cumulative IPC: 2.674 (Simulation time: 00 hr 14 min 31 sec)
Heartbeat CPU 0 instructions: 137500787 cycles: 57990723 heartbeat IPC: 3.465 cumulative IPC: 2.677 (Simulation time: 00 hr 14 min 34 sec)
Heartbeat CPU 0 instructions: 138000788 cycles: 58159561 heartbeat IPC: 2.961 cumulative IPC: 2.679 (Simulation time: 00 hr 14 min 36 sec)
Heartbeat CPU 0 instructions: 138500793 cycles: 58330213 heartbeat IPC: 2.93 cumulative IPC: 2.68 (Simulation time: 00 hr 14 min 39 sec)
Heartbeat CPU 0 instructions: 139000793 cycles: 58468482 heartbeat IPC: 3.616 cumulative IPC: 2.684 (Simulation time: 00 hr 14 min 41 sec)
Heartbeat CPU 0 instructions: 139500793 cycles: 58607249 heartbeat IPC: 3.603 cumulative IPC: 2.688 (Simulation time: 00 hr 14 min 43 sec)
Heartbeat CPU 0 instructions: 140000793 cycles: 58745945 heartbeat IPC: 3.605 cumulative IPC: 2.692 (Simulation time: 00 hr 14 min 46 sec)
Heartbeat CPU 0 instructions: 140500793 cycles: 58884584 heartbeat IPC: 3.606 cumulative IPC: 2.695 (Simulation time: 00 hr 14 min 48 sec)
Heartbeat CPU 0 instructions: 141000794 cycles: 59023877 heartbeat IPC: 3.59 cumulative IPC: 2.699 (Simulation time: 00 hr 14 min 51 sec)
Heartbeat CPU 0 instructions: 141500796 cycles: 59163412 heartbeat IPC: 3.583 cumulative IPC: 2.703 (Simulation time: 00 hr 14 min 53 sec)
Heartbeat CPU 0 instructions: 142000797 cycles: 59318634 heartbeat IPC: 3.221 cumulative IPC: 2.705 (Simulation time: 00 hr 14 min 56 sec)
Heartbeat CPU 0 instructions: 142500803 cycles: 59529558 heartbeat IPC: 2.371 cumulative IPC: 2.703 (Simulation time: 00 hr 14 min 58 sec)
Heartbeat CPU 0 instructions: 143000803 cycles: 59669826 heartbeat IPC: 3.565 cumulative IPC: 2.707 (Simulation time: 00 hr 15 min 00 sec)
Heartbeat CPU 0 instructions: 143500803 cycles: 59810109 heartbeat IPC: 3.564 cumulative IPC: 2.71 (Simulation time: 00 hr 15 min 03 sec)
Heartbeat CPU 0 instructions: 144000806 cycles: 59950238 heartbeat IPC: 3.568 cumulative IPC: 2.713 (Simulation time: 00 hr 15 min 05 sec)
Heartbeat CPU 0 instructions: 144500809 cycles: 60090266 heartbeat IPC: 3.571 cumulative IPC: 2.717 (Simulation time: 00 hr 15 min 08 sec)
Heartbeat CPU 0 instructions: 145000811 cycles: 60230651 heartbeat IPC: 3.562 cumulative IPC: 2.72 (Simulation time: 00 hr 15 min 10 sec)
Heartbeat CPU 0 instructions: 145500811 cycles: 60370721 heartbeat IPC: 3.57 cumulative IPC: 2.724 (Simulation time: 00 hr 15 min 13 sec)
Heartbeat CPU 0 instructions: 146000815 cycles: 60520727 heartbeat IPC: 3.333 cumulative IPC: 2.726 (Simulation time: 00 hr 15 min 15 sec)
Heartbeat CPU 0 instructions: 146500815 cycles: 60706717 heartbeat IPC: 2.688 cumulative IPC: 2.726 (Simulation time: 00 hr 15 min 18 sec)
Heartbeat CPU 0 instructions: 147000819 cycles: 60856195 heartbeat IPC: 3.345 cumulative IPC: 2.729 (Simulation time: 00 hr 15 min 20 sec)
Heartbeat CPU 0 instructions: 147500824 cycles: 60994759 heartbeat IPC: 3.608 cumulative IPC: 2.732 (Simulation time: 00 hr 15 min 23 sec)
Heartbeat CPU 0 instructions: 148000827 cycles: 61133518 heartbeat IPC: 3.603 cumulative IPC: 2.736 (Simulation time: 00 hr 15 min 25 sec)
Heartbeat CPU 0 instructions: 148500830 cycles: 61272313 heartbeat IPC: 3.602 cumulative IPC: 2.739 (Simulation time: 00 hr 15 min 27 sec)
Heartbeat CPU 0 instructions: 149000835 cycles: 61410727 heartbeat IPC: 3.612 cumulative IPC: 2.742 (Simulation time: 00 hr 15 min 30 sec)
Heartbeat CPU 0 instructions: 149500835 cycles: 61549508 heartbeat IPC: 3.603 cumulative IPC: 2.746 (Simulation time: 00 hr 15 min 32 sec)
Heartbeat CPU 0 instructions: 150000835 cycles: 61696426 heartbeat IPC: 3.403 cumulative IPC: 2.748 (Simulation time: 00 hr 15 min 35 sec)
Heartbeat CPU 0 instructions: 150500835 cycles: 61879475 heartbeat IPC: 2.732 cumulative IPC: 2.748 (Simulation time: 00 hr 15 min 37 sec)
Heartbeat CPU 0 instructions: 151000837 cycles: 62058988 heartbeat IPC: 2.785 cumulative IPC: 2.748 (Simulation time: 00 hr 15 min 40 sec)
Heartbeat CPU 0 instructions: 151500840 cycles: 62199203 heartbeat IPC: 3.566 cumulative IPC: 2.751 (Simulation time: 00 hr 15 min 42 sec)
Heartbeat CPU 0 instructions: 152000842 cycles: 62339144 heartbeat IPC: 3.573 cumulative IPC: 2.754 (Simulation time: 00 hr 15 min 45 sec)
Heartbeat CPU 0 instructions: 152500848 cycles: 62478989 heartbeat IPC: 3.575 cumulative IPC: 2.758 (Simulation time: 00 hr 15 min 47 sec)
Heartbeat CPU 0 instructions: 153000848 cycles: 62618896 heartbeat IPC: 3.574 cumulative IPC: 2.761 (Simulation time: 00 hr 15 min 50 sec)
Heartbeat CPU 0 instructions: 153500852 cycles: 62758881 heartbeat IPC: 3.572 cumulative IPC: 2.764 (Simulation time: 00 hr 15 min 52 sec)
Heartbeat CPU 0 instructions: 154000859 cycles: 62902584 heartbeat IPC: 3.479 cumulative IPC: 2.766 (Simulation time: 00 hr 15 min 55 sec)
Heartbeat CPU 0 instructions: 154500861 cycles: 63055681 heartbeat IPC: 3.266 cumulative IPC: 2.768 (Simulation time: 00 hr 15 min 58 sec)
Heartbeat CPU 0 instructions: 155000865 cycles: 63197620 heartbeat IPC: 3.523 cumulative IPC: 2.771 (Simulation time: 00 hr 16 min 00 sec)
Heartbeat CPU 0 instructions: 155500872 cycles: 63334855 heartbeat IPC: 3.643 cumulative IPC: 2.774 (Simulation time: 00 hr 16 min 03 sec)
Heartbeat CPU 0 instructions: 156000874 cycles: 63472031 heartbeat IPC: 3.645 cumulative IPC: 2.778 (Simulation time: 00 hr 16 min 05 sec)
Heartbeat CPU 0 instructions: 156500877 cycles: 63609078 heartbeat IPC: 3.648 cumulative IPC: 2.781 (Simulation time: 00 hr 16 min 08 sec)
Heartbeat CPU 0 instructions: 157000878 cycles: 63746098 heartbeat IPC: 3.649 cumulative IPC: 2.784 (Simulation time: 00 hr 16 min 10 sec)
Heartbeat CPU 0 instructions: 157500882 cycles: 63883311 heartbeat IPC: 3.644 cumulative IPC: 2.787 (Simulation time: 00 hr 16 min 13 sec)
Heartbeat CPU 0 instructions: 158000882 cycles: 64021476 heartbeat IPC: 3.619 cumulative IPC: 2.79 (Simulation time: 00 hr 16 min 15 sec)
Heartbeat CPU 0 instructions: 158500882 cycles: 64393350 heartbeat IPC: 1.345 cumulative IPC: 2.776 (Simulation time: 00 hr 16 min 21 sec)
Heartbeat CPU 0 instructions: 159000883 cycles: 64663775 heartbeat IPC: 1.849 cumulative IPC: 2.77 (Simulation time: 00 hr 16 min 25 sec)
Heartbeat CPU 0 instructions: 159500888 cycles: 64956156 heartbeat IPC: 1.71 cumulative IPC: 2.762 (Simulation time: 00 hr 16 min 30 sec)
Heartbeat CPU 0 instructions: 160000890 cycles: 65419705 heartbeat IPC: 1.079 cumulative IPC: 2.742 (Simulation time: 00 hr 16 min 37 sec)
Heartbeat CPU 0 instructions: 160500894 cycles: 65614639 heartbeat IPC: 2.565 cumulative IPC: 2.742 (Simulation time: 00 hr 16 min 40 sec)
Heartbeat CPU 0 instructions: 161000899 cycles: 65809642 heartbeat IPC: 2.564 cumulative IPC: 2.741 (Simulation time: 00 hr 16 min 44 sec)
Heartbeat CPU 0 instructions: 161500905 cycles: 66228995 heartbeat IPC: 1.192 cumulative IPC: 2.725 (Simulation time: 00 hr 16 min 50 sec)
Heartbeat CPU 0 instructions: 162000910 cycles: 66422139 heartbeat IPC: 2.589 cumulative IPC: 2.724 (Simulation time: 00 hr 16 min 53 sec)
Heartbeat CPU 0 instructions: 162500915 cycles: 66623485 heartbeat IPC: 2.483 cumulative IPC: 2.723 (Simulation time: 00 hr 16 min 57 sec)
Heartbeat CPU 0 instructions: 163000921 cycles: 66925857 heartbeat IPC: 1.654 cumulative IPC: 2.715 (Simulation time: 00 hr 17 min 02 sec)
Heartbeat CPU 0 instructions: 163500921 cycles: 67115180 heartbeat IPC: 2.641 cumulative IPC: 2.715 (Simulation time: 00 hr 17 min 05 sec)
Heartbeat CPU 0 instructions: 164000927 cycles: 67302560 heartbeat IPC: 2.668 cumulative IPC: 2.715 (Simulation time: 00 hr 17 min 08 sec)
Heartbeat CPU 0 instructions: 164500929 cycles: 67550769 heartbeat IPC: 2.014 cumulative IPC: 2.711 (Simulation time: 00 hr 17 min 12 sec)
Heartbeat CPU 0 instructions: 165000935 cycles: 67785308 heartbeat IPC: 2.132 cumulative IPC: 2.707 (Simulation time: 00 hr 17 min 16 sec)
Heartbeat CPU 0 instructions: 165500939 cycles: 68003490 heartbeat IPC: 2.292 cumulative IPC: 2.705 (Simulation time: 00 hr 17 min 20 sec)
Heartbeat CPU 0 instructions: 166000943 cycles: 68273236 heartbeat IPC: 1.854 cumulative IPC: 2.7 (Simulation time: 00 hr 17 min 24 sec)
Heartbeat CPU 0 instructions: 166500948 cycles: 68466688 heartbeat IPC: 2.585 cumulative IPC: 2.699 (Simulation time: 00 hr 17 min 28 sec)
Heartbeat CPU 0 instructions: 167000955 cycles: 68660257 heartbeat IPC: 2.583 cumulative IPC: 2.699 (Simulation time: 00 hr 17 min 31 sec)
Heartbeat CPU 0 instructions: 167500957 cycles: 68898581 heartbeat IPC: 2.098 cumulative IPC: 2.696 (Simulation time: 00 hr 17 min 35 sec)
Heartbeat CPU 0 instructions: 168000959 cycles: 69094705 heartbeat IPC: 2.549 cumulative IPC: 2.695 (Simulation time: 00 hr 17 min 39 sec)
Heartbeat CPU 0 instructions: 168500966 cycles: 69295962 heartbeat IPC: 2.484 cumulative IPC: 2.694 (Simulation time: 00 hr 17 min 42 sec)
Heartbeat CPU 0 instructions: 169000970 cycles: 69537914 heartbeat IPC: 2.067 cumulative IPC: 2.691 (Simulation time: 00 hr 17 min 46 sec)
Heartbeat CPU 0 instructions: 169500975 cycles: 69731254 heartbeat IPC: 2.586 cumulative IPC: 2.69 (Simulation time: 00 hr 17 min 50 sec)
Heartbeat CPU 0 instructions: 170000982 cycles: 69923149 heartbeat IPC: 2.606 cumulative IPC: 2.69 (Simulation time: 00 hr 17 min 53 sec)
Heartbeat CPU 0 instructions: 170500982 cycles: 70184781 heartbeat IPC: 1.911 cumulative IPC: 2.685 (Simulation time: 00 hr 17 min 58 sec)
Heartbeat CPU 0 instructions: 171000988 cycles: 70403608 heartbeat IPC: 2.285 cumulative IPC: 2.683 (Simulation time: 00 hr 18 min 01 sec)
Heartbeat CPU 0 instructions: 171500990 cycles: 70620840 heartbeat IPC: 2.302 cumulative IPC: 2.681 (Simulation time: 00 hr 18 min 05 sec)
Heartbeat CPU 0 instructions: 172000993 cycles: 70890499 heartbeat IPC: 1.854 cumulative IPC: 2.676 (Simulation time: 00 hr 18 min 09 sec)
Heartbeat CPU 0 instructions: 172500997 cycles: 71084027 heartbeat IPC: 2.584 cumulative IPC: 2.676 (Simulation time: 00 hr 18 min 13 sec)
Heartbeat CPU 0 instructions: 173001004 cycles: 71279899 heartbeat IPC: 2.553 cumulative IPC: 2.676 (Simulation time: 00 hr 18 min 16 sec)
Heartbeat CPU 0 instructions: 173501005 cycles: 71517035 heartbeat IPC: 2.108 cumulative IPC: 2.673 (Simulation time: 00 hr 18 min 20 sec)
Heartbeat CPU 0 instructions: 174001009 cycles: 71712163 heartbeat IPC: 2.562 cumulative IPC: 2.672 (Simulation time: 00 hr 18 min 24 sec)
Heartbeat CPU 0 instructions: 174501012 cycles: 71906381 heartbeat IPC: 2.574 cumulative IPC: 2.672 (Simulation time: 00 hr 18 min 27 sec)
Heartbeat CPU 0 instructions: 175001019 cycles: 72141330 heartbeat IPC: 2.128 cumulative IPC: 2.669 (Simulation time: 00 hr 18 min 31 sec)
Heartbeat CPU 0 instructions: 175501025 cycles: 72338270 heartbeat IPC: 2.539 cumulative IPC: 2.669 (Simulation time: 00 hr 18 min 34 sec)
Heartbeat CPU 0 instructions: 176001025 cycles: 72530914 heartbeat IPC: 2.595 cumulative IPC: 2.668 (Simulation time: 00 hr 18 min 38 sec)
Heartbeat CPU 0 instructions: 176501030 cycles: 72776963 heartbeat IPC: 2.032 cumulative IPC: 2.665 (Simulation time: 00 hr 18 min 42 sec)
Heartbeat CPU 0 instructions: 177001030 cycles: 72995152 heartbeat IPC: 2.292 cumulative IPC: 2.663 (Simulation time: 00 hr 18 min 46 sec)
Heartbeat CPU 0 instructions: 177501034 cycles: 73219354 heartbeat IPC: 2.23 cumulative IPC: 2.661 (Simulation time: 00 hr 18 min 49 sec)
Heartbeat CPU 0 instructions: 178001038 cycles: 73477331 heartbeat IPC: 1.938 cumulative IPC: 2.657 (Simulation time: 00 hr 18 min 53 sec)
Heartbeat CPU 0 instructions: 178501042 cycles: 73679367 heartbeat IPC: 2.475 cumulative IPC: 2.657 (Simulation time: 00 hr 18 min 57 sec)
Heartbeat CPU 0 instructions: 179001046 cycles: 73875107 heartbeat IPC: 2.554 cumulative IPC: 2.656 (Simulation time: 00 hr 19 min 00 sec)
Heartbeat CPU 0 instructions: 179501046 cycles: 74105923 heartbeat IPC: 2.166 cumulative IPC: 2.654 (Simulation time: 00 hr 19 min 04 sec)
Heartbeat CPU 0 instructions: 180001046 cycles: 74308625 heartbeat IPC: 2.467 cumulative IPC: 2.653 (Simulation time: 00 hr 19 min 08 sec)
Heartbeat CPU 0 instructions: 180501050 cycles: 74499261 heartbeat IPC: 2.623 cumulative IPC: 2.653 (Simulation time: 00 hr 19 min 11 sec)
Heartbeat CPU 0 instructions: 181001054 cycles: 74725553 heartbeat IPC: 2.21 cumulative IPC: 2.651 (Simulation time: 00 hr 19 min 15 sec)
Heartbeat CPU 0 instructions: 181501059 cycles: 74921933 heartbeat IPC: 2.546 cumulative IPC: 2.65 (Simulation time: 00 hr 19 min 19 sec)
Heartbeat CPU 0 instructions: 182001066 cycles: 75111402 heartbeat IPC: 2.639 cumulative IPC: 2.65 (Simulation time: 00 hr 19 min 22 sec)
Heartbeat CPU 0 instructions: 182501072 cycles: 75365137 heartbeat IPC: 1.971 cumulative IPC: 2.647 (Simulation time: 00 hr 19 min 26 sec)
Heartbeat CPU 0 instructions: 183001073 cycles: 75584496 heartbeat IPC: 2.279 cumulative IPC: 2.645 (Simulation time: 00 hr 19 min 30 sec)
Heartbeat CPU 0 instructions: 183501079 cycles: 75800606 heartbeat IPC: 2.314 cumulative IPC: 2.644 (Simulation time: 00 hr 19 min 33 sec)
Heartbeat CPU 0 instructions: 184001085 cycles: 76058857 heartbeat IPC: 1.936 cumulative IPC: 2.64 (Simulation time: 00 hr 19 min 37 sec)
Heartbeat CPU 0 instructions: 184501085 cycles: 76251252 heartbeat IPC: 2.599 cumulative IPC: 2.64 (Simulation time: 00 hr 19 min 41 sec)
Heartbeat CPU 0 instructions: 185001085 cycles: 76445146 heartbeat IPC: 2.579 cumulative IPC: 2.64 (Simulation time: 00 hr 19 min 44 sec)
Heartbeat CPU 0 instructions: 185501087 cycles: 76676857 heartbeat IPC: 2.158 cumulative IPC: 2.638 (Simulation time: 00 hr 19 min 48 sec)
Heartbeat CPU 0 instructions: 186001094 cycles: 76866458 heartbeat IPC: 2.637 cumulative IPC: 2.638 (Simulation time: 00 hr 19 min 51 sec)
Heartbeat CPU 0 instructions: 186501094 cycles: 77060256 heartbeat IPC: 2.58 cumulative IPC: 2.638 (Simulation time: 00 hr 19 min 55 sec)
Heartbeat CPU 0 instructions: 187001098 cycles: 77289165 heartbeat IPC: 2.184 cumulative IPC: 2.636 (Simulation time: 00 hr 19 min 59 sec)
Heartbeat CPU 0 instructions: 187501105 cycles: 77481414 heartbeat IPC: 2.601 cumulative IPC: 2.635 (Simulation time: 00 hr 20 min 02 sec)
Heartbeat CPU 0 instructions: 188001106 cycles: 77676143 heartbeat IPC: 2.568 cumulative IPC: 2.635 (Simulation time: 00 hr 20 min 05 sec)
Heartbeat CPU 0 instructions: 188501108 cycles: 77928411 heartbeat IPC: 1.982 cumulative IPC: 2.632 (Simulation time: 00 hr 20 min 09 sec)
Heartbeat CPU 0 instructions: 189001108 cycles: 78147396 heartbeat IPC: 2.283 cumulative IPC: 2.631 (Simulation time: 00 hr 20 min 13 sec)
Heartbeat CPU 0 instructions: 189501110 cycles: 78372993 heartbeat IPC: 2.216 cumulative IPC: 2.629 (Simulation time: 00 hr 20 min 17 sec)
Heartbeat CPU 0 instructions: 190001112 cycles: 78627472 heartbeat IPC: 1.965 cumulative IPC: 2.626 (Simulation time: 00 hr 20 min 21 sec)
Heartbeat CPU 0 instructions: 190501112 cycles: 78822914 heartbeat IPC: 2.558 cumulative IPC: 2.625 (Simulation time: 00 hr 20 min 24 sec)
Heartbeat CPU 0 instructions: 191001114 cycles: 79017472 heartbeat IPC: 2.57 cumulative IPC: 2.625 (Simulation time: 00 hr 20 min 28 sec)
Heartbeat CPU 0 instructions: 191501114 cycles: 79248770 heartbeat IPC: 2.162 cumulative IPC: 2.623 (Simulation time: 00 hr 20 min 31 sec)
Heartbeat CPU 0 instructions: 192001116 cycles: 79442648 heartbeat IPC: 2.579 cumulative IPC: 2.623 (Simulation time: 00 hr 20 min 35 sec)
Heartbeat CPU 0 instructions: 192501118 cycles: 79630933 heartbeat IPC: 2.656 cumulative IPC: 2.623 (Simulation time: 00 hr 20 min 38 sec)
Heartbeat CPU 0 instructions: 193001124 cycles: 79861182 heartbeat IPC: 2.172 cumulative IPC: 2.621 (Simulation time: 00 hr 20 min 42 sec)
Heartbeat CPU 0 instructions: 193501129 cycles: 80057586 heartbeat IPC: 2.546 cumulative IPC: 2.621 (Simulation time: 00 hr 20 min 45 sec)
Heartbeat CPU 0 instructions: 194001134 cycles: 80247968 heartbeat IPC: 2.626 cumulative IPC: 2.621 (Simulation time: 00 hr 20 min 49 sec)
Heartbeat CPU 0 instructions: 194501141 cycles: 80498417 heartbeat IPC: 1.996 cumulative IPC: 2.618 (Simulation time: 00 hr 20 min 53 sec)
Heartbeat CPU 0 instructions: 195001141 cycles: 80723080 heartbeat IPC: 2.226 cumulative IPC: 2.617 (Simulation time: 00 hr 20 min 56 sec)
Heartbeat CPU 0 instructions: 195501141 cycles: 80943306 heartbeat IPC: 2.27 cumulative IPC: 2.615 (Simulation time: 00 hr 21 min 00 sec)
Heartbeat CPU 0 instructions: 196001142 cycles: 81192439 heartbeat IPC: 2.007 cumulative IPC: 2.613 (Simulation time: 00 hr 21 min 04 sec)
Heartbeat CPU 0 instructions: 196501145 cycles: 81388746 heartbeat IPC: 2.547 cumulative IPC: 2.612 (Simulation time: 00 hr 21 min 08 sec)
Heartbeat CPU 0 instructions: 197001149 cycles: 81587780 heartbeat IPC: 2.512 cumulative IPC: 2.612 (Simulation time: 00 hr 21 min 11 sec)
Heartbeat CPU 0 instructions: 197501150 cycles: 81823089 heartbeat IPC: 2.125 cumulative IPC: 2.61 (Simulation time: 00 hr 21 min 15 sec)
Heartbeat CPU 0 instructions: 198001157 cycles: 82016136 heartbeat IPC: 2.59 cumulative IPC: 2.61 (Simulation time: 00 hr 21 min 18 sec)
Heartbeat CPU 0 instructions: 198501158 cycles: 82213672 heartbeat IPC: 2.531 cumulative IPC: 2.61 (Simulation time: 00 hr 21 min 22 sec)
Heartbeat CPU 0 instructions: 199001160 cycles: 82442860 heartbeat IPC: 2.182 cumulative IPC: 2.608 (Simulation time: 00 hr 21 min 25 sec)
Heartbeat CPU 0 instructions: 199501164 cycles: 82637344 heartbeat IPC: 2.571 cumulative IPC: 2.608 (Simulation time: 00 hr 21 min 29 sec)
Heartbeat CPU 0 instructions: 200001168 cycles: 82829520 heartbeat IPC: 2.602 cumulative IPC: 2.608 (Simulation time: 00 hr 21 min 32 sec)
Heartbeat CPU 0 instructions: 200501174 cycles: 83087883 heartbeat IPC: 1.935 cumulative IPC: 2.605 (Simulation time: 00 hr 21 min 36 sec)
Heartbeat CPU 0 instructions: 201001181 cycles: 83307470 heartbeat IPC: 2.277 cumulative IPC: 2.604 (Simulation time: 00 hr 21 min 40 sec)
Heartbeat CPU 0 instructions: 201501183 cycles: 83533645 heartbeat IPC: 2.211 cumulative IPC: 2.602 (Simulation time: 00 hr 21 min 44 sec)
Heartbeat CPU 0 instructions: 202001188 cycles: 83782767 heartbeat IPC: 2.007 cumulative IPC: 2.599 (Simulation time: 00 hr 21 min 47 sec)
Heartbeat CPU 0 instructions: 202501192 cycles: 83981591 heartbeat IPC: 2.515 cumulative IPC: 2.599 (Simulation time: 00 hr 21 min 51 sec)
Heartbeat CPU 0 instructions: 203001196 cycles: 84177058 heartbeat IPC: 2.558 cumulative IPC: 2.599 (Simulation time: 00 hr 21 min 54 sec)
Heartbeat CPU 0 instructions: 203501196 cycles: 84412884 heartbeat IPC: 2.12 cumulative IPC: 2.597 (Simulation time: 00 hr 21 min 58 sec)
Heartbeat CPU 0 instructions: 204001200 cycles: 84608895 heartbeat IPC: 2.551 cumulative IPC: 2.597 (Simulation time: 00 hr 22 min 01 sec)
Heartbeat CPU 0 instructions: 204501207 cycles: 84807447 heartbeat IPC: 2.518 cumulative IPC: 2.597 (Simulation time: 00 hr 22 min 05 sec)
Heartbeat CPU 0 instructions: 205001207 cycles: 85039567 heartbeat IPC: 2.154 cumulative IPC: 2.595 (Simulation time: 00 hr 22 min 09 sec)
Heartbeat CPU 0 instructions: 205501209 cycles: 85232732 heartbeat IPC: 2.588 cumulative IPC: 2.595 (Simulation time: 00 hr 22 min 12 sec)
Heartbeat CPU 0 instructions: 206001213 cycles: 85422526 heartbeat IPC: 2.634 cumulative IPC: 2.595 (Simulation time: 00 hr 22 min 15 sec)
Heartbeat CPU 0 instructions: 206501217 cycles: 85679142 heartbeat IPC: 1.948 cumulative IPC: 2.592 (Simulation time: 00 hr 22 min 19 sec)
Heartbeat CPU 0 instructions: 207001221 cycles: 85903974 heartbeat IPC: 2.224 cumulative IPC: 2.591 (Simulation time: 00 hr 22 min 23 sec)
Heartbeat CPU 0 instructions: 207501221 cycles: 86123414 heartbeat IPC: 2.279 cumulative IPC: 2.59 (Simulation time: 00 hr 22 min 26 sec)
Heartbeat CPU 0 instructions: 208001226 cycles: 86371365 heartbeat IPC: 2.017 cumulative IPC: 2.588 (Simulation time: 00 hr 22 min 30 sec)
Heartbeat CPU 0 instructions: 208501228 cycles: 86567912 heartbeat IPC: 2.544 cumulative IPC: 2.587 (Simulation time: 00 hr 22 min 33 sec)
Heartbeat CPU 0 instructions: 209001234 cycles: 86760226 heartbeat IPC: 2.6 cumulative IPC: 2.587 (Simulation time: 00 hr 22 min 37 sec)
Heartbeat CPU 0 instructions: 209501238 cycles: 86994679 heartbeat IPC: 2.133 cumulative IPC: 2.586 (Simulation time: 00 hr 22 min 41 sec)
Heartbeat CPU 0 instructions: 210001240 cycles: 87190970 heartbeat IPC: 2.547 cumulative IPC: 2.586 (Simulation time: 00 hr 22 min 44 sec)
Heartbeat CPU 0 instructions: 210501240 cycles: 87381491 heartbeat IPC: 2.624 cumulative IPC: 2.586 (Simulation time: 00 hr 22 min 47 sec)
Heartbeat CPU 0 instructions: 211001240 cycles: 87611697 heartbeat IPC: 2.172 cumulative IPC: 2.584 (Simulation time: 00 hr 22 min 51 sec)
Heartbeat CPU 0 instructions: 211501244 cycles: 87806497 heartbeat IPC: 2.567 cumulative IPC: 2.584 (Simulation time: 00 hr 22 min 54 sec)
Heartbeat CPU 0 instructions: 212001250 cycles: 87995323 heartbeat IPC: 2.648 cumulative IPC: 2.584 (Simulation time: 00 hr 22 min 57 sec)
Heartbeat CPU 0 instructions: 212501252 cycles: 88258543 heartbeat IPC: 1.9 cumulative IPC: 2.581 (Simulation time: 00 hr 23 min 01 sec)
Heartbeat CPU 0 instructions: 213001256 cycles: 88476831 heartbeat IPC: 2.291 cumulative IPC: 2.58 (Simulation time: 00 hr 23 min 05 sec)
Heartbeat CPU 0 instructions: 213501261 cycles: 88696239 heartbeat IPC: 2.279 cumulative IPC: 2.579 (Simulation time: 00 hr 23 min 08 sec)
Heartbeat CPU 0 instructions: 214001261 cycles: 88946502 heartbeat IPC: 1.998 cumulative IPC: 2.577 (Simulation time: 00 hr 23 min 12 sec)
Heartbeat CPU 0 instructions: 214501268 cycles: 89143474 heartbeat IPC: 2.538 cumulative IPC: 2.577 (Simulation time: 00 hr 23 min 15 sec)
Heartbeat CPU 0 instructions: 215001271 cycles: 89339733 heartbeat IPC: 2.548 cumulative IPC: 2.577 (Simulation time: 00 hr 23 min 19 sec)
Heartbeat CPU 0 instructions: 215501275 cycles: 89569480 heartbeat IPC: 2.176 cumulative IPC: 2.575 (Simulation time: 00 hr 23 min 22 sec)
Heartbeat CPU 0 instructions: 216001279 cycles: 89760118 heartbeat IPC: 2.623 cumulative IPC: 2.576 (Simulation time: 00 hr 23 min 25 sec)
Heartbeat CPU 0 instructions: 216501281 cycles: 89956671 heartbeat IPC: 2.544 cumulative IPC: 2.575 (Simulation time: 00 hr 23 min 29 sec)
Heartbeat CPU 0 instructions: 217001288 cycles: 90180701 heartbeat IPC: 2.232 cumulative IPC: 2.574 (Simulation time: 00 hr 23 min 32 sec)
Heartbeat CPU 0 instructions: 217501294 cycles: 90373638 heartbeat IPC: 2.592 cumulative IPC: 2.574 (Simulation time: 00 hr 23 min 36 sec)
Heartbeat CPU 0 instructions: 218001295 cycles: 90581021 heartbeat IPC: 2.411 cumulative IPC: 2.574 (Simulation time: 00 hr 23 min 39 sec)
Heartbeat CPU 0 instructions: 218501299 cycles: 90830852 heartbeat IPC: 2.001 cumulative IPC: 2.572 (Simulation time: 00 hr 23 min 43 sec)
Heartbeat CPU 0 instructions: 219001304 cycles: 91051089 heartbeat IPC: 2.27 cumulative IPC: 2.571 (Simulation time: 00 hr 23 min 46 sec)
Heartbeat CPU 0 instructions: 219501311 cycles: 91286757 heartbeat IPC: 2.122 cumulative IPC: 2.569 (Simulation time: 00 hr 23 min 50 sec)
Heartbeat CPU 0 instructions: 220001315 cycles: 91515135 heartbeat IPC: 2.189 cumulative IPC: 2.568 (Simulation time: 00 hr 23 min 53 sec)
Heartbeat CPU 0 instructions: 220501317 cycles: 91711154 heartbeat IPC: 2.551 cumulative IPC: 2.568 (Simulation time: 00 hr 23 min 57 sec)
Heartbeat CPU 0 instructions: 221001322 cycles: 91917329 heartbeat IPC: 2.425 cumulative IPC: 2.567 (Simulation time: 00 hr 24 min 00 sec)
Heartbeat CPU 0 instructions: 221501323 cycles: 92131868 heartbeat IPC: 2.331 cumulative IPC: 2.566 (Simulation time: 00 hr 24 min 03 sec)
Heartbeat CPU 0 instructions: 222001330 cycles: 92327476 heartbeat IPC: 2.556 cumulative IPC: 2.566 (Simulation time: 00 hr 24 min 07 sec)
Heartbeat CPU 0 instructions: 222501330 cycles: 92536756 heartbeat IPC: 2.389 cumulative IPC: 2.566 (Simulation time: 00 hr 24 min 10 sec)
Heartbeat CPU 0 instructions: 223001336 cycles: 92748546 heartbeat IPC: 2.361 cumulative IPC: 2.565 (Simulation time: 00 hr 24 min 13 sec)
Heartbeat CPU 0 instructions: 223501338 cycles: 92938990 heartbeat IPC: 2.625 cumulative IPC: 2.565 (Simulation time: 00 hr 24 min 17 sec)
Heartbeat CPU 0 instructions: 224001340 cycles: 93157996 heartbeat IPC: 2.283 cumulative IPC: 2.565 (Simulation time: 00 hr 24 min 20 sec)
Heartbeat CPU 0 instructions: 224501345 cycles: 93400406 heartbeat IPC: 2.063 cumulative IPC: 2.563 (Simulation time: 00 hr 24 min 24 sec)
Heartbeat CPU 0 instructions: 225001348 cycles: 93621234 heartbeat IPC: 2.264 cumulative IPC: 2.562 (Simulation time: 00 hr 24 min 27 sec)
Heartbeat CPU 0 instructions: 225501354 cycles: 93876055 heartbeat IPC: 1.962 cumulative IPC: 2.56 (Simulation time: 00 hr 24 min 31 sec)
Heartbeat CPU 0 instructions: 226001359 cycles: 94082831 heartbeat IPC: 2.418 cumulative IPC: 2.559 (Simulation time: 00 hr 24 min 35 sec)
Heartbeat CPU 0 instructions: 226501363 cycles: 94276820 heartbeat IPC: 2.577 cumulative IPC: 2.559 (Simulation time: 00 hr 24 min 38 sec)
Heartbeat CPU 0 instructions: 227001364 cycles: 94508428 heartbeat IPC: 2.159 cumulative IPC: 2.558 (Simulation time: 00 hr 24 min 41 sec)
Heartbeat CPU 0 instructions: 227501364 cycles: 94706667 heartbeat IPC: 2.522 cumulative IPC: 2.558 (Simulation time: 00 hr 24 min 45 sec)
Heartbeat CPU 0 instructions: 228001371 cycles: 94905225 heartbeat IPC: 2.518 cumulative IPC: 2.558 (Simulation time: 00 hr 24 min 48 sec)
Heartbeat CPU 0 instructions: 228501375 cycles: 95132548 heartbeat IPC: 2.2 cumulative IPC: 2.556 (Simulation time: 00 hr 24 min 51 sec)
Heartbeat CPU 0 instructions: 229001375 cycles: 95326019 heartbeat IPC: 2.584 cumulative IPC: 2.557 (Simulation time: 00 hr 24 min 55 sec)
Heartbeat CPU 0 instructions: 229501381 cycles: 95522415 heartbeat IPC: 2.546 cumulative IPC: 2.556 (Simulation time: 00 hr 24 min 58 sec)
Heartbeat CPU 0 instructions: 230001387 cycles: 95764811 heartbeat IPC: 2.063 cumulative IPC: 2.555 (Simulation time: 00 hr 25 min 01 sec)
Heartbeat CPU 0 instructions: 230501388 cycles: 95984757 heartbeat IPC: 2.273 cumulative IPC: 2.554 (Simulation time: 00 hr 25 min 05 sec)
Heartbeat CPU 0 instructions: 231001392 cycles: 96204983 heartbeat IPC: 2.27 cumulative IPC: 2.553 (Simulation time: 00 hr 25 min 08 sec)
Heartbeat CPU 0 instructions: 231501395 cycles: 96474546 heartbeat IPC: 1.855 cumulative IPC: 2.55 (Simulation time: 00 hr 25 min 12 sec)
Heartbeat CPU 0 instructions: 232001398 cycles: 96669000 heartbeat IPC: 2.571 cumulative IPC: 2.55 (Simulation time: 00 hr 25 min 15 sec)
Heartbeat CPU 0 instructions: 232501398 cycles: 96862764 heartbeat IPC: 2.58 cumulative IPC: 2.551 (Simulation time: 00 hr 25 min 19 sec)
Heartbeat CPU 0 instructions: 233001402 cycles: 97101353 heartbeat IPC: 2.096 cumulative IPC: 2.549 (Simulation time: 00 hr 25 min 22 sec)
Heartbeat CPU 0 instructions: 233501402 cycles: 97294457 heartbeat IPC: 2.589 cumulative IPC: 2.549 (Simulation time: 00 hr 25 min 25 sec)
Heartbeat CPU 0 instructions: 234001403 cycles: 97493115 heartbeat IPC: 2.517 cumulative IPC: 2.549 (Simulation time: 00 hr 25 min 29 sec)
Heartbeat CPU 0 instructions: 234501406 cycles: 97720467 heartbeat IPC: 2.199 cumulative IPC: 2.548 (Simulation time: 00 hr 25 min 32 sec)
Heartbeat CPU 0 instructions: 235001410 cycles: 97911933 heartbeat IPC: 2.611 cumulative IPC: 2.548 (Simulation time: 00 hr 25 min 35 sec)
Heartbeat CPU 0 instructions: 235501417 cycles: 98102852 heartbeat IPC: 2.619 cumulative IPC: 2.548 (Simulation time: 00 hr 25 min 38 sec)
Heartbeat CPU 0 instructions: 236001422 cycles: 98344515 heartbeat IPC: 2.069 cumulative IPC: 2.547 (Simulation time: 00 hr 25 min 42 sec)
Heartbeat CPU 0 instructions: 236501422 cycles: 98562873 heartbeat IPC: 2.29 cumulative IPC: 2.546 (Simulation time: 00 hr 25 min 45 sec)
Heartbeat CPU 0 instructions: 237001427 cycles: 98788859 heartbeat IPC: 2.213 cumulative IPC: 2.545 (Simulation time: 00 hr 25 min 49 sec)
Heartbeat CPU 0 instructions: 237501433 cycles: 99050660 heartbeat IPC: 1.91 cumulative IPC: 2.543 (Simulation time: 00 hr 25 min 53 sec)
Heartbeat CPU 0 instructions: 238001439 cycles: 99250251 heartbeat IPC: 2.505 cumulative IPC: 2.543 (Simulation time: 00 hr 25 min 56 sec)
Heartbeat CPU 0 instructions: 238501443 cycles: 99444300 heartbeat IPC: 2.577 cumulative IPC: 2.543 (Simulation time: 00 hr 25 min 59 sec)
Heartbeat CPU 0 instructions: 239001443 cycles: 99677189 heartbeat IPC: 2.147 cumulative IPC: 2.541 (Simulation time: 00 hr 26 min 03 sec)
Heartbeat CPU 0 instructions: 239501448 cycles: 99871294 heartbeat IPC: 2.576 cumulative IPC: 2.541 (Simulation time: 00 hr 26 min 06 sec)
Heartbeat CPU 0 instructions: 240001452 cycles: 100060594 heartbeat IPC: 2.641 cumulative IPC: 2.542 (Simulation time: 00 hr 26 min 09 sec)
Heartbeat CPU 0 instructions: 240501454 cycles: 100288600 heartbeat IPC: 2.193 cumulative IPC: 2.541 (Simulation time: 00 hr 26 min 12 sec)
Heartbeat CPU 0 instructions: 241001459 cycles: 100484635 heartbeat IPC: 2.551 cumulative IPC: 2.541 (Simulation time: 00 hr 26 min 15 sec)
Heartbeat CPU 0 instructions: 241501459 cycles: 100673578 heartbeat IPC: 2.646 cumulative IPC: 2.541 (Simulation time: 00 hr 26 min 18 sec)
Heartbeat CPU 0 instructions: 242001462 cycles: 100913344 heartbeat IPC: 2.085 cumulative IPC: 2.54 (Simulation time: 00 hr 26 min 22 sec)
Heartbeat CPU 0 instructions: 242501466 cycles: 101138237 heartbeat IPC: 2.223 cumulative IPC: 2.539 (Simulation time: 00 hr 26 min 25 sec)
Heartbeat CPU 0 instructions: 243001471 cycles: 101357104 heartbeat IPC: 2.285 cumulative IPC: 2.538 (Simulation time: 00 hr 26 min 29 sec)
Heartbeat CPU 0 instructions: 243501476 cycles: 101618180 heartbeat IPC: 1.915 cumulative IPC: 2.536 (Simulation time: 00 hr 26 min 33 sec)
Heartbeat CPU 0 instructions: 244001478 cycles: 101812595 heartbeat IPC: 2.572 cumulative IPC: 2.536 (Simulation time: 00 hr 26 min 36 sec)
Heartbeat CPU 0 instructions: 244501478 cycles: 102003206 heartbeat IPC: 2.623 cumulative IPC: 2.536 (Simulation time: 00 hr 26 min 39 sec)
Heartbeat CPU 0 instructions: 245001482 cycles: 102237688 heartbeat IPC: 2.132 cumulative IPC: 2.535 (Simulation time: 00 hr 26 min 42 sec)
Heartbeat CPU 0 instructions: 245501486 cycles: 102434965 heartbeat IPC: 2.535 cumulative IPC: 2.535 (Simulation time: 00 hr 26 min 45 sec)
Heartbeat CPU 0 instructions: 246001490 cycles: 102631377 heartbeat IPC: 2.546 cumulative IPC: 2.535 (Simulation time: 00 hr 26 min 48 sec)
Heartbeat CPU 0 instructions: 246501495 cycles: 102861755 heartbeat IPC: 2.17 cumulative IPC: 2.534 (Simulation time: 00 hr 26 min 52 sec)
Heartbeat CPU 0 instructions: 247001496 cycles: 103056617 heartbeat IPC: 2.566 cumulative IPC: 2.534 (Simulation time: 00 hr 26 min 55 sec)
Heartbeat CPU 0 instructions: 247501503 cycles: 103250191 heartbeat IPC: 2.583 cumulative IPC: 2.534 (Simulation time: 00 hr 26 min 58 sec)
Heartbeat CPU 0 instructions: 248001506 cycles: 103496565 heartbeat IPC: 2.029 cumulative IPC: 2.532 (Simulation time: 00 hr 27 min 02 sec)
Heartbeat CPU 0 instructions: 248501513 cycles: 103714261 heartbeat IPC: 2.297 cumulative IPC: 2.532 (Simulation time: 00 hr 27 min 05 sec)
Heartbeat CPU 0 instructions: 249001520 cycles: 103942202 heartbeat IPC: 2.194 cumulative IPC: 2.531 (Simulation time: 00 hr 27 min 08 sec)
Heartbeat CPU 0 instructions: 249501525 cycles: 104198529 heartbeat IPC: 1.951 cumulative IPC: 2.529 (Simulation time: 00 hr 27 min 12 sec)
Simulation finished CPU 0 instructions: 200000004 cycles: 79088174 cumulative IPC: 2.529 (Simulation time: 00 hr 27 min 15 sec)
Simulation complete CPU 0 instructions: 200000004 cycles: 79088174 cumulative IPC: 2.529 (Simulation time: 00 hr 27 min 15 sec)

ChampSim completed all CPUs

=== Simulation ===
CPU 0 runs /local-ssd/ben/dpc4-traces/ai-ml/stable-diffusion.cpp-v1-5-pruned-emaonly.2.champsimtrace.gz

Region of Interest Statistics

CPU 0 cumulative IPC: 2.529 instructions: 200000004 cycles: 79088174
CPU 0 Branch Prediction Accuracy: 98.84% MPKI: 1.12 Average ROB Occupancy at Mispredict: 235.7
Branch type MPKI
BRANCH_DIRECT_JUMP: 8.5e-05
BRANCH_INDIRECT: 7e-05
BRANCH_CONDITIONAL: 1.119
BRANCH_DIRECT_CALL: 7e-05
BRANCH_INDIRECT_CALL: 0
BRANCH_RETURN: 7.5e-05

cpu0->cpu0_STLB TOTAL        ACCESS:     214429 HIT:     209350 MISS:       5079 MSHR_MERGE:          0
cpu0->cpu0_STLB LOAD         ACCESS:     214429 HIT:     209350 MISS:       5079 MSHR_MERGE:          0
cpu0->cpu0_STLB RFO          ACCESS:          0 HIT:          0 MISS:          0 MSHR_MERGE:          0
cpu0->cpu0_STLB PREFETCH     ACCESS:          0 HIT:          0 MISS:          0 MSHR_MERGE:          0
cpu0->cpu0_STLB WRITE        ACCESS:          0 HIT:          0 MISS:          0 MSHR_MERGE:          0
cpu0->cpu0_STLB TRANSLATION  ACCESS:          0 HIT:          0 MISS:          0 MSHR_MERGE:          0
cpu0->cpu0_STLB PREFETCH REQUESTED:          0 ISSUED:          0 USEFUL:          0 USELESS:          0
cpu0->cpu0_STLB AVERAGE MISS LATENCY: 246.7 cycles
cpu0->cpu0_L2C TOTAL        ACCESS:   43082184 HIT:   40881492 MISS:    2200692 MSHR_MERGE:     874290
cpu0->cpu0_L2C LOAD         ACCESS:   21778910 HIT:   20889441 MISS:     889469 MSHR_MERGE:     273201
cpu0->cpu0_L2C RFO          ACCESS:      93841 HIT:      37510 MISS:      56331 MSHR_MERGE:          0
cpu0->cpu0_L2C PREFETCH     ACCESS:   21045304 HIT:   19791125 MISS:    1254179 MSHR_MERGE:     601089
cpu0->cpu0_L2C WRITE        ACCESS:     161872 HIT:     161863 MISS:          9 MSHR_MERGE:          0
cpu0->cpu0_L2C TRANSLATION  ACCESS:       2257 HIT:       1553 MISS:        704 MSHR_MERGE:          0
cpu0->cpu0_L2C PREFETCH REQUESTED:   76238184 ISSUED:   14210970 USEFUL:     455561 USELESS:        859
cpu0->cpu0_L2C AVERAGE MISS LATENCY: 112.3 cycles
cpu0->cpu0_L1I TOTAL        ACCESS:   40225309 HIT:   40225203 MISS:        106 MSHR_MERGE:         15
cpu0->cpu0_L1I LOAD         ACCESS:   40225309 HIT:   40225203 MISS:        106 MSHR_MERGE:         15
cpu0->cpu0_L1I RFO          ACCESS:          0 HIT:          0 MISS:          0 MSHR_MERGE:          0
cpu0->cpu0_L1I PREFETCH     ACCESS:          0 HIT:          0 MISS:          0 MSHR_MERGE:          0
cpu0->cpu0_L1I WRITE        ACCESS:          0 HIT:          0 MISS:          0 MSHR_MERGE:          0
cpu0->cpu0_L1I TRANSLATION  ACCESS:          0 HIT:          0 MISS:          0 MSHR_MERGE:          0
cpu0->cpu0_L1I PREFETCH REQUESTED:          0 ISSUED:          0 USEFUL:          0 USELESS:          0
cpu0->cpu0_L1I AVERAGE MISS LATENCY: 214.5 cycles
cpu0->cpu0_L1D TOTAL        ACCESS:   77576588 HIT:   41904928 MISS:   35671660 MSHR_MERGE:    6962385
cpu0->cpu0_L1D LOAD         ACCESS:   49406906 HIT:   25030905 MISS:   24376001 MSHR_MERGE:    2597179
cpu0->cpu0_L1D RFO          ACCESS:          0 HIT:          0 MISS:          0 MSHR_MERGE:          0
cpu0->cpu0_L1D PREFETCH     ACCESS:   23522586 HIT:   13729615 MISS:    9792971 MSHR_MERGE:    2958619
cpu0->cpu0_L1D WRITE        ACCESS:    4636926 HIT:    3136496 MISS:    1500430 MSHR_MERGE:    1406586
cpu0->cpu0_L1D TRANSLATION  ACCESS:      10170 HIT:       7912 MISS:       2258 MSHR_MERGE:          1
cpu0->cpu0_L1D PREFETCH REQUESTED:   58307200 ISSUED:   23522587 USEFUL:    6435408 USELESS:     398979
cpu0->cpu0_L1D AVERAGE MISS LATENCY: 14.1 cycles
cpu0->cpu0_ITLB TOTAL        ACCESS:   27560154 HIT:   27560140 MISS:         14 MSHR_MERGE:          5
cpu0->cpu0_ITLB LOAD         ACCESS:   27560154 HIT:   27560140 MISS:         14 MSHR_MERGE:          5
cpu0->cpu0_ITLB RFO          ACCESS:          0 HIT:          0 MISS:          0 MSHR_MERGE:          0
cpu0->cpu0_ITLB PREFETCH     ACCESS:          0 HIT:          0 MISS:          0 MSHR_MERGE:          0
cpu0->cpu0_ITLB WRITE        ACCESS:          0 HIT:          0 MISS:          0 MSHR_MERGE:          0
cpu0->cpu0_ITLB TRANSLATION  ACCESS:          0 HIT:          0 MISS:          0 MSHR_MERGE:          0
cpu0->cpu0_ITLB PREFETCH REQUESTED:          0 ISSUED:          0 USEFUL:          0 USELESS:          0
cpu0->cpu0_ITLB AVERAGE MISS LATENCY: 387 cycles
cpu0->cpu0_DTLB TOTAL        ACCESS:   63865640 HIT:   63374525 MISS:     491115 MSHR_MERGE:     276695
cpu0->cpu0_DTLB LOAD         ACCESS:   63865640 HIT:   63374525 MISS:     491115 MSHR_MERGE:     276695
cpu0->cpu0_DTLB RFO          ACCESS:          0 HIT:          0 MISS:          0 MSHR_MERGE:          0
cpu0->cpu0_DTLB PREFETCH     ACCESS:          0 HIT:          0 MISS:          0 MSHR_MERGE:          0
cpu0->cpu0_DTLB WRITE        ACCESS:          0 HIT:          0 MISS:          0 MSHR_MERGE:          0
cpu0->cpu0_DTLB TRANSLATION  ACCESS:          0 HIT:          0 MISS:          0 MSHR_MERGE:          0
cpu0->cpu0_DTLB PREFETCH REQUESTED:          0 ISSUED:          0 USEFUL:          0 USELESS:          0
cpu0->cpu0_DTLB AVERAGE MISS LATENCY: 10.85 cycles
cpu0->LLC TOTAL        ACCESS:    2630671 HIT:    1102411 MISS:    1528260 MSHR_MERGE:     651439
cpu0->LLC LOAD         ACCESS:     616268 HIT:     310201 MISS:     306067 MSHR_MERGE:     209478
cpu0->LLC RFO          ACCESS:      56331 HIT:       1478 MISS:      54853 MSHR_MERGE:          0
cpu0->LLC PREFETCH     ACCESS:    1880013 HIT:     771999 MISS:    1108014 MSHR_MERGE:     441961
cpu0->LLC WRITE        ACCESS:      77355 HIT:      18731 MISS:      58624 MSHR_MERGE:          0
cpu0->LLC TRANSLATION  ACCESS:        704 HIT:          2 MISS:        702 MSHR_MERGE:          0
cpu0->LLC PREFETCH REQUESTED:    1230364 ISSUED:    1226923 USEFUL:     297377 USELESS:     275709
cpu0->LLC AVERAGE MISS LATENCY: 153.6 cycles

DRAM Statistics

Channel 0 RQ ROW_BUFFER_HIT:     272928
  ROW_BUFFER_MISS:     544815
  AVG DBUS CONGESTED CYCLE: 8.411
Channel 0 WQ ROW_BUFFER_HIT:       6844
  ROW_BUFFER_MISS:      57174
  FULL:      20179
Channel 0 REFRESHES ISSUED:       6591
