[VMEM] WARNING: physical memory size is smaller than virtual memory size.

*** ChampSim Multicore Out-of-Order Simulator ***
Warmup Instructions: 50000000
Simulation Instructions: 200000000
Number of CPUs: 1
Page size: 4096
Core 0: /local-ssd/ben/dpc4-traces/Graph/GMS/gms.k_clique_count_set_based.soc-pokec-relationships.slice-4.champsimtrace.gz
Off-chip DRAM Size: 64 GiB Channels: 1 Width: 64-bit Data Rate: 4807 MT/s
Heartbeat CPU 0 instructions: 500002 cycles: 102744 heartbeat IPC: 4.866 cumulative IPC: 4.866 (Simulation time: 00 hr 00 min 02 sec)
Heartbeat CPU 0 instructions: 1000004 cycles: 203480 heartbeat IPC: 4.963 cumulative IPC: 4.915 (Simulation time: 00 hr 00 min 03 sec)
Heartbeat CPU 0 instructions: 1500007 cycles: 303483 heartbeat IPC: 5 cumulative IPC: 4.943 (Simulation time: 00 hr 00 min 04 sec)
Heartbeat CPU 0 instructions: 2000010 cycles: 403491 heartbeat IPC: 5 cumulative IPC: 4.957 (Simulation time: 00 hr 00 min 06 sec)
Heartbeat CPU 0 instructions: 2500016 cycles: 503504 heartbeat IPC: 4.999 cumulative IPC: 4.965 (Simulation time: 00 hr 00 min 07 sec)
Heartbeat CPU 0 instructions: 3000020 cycles: 603498 heartbeat IPC: 5 cumulative IPC: 4.971 (Simulation time: 00 hr 00 min 09 sec)
Heartbeat CPU 0 instructions: 3500021 cycles: 703491 heartbeat IPC: 5 cumulative IPC: 4.975 (Simulation time: 00 hr 00 min 10 sec)
Heartbeat CPU 0 instructions: 4000026 cycles: 803504 heartbeat IPC: 4.999 cumulative IPC: 4.978 (Simulation time: 00 hr 00 min 12 sec)
Heartbeat CPU 0 instructions: 4500032 cycles: 903508 heartbeat IPC: 5 cumulative IPC: 4.981 (Simulation time: 00 hr 00 min 14 sec)
Heartbeat CPU 0 instructions: 5000032 cycles: 1003507 heartbeat IPC: 5 cumulative IPC: 4.983 (Simulation time: 00 hr 00 min 15 sec)
Heartbeat CPU 0 instructions: 5500036 cycles: 1103484 heartbeat IPC: 5.001 cumulative IPC: 4.984 (Simulation time: 00 hr 00 min 17 sec)
Heartbeat CPU 0 instructions: 6000043 cycles: 1203487 heartbeat IPC: 5 cumulative IPC: 4.986 (Simulation time: 00 hr 00 min 19 sec)
Heartbeat CPU 0 instructions: 6500050 cycles: 1303510 heartbeat IPC: 4.999 cumulative IPC: 4.987 (Simulation time: 00 hr 00 min 20 sec)
Heartbeat CPU 0 instructions: 7000055 cycles: 1403518 heartbeat IPC: 5 cumulative IPC: 4.988 (Simulation time: 00 hr 00 min 22 sec)
Heartbeat CPU 0 instructions: 7500057 cycles: 1503490 heartbeat IPC: 5.001 cumulative IPC: 4.988 (Simulation time: 00 hr 00 min 23 sec)
Heartbeat CPU 0 instructions: 8000058 cycles: 1603514 heartbeat IPC: 4.999 cumulative IPC: 4.989 (Simulation time: 00 hr 00 min 25 sec)
Heartbeat CPU 0 instructions: 8500058 cycles: 1703511 heartbeat IPC: 5 cumulative IPC: 4.99 (Simulation time: 00 hr 00 min 27 sec)
Heartbeat CPU 0 instructions: 9000059 cycles: 1803517 heartbeat IPC: 5 cumulative IPC: 4.99 (Simulation time: 00 hr 00 min 28 sec)
Heartbeat CPU 0 instructions: 9500065 cycles: 1903506 heartbeat IPC: 5.001 cumulative IPC: 4.991 (Simulation time: 00 hr 00 min 30 sec)
Heartbeat CPU 0 instructions: 10000068 cycles: 2003489 heartbeat IPC: 5.001 cumulative IPC: 4.991 (Simulation time: 00 hr 00 min 31 sec)
Heartbeat CPU 0 instructions: 10500069 cycles: 2103517 heartbeat IPC: 4.999 cumulative IPC: 4.992 (Simulation time: 00 hr 00 min 33 sec)
Heartbeat CPU 0 instructions: 11000075 cycles: 2203511 heartbeat IPC: 5 cumulative IPC: 4.992 (Simulation time: 00 hr 00 min 35 sec)
Heartbeat CPU 0 instructions: 11500080 cycles: 2303500 heartbeat IPC: 5.001 cumulative IPC: 4.992 (Simulation time: 00 hr 00 min 36 sec)
Heartbeat CPU 0 instructions: 12000081 cycles: 2403497 heartbeat IPC: 5 cumulative IPC: 4.993 (Simulation time: 00 hr 00 min 38 sec)
Heartbeat CPU 0 instructions: 12500082 cycles: 2503509 heartbeat IPC: 4.999 cumulative IPC: 4.993 (Simulation time: 00 hr 00 min 39 sec)
Heartbeat CPU 0 instructions: 13000082 cycles: 2603510 heartbeat IPC: 5 cumulative IPC: 4.993 (Simulation time: 00 hr 00 min 41 sec)
Heartbeat CPU 0 instructions: 13500082 cycles: 2703504 heartbeat IPC: 5 cumulative IPC: 4.994 (Simulation time: 00 hr 00 min 43 sec)
Heartbeat CPU 0 instructions: 14000085 cycles: 2803495 heartbeat IPC: 5 cumulative IPC: 4.994 (Simulation time: 00 hr 00 min 44 sec)
Heartbeat CPU 0 instructions: 14500086 cycles: 2903517 heartbeat IPC: 4.999 cumulative IPC: 4.994 (Simulation time: 00 hr 00 min 46 sec)
Heartbeat CPU 0 instructions: 15000092 cycles: 3003527 heartbeat IPC: 5 cumulative IPC: 4.994 (Simulation time: 00 hr 00 min 48 sec)
Heartbeat CPU 0 instructions: 15500097 cycles: 3103519 heartbeat IPC: 5 cumulative IPC: 4.994 (Simulation time: 00 hr 00 min 49 sec)
Heartbeat CPU 0 instructions: 16000102 cycles: 3203498 heartbeat IPC: 5.001 cumulative IPC: 4.995 (Simulation time: 00 hr 00 min 51 sec)
Heartbeat CPU 0 instructions: 16500108 cycles: 3303521 heartbeat IPC: 4.999 cumulative IPC: 4.995 (Simulation time: 00 hr 00 min 52 sec)
Heartbeat CPU 0 instructions: 17000111 cycles: 3403517 heartbeat IPC: 5 cumulative IPC: 4.995 (Simulation time: 00 hr 00 min 54 sec)
Heartbeat CPU 0 instructions: 17500113 cycles: 3503515 heartbeat IPC: 5 cumulative IPC: 4.995 (Simulation time: 00 hr 00 min 56 sec)
Heartbeat CPU 0 instructions: 18000113 cycles: 3603513 heartbeat IPC: 5 cumulative IPC: 4.995 (Simulation time: 00 hr 00 min 57 sec)
Heartbeat CPU 0 instructions: 18500116 cycles: 3703511 heartbeat IPC: 5 cumulative IPC: 4.995 (Simulation time: 00 hr 00 min 59 sec)
Heartbeat CPU 0 instructions: 19000122 cycles: 3803519 heartbeat IPC: 5 cumulative IPC: 4.995 (Simulation time: 00 hr 01 min 00 sec)
Heartbeat CPU 0 instructions: 19500123 cycles: 3903516 heartbeat IPC: 5 cumulative IPC: 4.996 (Simulation time: 00 hr 01 min 02 sec)
Heartbeat CPU 0 instructions: 20000128 cycles: 4003506 heartbeat IPC: 5.001 cumulative IPC: 4.996 (Simulation time: 00 hr 01 min 04 sec)
Heartbeat CPU 0 instructions: 20500133 cycles: 4103503 heartbeat IPC: 5 cumulative IPC: 4.996 (Simulation time: 00 hr 01 min 05 sec)
Heartbeat CPU 0 instructions: 21000133 cycles: 4203528 heartbeat IPC: 4.999 cumulative IPC: 4.996 (Simulation time: 00 hr 01 min 07 sec)
Heartbeat CPU 0 instructions: 21500133 cycles: 4303508 heartbeat IPC: 5.001 cumulative IPC: 4.996 (Simulation time: 00 hr 01 min 09 sec)
Heartbeat CPU 0 instructions: 22000139 cycles: 4403510 heartbeat IPC: 5 cumulative IPC: 4.996 (Simulation time: 00 hr 01 min 10 sec)
Heartbeat CPU 0 instructions: 22500140 cycles: 4503501 heartbeat IPC: 5 cumulative IPC: 4.996 (Simulation time: 00 hr 01 min 12 sec)
Heartbeat CPU 0 instructions: 23000143 cycles: 4603521 heartbeat IPC: 4.999 cumulative IPC: 4.996 (Simulation time: 00 hr 01 min 13 sec)
Heartbeat CPU 0 instructions: 23500150 cycles: 4703516 heartbeat IPC: 5 cumulative IPC: 4.996 (Simulation time: 00 hr 01 min 15 sec)
Heartbeat CPU 0 instructions: 24000151 cycles: 4803532 heartbeat IPC: 4.999 cumulative IPC: 4.996 (Simulation time: 00 hr 01 min 17 sec)
Heartbeat CPU 0 instructions: 24500151 cycles: 4903505 heartbeat IPC: 5.001 cumulative IPC: 4.996 (Simulation time: 00 hr 01 min 18 sec)
Heartbeat CPU 0 instructions: 25000153 cycles: 5003518 heartbeat IPC: 4.999 cumulative IPC: 4.997 (Simulation time: 00 hr 01 min 20 sec)
Heartbeat CPU 0 instructions: 25500156 cycles: 5103526 heartbeat IPC: 5 cumulative IPC: 4.997 (Simulation time: 00 hr 01 min 21 sec)
Heartbeat CPU 0 instructions: 26000157 cycles: 5203529 heartbeat IPC: 5 cumulative IPC: 4.997 (Simulation time: 00 hr 01 min 23 sec)
Heartbeat CPU 0 instructions: 26500163 cycles: 5303521 heartbeat IPC: 5 cumulative IPC: 4.997 (Simulation time: 00 hr 01 min 25 sec)
Heartbeat CPU 0 instructions: 27000166 cycles: 5403534 heartbeat IPC: 4.999 cumulative IPC: 4.997 (Simulation time: 00 hr 01 min 26 sec)
Heartbeat CPU 0 instructions: 27500168 cycles: 5503526 heartbeat IPC: 5 cumulative IPC: 4.997 (Simulation time: 00 hr 01 min 28 sec)
Heartbeat CPU 0 instructions: 28000168 cycles: 5603527 heartbeat IPC: 5 cumulative IPC: 4.997 (Simulation time: 00 hr 01 min 30 sec)
Heartbeat CPU 0 instructions: 28500173 cycles: 5703536 heartbeat IPC: 5 cumulative IPC: 4.997 (Simulation time: 00 hr 01 min 31 sec)
Heartbeat CPU 0 instructions: 29000178 cycles: 5803516 heartbeat IPC: 5.001 cumulative IPC: 4.997 (Simulation time: 00 hr 01 min 33 sec)
Heartbeat CPU 0 instructions: 29500183 cycles: 5903523 heartbeat IPC: 5 cumulative IPC: 4.997 (Simulation time: 00 hr 01 min 34 sec)
Heartbeat CPU 0 instructions: 30000184 cycles: 6003519 heartbeat IPC: 5 cumulative IPC: 4.997 (Simulation time: 00 hr 01 min 36 sec)
Heartbeat CPU 0 instructions: 30500186 cycles: 6103539 heartbeat IPC: 4.999 cumulative IPC: 4.997 (Simulation time: 00 hr 01 min 38 sec)
Heartbeat CPU 0 instructions: 31000187 cycles: 6203521 heartbeat IPC: 5.001 cumulative IPC: 4.997 (Simulation time: 00 hr 01 min 39 sec)
Heartbeat CPU 0 instructions: 31500190 cycles: 6303522 heartbeat IPC: 5 cumulative IPC: 4.997 (Simulation time: 00 hr 01 min 41 sec)
Heartbeat CPU 0 instructions: 32000194 cycles: 6403515 heartbeat IPC: 5 cumulative IPC: 4.997 (Simulation time: 00 hr 01 min 42 sec)
Heartbeat CPU 0 instructions: 32500197 cycles: 6503521 heartbeat IPC: 5 cumulative IPC: 4.997 (Simulation time: 00 hr 01 min 44 sec)
Heartbeat CPU 0 instructions: 33000203 cycles: 6603540 heartbeat IPC: 4.999 cumulative IPC: 4.997 (Simulation time: 00 hr 01 min 46 sec)
Heartbeat CPU 0 instructions: 33500207 cycles: 6703525 heartbeat IPC: 5.001 cumulative IPC: 4.997 (Simulation time: 00 hr 01 min 47 sec)
Heartbeat CPU 0 instructions: 34000212 cycles: 6803518 heartbeat IPC: 5 cumulative IPC: 4.997 (Simulation time: 00 hr 01 min 49 sec)
Heartbeat CPU 0 instructions: 34500212 cycles: 6903530 heartbeat IPC: 4.999 cumulative IPC: 4.997 (Simulation time: 00 hr 01 min 50 sec)
Heartbeat CPU 0 instructions: 35000219 cycles: 7003525 heartbeat IPC: 5 cumulative IPC: 4.998 (Simulation time: 00 hr 01 min 52 sec)
Heartbeat CPU 0 instructions: 35500219 cycles: 7103540 heartbeat IPC: 4.999 cumulative IPC: 4.998 (Simulation time: 00 hr 01 min 54 sec)
Heartbeat CPU 0 instructions: 36000220 cycles: 7203533 heartbeat IPC: 5 cumulative IPC: 4.998 (Simulation time: 00 hr 01 min 55 sec)
Heartbeat CPU 0 instructions: 36500225 cycles: 7303537 heartbeat IPC: 5 cumulative IPC: 4.998 (Simulation time: 00 hr 01 min 57 sec)
Heartbeat CPU 0 instructions: 37000225 cycles: 7403522 heartbeat IPC: 5.001 cumulative IPC: 4.998 (Simulation time: 00 hr 01 min 59 sec)
Heartbeat CPU 0 instructions: 37500225 cycles: 7503537 heartbeat IPC: 4.999 cumulative IPC: 4.998 (Simulation time: 00 hr 02 min 00 sec)
Heartbeat CPU 0 instructions: 38000227 cycles: 7603525 heartbeat IPC: 5.001 cumulative IPC: 4.998 (Simulation time: 00 hr 02 min 02 sec)
Heartbeat CPU 0 instructions: 38500233 cycles: 7703542 heartbeat IPC: 4.999 cumulative IPC: 4.998 (Simulation time: 00 hr 02 min 03 sec)
Heartbeat CPU 0 instructions: 39000240 cycles: 7803547 heartbeat IPC: 5 cumulative IPC: 4.998 (Simulation time: 00 hr 02 min 05 sec)
Heartbeat CPU 0 instructions: 39500241 cycles: 7903546 heartbeat IPC: 5 cumulative IPC: 4.998 (Simulation time: 00 hr 02 min 07 sec)
Heartbeat CPU 0 instructions: 40000248 cycles: 8003542 heartbeat IPC: 5 cumulative IPC: 4.998 (Simulation time: 00 hr 02 min 08 sec)
Heartbeat CPU 0 instructions: 40500255 cycles: 8103545 heartbeat IPC: 5 cumulative IPC: 4.998 (Simulation time: 00 hr 02 min 10 sec)
Heartbeat CPU 0 instructions: 41000257 cycles: 8203542 heartbeat IPC: 5 cumulative IPC: 4.998 (Simulation time: 00 hr 02 min 11 sec)
Heartbeat CPU 0 instructions: 41500261 cycles: 8303550 heartbeat IPC: 5 cumulative IPC: 4.998 (Simulation time: 00 hr 02 min 13 sec)
Heartbeat CPU 0 instructions: 42000266 cycles: 8403542 heartbeat IPC: 5 cumulative IPC: 4.998 (Simulation time: 00 hr 02 min 15 sec)
Heartbeat CPU 0 instructions: 42500273 cycles: 8503548 heartbeat IPC: 5 cumulative IPC: 4.998 (Simulation time: 00 hr 02 min 16 sec)
Heartbeat CPU 0 instructions: 43000278 cycles: 8603551 heartbeat IPC: 5 cumulative IPC: 4.998 (Simulation time: 00 hr 02 min 18 sec)
Heartbeat CPU 0 instructions: 43500285 cycles: 8703534 heartbeat IPC: 5.001 cumulative IPC: 4.998 (Simulation time: 00 hr 02 min 19 sec)
Heartbeat CPU 0 instructions: 44000285 cycles: 8803543 heartbeat IPC: 5 cumulative IPC: 4.998 (Simulation time: 00 hr 02 min 21 sec)
Heartbeat CPU 0 instructions: 44500290 cycles: 8903544 heartbeat IPC: 5 cumulative IPC: 4.998 (Simulation time: 00 hr 02 min 23 sec)
Heartbeat CPU 0 instructions: 45000291 cycles: 9003553 heartbeat IPC: 5 cumulative IPC: 4.998 (Simulation time: 00 hr 02 min 24 sec)
Heartbeat CPU 0 instructions: 45500295 cycles: 9103560 heartbeat IPC: 5 cumulative IPC: 4.998 (Simulation time: 00 hr 02 min 26 sec)
Heartbeat CPU 0 instructions: 46000297 cycles: 9203561 heartbeat IPC: 5 cumulative IPC: 4.998 (Simulation time: 00 hr 02 min 28 sec)
Heartbeat CPU 0 instructions: 46500302 cycles: 9303570 heartbeat IPC: 5 cumulative IPC: 4.998 (Simulation time: 00 hr 02 min 29 sec)
Heartbeat CPU 0 instructions: 47000309 cycles: 9403553 heartbeat IPC: 5.001 cumulative IPC: 4.998 (Simulation time: 00 hr 02 min 31 sec)
Heartbeat CPU 0 instructions: 47500315 cycles: 9503538 heartbeat IPC: 5.001 cumulative IPC: 4.998 (Simulation time: 00 hr 02 min 32 sec)
Heartbeat CPU 0 instructions: 48000316 cycles: 9603546 heartbeat IPC: 5 cumulative IPC: 4.998 (Simulation time: 00 hr 02 min 34 sec)
Heartbeat CPU 0 instructions: 48500319 cycles: 9703569 heartbeat IPC: 4.999 cumulative IPC: 4.998 (Simulation time: 00 hr 02 min 36 sec)
Heartbeat CPU 0 instructions: 49000319 cycles: 9803543 heartbeat IPC: 5.001 cumulative IPC: 4.998 (Simulation time: 00 hr 02 min 37 sec)
Heartbeat CPU 0 instructions: 49500321 cycles: 9903567 heartbeat IPC: 4.999 cumulative IPC: 4.998 (Simulation time: 00 hr 02 min 39 sec)
Warmup halting CPU 0 at instruction 50000007 cycle 10003492 for remainder of phase
Warmup finished CPU 0 instructions: 50000007 cycles: 10003492 cumulative IPC: 4.998 (Simulation time: 00 hr 02 min 40 sec)
Warmup complete CPU 0 instructions: 50000007 cycles: 10003492 cumulative IPC: 4.998 (Simulation time: 00 hr 02 min 40 sec)
Heartbeat CPU 0 instructions: 50000321 cycles: 10003550 heartbeat IPC: 5.001 cumulative IPC: 5.414 (Simulation time: 00 hr 02 min 40 sec)
Heartbeat CPU 0 instructions: 50500321 cycles: 10183912 heartbeat IPC: 2.772 cumulative IPC: 2.773 (Simulation time: 00 hr 02 min 43 sec)
Heartbeat CPU 0 instructions: 51000321 cycles: 10364624 heartbeat IPC: 2.767 cumulative IPC: 2.77 (Simulation time: 00 hr 02 min 45 sec)
Heartbeat CPU 0 instructions: 51500328 cycles: 10545071 heartbeat IPC: 2.771 cumulative IPC: 2.77 (Simulation time: 00 hr 02 min 47 sec)
Heartbeat CPU 0 instructions: 52000328 cycles: 10725510 heartbeat IPC: 2.771 cumulative IPC: 2.77 (Simulation time: 00 hr 02 min 50 sec)
Heartbeat CPU 0 instructions: 52500328 cycles: 10905782 heartbeat IPC: 2.774 cumulative IPC: 2.771 (Simulation time: 00 hr 02 min 52 sec)
Heartbeat CPU 0 instructions: 53000335 cycles: 11086177 heartbeat IPC: 2.772 cumulative IPC: 2.771 (Simulation time: 00 hr 02 min 54 sec)
Heartbeat CPU 0 instructions: 53500339 cycles: 11266872 heartbeat IPC: 2.767 cumulative IPC: 2.771 (Simulation time: 00 hr 02 min 57 sec)
Heartbeat CPU 0 instructions: 54000345 cycles: 11447759 heartbeat IPC: 2.764 cumulative IPC: 2.77 (Simulation time: 00 hr 02 min 59 sec)
Heartbeat CPU 0 instructions: 54500345 cycles: 11628254 heartbeat IPC: 2.77 cumulative IPC: 2.77 (Simulation time: 00 hr 03 min 01 sec)
Heartbeat CPU 0 instructions: 55000349 cycles: 11809028 heartbeat IPC: 2.766 cumulative IPC: 2.769 (Simulation time: 00 hr 03 min 04 sec)
Heartbeat CPU 0 instructions: 55500352 cycles: 11989841 heartbeat IPC: 2.765 cumulative IPC: 2.769 (Simulation time: 00 hr 03 min 06 sec)
Heartbeat CPU 0 instructions: 56000359 cycles: 12170241 heartbeat IPC: 2.772 cumulative IPC: 2.769 (Simulation time: 00 hr 03 min 08 sec)
Heartbeat CPU 0 instructions: 56500361 cycles: 12350966 heartbeat IPC: 2.767 cumulative IPC: 2.769 (Simulation time: 00 hr 03 min 10 sec)
Heartbeat CPU 0 instructions: 57000362 cycles: 12531554 heartbeat IPC: 2.769 cumulative IPC: 2.769 (Simulation time: 00 hr 03 min 13 sec)
Heartbeat CPU 0 instructions: 57500368 cycles: 12712454 heartbeat IPC: 2.764 cumulative IPC: 2.769 (Simulation time: 00 hr 03 min 15 sec)
Heartbeat CPU 0 instructions: 58000368 cycles: 12893349 heartbeat IPC: 2.764 cumulative IPC: 2.768 (Simulation time: 00 hr 03 min 17 sec)
Heartbeat CPU 0 instructions: 58500372 cycles: 13073899 heartbeat IPC: 2.769 cumulative IPC: 2.768 (Simulation time: 00 hr 03 min 20 sec)
Heartbeat CPU 0 instructions: 59000377 cycles: 13254762 heartbeat IPC: 2.765 cumulative IPC: 2.768 (Simulation time: 00 hr 03 min 22 sec)
Heartbeat CPU 0 instructions: 59500377 cycles: 13435621 heartbeat IPC: 2.765 cumulative IPC: 2.768 (Simulation time: 00 hr 03 min 24 sec)
Heartbeat CPU 0 instructions: 60000383 cycles: 13616044 heartbeat IPC: 2.771 cumulative IPC: 2.768 (Simulation time: 00 hr 03 min 27 sec)
Heartbeat CPU 0 instructions: 60500383 cycles: 13797095 heartbeat IPC: 2.762 cumulative IPC: 2.768 (Simulation time: 00 hr 03 min 29 sec)
Heartbeat CPU 0 instructions: 61000389 cycles: 13977939 heartbeat IPC: 2.765 cumulative IPC: 2.768 (Simulation time: 00 hr 03 min 31 sec)
Heartbeat CPU 0 instructions: 61500390 cycles: 14158434 heartbeat IPC: 2.77 cumulative IPC: 2.768 (Simulation time: 00 hr 03 min 34 sec)
Heartbeat CPU 0 instructions: 62000391 cycles: 14339161 heartbeat IPC: 2.767 cumulative IPC: 2.768 (Simulation time: 00 hr 03 min 36 sec)
Heartbeat CPU 0 instructions: 62500391 cycles: 14519838 heartbeat IPC: 2.767 cumulative IPC: 2.768 (Simulation time: 00 hr 03 min 38 sec)
Heartbeat CPU 0 instructions: 63000392 cycles: 14700248 heartbeat IPC: 2.771 cumulative IPC: 2.768 (Simulation time: 00 hr 03 min 40 sec)
Heartbeat CPU 0 instructions: 63500396 cycles: 14881198 heartbeat IPC: 2.763 cumulative IPC: 2.768 (Simulation time: 00 hr 03 min 43 sec)
Heartbeat CPU 0 instructions: 64000397 cycles: 15062338 heartbeat IPC: 2.76 cumulative IPC: 2.768 (Simulation time: 00 hr 03 min 45 sec)
Heartbeat CPU 0 instructions: 64500398 cycles: 15242682 heartbeat IPC: 2.772 cumulative IPC: 2.768 (Simulation time: 00 hr 03 min 47 sec)
Heartbeat CPU 0 instructions: 65000401 cycles: 15423033 heartbeat IPC: 2.772 cumulative IPC: 2.768 (Simulation time: 00 hr 03 min 50 sec)
Heartbeat CPU 0 instructions: 65500401 cycles: 15603714 heartbeat IPC: 2.767 cumulative IPC: 2.768 (Simulation time: 00 hr 03 min 52 sec)
Heartbeat CPU 0 instructions: 66000403 cycles: 15784398 heartbeat IPC: 2.767 cumulative IPC: 2.768 (Simulation time: 00 hr 03 min 54 sec)
Heartbeat CPU 0 instructions: 66500404 cycles: 15965008 heartbeat IPC: 2.768 cumulative IPC: 2.768 (Simulation time: 00 hr 03 min 57 sec)
Heartbeat CPU 0 instructions: 67000405 cycles: 16145447 heartbeat IPC: 2.771 cumulative IPC: 2.768 (Simulation time: 00 hr 03 min 59 sec)
Heartbeat CPU 0 instructions: 67500406 cycles: 16325685 heartbeat IPC: 2.774 cumulative IPC: 2.768 (Simulation time: 00 hr 04 min 01 sec)
Heartbeat CPU 0 instructions: 68000409 cycles: 16506114 heartbeat IPC: 2.771 cumulative IPC: 2.768 (Simulation time: 00 hr 04 min 04 sec)
Heartbeat CPU 0 instructions: 68500416 cycles: 16687025 heartbeat IPC: 2.764 cumulative IPC: 2.768 (Simulation time: 00 hr 04 min 06 sec)
Heartbeat CPU 0 instructions: 69000421 cycles: 16868190 heartbeat IPC: 2.76 cumulative IPC: 2.768 (Simulation time: 00 hr 04 min 08 sec)
Heartbeat CPU 0 instructions: 69500423 cycles: 17048754 heartbeat IPC: 2.769 cumulative IPC: 2.768 (Simulation time: 00 hr 04 min 10 sec)
Heartbeat CPU 0 instructions: 70000428 cycles: 17229097 heartbeat IPC: 2.773 cumulative IPC: 2.768 (Simulation time: 00 hr 04 min 13 sec)
Heartbeat CPU 0 instructions: 70500432 cycles: 17409703 heartbeat IPC: 2.768 cumulative IPC: 2.768 (Simulation time: 00 hr 04 min 15 sec)
Heartbeat CPU 0 instructions: 71000432 cycles: 17590338 heartbeat IPC: 2.768 cumulative IPC: 2.768 (Simulation time: 00 hr 04 min 17 sec)
Heartbeat CPU 0 instructions: 71500433 cycles: 17770667 heartbeat IPC: 2.773 cumulative IPC: 2.768 (Simulation time: 00 hr 04 min 20 sec)
Heartbeat CPU 0 instructions: 72000434 cycles: 17951236 heartbeat IPC: 2.769 cumulative IPC: 2.768 (Simulation time: 00 hr 04 min 22 sec)
Heartbeat CPU 0 instructions: 72500441 cycles: 18131711 heartbeat IPC: 2.771 cumulative IPC: 2.768 (Simulation time: 00 hr 04 min 24 sec)
Heartbeat CPU 0 instructions: 73000441 cycles: 18312098 heartbeat IPC: 2.772 cumulative IPC: 2.768 (Simulation time: 00 hr 04 min 27 sec)
Heartbeat CPU 0 instructions: 73500448 cycles: 18492560 heartbeat IPC: 2.771 cumulative IPC: 2.768 (Simulation time: 00 hr 04 min 29 sec)
Heartbeat CPU 0 instructions: 74000453 cycles: 18673005 heartbeat IPC: 2.771 cumulative IPC: 2.768 (Simulation time: 00 hr 04 min 31 sec)
Heartbeat CPU 0 instructions: 74500460 cycles: 18853467 heartbeat IPC: 2.771 cumulative IPC: 2.768 (Simulation time: 00 hr 04 min 33 sec)
Heartbeat CPU 0 instructions: 75000460 cycles: 19033731 heartbeat IPC: 2.774 cumulative IPC: 2.769 (Simulation time: 00 hr 04 min 36 sec)
Heartbeat CPU 0 instructions: 75500467 cycles: 19214296 heartbeat IPC: 2.769 cumulative IPC: 2.769 (Simulation time: 00 hr 04 min 38 sec)
Heartbeat CPU 0 instructions: 76000471 cycles: 19394752 heartbeat IPC: 2.771 cumulative IPC: 2.769 (Simulation time: 00 hr 04 min 40 sec)
Heartbeat CPU 0 instructions: 76500476 cycles: 19575161 heartbeat IPC: 2.772 cumulative IPC: 2.769 (Simulation time: 00 hr 04 min 43 sec)
Heartbeat CPU 0 instructions: 77000479 cycles: 19755536 heartbeat IPC: 2.772 cumulative IPC: 2.769 (Simulation time: 00 hr 04 min 45 sec)
Heartbeat CPU 0 instructions: 77500482 cycles: 19935940 heartbeat IPC: 2.772 cumulative IPC: 2.769 (Simulation time: 00 hr 04 min 47 sec)
Heartbeat CPU 0 instructions: 78000489 cycles: 20116277 heartbeat IPC: 2.773 cumulative IPC: 2.769 (Simulation time: 00 hr 04 min 50 sec)
Heartbeat CPU 0 instructions: 78500490 cycles: 20297049 heartbeat IPC: 2.766 cumulative IPC: 2.769 (Simulation time: 00 hr 04 min 52 sec)
Heartbeat CPU 0 instructions: 79000491 cycles: 20477537 heartbeat IPC: 2.77 cumulative IPC: 2.769 (Simulation time: 00 hr 04 min 54 sec)
Heartbeat CPU 0 instructions: 79500494 cycles: 20658055 heartbeat IPC: 2.77 cumulative IPC: 2.769 (Simulation time: 00 hr 04 min 57 sec)
Heartbeat CPU 0 instructions: 80000494 cycles: 20838326 heartbeat IPC: 2.774 cumulative IPC: 2.769 (Simulation time: 00 hr 04 min 59 sec)
Heartbeat CPU 0 instructions: 80500494 cycles: 21018628 heartbeat IPC: 2.773 cumulative IPC: 2.769 (Simulation time: 00 hr 05 min 01 sec)
Heartbeat CPU 0 instructions: 81000497 cycles: 21199359 heartbeat IPC: 2.767 cumulative IPC: 2.769 (Simulation time: 00 hr 05 min 03 sec)
Heartbeat CPU 0 instructions: 81500501 cycles: 21379923 heartbeat IPC: 2.769 cumulative IPC: 2.769 (Simulation time: 00 hr 05 min 06 sec)
Heartbeat CPU 0 instructions: 82000503 cycles: 21560327 heartbeat IPC: 2.772 cumulative IPC: 2.769 (Simulation time: 00 hr 05 min 08 sec)
Heartbeat CPU 0 instructions: 82500504 cycles: 21741141 heartbeat IPC: 2.765 cumulative IPC: 2.769 (Simulation time: 00 hr 05 min 10 sec)
Heartbeat CPU 0 instructions: 83000504 cycles: 21921903 heartbeat IPC: 2.766 cumulative IPC: 2.769 (Simulation time: 00 hr 05 min 13 sec)
Heartbeat CPU 0 instructions: 83500506 cycles: 22102684 heartbeat IPC: 2.766 cumulative IPC: 2.769 (Simulation time: 00 hr 05 min 15 sec)
Heartbeat CPU 0 instructions: 84000513 cycles: 22283065 heartbeat IPC: 2.772 cumulative IPC: 2.769 (Simulation time: 00 hr 05 min 17 sec)
Heartbeat CPU 0 instructions: 84500514 cycles: 22463697 heartbeat IPC: 2.768 cumulative IPC: 2.769 (Simulation time: 00 hr 05 min 20 sec)
Heartbeat CPU 0 instructions: 85000516 cycles: 22643995 heartbeat IPC: 2.773 cumulative IPC: 2.769 (Simulation time: 00 hr 05 min 22 sec)
Heartbeat CPU 0 instructions: 85500521 cycles: 22824779 heartbeat IPC: 2.766 cumulative IPC: 2.769 (Simulation time: 00 hr 05 min 24 sec)
Heartbeat CPU 0 instructions: 86000521 cycles: 23005485 heartbeat IPC: 2.767 cumulative IPC: 2.769 (Simulation time: 00 hr 05 min 26 sec)
Heartbeat CPU 0 instructions: 86500521 cycles: 23186336 heartbeat IPC: 2.765 cumulative IPC: 2.769 (Simulation time: 00 hr 05 min 29 sec)
Heartbeat CPU 0 instructions: 87000526 cycles: 23367140 heartbeat IPC: 2.765 cumulative IPC: 2.769 (Simulation time: 00 hr 05 min 31 sec)
Heartbeat CPU 0 instructions: 87500530 cycles: 23548083 heartbeat IPC: 2.763 cumulative IPC: 2.769 (Simulation time: 00 hr 05 min 33 sec)
Heartbeat CPU 0 instructions: 88000533 cycles: 23729055 heartbeat IPC: 2.763 cumulative IPC: 2.769 (Simulation time: 00 hr 05 min 36 sec)
Heartbeat CPU 0 instructions: 88500539 cycles: 23909409 heartbeat IPC: 2.772 cumulative IPC: 2.769 (Simulation time: 00 hr 05 min 38 sec)
Heartbeat CPU 0 instructions: 89000541 cycles: 24089785 heartbeat IPC: 2.772 cumulative IPC: 2.769 (Simulation time: 00 hr 05 min 40 sec)
Heartbeat CPU 0 instructions: 89500547 cycles: 24270703 heartbeat IPC: 2.764 cumulative IPC: 2.769 (Simulation time: 00 hr 05 min 43 sec)
Heartbeat CPU 0 instructions: 90000548 cycles: 24451420 heartbeat IPC: 2.767 cumulative IPC: 2.769 (Simulation time: 00 hr 05 min 45 sec)
Heartbeat CPU 0 instructions: 90500548 cycles: 24631870 heartbeat IPC: 2.771 cumulative IPC: 2.769 (Simulation time: 00 hr 05 min 47 sec)
Heartbeat CPU 0 instructions: 91000554 cycles: 24812402 heartbeat IPC: 2.77 cumulative IPC: 2.769 (Simulation time: 00 hr 05 min 50 sec)
Heartbeat CPU 0 instructions: 91500556 cycles: 24992779 heartbeat IPC: 2.772 cumulative IPC: 2.769 (Simulation time: 00 hr 05 min 52 sec)
Heartbeat CPU 0 instructions: 92000558 cycles: 25173186 heartbeat IPC: 2.772 cumulative IPC: 2.769 (Simulation time: 00 hr 05 min 54 sec)
Heartbeat CPU 0 instructions: 92500564 cycles: 25353798 heartbeat IPC: 2.768 cumulative IPC: 2.769 (Simulation time: 00 hr 05 min 56 sec)
Heartbeat CPU 0 instructions: 93000568 cycles: 25534261 heartbeat IPC: 2.771 cumulative IPC: 2.769 (Simulation time: 00 hr 05 min 59 sec)
Heartbeat CPU 0 instructions: 93500569 cycles: 25714636 heartbeat IPC: 2.772 cumulative IPC: 2.769 (Simulation time: 00 hr 06 min 01 sec)
Heartbeat CPU 0 instructions: 94000569 cycles: 25895704 heartbeat IPC: 2.761 cumulative IPC: 2.769 (Simulation time: 00 hr 06 min 03 sec)
Heartbeat CPU 0 instructions: 94500571 cycles: 26076615 heartbeat IPC: 2.764 cumulative IPC: 2.769 (Simulation time: 00 hr 06 min 06 sec)
Heartbeat CPU 0 instructions: 95000572 cycles: 26257263 heartbeat IPC: 2.768 cumulative IPC: 2.769 (Simulation time: 00 hr 06 min 08 sec)
Heartbeat CPU 0 instructions: 95500579 cycles: 26437710 heartbeat IPC: 2.771 cumulative IPC: 2.769 (Simulation time: 00 hr 06 min 10 sec)
Heartbeat CPU 0 instructions: 96000579 cycles: 26618265 heartbeat IPC: 2.769 cumulative IPC: 2.769 (Simulation time: 00 hr 06 min 12 sec)
Heartbeat CPU 0 instructions: 96500579 cycles: 26798650 heartbeat IPC: 2.772 cumulative IPC: 2.769 (Simulation time: 00 hr 06 min 15 sec)
Heartbeat CPU 0 instructions: 97000580 cycles: 26979416 heartbeat IPC: 2.766 cumulative IPC: 2.769 (Simulation time: 00 hr 06 min 17 sec)
Heartbeat CPU 0 instructions: 97500582 cycles: 27159743 heartbeat IPC: 2.773 cumulative IPC: 2.769 (Simulation time: 00 hr 06 min 19 sec)
Heartbeat CPU 0 instructions: 98000585 cycles: 27340116 heartbeat IPC: 2.772 cumulative IPC: 2.769 (Simulation time: 00 hr 06 min 22 sec)
Heartbeat CPU 0 instructions: 98500588 cycles: 27520764 heartbeat IPC: 2.768 cumulative IPC: 2.769 (Simulation time: 00 hr 06 min 24 sec)
Heartbeat CPU 0 instructions: 99000590 cycles: 27701327 heartbeat IPC: 2.769 cumulative IPC: 2.769 (Simulation time: 00 hr 06 min 26 sec)
Heartbeat CPU 0 instructions: 99500590 cycles: 27881926 heartbeat IPC: 2.769 cumulative IPC: 2.769 (Simulation time: 00 hr 06 min 28 sec)
Heartbeat CPU 0 instructions: 100000590 cycles: 28063042 heartbeat IPC: 2.761 cumulative IPC: 2.769 (Simulation time: 00 hr 06 min 31 sec)
Heartbeat CPU 0 instructions: 100500593 cycles: 28243911 heartbeat IPC: 2.764 cumulative IPC: 2.769 (Simulation time: 00 hr 06 min 33 sec)
Heartbeat CPU 0 instructions: 101000600 cycles: 28424831 heartbeat IPC: 2.764 cumulative IPC: 2.769 (Simulation time: 00 hr 06 min 35 sec)
Heartbeat CPU 0 instructions: 101500604 cycles: 28605567 heartbeat IPC: 2.766 cumulative IPC: 2.769 (Simulation time: 00 hr 06 min 38 sec)
Heartbeat CPU 0 instructions: 102000608 cycles: 28786661 heartbeat IPC: 2.761 cumulative IPC: 2.768 (Simulation time: 00 hr 06 min 40 sec)
Heartbeat CPU 0 instructions: 102500615 cycles: 28967251 heartbeat IPC: 2.769 cumulative IPC: 2.768 (Simulation time: 00 hr 06 min 42 sec)
Heartbeat CPU 0 instructions: 103000616 cycles: 29147727 heartbeat IPC: 2.77 cumulative IPC: 2.768 (Simulation time: 00 hr 06 min 45 sec)
Heartbeat CPU 0 instructions: 103500623 cycles: 29328228 heartbeat IPC: 2.77 cumulative IPC: 2.769 (Simulation time: 00 hr 06 min 47 sec)
Heartbeat CPU 0 instructions: 104000627 cycles: 29509082 heartbeat IPC: 2.765 cumulative IPC: 2.768 (Simulation time: 00 hr 06 min 49 sec)
Heartbeat CPU 0 instructions: 104500634 cycles: 29689945 heartbeat IPC: 2.765 cumulative IPC: 2.768 (Simulation time: 00 hr 06 min 51 sec)
Heartbeat CPU 0 instructions: 105000634 cycles: 29870372 heartbeat IPC: 2.771 cumulative IPC: 2.768 (Simulation time: 00 hr 06 min 54 sec)
Heartbeat CPU 0 instructions: 105500636 cycles: 30051153 heartbeat IPC: 2.766 cumulative IPC: 2.768 (Simulation time: 00 hr 06 min 56 sec)
Heartbeat CPU 0 instructions: 106000641 cycles: 30231925 heartbeat IPC: 2.766 cumulative IPC: 2.768 (Simulation time: 00 hr 06 min 58 sec)
Heartbeat CPU 0 instructions: 106500646 cycles: 30412712 heartbeat IPC: 2.766 cumulative IPC: 2.768 (Simulation time: 00 hr 07 min 01 sec)
Heartbeat CPU 0 instructions: 107000653 cycles: 30593379 heartbeat IPC: 2.768 cumulative IPC: 2.768 (Simulation time: 00 hr 07 min 03 sec)
Heartbeat CPU 0 instructions: 107500659 cycles: 30774108 heartbeat IPC: 2.767 cumulative IPC: 2.768 (Simulation time: 00 hr 07 min 05 sec)
Heartbeat CPU 0 instructions: 108000660 cycles: 30955047 heartbeat IPC: 2.763 cumulative IPC: 2.768 (Simulation time: 00 hr 07 min 07 sec)
Heartbeat CPU 0 instructions: 108500660 cycles: 31135860 heartbeat IPC: 2.765 cumulative IPC: 2.768 (Simulation time: 00 hr 07 min 10 sec)
Heartbeat CPU 0 instructions: 109000662 cycles: 31316446 heartbeat IPC: 2.769 cumulative IPC: 2.768 (Simulation time: 00 hr 07 min 12 sec)
Heartbeat CPU 0 instructions: 109500666 cycles: 31497017 heartbeat IPC: 2.769 cumulative IPC: 2.768 (Simulation time: 00 hr 07 min 14 sec)
Heartbeat CPU 0 instructions: 110000666 cycles: 31677501 heartbeat IPC: 2.77 cumulative IPC: 2.768 (Simulation time: 00 hr 07 min 17 sec)
Heartbeat CPU 0 instructions: 110500666 cycles: 31858131 heartbeat IPC: 2.768 cumulative IPC: 2.768 (Simulation time: 00 hr 07 min 19 sec)
Heartbeat CPU 0 instructions: 111000667 cycles: 32038638 heartbeat IPC: 2.77 cumulative IPC: 2.768 (Simulation time: 00 hr 07 min 21 sec)
Heartbeat CPU 0 instructions: 111500667 cycles: 32219645 heartbeat IPC: 2.762 cumulative IPC: 2.768 (Simulation time: 00 hr 07 min 24 sec)
Heartbeat CPU 0 instructions: 112000672 cycles: 32400491 heartbeat IPC: 2.765 cumulative IPC: 2.768 (Simulation time: 00 hr 07 min 26 sec)
Heartbeat CPU 0 instructions: 112500677 cycles: 32580904 heartbeat IPC: 2.771 cumulative IPC: 2.768 (Simulation time: 00 hr 07 min 28 sec)
Heartbeat CPU 0 instructions: 113000677 cycles: 32761688 heartbeat IPC: 2.766 cumulative IPC: 2.768 (Simulation time: 00 hr 07 min 30 sec)
Heartbeat CPU 0 instructions: 113500679 cycles: 32942316 heartbeat IPC: 2.768 cumulative IPC: 2.768 (Simulation time: 00 hr 07 min 33 sec)
Heartbeat CPU 0 instructions: 114000684 cycles: 33122924 heartbeat IPC: 2.768 cumulative IPC: 2.768 (Simulation time: 00 hr 07 min 35 sec)
Heartbeat CPU 0 instructions: 114500684 cycles: 33304059 heartbeat IPC: 2.76 cumulative IPC: 2.768 (Simulation time: 00 hr 07 min 37 sec)
Heartbeat CPU 0 instructions: 115000685 cycles: 33485146 heartbeat IPC: 2.761 cumulative IPC: 2.768 (Simulation time: 00 hr 07 min 40 sec)
Heartbeat CPU 0 instructions: 115500686 cycles: 33665653 heartbeat IPC: 2.77 cumulative IPC: 2.768 (Simulation time: 00 hr 07 min 42 sec)
Heartbeat CPU 0 instructions: 116000686 cycles: 33846790 heartbeat IPC: 2.76 cumulative IPC: 2.768 (Simulation time: 00 hr 07 min 44 sec)
Heartbeat CPU 0 instructions: 116500687 cycles: 34027386 heartbeat IPC: 2.769 cumulative IPC: 2.768 (Simulation time: 00 hr 07 min 47 sec)
Heartbeat CPU 0 instructions: 117000691 cycles: 34207779 heartbeat IPC: 2.772 cumulative IPC: 2.768 (Simulation time: 00 hr 07 min 49 sec)
Heartbeat CPU 0 instructions: 117500697 cycles: 34388381 heartbeat IPC: 2.769 cumulative IPC: 2.768 (Simulation time: 00 hr 07 min 51 sec)
Heartbeat CPU 0 instructions: 118000699 cycles: 34569606 heartbeat IPC: 2.759 cumulative IPC: 2.768 (Simulation time: 00 hr 07 min 53 sec)
Heartbeat CPU 0 instructions: 118500703 cycles: 34750492 heartbeat IPC: 2.764 cumulative IPC: 2.768 (Simulation time: 00 hr 07 min 56 sec)
Heartbeat CPU 0 instructions: 119000705 cycles: 34931236 heartbeat IPC: 2.766 cumulative IPC: 2.768 (Simulation time: 00 hr 07 min 58 sec)
Heartbeat CPU 0 instructions: 119500711 cycles: 35111929 heartbeat IPC: 2.767 cumulative IPC: 2.768 (Simulation time: 00 hr 08 min 00 sec)
Heartbeat CPU 0 instructions: 120000712 cycles: 35292513 heartbeat IPC: 2.769 cumulative IPC: 2.768 (Simulation time: 00 hr 08 min 03 sec)
Heartbeat CPU 0 instructions: 120500719 cycles: 35473056 heartbeat IPC: 2.769 cumulative IPC: 2.768 (Simulation time: 00 hr 08 min 05 sec)
Heartbeat CPU 0 instructions: 121000722 cycles: 35653941 heartbeat IPC: 2.764 cumulative IPC: 2.768 (Simulation time: 00 hr 08 min 07 sec)
Heartbeat CPU 0 instructions: 121500722 cycles: 35834572 heartbeat IPC: 2.768 cumulative IPC: 2.768 (Simulation time: 00 hr 08 min 09 sec)
Heartbeat CPU 0 instructions: 122000722 cycles: 36015161 heartbeat IPC: 2.769 cumulative IPC: 2.768 (Simulation time: 00 hr 08 min 12 sec)
Heartbeat CPU 0 instructions: 122500724 cycles: 36195892 heartbeat IPC: 2.767 cumulative IPC: 2.768 (Simulation time: 00 hr 08 min 14 sec)
Heartbeat CPU 0 instructions: 123000727 cycles: 36377126 heartbeat IPC: 2.759 cumulative IPC: 2.768 (Simulation time: 00 hr 08 min 16 sec)
Heartbeat CPU 0 instructions: 123500727 cycles: 36557936 heartbeat IPC: 2.765 cumulative IPC: 2.768 (Simulation time: 00 hr 08 min 19 sec)
Heartbeat CPU 0 instructions: 124000734 cycles: 36738545 heartbeat IPC: 2.768 cumulative IPC: 2.768 (Simulation time: 00 hr 08 min 21 sec)
Heartbeat CPU 0 instructions: 124500741 cycles: 36919094 heartbeat IPC: 2.769 cumulative IPC: 2.768 (Simulation time: 00 hr 08 min 23 sec)
Heartbeat CPU 0 instructions: 125000744 cycles: 37099706 heartbeat IPC: 2.768 cumulative IPC: 2.768 (Simulation time: 00 hr 08 min 25 sec)
Heartbeat CPU 0 instructions: 125500746 cycles: 37280441 heartbeat IPC: 2.766 cumulative IPC: 2.768 (Simulation time: 00 hr 08 min 28 sec)
Heartbeat CPU 0 instructions: 126000748 cycles: 37461202 heartbeat IPC: 2.766 cumulative IPC: 2.768 (Simulation time: 00 hr 08 min 30 sec)
Heartbeat CPU 0 instructions: 126500750 cycles: 37641977 heartbeat IPC: 2.766 cumulative IPC: 2.768 (Simulation time: 00 hr 08 min 32 sec)
Heartbeat CPU 0 instructions: 127000751 cycles: 37822684 heartbeat IPC: 2.767 cumulative IPC: 2.768 (Simulation time: 00 hr 08 min 35 sec)
Heartbeat CPU 0 instructions: 127500751 cycles: 38003361 heartbeat IPC: 2.767 cumulative IPC: 2.768 (Simulation time: 00 hr 08 min 37 sec)
Heartbeat CPU 0 instructions: 128000757 cycles: 38184491 heartbeat IPC: 2.76 cumulative IPC: 2.768 (Simulation time: 00 hr 08 min 39 sec)
Heartbeat CPU 0 instructions: 128500757 cycles: 38365098 heartbeat IPC: 2.768 cumulative IPC: 2.768 (Simulation time: 00 hr 08 min 42 sec)
Heartbeat CPU 0 instructions: 129000757 cycles: 38545915 heartbeat IPC: 2.765 cumulative IPC: 2.768 (Simulation time: 00 hr 08 min 44 sec)
Heartbeat CPU 0 instructions: 129500760 cycles: 38726925 heartbeat IPC: 2.762 cumulative IPC: 2.768 (Simulation time: 00 hr 08 min 46 sec)
Heartbeat CPU 0 instructions: 130000760 cycles: 38908014 heartbeat IPC: 2.761 cumulative IPC: 2.768 (Simulation time: 00 hr 08 min 48 sec)
Heartbeat CPU 0 instructions: 130500760 cycles: 39088497 heartbeat IPC: 2.77 cumulative IPC: 2.768 (Simulation time: 00 hr 08 min 51 sec)
Heartbeat CPU 0 instructions: 131000760 cycles: 39269372 heartbeat IPC: 2.764 cumulative IPC: 2.768 (Simulation time: 00 hr 08 min 53 sec)
Heartbeat CPU 0 instructions: 131500764 cycles: 39449898 heartbeat IPC: 2.77 cumulative IPC: 2.768 (Simulation time: 00 hr 08 min 55 sec)
Heartbeat CPU 0 instructions: 132000767 cycles: 39629875 heartbeat IPC: 2.778 cumulative IPC: 2.768 (Simulation time: 00 hr 08 min 58 sec)
Heartbeat CPU 0 instructions: 132500769 cycles: 39810193 heartbeat IPC: 2.773 cumulative IPC: 2.768 (Simulation time: 00 hr 09 min 00 sec)
Heartbeat CPU 0 instructions: 133000769 cycles: 39990692 heartbeat IPC: 2.77 cumulative IPC: 2.768 (Simulation time: 00 hr 09 min 02 sec)
Heartbeat CPU 0 instructions: 133500773 cycles: 40171469 heartbeat IPC: 2.766 cumulative IPC: 2.768 (Simulation time: 00 hr 09 min 04 sec)
Heartbeat CPU 0 instructions: 134000773 cycles: 40352406 heartbeat IPC: 2.763 cumulative IPC: 2.768 (Simulation time: 00 hr 09 min 07 sec)
Heartbeat CPU 0 instructions: 134500774 cycles: 40533451 heartbeat IPC: 2.762 cumulative IPC: 2.768 (Simulation time: 00 hr 09 min 09 sec)
Heartbeat CPU 0 instructions: 135000774 cycles: 40713990 heartbeat IPC: 2.769 cumulative IPC: 2.768 (Simulation time: 00 hr 09 min 11 sec)
Heartbeat CPU 0 instructions: 135500777 cycles: 40894716 heartbeat IPC: 2.767 cumulative IPC: 2.768 (Simulation time: 00 hr 09 min 14 sec)
Heartbeat CPU 0 instructions: 136000782 cycles: 41075216 heartbeat IPC: 2.77 cumulative IPC: 2.768 (Simulation time: 00 hr 09 min 16 sec)
Heartbeat CPU 0 instructions: 136500785 cycles: 41255766 heartbeat IPC: 2.769 cumulative IPC: 2.768 (Simulation time: 00 hr 09 min 18 sec)
Heartbeat CPU 0 instructions: 137000785 cycles: 41436210 heartbeat IPC: 2.771 cumulative IPC: 2.768 (Simulation time: 00 hr 09 min 20 sec)
Heartbeat CPU 0 instructions: 137500788 cycles: 41616553 heartbeat IPC: 2.773 cumulative IPC: 2.768 (Simulation time: 00 hr 09 min 23 sec)
Heartbeat CPU 0 instructions: 138000791 cycles: 41797135 heartbeat IPC: 2.769 cumulative IPC: 2.768 (Simulation time: 00 hr 09 min 25 sec)
Heartbeat CPU 0 instructions: 138500791 cycles: 41977574 heartbeat IPC: 2.771 cumulative IPC: 2.768 (Simulation time: 00 hr 09 min 27 sec)
Heartbeat CPU 0 instructions: 139000797 cycles: 42158118 heartbeat IPC: 2.769 cumulative IPC: 2.768 (Simulation time: 00 hr 09 min 30 sec)
Heartbeat CPU 0 instructions: 139500797 cycles: 42338610 heartbeat IPC: 2.77 cumulative IPC: 2.768 (Simulation time: 00 hr 09 min 32 sec)
Heartbeat CPU 0 instructions: 140000801 cycles: 42519067 heartbeat IPC: 2.771 cumulative IPC: 2.768 (Simulation time: 00 hr 09 min 34 sec)
Heartbeat CPU 0 instructions: 140500801 cycles: 42699560 heartbeat IPC: 2.77 cumulative IPC: 2.768 (Simulation time: 00 hr 09 min 36 sec)
Heartbeat CPU 0 instructions: 141000804 cycles: 42879911 heartbeat IPC: 2.772 cumulative IPC: 2.768 (Simulation time: 00 hr 09 min 39 sec)
Heartbeat CPU 0 instructions: 141500804 cycles: 43060400 heartbeat IPC: 2.77 cumulative IPC: 2.768 (Simulation time: 00 hr 09 min 41 sec)
Heartbeat CPU 0 instructions: 142000806 cycles: 43240935 heartbeat IPC: 2.77 cumulative IPC: 2.768 (Simulation time: 00 hr 09 min 43 sec)
Heartbeat CPU 0 instructions: 142500809 cycles: 43421777 heartbeat IPC: 2.765 cumulative IPC: 2.768 (Simulation time: 00 hr 09 min 46 sec)
Heartbeat CPU 0 instructions: 143000814 cycles: 43602162 heartbeat IPC: 2.772 cumulative IPC: 2.768 (Simulation time: 00 hr 09 min 48 sec)
Heartbeat CPU 0 instructions: 143500814 cycles: 43782514 heartbeat IPC: 2.772 cumulative IPC: 2.768 (Simulation time: 00 hr 09 min 50 sec)
Heartbeat CPU 0 instructions: 144000814 cycles: 43963249 heartbeat IPC: 2.766 cumulative IPC: 2.768 (Simulation time: 00 hr 09 min 53 sec)
Heartbeat CPU 0 instructions: 144500818 cycles: 44144118 heartbeat IPC: 2.764 cumulative IPC: 2.768 (Simulation time: 00 hr 09 min 55 sec)
Heartbeat CPU 0 instructions: 145000821 cycles: 44325200 heartbeat IPC: 2.761 cumulative IPC: 2.768 (Simulation time: 00 hr 09 min 57 sec)
Heartbeat CPU 0 instructions: 145500826 cycles: 44506092 heartbeat IPC: 2.764 cumulative IPC: 2.768 (Simulation time: 00 hr 09 min 59 sec)
Heartbeat CPU 0 instructions: 146000827 cycles: 44686885 heartbeat IPC: 2.766 cumulative IPC: 2.768 (Simulation time: 00 hr 10 min 02 sec)
Heartbeat CPU 0 instructions: 146500830 cycles: 44867821 heartbeat IPC: 2.763 cumulative IPC: 2.768 (Simulation time: 00 hr 10 min 04 sec)
Heartbeat CPU 0 instructions: 147000836 cycles: 45048421 heartbeat IPC: 2.769 cumulative IPC: 2.768 (Simulation time: 00 hr 10 min 06 sec)
Heartbeat CPU 0 instructions: 147500836 cycles: 45228801 heartbeat IPC: 2.772 cumulative IPC: 2.768 (Simulation time: 00 hr 10 min 09 sec)
Heartbeat CPU 0 instructions: 148000838 cycles: 45409505 heartbeat IPC: 2.767 cumulative IPC: 2.768 (Simulation time: 00 hr 10 min 11 sec)
Heartbeat CPU 0 instructions: 148500839 cycles: 45589915 heartbeat IPC: 2.771 cumulative IPC: 2.768 (Simulation time: 00 hr 10 min 13 sec)
Heartbeat CPU 0 instructions: 149000844 cycles: 45771024 heartbeat IPC: 2.761 cumulative IPC: 2.768 (Simulation time: 00 hr 10 min 15 sec)
Heartbeat CPU 0 instructions: 149500845 cycles: 45951906 heartbeat IPC: 2.764 cumulative IPC: 2.768 (Simulation time: 00 hr 10 min 18 sec)
Heartbeat CPU 0 instructions: 150000848 cycles: 46132428 heartbeat IPC: 2.77 cumulative IPC: 2.768 (Simulation time: 00 hr 10 min 20 sec)
Heartbeat CPU 0 instructions: 150500850 cycles: 46313125 heartbeat IPC: 2.767 cumulative IPC: 2.768 (Simulation time: 00 hr 10 min 22 sec)
Heartbeat CPU 0 instructions: 151000852 cycles: 46493887 heartbeat IPC: 2.766 cumulative IPC: 2.768 (Simulation time: 00 hr 10 min 25 sec)
Heartbeat CPU 0 instructions: 151500858 cycles: 46674695 heartbeat IPC: 2.765 cumulative IPC: 2.768 (Simulation time: 00 hr 10 min 27 sec)
Heartbeat CPU 0 instructions: 152000862 cycles: 46855123 heartbeat IPC: 2.771 cumulative IPC: 2.768 (Simulation time: 00 hr 10 min 29 sec)
Heartbeat CPU 0 instructions: 152500863 cycles: 47035947 heartbeat IPC: 2.765 cumulative IPC: 2.768 (Simulation time: 00 hr 10 min 31 sec)
Heartbeat CPU 0 instructions: 153000867 cycles: 47216527 heartbeat IPC: 2.769 cumulative IPC: 2.768 (Simulation time: 00 hr 10 min 34 sec)
Heartbeat CPU 0 instructions: 153500869 cycles: 47397152 heartbeat IPC: 2.768 cumulative IPC: 2.768 (Simulation time: 00 hr 10 min 36 sec)
Heartbeat CPU 0 instructions: 154000870 cycles: 47578226 heartbeat IPC: 2.761 cumulative IPC: 2.768 (Simulation time: 00 hr 10 min 38 sec)
Heartbeat CPU 0 instructions: 154500870 cycles: 47759341 heartbeat IPC: 2.761 cumulative IPC: 2.768 (Simulation time: 00 hr 10 min 41 sec)
Heartbeat CPU 0 instructions: 155000871 cycles: 47940046 heartbeat IPC: 2.767 cumulative IPC: 2.768 (Simulation time: 00 hr 10 min 43 sec)
Heartbeat CPU 0 instructions: 155500875 cycles: 48121012 heartbeat IPC: 2.763 cumulative IPC: 2.768 (Simulation time: 00 hr 10 min 45 sec)
Heartbeat CPU 0 instructions: 156000881 cycles: 48301865 heartbeat IPC: 2.765 cumulative IPC: 2.768 (Simulation time: 00 hr 10 min 48 sec)
Heartbeat CPU 0 instructions: 156500882 cycles: 48482796 heartbeat IPC: 2.763 cumulative IPC: 2.768 (Simulation time: 00 hr 10 min 50 sec)
Heartbeat CPU 0 instructions: 157000882 cycles: 48663669 heartbeat IPC: 2.764 cumulative IPC: 2.768 (Simulation time: 00 hr 10 min 52 sec)
Heartbeat CPU 0 instructions: 157500884 cycles: 48844340 heartbeat IPC: 2.767 cumulative IPC: 2.768 (Simulation time: 00 hr 10 min 54 sec)
Heartbeat CPU 0 instructions: 158000887 cycles: 49024742 heartbeat IPC: 2.772 cumulative IPC: 2.768 (Simulation time: 00 hr 10 min 57 sec)
Heartbeat CPU 0 instructions: 158500888 cycles: 49205145 heartbeat IPC: 2.772 cumulative IPC: 2.768 (Simulation time: 00 hr 10 min 59 sec)
Heartbeat CPU 0 instructions: 159000889 cycles: 49385943 heartbeat IPC: 2.766 cumulative IPC: 2.768 (Simulation time: 00 hr 11 min 01 sec)
Heartbeat CPU 0 instructions: 159500895 cycles: 49567012 heartbeat IPC: 2.761 cumulative IPC: 2.768 (Simulation time: 00 hr 11 min 04 sec)
Heartbeat CPU 0 instructions: 160000896 cycles: 49748541 heartbeat IPC: 2.754 cumulative IPC: 2.768 (Simulation time: 00 hr 11 min 06 sec)
Heartbeat CPU 0 instructions: 160500897 cycles: 49929310 heartbeat IPC: 2.766 cumulative IPC: 2.768 (Simulation time: 00 hr 11 min 08 sec)
Heartbeat CPU 0 instructions: 161000898 cycles: 50109605 heartbeat IPC: 2.773 cumulative IPC: 2.768 (Simulation time: 00 hr 11 min 10 sec)
Heartbeat CPU 0 instructions: 161500905 cycles: 50290211 heartbeat IPC: 2.768 cumulative IPC: 2.768 (Simulation time: 00 hr 11 min 13 sec)
Heartbeat CPU 0 instructions: 162000907 cycles: 50471032 heartbeat IPC: 2.765 cumulative IPC: 2.768 (Simulation time: 00 hr 11 min 15 sec)
Heartbeat CPU 0 instructions: 162500910 cycles: 50652063 heartbeat IPC: 2.762 cumulative IPC: 2.768 (Simulation time: 00 hr 11 min 17 sec)
Heartbeat CPU 0 instructions: 163000916 cycles: 50832692 heartbeat IPC: 2.768 cumulative IPC: 2.768 (Simulation time: 00 hr 11 min 20 sec)
Heartbeat CPU 0 instructions: 163500922 cycles: 51013837 heartbeat IPC: 2.76 cumulative IPC: 2.768 (Simulation time: 00 hr 11 min 22 sec)
Heartbeat CPU 0 instructions: 164000926 cycles: 51195030 heartbeat IPC: 2.76 cumulative IPC: 2.768 (Simulation time: 00 hr 11 min 24 sec)
Heartbeat CPU 0 instructions: 164500928 cycles: 51376540 heartbeat IPC: 2.755 cumulative IPC: 2.768 (Simulation time: 00 hr 11 min 26 sec)
Heartbeat CPU 0 instructions: 165000932 cycles: 51557800 heartbeat IPC: 2.758 cumulative IPC: 2.767 (Simulation time: 00 hr 11 min 29 sec)
Heartbeat CPU 0 instructions: 165500932 cycles: 51738912 heartbeat IPC: 2.761 cumulative IPC: 2.767 (Simulation time: 00 hr 11 min 31 sec)
Heartbeat CPU 0 instructions: 166000933 cycles: 51919406 heartbeat IPC: 2.77 cumulative IPC: 2.767 (Simulation time: 00 hr 11 min 33 sec)
Heartbeat CPU 0 instructions: 166500933 cycles: 52099960 heartbeat IPC: 2.769 cumulative IPC: 2.767 (Simulation time: 00 hr 11 min 36 sec)
Heartbeat CPU 0 instructions: 167000936 cycles: 52280497 heartbeat IPC: 2.77 cumulative IPC: 2.767 (Simulation time: 00 hr 11 min 38 sec)
Heartbeat CPU 0 instructions: 167500939 cycles: 52461330 heartbeat IPC: 2.765 cumulative IPC: 2.767 (Simulation time: 00 hr 11 min 40 sec)
Heartbeat CPU 0 instructions: 168000941 cycles: 52642126 heartbeat IPC: 2.766 cumulative IPC: 2.767 (Simulation time: 00 hr 11 min 43 sec)
Heartbeat CPU 0 instructions: 168500945 cycles: 52823198 heartbeat IPC: 2.761 cumulative IPC: 2.767 (Simulation time: 00 hr 11 min 45 sec)
Heartbeat CPU 0 instructions: 169000951 cycles: 53003914 heartbeat IPC: 2.767 cumulative IPC: 2.767 (Simulation time: 00 hr 11 min 47 sec)
Heartbeat CPU 0 instructions: 169500957 cycles: 53184353 heartbeat IPC: 2.771 cumulative IPC: 2.767 (Simulation time: 00 hr 11 min 49 sec)
Heartbeat CPU 0 instructions: 170000963 cycles: 53364599 heartbeat IPC: 2.774 cumulative IPC: 2.767 (Simulation time: 00 hr 11 min 52 sec)
Heartbeat CPU 0 instructions: 170500966 cycles: 53545061 heartbeat IPC: 2.771 cumulative IPC: 2.767 (Simulation time: 00 hr 11 min 54 sec)
Heartbeat CPU 0 instructions: 171000967 cycles: 53725632 heartbeat IPC: 2.769 cumulative IPC: 2.767 (Simulation time: 00 hr 11 min 56 sec)
Heartbeat CPU 0 instructions: 171500968 cycles: 53906196 heartbeat IPC: 2.769 cumulative IPC: 2.768 (Simulation time: 00 hr 11 min 59 sec)
Heartbeat CPU 0 instructions: 172000970 cycles: 54087559 heartbeat IPC: 2.757 cumulative IPC: 2.767 (Simulation time: 00 hr 12 min 01 sec)
Heartbeat CPU 0 instructions: 172500970 cycles: 54269022 heartbeat IPC: 2.755 cumulative IPC: 2.767 (Simulation time: 00 hr 12 min 03 sec)
Heartbeat CPU 0 instructions: 173000973 cycles: 54449401 heartbeat IPC: 2.772 cumulative IPC: 2.767 (Simulation time: 00 hr 12 min 05 sec)
Heartbeat CPU 0 instructions: 173500978 cycles: 54630252 heartbeat IPC: 2.765 cumulative IPC: 2.767 (Simulation time: 00 hr 12 min 08 sec)
Heartbeat CPU 0 instructions: 174000984 cycles: 54811012 heartbeat IPC: 2.766 cumulative IPC: 2.767 (Simulation time: 00 hr 12 min 10 sec)
Heartbeat CPU 0 instructions: 174500985 cycles: 54991619 heartbeat IPC: 2.768 cumulative IPC: 2.767 (Simulation time: 00 hr 12 min 12 sec)
Heartbeat CPU 0 instructions: 175000986 cycles: 55172101 heartbeat IPC: 2.77 cumulative IPC: 2.767 (Simulation time: 00 hr 12 min 15 sec)
Heartbeat CPU 0 instructions: 175500987 cycles: 55352890 heartbeat IPC: 2.766 cumulative IPC: 2.767 (Simulation time: 00 hr 12 min 17 sec)
Heartbeat CPU 0 instructions: 176000992 cycles: 55533490 heartbeat IPC: 2.769 cumulative IPC: 2.767 (Simulation time: 00 hr 12 min 19 sec)
Heartbeat CPU 0 instructions: 176500992 cycles: 55714119 heartbeat IPC: 2.768 cumulative IPC: 2.767 (Simulation time: 00 hr 12 min 21 sec)
Heartbeat CPU 0 instructions: 177000994 cycles: 55894507 heartbeat IPC: 2.772 cumulative IPC: 2.767 (Simulation time: 00 hr 12 min 24 sec)
Heartbeat CPU 0 instructions: 177500999 cycles: 56075530 heartbeat IPC: 2.762 cumulative IPC: 2.767 (Simulation time: 00 hr 12 min 26 sec)
Heartbeat CPU 0 instructions: 178000999 cycles: 56255999 heartbeat IPC: 2.771 cumulative IPC: 2.767 (Simulation time: 00 hr 12 min 28 sec)
Heartbeat CPU 0 instructions: 178501003 cycles: 56436655 heartbeat IPC: 2.768 cumulative IPC: 2.767 (Simulation time: 00 hr 12 min 31 sec)
Heartbeat CPU 0 instructions: 179001004 cycles: 56617113 heartbeat IPC: 2.771 cumulative IPC: 2.767 (Simulation time: 00 hr 12 min 33 sec)
Heartbeat CPU 0 instructions: 179501005 cycles: 56797560 heartbeat IPC: 2.771 cumulative IPC: 2.767 (Simulation time: 00 hr 12 min 35 sec)
Heartbeat CPU 0 instructions: 180001007 cycles: 56978113 heartbeat IPC: 2.769 cumulative IPC: 2.767 (Simulation time: 00 hr 12 min 38 sec)
Heartbeat CPU 0 instructions: 180501007 cycles: 57158571 heartbeat IPC: 2.771 cumulative IPC: 2.767 (Simulation time: 00 hr 12 min 40 sec)
Heartbeat CPU 0 instructions: 181001011 cycles: 57338818 heartbeat IPC: 2.774 cumulative IPC: 2.768 (Simulation time: 00 hr 12 min 42 sec)
Heartbeat CPU 0 instructions: 181501013 cycles: 57519609 heartbeat IPC: 2.766 cumulative IPC: 2.768 (Simulation time: 00 hr 12 min 44 sec)
Heartbeat CPU 0 instructions: 182001018 cycles: 57700020 heartbeat IPC: 2.771 cumulative IPC: 2.768 (Simulation time: 00 hr 12 min 47 sec)
Heartbeat CPU 0 instructions: 182501018 cycles: 57880687 heartbeat IPC: 2.768 cumulative IPC: 2.768 (Simulation time: 00 hr 12 min 49 sec)
Heartbeat CPU 0 instructions: 183001018 cycles: 58061218 heartbeat IPC: 2.77 cumulative IPC: 2.768 (Simulation time: 00 hr 12 min 51 sec)
Heartbeat CPU 0 instructions: 183501019 cycles: 58242129 heartbeat IPC: 2.764 cumulative IPC: 2.768 (Simulation time: 00 hr 12 min 54 sec)
Heartbeat CPU 0 instructions: 184001024 cycles: 58422734 heartbeat IPC: 2.769 cumulative IPC: 2.768 (Simulation time: 00 hr 12 min 56 sec)
Heartbeat CPU 0 instructions: 184501029 cycles: 58603956 heartbeat IPC: 2.759 cumulative IPC: 2.767 (Simulation time: 00 hr 12 min 58 sec)
Heartbeat CPU 0 instructions: 185001029 cycles: 58784625 heartbeat IPC: 2.767 cumulative IPC: 2.767 (Simulation time: 00 hr 13 min 00 sec)
Heartbeat CPU 0 instructions: 185501035 cycles: 58965196 heartbeat IPC: 2.769 cumulative IPC: 2.767 (Simulation time: 00 hr 13 min 03 sec)
Heartbeat CPU 0 instructions: 186001036 cycles: 59145816 heartbeat IPC: 2.768 cumulative IPC: 2.767 (Simulation time: 00 hr 13 min 05 sec)
Heartbeat CPU 0 instructions: 186501042 cycles: 59326283 heartbeat IPC: 2.771 cumulative IPC: 2.768 (Simulation time: 00 hr 13 min 07 sec)
Heartbeat CPU 0 instructions: 187001044 cycles: 59506660 heartbeat IPC: 2.772 cumulative IPC: 2.768 (Simulation time: 00 hr 13 min 10 sec)
Heartbeat CPU 0 instructions: 187501046 cycles: 59687179 heartbeat IPC: 2.77 cumulative IPC: 2.768 (Simulation time: 00 hr 13 min 12 sec)
Heartbeat CPU 0 instructions: 188001047 cycles: 59867988 heartbeat IPC: 2.765 cumulative IPC: 2.768 (Simulation time: 00 hr 13 min 14 sec)
Heartbeat CPU 0 instructions: 188501053 cycles: 60048708 heartbeat IPC: 2.767 cumulative IPC: 2.768 (Simulation time: 00 hr 13 min 16 sec)
Heartbeat CPU 0 instructions: 189001053 cycles: 60229404 heartbeat IPC: 2.767 cumulative IPC: 2.768 (Simulation time: 00 hr 13 min 19 sec)
Heartbeat CPU 0 instructions: 189501058 cycles: 60409850 heartbeat IPC: 2.771 cumulative IPC: 2.768 (Simulation time: 00 hr 13 min 21 sec)
Heartbeat CPU 0 instructions: 190001059 cycles: 60590709 heartbeat IPC: 2.765 cumulative IPC: 2.768 (Simulation time: 00 hr 13 min 23 sec)
Heartbeat CPU 0 instructions: 190501065 cycles: 60771644 heartbeat IPC: 2.763 cumulative IPC: 2.768 (Simulation time: 00 hr 13 min 26 sec)
Heartbeat CPU 0 instructions: 191001069 cycles: 60952365 heartbeat IPC: 2.767 cumulative IPC: 2.768 (Simulation time: 00 hr 13 min 28 sec)
Heartbeat CPU 0 instructions: 191501069 cycles: 61133079 heartbeat IPC: 2.767 cumulative IPC: 2.767 (Simulation time: 00 hr 13 min 30 sec)
Heartbeat CPU 0 instructions: 192001069 cycles: 61313684 heartbeat IPC: 2.768 cumulative IPC: 2.768 (Simulation time: 00 hr 13 min 33 sec)
Heartbeat CPU 0 instructions: 192501073 cycles: 61494185 heartbeat IPC: 2.77 cumulative IPC: 2.768 (Simulation time: 00 hr 13 min 35 sec)
Heartbeat CPU 0 instructions: 193001075 cycles: 61674775 heartbeat IPC: 2.769 cumulative IPC: 2.768 (Simulation time: 00 hr 13 min 37 sec)
Heartbeat CPU 0 instructions: 193501078 cycles: 61855576 heartbeat IPC: 2.765 cumulative IPC: 2.768 (Simulation time: 00 hr 13 min 39 sec)
Heartbeat CPU 0 instructions: 194001080 cycles: 62036084 heartbeat IPC: 2.77 cumulative IPC: 2.768 (Simulation time: 00 hr 13 min 42 sec)
Heartbeat CPU 0 instructions: 194501082 cycles: 62216654 heartbeat IPC: 2.769 cumulative IPC: 2.768 (Simulation time: 00 hr 13 min 44 sec)
Heartbeat CPU 0 instructions: 195001084 cycles: 62397268 heartbeat IPC: 2.768 cumulative IPC: 2.768 (Simulation time: 00 hr 13 min 46 sec)
Heartbeat CPU 0 instructions: 195501085 cycles: 62577763 heartbeat IPC: 2.77 cumulative IPC: 2.768 (Simulation time: 00 hr 13 min 49 sec)
Heartbeat CPU 0 instructions: 196001085 cycles: 62758628 heartbeat IPC: 2.764 cumulative IPC: 2.768 (Simulation time: 00 hr 13 min 51 sec)
Heartbeat CPU 0 instructions: 196501085 cycles: 62938968 heartbeat IPC: 2.773 cumulative IPC: 2.768 (Simulation time: 00 hr 13 min 53 sec)
Heartbeat CPU 0 instructions: 197001092 cycles: 63119591 heartbeat IPC: 2.768 cumulative IPC: 2.768 (Simulation time: 00 hr 13 min 55 sec)
Heartbeat CPU 0 instructions: 197501094 cycles: 63300828 heartbeat IPC: 2.759 cumulative IPC: 2.768 (Simulation time: 00 hr 13 min 58 sec)
Heartbeat CPU 0 instructions: 198001094 cycles: 63481340 heartbeat IPC: 2.77 cumulative IPC: 2.768 (Simulation time: 00 hr 14 min 00 sec)
Heartbeat CPU 0 instructions: 198501095 cycles: 63661845 heartbeat IPC: 2.77 cumulative IPC: 2.768 (Simulation time: 00 hr 14 min 02 sec)
Heartbeat CPU 0 instructions: 199001098 cycles: 63842712 heartbeat IPC: 2.764 cumulative IPC: 2.768 (Simulation time: 00 hr 14 min 05 sec)
Heartbeat CPU 0 instructions: 199501098 cycles: 64023322 heartbeat IPC: 2.768 cumulative IPC: 2.768 (Simulation time: 00 hr 14 min 07 sec)
Heartbeat CPU 0 instructions: 200001098 cycles: 64203755 heartbeat IPC: 2.771 cumulative IPC: 2.768 (Simulation time: 00 hr 14 min 09 sec)
Heartbeat CPU 0 instructions: 200501098 cycles: 64384681 heartbeat IPC: 2.764 cumulative IPC: 2.768 (Simulation time: 00 hr 14 min 11 sec)
Heartbeat CPU 0 instructions: 201001101 cycles: 64565265 heartbeat IPC: 2.769 cumulative IPC: 2.768 (Simulation time: 00 hr 14 min 14 sec)
Heartbeat CPU 0 instructions: 201501105 cycles: 64745821 heartbeat IPC: 2.769 cumulative IPC: 2.768 (Simulation time: 00 hr 14 min 16 sec)
Heartbeat CPU 0 instructions: 202001107 cycles: 64926228 heartbeat IPC: 2.772 cumulative IPC: 2.768 (Simulation time: 00 hr 14 min 18 sec)
Heartbeat CPU 0 instructions: 202501113 cycles: 65107246 heartbeat IPC: 2.762 cumulative IPC: 2.768 (Simulation time: 00 hr 14 min 21 sec)
Heartbeat CPU 0 instructions: 203001118 cycles: 65287909 heartbeat IPC: 2.768 cumulative IPC: 2.768 (Simulation time: 00 hr 14 min 23 sec)
Heartbeat CPU 0 instructions: 203501123 cycles: 65468675 heartbeat IPC: 2.766 cumulative IPC: 2.768 (Simulation time: 00 hr 14 min 25 sec)
Heartbeat CPU 0 instructions: 204001123 cycles: 65649164 heartbeat IPC: 2.77 cumulative IPC: 2.768 (Simulation time: 00 hr 14 min 28 sec)
Heartbeat CPU 0 instructions: 204501124 cycles: 65829753 heartbeat IPC: 2.769 cumulative IPC: 2.768 (Simulation time: 00 hr 14 min 30 sec)
Heartbeat CPU 0 instructions: 205001126 cycles: 66010601 heartbeat IPC: 2.765 cumulative IPC: 2.768 (Simulation time: 00 hr 14 min 32 sec)
Heartbeat CPU 0 instructions: 205501127 cycles: 66191317 heartbeat IPC: 2.767 cumulative IPC: 2.768 (Simulation time: 00 hr 14 min 34 sec)
Heartbeat CPU 0 instructions: 206001129 cycles: 66371788 heartbeat IPC: 2.771 cumulative IPC: 2.768 (Simulation time: 00 hr 14 min 37 sec)
Heartbeat CPU 0 instructions: 206501133 cycles: 66551959 heartbeat IPC: 2.775 cumulative IPC: 2.768 (Simulation time: 00 hr 14 min 39 sec)
Heartbeat CPU 0 instructions: 207001139 cycles: 66732469 heartbeat IPC: 2.77 cumulative IPC: 2.768 (Simulation time: 00 hr 14 min 41 sec)
Heartbeat CPU 0 instructions: 207501139 cycles: 66912764 heartbeat IPC: 2.773 cumulative IPC: 2.768 (Simulation time: 00 hr 14 min 44 sec)
Heartbeat CPU 0 instructions: 208001139 cycles: 67093176 heartbeat IPC: 2.771 cumulative IPC: 2.768 (Simulation time: 00 hr 14 min 46 sec)
Heartbeat CPU 0 instructions: 208501140 cycles: 67273969 heartbeat IPC: 2.766 cumulative IPC: 2.768 (Simulation time: 00 hr 14 min 48 sec)
Heartbeat CPU 0 instructions: 209001141 cycles: 67454732 heartbeat IPC: 2.766 cumulative IPC: 2.768 (Simulation time: 00 hr 14 min 50 sec)
Heartbeat CPU 0 instructions: 209501142 cycles: 67635283 heartbeat IPC: 2.769 cumulative IPC: 2.768 (Simulation time: 00 hr 14 min 53 sec)
Heartbeat CPU 0 instructions: 210001147 cycles: 67815758 heartbeat IPC: 2.77 cumulative IPC: 2.768 (Simulation time: 00 hr 14 min 55 sec)
Heartbeat CPU 0 instructions: 210501147 cycles: 67996503 heartbeat IPC: 2.766 cumulative IPC: 2.768 (Simulation time: 00 hr 14 min 57 sec)
Heartbeat CPU 0 instructions: 211001147 cycles: 68176834 heartbeat IPC: 2.773 cumulative IPC: 2.768 (Simulation time: 00 hr 15 min 00 sec)
Heartbeat CPU 0 instructions: 211501147 cycles: 68357522 heartbeat IPC: 2.767 cumulative IPC: 2.768 (Simulation time: 00 hr 15 min 02 sec)
Heartbeat CPU 0 instructions: 212001148 cycles: 68537934 heartbeat IPC: 2.771 cumulative IPC: 2.768 (Simulation time: 00 hr 15 min 04 sec)
Heartbeat CPU 0 instructions: 212501154 cycles: 68718746 heartbeat IPC: 2.765 cumulative IPC: 2.768 (Simulation time: 00 hr 15 min 06 sec)
Heartbeat CPU 0 instructions: 213001157 cycles: 68899380 heartbeat IPC: 2.768 cumulative IPC: 2.768 (Simulation time: 00 hr 15 min 09 sec)
Heartbeat CPU 0 instructions: 213501157 cycles: 69079850 heartbeat IPC: 2.771 cumulative IPC: 2.768 (Simulation time: 00 hr 15 min 11 sec)
Heartbeat CPU 0 instructions: 214001158 cycles: 69260397 heartbeat IPC: 2.769 cumulative IPC: 2.768 (Simulation time: 00 hr 15 min 13 sec)
Heartbeat CPU 0 instructions: 214501158 cycles: 69440816 heartbeat IPC: 2.771 cumulative IPC: 2.768 (Simulation time: 00 hr 15 min 16 sec)
Heartbeat CPU 0 instructions: 215001161 cycles: 69621373 heartbeat IPC: 2.769 cumulative IPC: 2.768 (Simulation time: 00 hr 15 min 18 sec)
Heartbeat CPU 0 instructions: 215501161 cycles: 69801970 heartbeat IPC: 2.769 cumulative IPC: 2.768 (Simulation time: 00 hr 15 min 20 sec)
Heartbeat CPU 0 instructions: 216001161 cycles: 69982665 heartbeat IPC: 2.767 cumulative IPC: 2.768 (Simulation time: 00 hr 15 min 22 sec)
Heartbeat CPU 0 instructions: 216501163 cycles: 70163156 heartbeat IPC: 2.77 cumulative IPC: 2.768 (Simulation time: 00 hr 15 min 25 sec)
Heartbeat CPU 0 instructions: 217001164 cycles: 70343809 heartbeat IPC: 2.768 cumulative IPC: 2.768 (Simulation time: 00 hr 15 min 27 sec)
Heartbeat CPU 0 instructions: 217501166 cycles: 70586020 heartbeat IPC: 2.064 cumulative IPC: 2.765 (Simulation time: 00 hr 15 min 30 sec)
Heartbeat CPU 0 instructions: 218001166 cycles: 71007488 heartbeat IPC: 1.186 cumulative IPC: 2.754 (Simulation time: 00 hr 15 min 35 sec)
Heartbeat CPU 0 instructions: 218501166 cycles: 71691959 heartbeat IPC: 0.7305 cumulative IPC: 2.731 (Simulation time: 00 hr 15 min 44 sec)
Heartbeat CPU 0 instructions: 219001166 cycles: 72337287 heartbeat IPC: 0.7748 cumulative IPC: 2.711 (Simulation time: 00 hr 15 min 52 sec)
Heartbeat CPU 0 instructions: 219501166 cycles: 73009331 heartbeat IPC: 0.744 cumulative IPC: 2.69 (Simulation time: 00 hr 16 min 01 sec)
Heartbeat CPU 0 instructions: 220001166 cycles: 73638991 heartbeat IPC: 0.7941 cumulative IPC: 2.671 (Simulation time: 00 hr 16 min 10 sec)
Heartbeat CPU 0 instructions: 220501166 cycles: 74295893 heartbeat IPC: 0.7611 cumulative IPC: 2.652 (Simulation time: 00 hr 16 min 18 sec)
Heartbeat CPU 0 instructions: 221001166 cycles: 74956239 heartbeat IPC: 0.7572 cumulative IPC: 2.633 (Simulation time: 00 hr 16 min 27 sec)
Heartbeat CPU 0 instructions: 221501166 cycles: 75609451 heartbeat IPC: 0.7654 cumulative IPC: 2.614 (Simulation time: 00 hr 16 min 36 sec)
Heartbeat CPU 0 instructions: 222001166 cycles: 76259452 heartbeat IPC: 0.7692 cumulative IPC: 2.596 (Simulation time: 00 hr 16 min 44 sec)
Heartbeat CPU 0 instructions: 222501166 cycles: 76912777 heartbeat IPC: 0.7653 cumulative IPC: 2.578 (Simulation time: 00 hr 16 min 53 sec)
Heartbeat CPU 0 instructions: 223001166 cycles: 77559298 heartbeat IPC: 0.7734 cumulative IPC: 2.561 (Simulation time: 00 hr 17 min 01 sec)
Heartbeat CPU 0 instructions: 223501166 cycles: 78205366 heartbeat IPC: 0.7739 cumulative IPC: 2.544 (Simulation time: 00 hr 17 min 10 sec)
Heartbeat CPU 0 instructions: 224001166 cycles: 78852627 heartbeat IPC: 0.7725 cumulative IPC: 2.527 (Simulation time: 00 hr 17 min 18 sec)
Heartbeat CPU 0 instructions: 224501166 cycles: 79509717 heartbeat IPC: 0.7609 cumulative IPC: 2.511 (Simulation time: 00 hr 17 min 27 sec)
Heartbeat CPU 0 instructions: 225001166 cycles: 80152620 heartbeat IPC: 0.7777 cumulative IPC: 2.495 (Simulation time: 00 hr 17 min 36 sec)
Heartbeat CPU 0 instructions: 225501166 cycles: 80805841 heartbeat IPC: 0.7654 cumulative IPC: 2.479 (Simulation time: 00 hr 17 min 44 sec)
Heartbeat CPU 0 instructions: 226001166 cycles: 81451071 heartbeat IPC: 0.7749 cumulative IPC: 2.463 (Simulation time: 00 hr 17 min 53 sec)
Heartbeat CPU 0 instructions: 226501166 cycles: 82112809 heartbeat IPC: 0.7556 cumulative IPC: 2.448 (Simulation time: 00 hr 18 min 02 sec)
Heartbeat CPU 0 instructions: 227001166 cycles: 82767950 heartbeat IPC: 0.7632 cumulative IPC: 2.433 (Simulation time: 00 hr 18 min 10 sec)
Heartbeat CPU 0 instructions: 227501166 cycles: 83423435 heartbeat IPC: 0.7628 cumulative IPC: 2.418 (Simulation time: 00 hr 18 min 19 sec)
Heartbeat CPU 0 instructions: 228001166 cycles: 84065594 heartbeat IPC: 0.7786 cumulative IPC: 2.403 (Simulation time: 00 hr 18 min 28 sec)
Heartbeat CPU 0 instructions: 228501166 cycles: 84709151 heartbeat IPC: 0.7769 cumulative IPC: 2.389 (Simulation time: 00 hr 18 min 36 sec)
Heartbeat CPU 0 instructions: 229001166 cycles: 85372061 heartbeat IPC: 0.7543 cumulative IPC: 2.375 (Simulation time: 00 hr 18 min 45 sec)
Heartbeat CPU 0 instructions: 229501166 cycles: 86019186 heartbeat IPC: 0.7726 cumulative IPC: 2.361 (Simulation time: 00 hr 18 min 53 sec)
Heartbeat CPU 0 instructions: 230001166 cycles: 86678748 heartbeat IPC: 0.7581 cumulative IPC: 2.348 (Simulation time: 00 hr 19 min 02 sec)
Heartbeat CPU 0 instructions: 230501166 cycles: 87327713 heartbeat IPC: 0.7705 cumulative IPC: 2.334 (Simulation time: 00 hr 19 min 10 sec)
Heartbeat CPU 0 instructions: 231001166 cycles: 87977610 heartbeat IPC: 0.7694 cumulative IPC: 2.321 (Simulation time: 00 hr 19 min 19 sec)
Heartbeat CPU 0 instructions: 231501166 cycles: 88612799 heartbeat IPC: 0.7872 cumulative IPC: 2.309 (Simulation time: 00 hr 19 min 27 sec)
Heartbeat CPU 0 instructions: 232001166 cycles: 89279239 heartbeat IPC: 0.7503 cumulative IPC: 2.296 (Simulation time: 00 hr 19 min 36 sec)
Heartbeat CPU 0 instructions: 232501166 cycles: 89927360 heartbeat IPC: 0.7715 cumulative IPC: 2.283 (Simulation time: 00 hr 19 min 45 sec)
Heartbeat CPU 0 instructions: 233001166 cycles: 90577751 heartbeat IPC: 0.7688 cumulative IPC: 2.271 (Simulation time: 00 hr 19 min 53 sec)
Heartbeat CPU 0 instructions: 233501166 cycles: 91238928 heartbeat IPC: 0.7562 cumulative IPC: 2.259 (Simulation time: 00 hr 20 min 02 sec)
Heartbeat CPU 0 instructions: 234001166 cycles: 91889664 heartbeat IPC: 0.7684 cumulative IPC: 2.247 (Simulation time: 00 hr 20 min 10 sec)
Heartbeat CPU 0 instructions: 234501166 cycles: 92534124 heartbeat IPC: 0.7758 cumulative IPC: 2.236 (Simulation time: 00 hr 20 min 19 sec)
Heartbeat CPU 0 instructions: 235001166 cycles: 93185018 heartbeat IPC: 0.7682 cumulative IPC: 2.224 (Simulation time: 00 hr 20 min 27 sec)
Heartbeat CPU 0 instructions: 235501166 cycles: 93836927 heartbeat IPC: 0.767 cumulative IPC: 2.213 (Simulation time: 00 hr 20 min 36 sec)
Heartbeat CPU 0 instructions: 236001166 cycles: 94480628 heartbeat IPC: 0.7768 cumulative IPC: 2.202 (Simulation time: 00 hr 20 min 44 sec)
Heartbeat CPU 0 instructions: 236501166 cycles: 95127293 heartbeat IPC: 0.7732 cumulative IPC: 2.191 (Simulation time: 00 hr 20 min 53 sec)
Heartbeat CPU 0 instructions: 237001166 cycles: 95785634 heartbeat IPC: 0.7595 cumulative IPC: 2.18 (Simulation time: 00 hr 21 min 01 sec)
Heartbeat CPU 0 instructions: 237501166 cycles: 96435451 heartbeat IPC: 0.7694 cumulative IPC: 2.169 (Simulation time: 00 hr 21 min 10 sec)
Heartbeat CPU 0 instructions: 238001166 cycles: 97086419 heartbeat IPC: 0.7681 cumulative IPC: 2.159 (Simulation time: 00 hr 21 min 18 sec)
Heartbeat CPU 0 instructions: 238501166 cycles: 97666663 heartbeat IPC: 0.8617 cumulative IPC: 2.15 (Simulation time: 00 hr 21 min 26 sec)
Heartbeat CPU 0 instructions: 239001166 cycles: 97844523 heartbeat IPC: 2.811 cumulative IPC: 2.152 (Simulation time: 00 hr 21 min 28 sec)
Heartbeat CPU 0 instructions: 239501167 cycles: 98024482 heartbeat IPC: 2.778 cumulative IPC: 2.153 (Simulation time: 00 hr 21 min 30 sec)
Heartbeat CPU 0 instructions: 240001167 cycles: 98202729 heartbeat IPC: 2.805 cumulative IPC: 2.154 (Simulation time: 00 hr 21 min 32 sec)
Heartbeat CPU 0 instructions: 240501173 cycles: 98380081 heartbeat IPC: 2.819 cumulative IPC: 2.156 (Simulation time: 00 hr 21 min 35 sec)
Heartbeat CPU 0 instructions: 241001178 cycles: 98557526 heartbeat IPC: 2.818 cumulative IPC: 2.157 (Simulation time: 00 hr 21 min 37 sec)
Heartbeat CPU 0 instructions: 241501178 cycles: 98735107 heartbeat IPC: 2.816 cumulative IPC: 2.158 (Simulation time: 00 hr 21 min 39 sec)
Heartbeat CPU 0 instructions: 242001178 cycles: 98912443 heartbeat IPC: 2.82 cumulative IPC: 2.16 (Simulation time: 00 hr 21 min 41 sec)
Heartbeat CPU 0 instructions: 242501179 cycles: 99090245 heartbeat IPC: 2.812 cumulative IPC: 2.161 (Simulation time: 00 hr 21 min 44 sec)
Heartbeat CPU 0 instructions: 243001186 cycles: 99267404 heartbeat IPC: 2.822 cumulative IPC: 2.162 (Simulation time: 00 hr 21 min 46 sec)
Heartbeat CPU 0 instructions: 243501186 cycles: 99445088 heartbeat IPC: 2.814 cumulative IPC: 2.163 (Simulation time: 00 hr 21 min 48 sec)
Heartbeat CPU 0 instructions: 244001186 cycles: 99622395 heartbeat IPC: 2.82 cumulative IPC: 2.165 (Simulation time: 00 hr 21 min 50 sec)
Heartbeat CPU 0 instructions: 244501192 cycles: 99799767 heartbeat IPC: 2.819 cumulative IPC: 2.166 (Simulation time: 00 hr 21 min 53 sec)
Heartbeat CPU 0 instructions: 245001192 cycles: 99977562 heartbeat IPC: 2.812 cumulative IPC: 2.167 (Simulation time: 00 hr 21 min 55 sec)
Heartbeat CPU 0 instructions: 245501192 cycles: 100155234 heartbeat IPC: 2.814 cumulative IPC: 2.169 (Simulation time: 00 hr 21 min 57 sec)
Heartbeat CPU 0 instructions: 246001196 cycles: 100332946 heartbeat IPC: 2.814 cumulative IPC: 2.17 (Simulation time: 00 hr 21 min 59 sec)
Heartbeat CPU 0 instructions: 246501196 cycles: 100510965 heartbeat IPC: 2.809 cumulative IPC: 2.171 (Simulation time: 00 hr 22 min 02 sec)
Heartbeat CPU 0 instructions: 247001198 cycles: 100688368 heartbeat IPC: 2.818 cumulative IPC: 2.172 (Simulation time: 00 hr 22 min 04 sec)
Heartbeat CPU 0 instructions: 247501205 cycles: 100865427 heartbeat IPC: 2.824 cumulative IPC: 2.174 (Simulation time: 00 hr 22 min 06 sec)
Heartbeat CPU 0 instructions: 248001207 cycles: 101043391 heartbeat IPC: 2.81 cumulative IPC: 2.175 (Simulation time: 00 hr 22 min 08 sec)
Heartbeat CPU 0 instructions: 248501207 cycles: 101220973 heartbeat IPC: 2.816 cumulative IPC: 2.176 (Simulation time: 00 hr 22 min 10 sec)
Heartbeat CPU 0 instructions: 249001207 cycles: 101399185 heartbeat IPC: 2.806 cumulative IPC: 2.177 (Simulation time: 00 hr 22 min 13 sec)
Heartbeat CPU 0 instructions: 249501210 cycles: 101576994 heartbeat IPC: 2.812 cumulative IPC: 2.179 (Simulation time: 00 hr 22 min 15 sec)
Simulation finished CPU 0 instructions: 200000003 cycles: 91750573 cumulative IPC: 2.18 (Simulation time: 00 hr 22 min 17 sec)
Simulation complete CPU 0 instructions: 200000003 cycles: 91750573 cumulative IPC: 2.18 (Simulation time: 00 hr 22 min 17 sec)

ChampSim completed all CPUs

=== Simulation ===
CPU 0 runs /local-ssd/ben/dpc4-traces/Graph/GMS/gms.k_clique_count_set_based.soc-pokec-relationships.slice-4.champsimtrace.gz

Region of Interest Statistics

CPU 0 cumulative IPC: 2.18 instructions: 200000003 cycles: 91750573
CPU 0 Branch Prediction Accuracy: 99.3% MPKI: 1.499 Average ROB Occupancy at Mispredict: 306.8
Branch type MPKI
BRANCH_DIRECT_JUMP: 0.000125
BRANCH_INDIRECT: 0
BRANCH_CONDITIONAL: 1.498
BRANCH_DIRECT_CALL: 0.000135
BRANCH_INDIRECT_CALL: 5e-06
BRANCH_RETURN: 0.00014

cpu0->cpu0_STLB TOTAL        ACCESS:      16817 HIT:         82 MISS:      16735 MSHR_MERGE:          0
cpu0->cpu0_STLB LOAD         ACCESS:      16817 HIT:         82 MISS:      16735 MSHR_MERGE:          0
cpu0->cpu0_STLB RFO          ACCESS:          0 HIT:          0 MISS:          0 MSHR_MERGE:          0
cpu0->cpu0_STLB PREFETCH     ACCESS:          0 HIT:          0 MISS:          0 MSHR_MERGE:          0
cpu0->cpu0_STLB WRITE        ACCESS:          0 HIT:          0 MISS:          0 MSHR_MERGE:          0
cpu0->cpu0_STLB TRANSLATION  ACCESS:          0 HIT:          0 MISS:          0 MSHR_MERGE:          0
cpu0->cpu0_STLB PREFETCH REQUESTED:          0 ISSUED:          0 USEFUL:          0 USELESS:          0
cpu0->cpu0_STLB AVERAGE MISS LATENCY: 282.6 cycles
cpu0->cpu0_L2C TOTAL        ACCESS:    4112796 HIT:    2044130 MISS:    2068666 MSHR_MERGE:     998486
cpu0->cpu0_L2C LOAD         ACCESS:     415230 HIT:     267381 MISS:     147849 MSHR_MERGE:      98004
cpu0->cpu0_L2C RFO          ACCESS:     542987 HIT:         10 MISS:     542977 MSHR_MERGE:          0
cpu0->cpu0_L2C PREFETCH     ACCESS:    2609358 HIT:    1233677 MISS:    1375681 MSHR_MERGE:     900482
cpu0->cpu0_L2C WRITE        ACCESS:     543055 HIT:     543055 MISS:          0 MSHR_MERGE:          0
cpu0->cpu0_L2C TRANSLATION  ACCESS:       2166 HIT:          7 MISS:       2159 MSHR_MERGE:          0
cpu0->cpu0_L2C PREFETCH REQUESTED:    2697008 ISSUED:    2499762 USEFUL:     410528 USELESS:      31462
cpu0->cpu0_L2C AVERAGE MISS LATENCY: 476.3 cycles
cpu0->cpu0_L1I TOTAL        ACCESS:   18938973 HIT:   18938834 MISS:        139 MSHR_MERGE:          3
cpu0->cpu0_L1I LOAD         ACCESS:   18938973 HIT:   18938834 MISS:        139 MSHR_MERGE:          3
cpu0->cpu0_L1I RFO          ACCESS:          0 HIT:          0 MISS:          0 MSHR_MERGE:          0
cpu0->cpu0_L1I PREFETCH     ACCESS:          0 HIT:          0 MISS:          0 MSHR_MERGE:          0
cpu0->cpu0_L1I WRITE        ACCESS:          0 HIT:          0 MISS:          0 MSHR_MERGE:          0
cpu0->cpu0_L1I TRANSLATION  ACCESS:          0 HIT:          0 MISS:          0 MSHR_MERGE:          0
cpu0->cpu0_L1I PREFETCH REQUESTED:          0 ISSUED:          0 USEFUL:          0 USELESS:          0
cpu0->cpu0_L1I AVERAGE MISS LATENCY: 257.2 cycles
cpu0->cpu0_L1D TOTAL        ACCESS:   72020770 HIT:   66355822 MISS:    5664948 MSHR_MERGE:    4595105
cpu0->cpu0_L1D LOAD         ACCESS:   24731765 HIT:   23566446 MISS:    1165319 MSHR_MERGE:     750225
cpu0->cpu0_L1D RFO          ACCESS:          0 HIT:          0 MISS:          0 MSHR_MERGE:          0
cpu0->cpu0_L1D PREFETCH     ACCESS:   19528319 HIT:   19239879 MISS:     288440 MSHR_MERGE:     178844
cpu0->cpu0_L1D WRITE        ACCESS:   27727168 HIT:   23518145 MISS:    4209023 MSHR_MERGE:    3666036
cpu0->cpu0_L1D TRANSLATION  ACCESS:      33518 HIT:      31352 MISS:       2166 MSHR_MERGE:          0
cpu0->cpu0_L1D PREFETCH REQUESTED:   34629400 ISSUED:   19528311 USEFUL:     109435 USELESS:        122
cpu0->cpu0_L1D AVERAGE MISS LATENCY: 352.2 cycles
cpu0->cpu0_ITLB TOTAL        ACCESS:   14646739 HIT:   14646718 MISS:         21 MSHR_MERGE:          3
cpu0->cpu0_ITLB LOAD         ACCESS:   14646739 HIT:   14646718 MISS:         21 MSHR_MERGE:          3
cpu0->cpu0_ITLB RFO          ACCESS:          0 HIT:          0 MISS:          0 MSHR_MERGE:          0
cpu0->cpu0_ITLB PREFETCH     ACCESS:          0 HIT:          0 MISS:          0 MSHR_MERGE:          0
cpu0->cpu0_ITLB WRITE        ACCESS:          0 HIT:          0 MISS:          0 MSHR_MERGE:          0
cpu0->cpu0_ITLB TRANSLATION  ACCESS:          0 HIT:          0 MISS:          0 MSHR_MERGE:          0
cpu0->cpu0_ITLB PREFETCH REQUESTED:          0 ISSUED:          0 USEFUL:          0 USELESS:          0
cpu0->cpu0_ITLB AVERAGE MISS LATENCY: 363 cycles
cpu0->cpu0_DTLB TOTAL        ACCESS:   58632198 HIT:   58416582 MISS:     215616 MSHR_MERGE:     198817
cpu0->cpu0_DTLB LOAD         ACCESS:   58632198 HIT:   58416582 MISS:     215616 MSHR_MERGE:     198817
cpu0->cpu0_DTLB RFO          ACCESS:          0 HIT:          0 MISS:          0 MSHR_MERGE:          0
cpu0->cpu0_DTLB PREFETCH     ACCESS:          0 HIT:          0 MISS:          0 MSHR_MERGE:          0
cpu0->cpu0_DTLB WRITE        ACCESS:          0 HIT:          0 MISS:          0 MSHR_MERGE:          0
cpu0->cpu0_DTLB TRANSLATION  ACCESS:          0 HIT:          0 MISS:          0 MSHR_MERGE:          0
cpu0->cpu0_DTLB PREFETCH REQUESTED:          0 ISSUED:          0 USEFUL:          0 USELESS:          0
cpu0->cpu0_DTLB AVERAGE MISS LATENCY: 287.2 cycles
cpu0->LLC TOTAL        ACCESS:    2108003 HIT:     339086 MISS:    1768917 MSHR_MERGE:     279374
cpu0->LLC LOAD         ACCESS:      49845 HIT:       9178 MISS:      40667 MSHR_MERGE:       5132
cpu0->LLC RFO          ACCESS:     542977 HIT:          0 MISS:     542977 MSHR_MERGE:          0
cpu0->LLC PREFETCH     ACCESS:     981942 HIT:     217915 MISS:     764027 MSHR_MERGE:     274242
cpu0->LLC WRITE        ACCESS:     531080 HIT:     111991 MISS:     419089 MSHR_MERGE:          0
cpu0->LLC TRANSLATION  ACCESS:       2159 HIT:          2 MISS:       2157 MSHR_MERGE:          0
cpu0->LLC PREFETCH REQUESTED:     506893 ISSUED:     506743 USEFUL:     232224 USELESS:     189199
cpu0->LLC AVERAGE MISS LATENCY: 293.5 cycles

DRAM Statistics

Channel 0 RQ ROW_BUFFER_HIT:      75364
  ROW_BUFFER_MISS:     995090
  AVG DBUS CONGESTED CYCLE: 9.97
Channel 0 WQ ROW_BUFFER_HIT:      20263
  ROW_BUFFER_MISS:     495848
  FULL:      64846
Channel 0 REFRESHES ISSUED:       7645
