[VMEM] WARNING: physical memory size is smaller than virtual memory size.

*** ChampSim Multicore Out-of-Order Simulator ***
Warmup Instructions: 50000000
Simulation Instructions: 200000000
Number of CPUs: 1
Page size: 4096
Core 0: /local-ssd/ben/dpc4-traces/Graph/GMS/gms.k_clique_list_danisch_edge_parallel.soc-pokec-relationships.slice-367.champsimtrace.gz
Off-chip DRAM Size: 64 GiB Channels: 1 Width: 64-bit Data Rate: 4807 MT/s
Heartbeat CPU 0 instructions: 500001 cycles: 154875 heartbeat IPC: 3.228 cumulative IPC: 3.228 (Simulation time: 00 hr 00 min 02 sec)
Heartbeat CPU 0 instructions: 1000006 cycles: 329700 heartbeat IPC: 2.86 cumulative IPC: 3.033 (Simulation time: 00 hr 00 min 05 sec)
Heartbeat CPU 0 instructions: 1500012 cycles: 475798 heartbeat IPC: 3.422 cumulative IPC: 3.153 (Simulation time: 00 hr 00 min 07 sec)
Heartbeat CPU 0 instructions: 2000017 cycles: 609527 heartbeat IPC: 3.739 cumulative IPC: 3.281 (Simulation time: 00 hr 00 min 08 sec)
Heartbeat CPU 0 instructions: 2500018 cycles: 747404 heartbeat IPC: 3.626 cumulative IPC: 3.345 (Simulation time: 00 hr 00 min 10 sec)
Heartbeat CPU 0 instructions: 3000024 cycles: 858909 heartbeat IPC: 4.484 cumulative IPC: 3.493 (Simulation time: 00 hr 00 min 12 sec)
Heartbeat CPU 0 instructions: 3500030 cycles: 967019 heartbeat IPC: 4.625 cumulative IPC: 3.619 (Simulation time: 00 hr 00 min 14 sec)
Heartbeat CPU 0 instructions: 4000037 cycles: 1079577 heartbeat IPC: 4.442 cumulative IPC: 3.705 (Simulation time: 00 hr 00 min 16 sec)
Heartbeat CPU 0 instructions: 4500042 cycles: 1185400 heartbeat IPC: 4.725 cumulative IPC: 3.796 (Simulation time: 00 hr 00 min 18 sec)
Heartbeat CPU 0 instructions: 5000047 cycles: 1295496 heartbeat IPC: 4.542 cumulative IPC: 3.86 (Simulation time: 00 hr 00 min 20 sec)
Heartbeat CPU 0 instructions: 5500054 cycles: 1405474 heartbeat IPC: 4.546 cumulative IPC: 3.913 (Simulation time: 00 hr 00 min 21 sec)
Heartbeat CPU 0 instructions: 6000060 cycles: 1519052 heartbeat IPC: 4.402 cumulative IPC: 3.95 (Simulation time: 00 hr 00 min 23 sec)
Heartbeat CPU 0 instructions: 6500064 cycles: 1632025 heartbeat IPC: 4.426 cumulative IPC: 3.983 (Simulation time: 00 hr 00 min 25 sec)
Heartbeat CPU 0 instructions: 7000066 cycles: 1751187 heartbeat IPC: 4.196 cumulative IPC: 3.997 (Simulation time: 00 hr 00 min 27 sec)
Heartbeat CPU 0 instructions: 7500070 cycles: 1872525 heartbeat IPC: 4.121 cumulative IPC: 4.005 (Simulation time: 00 hr 00 min 29 sec)
Heartbeat CPU 0 instructions: 8000076 cycles: 2002192 heartbeat IPC: 3.856 cumulative IPC: 3.996 (Simulation time: 00 hr 00 min 31 sec)
Heartbeat CPU 0 instructions: 8500081 cycles: 2140352 heartbeat IPC: 3.619 cumulative IPC: 3.971 (Simulation time: 00 hr 00 min 33 sec)
Heartbeat CPU 0 instructions: 9000087 cycles: 2276108 heartbeat IPC: 3.683 cumulative IPC: 3.954 (Simulation time: 00 hr 00 min 35 sec)
Heartbeat CPU 0 instructions: 9500087 cycles: 2410747 heartbeat IPC: 3.714 cumulative IPC: 3.941 (Simulation time: 00 hr 00 min 37 sec)
Heartbeat CPU 0 instructions: 10000093 cycles: 2546998 heartbeat IPC: 3.67 cumulative IPC: 3.926 (Simulation time: 00 hr 00 min 39 sec)
Heartbeat CPU 0 instructions: 10500095 cycles: 2670281 heartbeat IPC: 4.056 cumulative IPC: 3.932 (Simulation time: 00 hr 00 min 41 sec)
Heartbeat CPU 0 instructions: 11000097 cycles: 2794364 heartbeat IPC: 4.03 cumulative IPC: 3.937 (Simulation time: 00 hr 00 min 43 sec)
Heartbeat CPU 0 instructions: 11500104 cycles: 2920773 heartbeat IPC: 3.955 cumulative IPC: 3.937 (Simulation time: 00 hr 00 min 44 sec)
Heartbeat CPU 0 instructions: 12000106 cycles: 3048205 heartbeat IPC: 3.924 cumulative IPC: 3.937 (Simulation time: 00 hr 00 min 46 sec)
Heartbeat CPU 0 instructions: 12500112 cycles: 3181272 heartbeat IPC: 3.758 cumulative IPC: 3.929 (Simulation time: 00 hr 00 min 48 sec)
Heartbeat CPU 0 instructions: 13000115 cycles: 3309686 heartbeat IPC: 3.894 cumulative IPC: 3.928 (Simulation time: 00 hr 00 min 50 sec)
Heartbeat CPU 0 instructions: 13500118 cycles: 3440365 heartbeat IPC: 3.826 cumulative IPC: 3.924 (Simulation time: 00 hr 00 min 52 sec)
Heartbeat CPU 0 instructions: 14000119 cycles: 3572343 heartbeat IPC: 3.789 cumulative IPC: 3.919 (Simulation time: 00 hr 00 min 54 sec)
Heartbeat CPU 0 instructions: 14500123 cycles: 3707530 heartbeat IPC: 3.699 cumulative IPC: 3.911 (Simulation time: 00 hr 00 min 56 sec)
Heartbeat CPU 0 instructions: 15000126 cycles: 3842540 heartbeat IPC: 3.703 cumulative IPC: 3.904 (Simulation time: 00 hr 00 min 58 sec)
Heartbeat CPU 0 instructions: 15500132 cycles: 3974042 heartbeat IPC: 3.802 cumulative IPC: 3.9 (Simulation time: 00 hr 01 min 00 sec)
Heartbeat CPU 0 instructions: 16000137 cycles: 4105705 heartbeat IPC: 3.798 cumulative IPC: 3.897 (Simulation time: 00 hr 01 min 02 sec)
Heartbeat CPU 0 instructions: 16500138 cycles: 4245815 heartbeat IPC: 3.569 cumulative IPC: 3.886 (Simulation time: 00 hr 01 min 04 sec)
Heartbeat CPU 0 instructions: 17000138 cycles: 4378648 heartbeat IPC: 3.764 cumulative IPC: 3.883 (Simulation time: 00 hr 01 min 06 sec)
Heartbeat CPU 0 instructions: 17500138 cycles: 4508923 heartbeat IPC: 3.838 cumulative IPC: 3.881 (Simulation time: 00 hr 01 min 08 sec)
Heartbeat CPU 0 instructions: 18000139 cycles: 4650458 heartbeat IPC: 3.533 cumulative IPC: 3.871 (Simulation time: 00 hr 01 min 10 sec)
Heartbeat CPU 0 instructions: 18500142 cycles: 4785451 heartbeat IPC: 3.704 cumulative IPC: 3.866 (Simulation time: 00 hr 01 min 12 sec)
Heartbeat CPU 0 instructions: 19000146 cycles: 4918307 heartbeat IPC: 3.764 cumulative IPC: 3.863 (Simulation time: 00 hr 01 min 14 sec)
Heartbeat CPU 0 instructions: 19500153 cycles: 5041276 heartbeat IPC: 4.066 cumulative IPC: 3.868 (Simulation time: 00 hr 01 min 16 sec)
Heartbeat CPU 0 instructions: 20000158 cycles: 5145569 heartbeat IPC: 4.794 cumulative IPC: 3.887 (Simulation time: 00 hr 01 min 17 sec)
Heartbeat CPU 0 instructions: 20500164 cycles: 5254997 heartbeat IPC: 4.569 cumulative IPC: 3.901 (Simulation time: 00 hr 01 min 19 sec)
Heartbeat CPU 0 instructions: 21000165 cycles: 5366236 heartbeat IPC: 4.495 cumulative IPC: 3.913 (Simulation time: 00 hr 01 min 21 sec)
Heartbeat CPU 0 instructions: 21500171 cycles: 5469736 heartbeat IPC: 4.831 cumulative IPC: 3.931 (Simulation time: 00 hr 01 min 23 sec)
Heartbeat CPU 0 instructions: 22000173 cycles: 5581030 heartbeat IPC: 4.493 cumulative IPC: 3.942 (Simulation time: 00 hr 01 min 24 sec)
Heartbeat CPU 0 instructions: 22500175 cycles: 5685546 heartbeat IPC: 4.784 cumulative IPC: 3.957 (Simulation time: 00 hr 01 min 26 sec)
Heartbeat CPU 0 instructions: 23000175 cycles: 5797188 heartbeat IPC: 4.479 cumulative IPC: 3.967 (Simulation time: 00 hr 01 min 28 sec)
Heartbeat CPU 0 instructions: 23500176 cycles: 5905759 heartbeat IPC: 4.605 cumulative IPC: 3.979 (Simulation time: 00 hr 01 min 30 sec)
Heartbeat CPU 0 instructions: 24000180 cycles: 6015971 heartbeat IPC: 4.537 cumulative IPC: 3.989 (Simulation time: 00 hr 01 min 31 sec)
Heartbeat CPU 0 instructions: 24500187 cycles: 6131825 heartbeat IPC: 4.316 cumulative IPC: 3.996 (Simulation time: 00 hr 01 min 33 sec)
Heartbeat CPU 0 instructions: 25000189 cycles: 6250673 heartbeat IPC: 4.207 cumulative IPC: 4 (Simulation time: 00 hr 01 min 35 sec)
Heartbeat CPU 0 instructions: 25500189 cycles: 6368986 heartbeat IPC: 4.226 cumulative IPC: 4.004 (Simulation time: 00 hr 01 min 37 sec)
Heartbeat CPU 0 instructions: 26000196 cycles: 6494180 heartbeat IPC: 3.994 cumulative IPC: 4.004 (Simulation time: 00 hr 01 min 39 sec)
Heartbeat CPU 0 instructions: 26500198 cycles: 6621473 heartbeat IPC: 3.928 cumulative IPC: 4.002 (Simulation time: 00 hr 01 min 41 sec)
Heartbeat CPU 0 instructions: 27000199 cycles: 6752805 heartbeat IPC: 3.807 cumulative IPC: 3.998 (Simulation time: 00 hr 01 min 43 sec)
Heartbeat CPU 0 instructions: 27500203 cycles: 6880092 heartbeat IPC: 3.928 cumulative IPC: 3.997 (Simulation time: 00 hr 01 min 45 sec)
Heartbeat CPU 0 instructions: 28000203 cycles: 7009670 heartbeat IPC: 3.859 cumulative IPC: 3.995 (Simulation time: 00 hr 01 min 47 sec)
Heartbeat CPU 0 instructions: 28500204 cycles: 7138727 heartbeat IPC: 3.874 cumulative IPC: 3.992 (Simulation time: 00 hr 01 min 49 sec)
Heartbeat CPU 0 instructions: 29000211 cycles: 7263496 heartbeat IPC: 4.007 cumulative IPC: 3.993 (Simulation time: 00 hr 01 min 50 sec)
Heartbeat CPU 0 instructions: 29500214 cycles: 7372249 heartbeat IPC: 4.598 cumulative IPC: 4.002 (Simulation time: 00 hr 01 min 52 sec)
Heartbeat CPU 0 instructions: 30000216 cycles: 7480232 heartbeat IPC: 4.63 cumulative IPC: 4.011 (Simulation time: 00 hr 01 min 54 sec)
Heartbeat CPU 0 instructions: 30500221 cycles: 7580226 heartbeat IPC: 5 cumulative IPC: 4.024 (Simulation time: 00 hr 01 min 55 sec)
Heartbeat CPU 0 instructions: 31000225 cycles: 7680232 heartbeat IPC: 5 cumulative IPC: 4.036 (Simulation time: 00 hr 01 min 57 sec)
Heartbeat CPU 0 instructions: 31500231 cycles: 7780242 heartbeat IPC: 5 cumulative IPC: 4.049 (Simulation time: 00 hr 01 min 58 sec)
Heartbeat CPU 0 instructions: 32000236 cycles: 7880243 heartbeat IPC: 5 cumulative IPC: 4.061 (Simulation time: 00 hr 02 min 00 sec)
Heartbeat CPU 0 instructions: 32500242 cycles: 7980239 heartbeat IPC: 5 cumulative IPC: 4.073 (Simulation time: 00 hr 02 min 01 sec)
Heartbeat CPU 0 instructions: 33000244 cycles: 8084357 heartbeat IPC: 4.802 cumulative IPC: 4.082 (Simulation time: 00 hr 02 min 03 sec)
Heartbeat CPU 0 instructions: 33500246 cycles: 8190271 heartbeat IPC: 4.721 cumulative IPC: 4.09 (Simulation time: 00 hr 02 min 05 sec)
Heartbeat CPU 0 instructions: 34000250 cycles: 8296541 heartbeat IPC: 4.705 cumulative IPC: 4.098 (Simulation time: 00 hr 02 min 07 sec)
Heartbeat CPU 0 instructions: 34500255 cycles: 8402538 heartbeat IPC: 4.717 cumulative IPC: 4.106 (Simulation time: 00 hr 02 min 08 sec)
Heartbeat CPU 0 instructions: 35000257 cycles: 8502543 heartbeat IPC: 5 cumulative IPC: 4.116 (Simulation time: 00 hr 02 min 10 sec)
Heartbeat CPU 0 instructions: 35500262 cycles: 8602536 heartbeat IPC: 5 cumulative IPC: 4.127 (Simulation time: 00 hr 02 min 11 sec)
Heartbeat CPU 0 instructions: 36000268 cycles: 8706426 heartbeat IPC: 4.813 cumulative IPC: 4.135 (Simulation time: 00 hr 02 min 13 sec)
Heartbeat CPU 0 instructions: 36500271 cycles: 8808974 heartbeat IPC: 4.876 cumulative IPC: 4.144 (Simulation time: 00 hr 02 min 15 sec)
Heartbeat CPU 0 instructions: 37000278 cycles: 8920025 heartbeat IPC: 4.502 cumulative IPC: 4.148 (Simulation time: 00 hr 02 min 17 sec)
Heartbeat CPU 0 instructions: 37500284 cycles: 9023901 heartbeat IPC: 4.813 cumulative IPC: 4.156 (Simulation time: 00 hr 02 min 18 sec)
Heartbeat CPU 0 instructions: 38000284 cycles: 9123909 heartbeat IPC: 5 cumulative IPC: 4.165 (Simulation time: 00 hr 02 min 20 sec)
Heartbeat CPU 0 instructions: 38500291 cycles: 9228968 heartbeat IPC: 4.759 cumulative IPC: 4.172 (Simulation time: 00 hr 02 min 22 sec)
Heartbeat CPU 0 instructions: 39000296 cycles: 9328977 heartbeat IPC: 5 cumulative IPC: 4.181 (Simulation time: 00 hr 02 min 23 sec)
Heartbeat CPU 0 instructions: 39500302 cycles: 9431764 heartbeat IPC: 4.864 cumulative IPC: 4.188 (Simulation time: 00 hr 02 min 25 sec)
Heartbeat CPU 0 instructions: 40000304 cycles: 9531767 heartbeat IPC: 5 cumulative IPC: 4.197 (Simulation time: 00 hr 02 min 27 sec)
Heartbeat CPU 0 instructions: 40500310 cycles: 9634252 heartbeat IPC: 4.879 cumulative IPC: 4.204 (Simulation time: 00 hr 02 min 28 sec)
Heartbeat CPU 0 instructions: 41000310 cycles: 9740132 heartbeat IPC: 4.722 cumulative IPC: 4.209 (Simulation time: 00 hr 02 min 30 sec)
Heartbeat CPU 0 instructions: 41500310 cycles: 9844305 heartbeat IPC: 4.8 cumulative IPC: 4.216 (Simulation time: 00 hr 02 min 32 sec)
Heartbeat CPU 0 instructions: 42000315 cycles: 9949612 heartbeat IPC: 4.748 cumulative IPC: 4.221 (Simulation time: 00 hr 02 min 33 sec)
Heartbeat CPU 0 instructions: 42500322 cycles: 10057576 heartbeat IPC: 4.631 cumulative IPC: 4.226 (Simulation time: 00 hr 02 min 35 sec)
Heartbeat CPU 0 instructions: 43000325 cycles: 10162932 heartbeat IPC: 4.746 cumulative IPC: 4.231 (Simulation time: 00 hr 02 min 37 sec)
Heartbeat CPU 0 instructions: 43500330 cycles: 10268478 heartbeat IPC: 4.737 cumulative IPC: 4.236 (Simulation time: 00 hr 02 min 38 sec)
Heartbeat CPU 0 instructions: 44000331 cycles: 10381347 heartbeat IPC: 4.43 cumulative IPC: 4.238 (Simulation time: 00 hr 02 min 40 sec)
Heartbeat CPU 0 instructions: 44500333 cycles: 10493545 heartbeat IPC: 4.456 cumulative IPC: 4.241 (Simulation time: 00 hr 02 min 42 sec)
Heartbeat CPU 0 instructions: 45000336 cycles: 10610952 heartbeat IPC: 4.259 cumulative IPC: 4.241 (Simulation time: 00 hr 02 min 44 sec)
Heartbeat CPU 0 instructions: 45500337 cycles: 10733378 heartbeat IPC: 4.084 cumulative IPC: 4.239 (Simulation time: 00 hr 02 min 46 sec)
Heartbeat CPU 0 instructions: 46000344 cycles: 10866946 heartbeat IPC: 3.743 cumulative IPC: 4.233 (Simulation time: 00 hr 02 min 47 sec)
Heartbeat CPU 0 instructions: 46500347 cycles: 11003170 heartbeat IPC: 3.67 cumulative IPC: 4.226 (Simulation time: 00 hr 02 min 50 sec)
Heartbeat CPU 0 instructions: 47000352 cycles: 11135857 heartbeat IPC: 3.768 cumulative IPC: 4.221 (Simulation time: 00 hr 02 min 52 sec)
Heartbeat CPU 0 instructions: 47500354 cycles: 11266723 heartbeat IPC: 3.821 cumulative IPC: 4.216 (Simulation time: 00 hr 02 min 53 sec)
Heartbeat CPU 0 instructions: 48000359 cycles: 11387123 heartbeat IPC: 4.153 cumulative IPC: 4.215 (Simulation time: 00 hr 02 min 55 sec)
Heartbeat CPU 0 instructions: 48500363 cycles: 11498781 heartbeat IPC: 4.478 cumulative IPC: 4.218 (Simulation time: 00 hr 02 min 57 sec)
Heartbeat CPU 0 instructions: 49000369 cycles: 11612923 heartbeat IPC: 4.381 cumulative IPC: 4.219 (Simulation time: 00 hr 02 min 59 sec)
Heartbeat CPU 0 instructions: 49500369 cycles: 11737927 heartbeat IPC: 4 cumulative IPC: 4.217 (Simulation time: 00 hr 03 min 01 sec)
Warmup halting CPU 0 at instruction 50000002 cycle 11867117 for remainder of phase
Warmup finished CPU 0 instructions: 50000002 cycles: 11867117 cumulative IPC: 4.213 (Simulation time: 00 hr 03 min 03 sec)
Warmup complete CPU 0 instructions: 50000002 cycles: 11867117 cumulative IPC: 4.213 (Simulation time: 00 hr 03 min 03 sec)
Heartbeat CPU 0 instructions: 50000373 cycles: 11867226 heartbeat IPC: 3.867 cumulative IPC: 3.404 (Simulation time: 00 hr 03 min 03 sec)
Heartbeat CPU 0 instructions: 50500375 cycles: 12251265 heartbeat IPC: 1.302 cumulative IPC: 1.303 (Simulation time: 00 hr 03 min 07 sec)
Heartbeat CPU 0 instructions: 51000378 cycles: 13065754 heartbeat IPC: 0.6139 cumulative IPC: 0.8346 (Simulation time: 00 hr 03 min 14 sec)
Heartbeat CPU 0 instructions: 51500382 cycles: 13676049 heartbeat IPC: 0.8193 cumulative IPC: 0.8294 (Simulation time: 00 hr 03 min 20 sec)
Heartbeat CPU 0 instructions: 52000384 cycles: 14184843 heartbeat IPC: 0.9827 cumulative IPC: 0.8631 (Simulation time: 00 hr 03 min 25 sec)
Heartbeat CPU 0 instructions: 52500386 cycles: 14610075 heartbeat IPC: 1.176 cumulative IPC: 0.9116 (Simulation time: 00 hr 03 min 29 sec)
Heartbeat CPU 0 instructions: 53000386 cycles: 14969289 heartbeat IPC: 1.392 cumulative IPC: 0.9672 (Simulation time: 00 hr 03 min 33 sec)
Heartbeat CPU 0 instructions: 53500387 cycles: 15508429 heartbeat IPC: 0.9274 cumulative IPC: 0.9613 (Simulation time: 00 hr 03 min 39 sec)
Heartbeat CPU 0 instructions: 54000391 cycles: 15978851 heartbeat IPC: 1.063 cumulative IPC: 0.9729 (Simulation time: 00 hr 03 min 45 sec)
Heartbeat CPU 0 instructions: 54500395 cycles: 16418216 heartbeat IPC: 1.138 cumulative IPC: 0.9889 (Simulation time: 00 hr 03 min 49 sec)
Heartbeat CPU 0 instructions: 55000398 cycles: 17038783 heartbeat IPC: 0.8057 cumulative IPC: 0.9669 (Simulation time: 00 hr 03 min 56 sec)
Heartbeat CPU 0 instructions: 55500402 cycles: 17646256 heartbeat IPC: 0.8231 cumulative IPC: 0.9518 (Simulation time: 00 hr 04 min 02 sec)
Heartbeat CPU 0 instructions: 56000404 cycles: 18079632 heartbeat IPC: 1.154 cumulative IPC: 0.9659 (Simulation time: 00 hr 04 min 07 sec)
Heartbeat CPU 0 instructions: 56500407 cycles: 18455140 heartbeat IPC: 1.332 cumulative IPC: 0.9867 (Simulation time: 00 hr 04 min 11 sec)
Heartbeat CPU 0 instructions: 57000410 cycles: 18986186 heartbeat IPC: 0.9415 cumulative IPC: 0.9833 (Simulation time: 00 hr 04 min 16 sec)
Heartbeat CPU 0 instructions: 57500410 cycles: 19429051 heartbeat IPC: 1.129 cumulative IPC: 0.9919 (Simulation time: 00 hr 04 min 21 sec)
Heartbeat CPU 0 instructions: 58000410 cycles: 19791426 heartbeat IPC: 1.38 cumulative IPC: 1.01 (Simulation time: 00 hr 04 min 25 sec)
Heartbeat CPU 0 instructions: 58500411 cycles: 20356339 heartbeat IPC: 0.8851 cumulative IPC: 1.001 (Simulation time: 00 hr 04 min 31 sec)
Heartbeat CPU 0 instructions: 59000411 cycles: 20900056 heartbeat IPC: 0.9196 cumulative IPC: 0.9964 (Simulation time: 00 hr 04 min 36 sec)
Heartbeat CPU 0 instructions: 59500414 cycles: 21299121 heartbeat IPC: 1.253 cumulative IPC: 1.007 (Simulation time: 00 hr 04 min 40 sec)
Heartbeat CPU 0 instructions: 60000414 cycles: 21618401 heartbeat IPC: 1.566 cumulative IPC: 1.026 (Simulation time: 00 hr 04 min 44 sec)
Heartbeat CPU 0 instructions: 60500417 cycles: 22346369 heartbeat IPC: 0.6868 cumulative IPC: 1.002 (Simulation time: 00 hr 04 min 51 sec)
Heartbeat CPU 0 instructions: 61000417 cycles: 22857651 heartbeat IPC: 0.9779 cumulative IPC: 1.001 (Simulation time: 00 hr 04 min 56 sec)
Heartbeat CPU 0 instructions: 61500423 cycles: 23260609 heartbeat IPC: 1.241 cumulative IPC: 1.009 (Simulation time: 00 hr 05 min 00 sec)
Heartbeat CPU 0 instructions: 62000423 cycles: 23602975 heartbeat IPC: 1.46 cumulative IPC: 1.023 (Simulation time: 00 hr 05 min 04 sec)
Heartbeat CPU 0 instructions: 62500426 cycles: 24098137 heartbeat IPC: 1.01 cumulative IPC: 1.022 (Simulation time: 00 hr 05 min 09 sec)
Heartbeat CPU 0 instructions: 63000430 cycles: 24518204 heartbeat IPC: 1.19 cumulative IPC: 1.028 (Simulation time: 00 hr 05 min 14 sec)
Heartbeat CPU 0 instructions: 63500430 cycles: 24865406 heartbeat IPC: 1.44 cumulative IPC: 1.039 (Simulation time: 00 hr 05 min 18 sec)
Heartbeat CPU 0 instructions: 64000430 cycles: 25322814 heartbeat IPC: 1.093 cumulative IPC: 1.04 (Simulation time: 00 hr 05 min 23 sec)
Heartbeat CPU 0 instructions: 64500431 cycles: 25901385 heartbeat IPC: 0.8642 cumulative IPC: 1.033 (Simulation time: 00 hr 05 min 28 sec)
Heartbeat CPU 0 instructions: 65000435 cycles: 26338395 heartbeat IPC: 1.144 cumulative IPC: 1.037 (Simulation time: 00 hr 05 min 32 sec)
Heartbeat CPU 0 instructions: 65500437 cycles: 26708208 heartbeat IPC: 1.352 cumulative IPC: 1.044 (Simulation time: 00 hr 05 min 36 sec)
Heartbeat CPU 0 instructions: 66000437 cycles: 27028290 heartbeat IPC: 1.562 cumulative IPC: 1.055 (Simulation time: 00 hr 05 min 40 sec)
Heartbeat CPU 0 instructions: 66500443 cycles: 27678670 heartbeat IPC: 0.7688 cumulative IPC: 1.044 (Simulation time: 00 hr 05 min 47 sec)
Heartbeat CPU 0 instructions: 67000443 cycles: 28240420 heartbeat IPC: 0.8901 cumulative IPC: 1.038 (Simulation time: 00 hr 05 min 52 sec)
Heartbeat CPU 0 instructions: 67500443 cycles: 28649041 heartbeat IPC: 1.224 cumulative IPC: 1.043 (Simulation time: 00 hr 05 min 57 sec)
Heartbeat CPU 0 instructions: 68000445 cycles: 29220774 heartbeat IPC: 0.8745 cumulative IPC: 1.037 (Simulation time: 00 hr 06 min 03 sec)
Heartbeat CPU 0 instructions: 68500446 cycles: 29864230 heartbeat IPC: 0.7771 cumulative IPC: 1.028 (Simulation time: 00 hr 06 min 08 sec)
Heartbeat CPU 0 instructions: 69000452 cycles: 30369410 heartbeat IPC: 0.9898 cumulative IPC: 1.027 (Simulation time: 00 hr 06 min 13 sec)
Heartbeat CPU 0 instructions: 69500453 cycles: 30813987 heartbeat IPC: 1.125 cumulative IPC: 1.029 (Simulation time: 00 hr 06 min 18 sec)
Heartbeat CPU 0 instructions: 70000454 cycles: 31268996 heartbeat IPC: 1.099 cumulative IPC: 1.031 (Simulation time: 00 hr 06 min 23 sec)
Heartbeat CPU 0 instructions: 70500460 cycles: 31732499 heartbeat IPC: 1.079 cumulative IPC: 1.032 (Simulation time: 00 hr 06 min 28 sec)
Heartbeat CPU 0 instructions: 71000466 cycles: 32124123 heartbeat IPC: 1.277 cumulative IPC: 1.037 (Simulation time: 00 hr 06 min 32 sec)
Heartbeat CPU 0 instructions: 71500469 cycles: 32600864 heartbeat IPC: 1.049 cumulative IPC: 1.037 (Simulation time: 00 hr 06 min 38 sec)
Heartbeat CPU 0 instructions: 72000471 cycles: 33271122 heartbeat IPC: 0.746 cumulative IPC: 1.028 (Simulation time: 00 hr 06 min 45 sec)
Heartbeat CPU 0 instructions: 72500477 cycles: 33655108 heartbeat IPC: 1.302 cumulative IPC: 1.033 (Simulation time: 00 hr 06 min 49 sec)
Heartbeat CPU 0 instructions: 73000484 cycles: 34122637 heartbeat IPC: 1.069 cumulative IPC: 1.033 (Simulation time: 00 hr 06 min 53 sec)
Heartbeat CPU 0 instructions: 73500485 cycles: 34864384 heartbeat IPC: 0.6741 cumulative IPC: 1.022 (Simulation time: 00 hr 07 min 00 sec)
Heartbeat CPU 0 instructions: 74000486 cycles: 35384720 heartbeat IPC: 0.9609 cumulative IPC: 1.021 (Simulation time: 00 hr 07 min 04 sec)
Heartbeat CPU 0 instructions: 74500487 cycles: 35849328 heartbeat IPC: 1.076 cumulative IPC: 1.022 (Simulation time: 00 hr 07 min 09 sec)
Heartbeat CPU 0 instructions: 75000487 cycles: 36336883 heartbeat IPC: 1.026 cumulative IPC: 1.022 (Simulation time: 00 hr 07 min 13 sec)
Heartbeat CPU 0 instructions: 75500490 cycles: 36752798 heartbeat IPC: 1.202 cumulative IPC: 1.025 (Simulation time: 00 hr 07 min 18 sec)
Heartbeat CPU 0 instructions: 76000490 cycles: 37094079 heartbeat IPC: 1.465 cumulative IPC: 1.031 (Simulation time: 00 hr 07 min 22 sec)
Heartbeat CPU 0 instructions: 76500492 cycles: 37661036 heartbeat IPC: 0.8819 cumulative IPC: 1.027 (Simulation time: 00 hr 07 min 28 sec)
Heartbeat CPU 0 instructions: 77000494 cycles: 38127483 heartbeat IPC: 1.072 cumulative IPC: 1.028 (Simulation time: 00 hr 07 min 33 sec)
Heartbeat CPU 0 instructions: 77500499 cycles: 38517883 heartbeat IPC: 1.281 cumulative IPC: 1.032 (Simulation time: 00 hr 07 min 37 sec)
Heartbeat CPU 0 instructions: 78000502 cycles: 39234462 heartbeat IPC: 0.6978 cumulative IPC: 1.023 (Simulation time: 00 hr 07 min 44 sec)
Heartbeat CPU 0 instructions: 78500507 cycles: 39743306 heartbeat IPC: 0.9826 cumulative IPC: 1.022 (Simulation time: 00 hr 07 min 49 sec)
Heartbeat CPU 0 instructions: 79000507 cycles: 40130051 heartbeat IPC: 1.293 cumulative IPC: 1.026 (Simulation time: 00 hr 07 min 54 sec)
Heartbeat CPU 0 instructions: 79500513 cycles: 40596106 heartbeat IPC: 1.073 cumulative IPC: 1.027 (Simulation time: 00 hr 07 min 59 sec)
Heartbeat CPU 0 instructions: 80000513 cycles: 41051671 heartbeat IPC: 1.098 cumulative IPC: 1.028 (Simulation time: 00 hr 08 min 03 sec)
Heartbeat CPU 0 instructions: 80500518 cycles: 41431376 heartbeat IPC: 1.317 cumulative IPC: 1.032 (Simulation time: 00 hr 08 min 08 sec)
Heartbeat CPU 0 instructions: 81000523 cycles: 41785582 heartbeat IPC: 1.412 cumulative IPC: 1.036 (Simulation time: 00 hr 08 min 11 sec)
Heartbeat CPU 0 instructions: 81500524 cycles: 42484343 heartbeat IPC: 0.7156 cumulative IPC: 1.029 (Simulation time: 00 hr 08 min 18 sec)
Heartbeat CPU 0 instructions: 82000524 cycles: 43096872 heartbeat IPC: 0.8163 cumulative IPC: 1.025 (Simulation time: 00 hr 08 min 23 sec)
Heartbeat CPU 0 instructions: 82500526 cycles: 43629568 heartbeat IPC: 0.9386 cumulative IPC: 1.023 (Simulation time: 00 hr 08 min 27 sec)
Heartbeat CPU 0 instructions: 83000527 cycles: 44173287 heartbeat IPC: 0.9196 cumulative IPC: 1.021 (Simulation time: 00 hr 08 min 31 sec)
Heartbeat CPU 0 instructions: 83500527 cycles: 44709913 heartbeat IPC: 0.9317 cumulative IPC: 1.02 (Simulation time: 00 hr 08 min 36 sec)
Heartbeat CPU 0 instructions: 84000527 cycles: 45227923 heartbeat IPC: 0.9652 cumulative IPC: 1.019 (Simulation time: 00 hr 08 min 40 sec)
Heartbeat CPU 0 instructions: 84500529 cycles: 45730349 heartbeat IPC: 0.9952 cumulative IPC: 1.019 (Simulation time: 00 hr 08 min 44 sec)
Heartbeat CPU 0 instructions: 85000532 cycles: 46228412 heartbeat IPC: 1.004 cumulative IPC: 1.019 (Simulation time: 00 hr 08 min 48 sec)
Heartbeat CPU 0 instructions: 85500535 cycles: 46706339 heartbeat IPC: 1.046 cumulative IPC: 1.019 (Simulation time: 00 hr 08 min 52 sec)
Heartbeat CPU 0 instructions: 86000536 cycles: 47144590 heartbeat IPC: 1.141 cumulative IPC: 1.02 (Simulation time: 00 hr 08 min 57 sec)
Heartbeat CPU 0 instructions: 86500536 cycles: 47508813 heartbeat IPC: 1.373 cumulative IPC: 1.024 (Simulation time: 00 hr 09 min 01 sec)
Heartbeat CPU 0 instructions: 87000536 cycles: 48148953 heartbeat IPC: 0.7811 cumulative IPC: 1.02 (Simulation time: 00 hr 09 min 06 sec)
Heartbeat CPU 0 instructions: 87500538 cycles: 48727547 heartbeat IPC: 0.8642 cumulative IPC: 1.017 (Simulation time: 00 hr 09 min 11 sec)
Heartbeat CPU 0 instructions: 88000539 cycles: 49186436 heartbeat IPC: 1.09 cumulative IPC: 1.018 (Simulation time: 00 hr 09 min 16 sec)
Heartbeat CPU 0 instructions: 88500539 cycles: 49540935 heartbeat IPC: 1.41 cumulative IPC: 1.022 (Simulation time: 00 hr 09 min 19 sec)
Heartbeat CPU 0 instructions: 89000539 cycles: 49830671 heartbeat IPC: 1.726 cumulative IPC: 1.027 (Simulation time: 00 hr 09 min 23 sec)
Heartbeat CPU 0 instructions: 89500542 cycles: 50434168 heartbeat IPC: 0.8285 cumulative IPC: 1.024 (Simulation time: 00 hr 09 min 28 sec)
Heartbeat CPU 0 instructions: 90000546 cycles: 51058133 heartbeat IPC: 0.8013 cumulative IPC: 1.021 (Simulation time: 00 hr 09 min 33 sec)
Heartbeat CPU 0 instructions: 90500548 cycles: 51604538 heartbeat IPC: 0.9151 cumulative IPC: 1.019 (Simulation time: 00 hr 09 min 37 sec)
Heartbeat CPU 0 instructions: 91000549 cycles: 52125836 heartbeat IPC: 0.9591 cumulative IPC: 1.018 (Simulation time: 00 hr 09 min 41 sec)
Heartbeat CPU 0 instructions: 91500549 cycles: 52671683 heartbeat IPC: 0.916 cumulative IPC: 1.017 (Simulation time: 00 hr 09 min 46 sec)
Heartbeat CPU 0 instructions: 92000551 cycles: 53182394 heartbeat IPC: 0.979 cumulative IPC: 1.017 (Simulation time: 00 hr 09 min 50 sec)
Heartbeat CPU 0 instructions: 92500557 cycles: 53736731 heartbeat IPC: 0.902 cumulative IPC: 1.015 (Simulation time: 00 hr 09 min 55 sec)
Heartbeat CPU 0 instructions: 93000557 cycles: 54245167 heartbeat IPC: 0.9834 cumulative IPC: 1.015 (Simulation time: 00 hr 09 min 59 sec)
Heartbeat CPU 0 instructions: 93500557 cycles: 54720182 heartbeat IPC: 1.053 cumulative IPC: 1.015 (Simulation time: 00 hr 10 min 03 sec)
Heartbeat CPU 0 instructions: 94000560 cycles: 55118414 heartbeat IPC: 1.256 cumulative IPC: 1.017 (Simulation time: 00 hr 10 min 07 sec)
Heartbeat CPU 0 instructions: 94500563 cycles: 55530445 heartbeat IPC: 1.214 cumulative IPC: 1.019 (Simulation time: 00 hr 10 min 12 sec)
Heartbeat CPU 0 instructions: 95000563 cycles: 56193270 heartbeat IPC: 0.7543 cumulative IPC: 1.015 (Simulation time: 00 hr 10 min 18 sec)
Heartbeat CPU 0 instructions: 95500567 cycles: 56760633 heartbeat IPC: 0.8813 cumulative IPC: 1.014 (Simulation time: 00 hr 10 min 24 sec)
Heartbeat CPU 0 instructions: 96000568 cycles: 57169222 heartbeat IPC: 1.224 cumulative IPC: 1.015 (Simulation time: 00 hr 10 min 28 sec)
Heartbeat CPU 0 instructions: 96500568 cycles: 57502469 heartbeat IPC: 1.5 cumulative IPC: 1.019 (Simulation time: 00 hr 10 min 32 sec)
Heartbeat CPU 0 instructions: 97000569 cycles: 58251226 heartbeat IPC: 0.6678 cumulative IPC: 1.013 (Simulation time: 00 hr 10 min 39 sec)
Heartbeat CPU 0 instructions: 97500569 cycles: 58794309 heartbeat IPC: 0.9207 cumulative IPC: 1.012 (Simulation time: 00 hr 10 min 43 sec)
Heartbeat CPU 0 instructions: 98000571 cycles: 59254206 heartbeat IPC: 1.087 cumulative IPC: 1.013 (Simulation time: 00 hr 10 min 48 sec)
Heartbeat CPU 0 instructions: 98500572 cycles: 59637169 heartbeat IPC: 1.306 cumulative IPC: 1.015 (Simulation time: 00 hr 10 min 52 sec)
Heartbeat CPU 0 instructions: 99000573 cycles: 60251490 heartbeat IPC: 0.8139 cumulative IPC: 1.013 (Simulation time: 00 hr 10 min 59 sec)
Heartbeat CPU 0 instructions: 99500573 cycles: 60749568 heartbeat IPC: 1.004 cumulative IPC: 1.013 (Simulation time: 00 hr 11 min 04 sec)
Heartbeat CPU 0 instructions: 100000579 cycles: 61114150 heartbeat IPC: 1.371 cumulative IPC: 1.015 (Simulation time: 00 hr 11 min 08 sec)
Heartbeat CPU 0 instructions: 100500579 cycles: 61429300 heartbeat IPC: 1.587 cumulative IPC: 1.019 (Simulation time: 00 hr 11 min 11 sec)
Heartbeat CPU 0 instructions: 101000579 cycles: 61986314 heartbeat IPC: 0.8976 cumulative IPC: 1.018 (Simulation time: 00 hr 11 min 17 sec)
Heartbeat CPU 0 instructions: 101500579 cycles: 62387023 heartbeat IPC: 1.248 cumulative IPC: 1.019 (Simulation time: 00 hr 11 min 22 sec)
Heartbeat CPU 0 instructions: 102000579 cycles: 62756837 heartbeat IPC: 1.352 cumulative IPC: 1.022 (Simulation time: 00 hr 11 min 26 sec)
Heartbeat CPU 0 instructions: 102500579 cycles: 63462031 heartbeat IPC: 0.709 cumulative IPC: 1.018 (Simulation time: 00 hr 11 min 32 sec)
Heartbeat CPU 0 instructions: 103000579 cycles: 64044560 heartbeat IPC: 0.8583 cumulative IPC: 1.016 (Simulation time: 00 hr 11 min 37 sec)
Heartbeat CPU 0 instructions: 103500585 cycles: 64568319 heartbeat IPC: 0.9546 cumulative IPC: 1.015 (Simulation time: 00 hr 11 min 42 sec)
Heartbeat CPU 0 instructions: 104000585 cycles: 65088115 heartbeat IPC: 0.9619 cumulative IPC: 1.015 (Simulation time: 00 hr 11 min 47 sec)
Heartbeat CPU 0 instructions: 104500590 cycles: 65534763 heartbeat IPC: 1.119 cumulative IPC: 1.016 (Simulation time: 00 hr 11 min 51 sec)
Heartbeat CPU 0 instructions: 105000593 cycles: 65907183 heartbeat IPC: 1.343 cumulative IPC: 1.018 (Simulation time: 00 hr 11 min 55 sec)
Heartbeat CPU 0 instructions: 105500595 cycles: 66327318 heartbeat IPC: 1.19 cumulative IPC: 1.019 (Simulation time: 00 hr 12 min 00 sec)
Heartbeat CPU 0 instructions: 106000597 cycles: 66824941 heartbeat IPC: 1.005 cumulative IPC: 1.019 (Simulation time: 00 hr 12 min 05 sec)
Heartbeat CPU 0 instructions: 106500598 cycles: 67221269 heartbeat IPC: 1.262 cumulative IPC: 1.021 (Simulation time: 00 hr 12 min 10 sec)
Heartbeat CPU 0 instructions: 107000604 cycles: 67560504 heartbeat IPC: 1.474 cumulative IPC: 1.023 (Simulation time: 00 hr 12 min 14 sec)
Heartbeat CPU 0 instructions: 107500604 cycles: 68310790 heartbeat IPC: 0.6664 cumulative IPC: 1.019 (Simulation time: 00 hr 12 min 21 sec)
Heartbeat CPU 0 instructions: 108000604 cycles: 68774904 heartbeat IPC: 1.077 cumulative IPC: 1.019 (Simulation time: 00 hr 12 min 26 sec)
Heartbeat CPU 0 instructions: 108500606 cycles: 69159041 heartbeat IPC: 1.302 cumulative IPC: 1.021 (Simulation time: 00 hr 12 min 31 sec)
Heartbeat CPU 0 instructions: 109000606 cycles: 69603336 heartbeat IPC: 1.125 cumulative IPC: 1.022 (Simulation time: 00 hr 12 min 35 sec)
Heartbeat CPU 0 instructions: 109500608 cycles: 70172955 heartbeat IPC: 0.8778 cumulative IPC: 1.02 (Simulation time: 00 hr 12 min 41 sec)
Heartbeat CPU 0 instructions: 110000608 cycles: 70599699 heartbeat IPC: 1.172 cumulative IPC: 1.022 (Simulation time: 00 hr 12 min 46 sec)
Heartbeat CPU 0 instructions: 110500614 cycles: 70972551 heartbeat IPC: 1.341 cumulative IPC: 1.024 (Simulation time: 00 hr 12 min 50 sec)
Heartbeat CPU 0 instructions: 111000615 cycles: 71622639 heartbeat IPC: 0.7691 cumulative IPC: 1.021 (Simulation time: 00 hr 12 min 55 sec)
Heartbeat CPU 0 instructions: 111500617 cycles: 72262462 heartbeat IPC: 0.7815 cumulative IPC: 1.018 (Simulation time: 00 hr 13 min 01 sec)
Heartbeat CPU 0 instructions: 112000617 cycles: 72787956 heartbeat IPC: 0.9515 cumulative IPC: 1.018 (Simulation time: 00 hr 13 min 06 sec)
Heartbeat CPU 0 instructions: 112500619 cycles: 73257825 heartbeat IPC: 1.064 cumulative IPC: 1.018 (Simulation time: 00 hr 13 min 10 sec)
Heartbeat CPU 0 instructions: 113000621 cycles: 73619291 heartbeat IPC: 1.383 cumulative IPC: 1.02 (Simulation time: 00 hr 13 min 14 sec)
Heartbeat CPU 0 instructions: 113500621 cycles: 74020858 heartbeat IPC: 1.245 cumulative IPC: 1.022 (Simulation time: 00 hr 13 min 19 sec)
Heartbeat CPU 0 instructions: 114000621 cycles: 74589560 heartbeat IPC: 0.8792 cumulative IPC: 1.02 (Simulation time: 00 hr 13 min 25 sec)
Heartbeat CPU 0 instructions: 114500624 cycles: 75033359 heartbeat IPC: 1.127 cumulative IPC: 1.021 (Simulation time: 00 hr 13 min 30 sec)
Heartbeat CPU 0 instructions: 115000624 cycles: 75454757 heartbeat IPC: 1.187 cumulative IPC: 1.022 (Simulation time: 00 hr 13 min 35 sec)
Heartbeat CPU 0 instructions: 115500627 cycles: 76084771 heartbeat IPC: 0.7936 cumulative IPC: 1.02 (Simulation time: 00 hr 13 min 41 sec)
Heartbeat CPU 0 instructions: 116000628 cycles: 76494509 heartbeat IPC: 1.22 cumulative IPC: 1.021 (Simulation time: 00 hr 13 min 46 sec)
Heartbeat CPU 0 instructions: 116500631 cycles: 76868406 heartbeat IPC: 1.337 cumulative IPC: 1.023 (Simulation time: 00 hr 13 min 50 sec)
Heartbeat CPU 0 instructions: 117000634 cycles: 77519426 heartbeat IPC: 0.768 cumulative IPC: 1.021 (Simulation time: 00 hr 13 min 56 sec)
Heartbeat CPU 0 instructions: 117500634 cycles: 78020418 heartbeat IPC: 0.998 cumulative IPC: 1.02 (Simulation time: 00 hr 14 min 02 sec)
Heartbeat CPU 0 instructions: 118000640 cycles: 78436073 heartbeat IPC: 1.203 cumulative IPC: 1.022 (Simulation time: 00 hr 14 min 06 sec)
Heartbeat CPU 0 instructions: 118500642 cycles: 78805675 heartbeat IPC: 1.353 cumulative IPC: 1.023 (Simulation time: 00 hr 14 min 10 sec)
Heartbeat CPU 0 instructions: 119000642 cycles: 79543956 heartbeat IPC: 0.6772 cumulative IPC: 1.02 (Simulation time: 00 hr 14 min 17 sec)
Heartbeat CPU 0 instructions: 119500642 cycles: 80176137 heartbeat IPC: 0.7909 cumulative IPC: 1.017 (Simulation time: 00 hr 14 min 22 sec)
Heartbeat CPU 0 instructions: 120000642 cycles: 80709377 heartbeat IPC: 0.9377 cumulative IPC: 1.017 (Simulation time: 00 hr 14 min 27 sec)
Heartbeat CPU 0 instructions: 120500644 cycles: 81177184 heartbeat IPC: 1.069 cumulative IPC: 1.017 (Simulation time: 00 hr 14 min 32 sec)
Heartbeat CPU 0 instructions: 121000650 cycles: 81561617 heartbeat IPC: 1.301 cumulative IPC: 1.019 (Simulation time: 00 hr 14 min 36 sec)
Heartbeat CPU 0 instructions: 121500650 cycles: 82127381 heartbeat IPC: 0.8838 cumulative IPC: 1.018 (Simulation time: 00 hr 14 min 42 sec)
Heartbeat CPU 0 instructions: 122000656 cycles: 82819168 heartbeat IPC: 0.7228 cumulative IPC: 1.015 (Simulation time: 00 hr 14 min 48 sec)
Heartbeat CPU 0 instructions: 122500656 cycles: 83382200 heartbeat IPC: 0.888 cumulative IPC: 1.014 (Simulation time: 00 hr 14 min 53 sec)
Heartbeat CPU 0 instructions: 123000659 cycles: 83863503 heartbeat IPC: 1.039 cumulative IPC: 1.014 (Simulation time: 00 hr 14 min 58 sec)
Heartbeat CPU 0 instructions: 123500659 cycles: 84244685 heartbeat IPC: 1.312 cumulative IPC: 1.016 (Simulation time: 00 hr 15 min 02 sec)
Heartbeat CPU 0 instructions: 124000659 cycles: 84661602 heartbeat IPC: 1.199 cumulative IPC: 1.017 (Simulation time: 00 hr 15 min 07 sec)
Heartbeat CPU 0 instructions: 124500662 cycles: 85249587 heartbeat IPC: 0.8504 cumulative IPC: 1.015 (Simulation time: 00 hr 15 min 13 sec)
Heartbeat CPU 0 instructions: 125000663 cycles: 85686278 heartbeat IPC: 1.145 cumulative IPC: 1.016 (Simulation time: 00 hr 15 min 18 sec)
Heartbeat CPU 0 instructions: 125500664 cycles: 86053178 heartbeat IPC: 1.363 cumulative IPC: 1.018 (Simulation time: 00 hr 15 min 22 sec)
Heartbeat CPU 0 instructions: 126000670 cycles: 86614905 heartbeat IPC: 0.8901 cumulative IPC: 1.017 (Simulation time: 00 hr 15 min 27 sec)
Heartbeat CPU 0 instructions: 126500670 cycles: 87130960 heartbeat IPC: 0.9689 cumulative IPC: 1.016 (Simulation time: 00 hr 15 min 32 sec)
Heartbeat CPU 0 instructions: 127000675 cycles: 87602906 heartbeat IPC: 1.059 cumulative IPC: 1.017 (Simulation time: 00 hr 15 min 36 sec)
Heartbeat CPU 0 instructions: 127500680 cycles: 87974153 heartbeat IPC: 1.347 cumulative IPC: 1.018 (Simulation time: 00 hr 15 min 40 sec)
Heartbeat CPU 0 instructions: 128000680 cycles: 88337146 heartbeat IPC: 1.377 cumulative IPC: 1.02 (Simulation time: 00 hr 15 min 44 sec)
Heartbeat CPU 0 instructions: 128500683 cycles: 89015605 heartbeat IPC: 0.737 cumulative IPC: 1.018 (Simulation time: 00 hr 15 min 50 sec)
Heartbeat CPU 0 instructions: 129000685 cycles: 89480516 heartbeat IPC: 1.075 cumulative IPC: 1.018 (Simulation time: 00 hr 15 min 55 sec)
Heartbeat CPU 0 instructions: 129500685 cycles: 89883542 heartbeat IPC: 1.241 cumulative IPC: 1.019 (Simulation time: 00 hr 15 min 59 sec)
Heartbeat CPU 0 instructions: 130000688 cycles: 90229336 heartbeat IPC: 1.446 cumulative IPC: 1.021 (Simulation time: 00 hr 16 min 03 sec)
Heartbeat CPU 0 instructions: 130500692 cycles: 90718381 heartbeat IPC: 1.022 cumulative IPC: 1.021 (Simulation time: 00 hr 16 min 08 sec)
Heartbeat CPU 0 instructions: 131000692 cycles: 91411895 heartbeat IPC: 0.721 cumulative IPC: 1.018 (Simulation time: 00 hr 16 min 13 sec)
Heartbeat CPU 0 instructions: 131500692 cycles: 91969516 heartbeat IPC: 0.8967 cumulative IPC: 1.017 (Simulation time: 00 hr 16 min 18 sec)
Heartbeat CPU 0 instructions: 132000692 cycles: 92502897 heartbeat IPC: 0.9374 cumulative IPC: 1.017 (Simulation time: 00 hr 16 min 22 sec)
Heartbeat CPU 0 instructions: 132500694 cycles: 93023159 heartbeat IPC: 0.9611 cumulative IPC: 1.017 (Simulation time: 00 hr 16 min 26 sec)
Heartbeat CPU 0 instructions: 133000695 cycles: 93539709 heartbeat IPC: 0.968 cumulative IPC: 1.016 (Simulation time: 00 hr 16 min 30 sec)
Heartbeat CPU 0 instructions: 133500697 cycles: 94043180 heartbeat IPC: 0.9931 cumulative IPC: 1.016 (Simulation time: 00 hr 16 min 34 sec)
Heartbeat CPU 0 instructions: 134000697 cycles: 94547032 heartbeat IPC: 0.9924 cumulative IPC: 1.016 (Simulation time: 00 hr 16 min 38 sec)
Heartbeat CPU 0 instructions: 134500697 cycles: 95030724 heartbeat IPC: 1.034 cumulative IPC: 1.016 (Simulation time: 00 hr 16 min 43 sec)
Heartbeat CPU 0 instructions: 135000698 cycles: 95421001 heartbeat IPC: 1.281 cumulative IPC: 1.017 (Simulation time: 00 hr 16 min 47 sec)
Heartbeat CPU 0 instructions: 135500700 cycles: 95739160 heartbeat IPC: 1.572 cumulative IPC: 1.019 (Simulation time: 00 hr 16 min 50 sec)
Heartbeat CPU 0 instructions: 136000701 cycles: 96397825 heartbeat IPC: 0.7591 cumulative IPC: 1.017 (Simulation time: 00 hr 16 min 57 sec)
Heartbeat CPU 0 instructions: 136500701 cycles: 96959322 heartbeat IPC: 0.8905 cumulative IPC: 1.017 (Simulation time: 00 hr 17 min 03 sec)
Heartbeat CPU 0 instructions: 137000702 cycles: 97422593 heartbeat IPC: 1.079 cumulative IPC: 1.017 (Simulation time: 00 hr 17 min 08 sec)
Heartbeat CPU 0 instructions: 137500703 cycles: 97794628 heartbeat IPC: 1.344 cumulative IPC: 1.018 (Simulation time: 00 hr 17 min 12 sec)
Heartbeat CPU 0 instructions: 138000708 cycles: 98438656 heartbeat IPC: 0.7764 cumulative IPC: 1.017 (Simulation time: 00 hr 17 min 18 sec)
Heartbeat CPU 0 instructions: 138500711 cycles: 98988056 heartbeat IPC: 0.9101 cumulative IPC: 1.016 (Simulation time: 00 hr 17 min 23 sec)
Heartbeat CPU 0 instructions: 139000714 cycles: 99452358 heartbeat IPC: 1.077 cumulative IPC: 1.016 (Simulation time: 00 hr 17 min 28 sec)
Heartbeat CPU 0 instructions: 139500714 cycles: 99840852 heartbeat IPC: 1.287 cumulative IPC: 1.017 (Simulation time: 00 hr 17 min 32 sec)
Heartbeat CPU 0 instructions: 140000718 cycles: 100440864 heartbeat IPC: 0.8333 cumulative IPC: 1.016 (Simulation time: 00 hr 17 min 38 sec)
Heartbeat CPU 0 instructions: 140500720 cycles: 101062146 heartbeat IPC: 0.8048 cumulative IPC: 1.015 (Simulation time: 00 hr 17 min 44 sec)
Heartbeat CPU 0 instructions: 141000724 cycles: 101531710 heartbeat IPC: 1.065 cumulative IPC: 1.015 (Simulation time: 00 hr 17 min 49 sec)
Heartbeat CPU 0 instructions: 141500731 cycles: 101887987 heartbeat IPC: 1.403 cumulative IPC: 1.016 (Simulation time: 00 hr 17 min 53 sec)
Heartbeat CPU 0 instructions: 142000731 cycles: 102590445 heartbeat IPC: 0.7118 cumulative IPC: 1.014 (Simulation time: 00 hr 18 min 00 sec)
Heartbeat CPU 0 instructions: 142500732 cycles: 103102888 heartbeat IPC: 0.9757 cumulative IPC: 1.014 (Simulation time: 00 hr 18 min 05 sec)
Heartbeat CPU 0 instructions: 143000732 cycles: 103592584 heartbeat IPC: 1.021 cumulative IPC: 1.014 (Simulation time: 00 hr 18 min 10 sec)
Heartbeat CPU 0 instructions: 143500732 cycles: 103978324 heartbeat IPC: 1.296 cumulative IPC: 1.015 (Simulation time: 00 hr 18 min 14 sec)
Heartbeat CPU 0 instructions: 144000734 cycles: 104548688 heartbeat IPC: 0.8766 cumulative IPC: 1.014 (Simulation time: 00 hr 18 min 19 sec)
Heartbeat CPU 0 instructions: 144500741 cycles: 105189186 heartbeat IPC: 0.7807 cumulative IPC: 1.013 (Simulation time: 00 hr 18 min 24 sec)
Heartbeat CPU 0 instructions: 145000742 cycles: 105771250 heartbeat IPC: 0.859 cumulative IPC: 1.012 (Simulation time: 00 hr 18 min 29 sec)
Heartbeat CPU 0 instructions: 145500743 cycles: 106312204 heartbeat IPC: 0.9243 cumulative IPC: 1.011 (Simulation time: 00 hr 18 min 33 sec)
Heartbeat CPU 0 instructions: 146000743 cycles: 106846617 heartbeat IPC: 0.9356 cumulative IPC: 1.011 (Simulation time: 00 hr 18 min 38 sec)
Heartbeat CPU 0 instructions: 146500743 cycles: 107358168 heartbeat IPC: 0.9774 cumulative IPC: 1.011 (Simulation time: 00 hr 18 min 42 sec)
Heartbeat CPU 0 instructions: 147000743 cycles: 107841280 heartbeat IPC: 1.035 cumulative IPC: 1.011 (Simulation time: 00 hr 18 min 46 sec)
Heartbeat CPU 0 instructions: 147500743 cycles: 108286621 heartbeat IPC: 1.123 cumulative IPC: 1.011 (Simulation time: 00 hr 18 min 51 sec)
Heartbeat CPU 0 instructions: 148000746 cycles: 108675938 heartbeat IPC: 1.284 cumulative IPC: 1.012 (Simulation time: 00 hr 18 min 55 sec)
Heartbeat CPU 0 instructions: 148500747 cycles: 109054985 heartbeat IPC: 1.319 cumulative IPC: 1.014 (Simulation time: 00 hr 18 min 59 sec)
Heartbeat CPU 0 instructions: 149000747 cycles: 109700280 heartbeat IPC: 0.7748 cumulative IPC: 1.012 (Simulation time: 00 hr 19 min 06 sec)
Heartbeat CPU 0 instructions: 149500748 cycles: 110195443 heartbeat IPC: 1.01 cumulative IPC: 1.012 (Simulation time: 00 hr 19 min 11 sec)
Heartbeat CPU 0 instructions: 150000753 cycles: 110570887 heartbeat IPC: 1.332 cumulative IPC: 1.013 (Simulation time: 00 hr 19 min 15 sec)
Heartbeat CPU 0 instructions: 150500754 cycles: 111161848 heartbeat IPC: 0.8461 cumulative IPC: 1.012 (Simulation time: 00 hr 19 min 21 sec)
Heartbeat CPU 0 instructions: 151000756 cycles: 111575140 heartbeat IPC: 1.21 cumulative IPC: 1.013 (Simulation time: 00 hr 19 min 26 sec)
Heartbeat CPU 0 instructions: 151500759 cycles: 111943505 heartbeat IPC: 1.357 cumulative IPC: 1.014 (Simulation time: 00 hr 19 min 30 sec)
Heartbeat CPU 0 instructions: 152000760 cycles: 112761218 heartbeat IPC: 0.6115 cumulative IPC: 1.011 (Simulation time: 00 hr 19 min 37 sec)
Heartbeat CPU 0 instructions: 152500763 cycles: 113328539 heartbeat IPC: 0.8813 cumulative IPC: 1.01 (Simulation time: 00 hr 19 min 43 sec)
Heartbeat CPU 0 instructions: 153000765 cycles: 113746771 heartbeat IPC: 1.196 cumulative IPC: 1.011 (Simulation time: 00 hr 19 min 47 sec)
Heartbeat CPU 0 instructions: 153500766 cycles: 114102674 heartbeat IPC: 1.405 cumulative IPC: 1.012 (Simulation time: 00 hr 19 min 51 sec)
Heartbeat CPU 0 instructions: 154000766 cycles: 114849648 heartbeat IPC: 0.6694 cumulative IPC: 1.01 (Simulation time: 00 hr 19 min 58 sec)
Heartbeat CPU 0 instructions: 154500767 cycles: 115362144 heartbeat IPC: 0.9756 cumulative IPC: 1.01 (Simulation time: 00 hr 20 min 03 sec)
Heartbeat CPU 0 instructions: 155000773 cycles: 115762917 heartbeat IPC: 1.248 cumulative IPC: 1.011 (Simulation time: 00 hr 20 min 08 sec)
Heartbeat CPU 0 instructions: 155500773 cycles: 116114111 heartbeat IPC: 1.424 cumulative IPC: 1.012 (Simulation time: 00 hr 20 min 11 sec)
Heartbeat CPU 0 instructions: 156000776 cycles: 116936066 heartbeat IPC: 0.6083 cumulative IPC: 1.009 (Simulation time: 00 hr 20 min 19 sec)
Heartbeat CPU 0 instructions: 156500776 cycles: 117474502 heartbeat IPC: 0.9286 cumulative IPC: 1.008 (Simulation time: 00 hr 20 min 24 sec)
Heartbeat CPU 0 instructions: 157000778 cycles: 117903778 heartbeat IPC: 1.165 cumulative IPC: 1.009 (Simulation time: 00 hr 20 min 28 sec)
Heartbeat CPU 0 instructions: 157500780 cycles: 118260859 heartbeat IPC: 1.4 cumulative IPC: 1.01 (Simulation time: 00 hr 20 min 32 sec)
Heartbeat CPU 0 instructions: 158000780 cycles: 118782245 heartbeat IPC: 0.959 cumulative IPC: 1.01 (Simulation time: 00 hr 20 min 38 sec)
Heartbeat CPU 0 instructions: 158500780 cycles: 119249938 heartbeat IPC: 1.069 cumulative IPC: 1.01 (Simulation time: 00 hr 20 min 43 sec)
Heartbeat CPU 0 instructions: 159000781 cycles: 119757133 heartbeat IPC: 0.9858 cumulative IPC: 1.01 (Simulation time: 00 hr 20 min 48 sec)
Heartbeat CPU 0 instructions: 159500782 cycles: 120416370 heartbeat IPC: 0.7585 cumulative IPC: 1.009 (Simulation time: 00 hr 20 min 53 sec)
Heartbeat CPU 0 instructions: 160000783 cycles: 120956196 heartbeat IPC: 0.9262 cumulative IPC: 1.008 (Simulation time: 00 hr 20 min 57 sec)
Heartbeat CPU 0 instructions: 160500785 cycles: 121478101 heartbeat IPC: 0.958 cumulative IPC: 1.008 (Simulation time: 00 hr 21 min 02 sec)
Heartbeat CPU 0 instructions: 161000786 cycles: 122007849 heartbeat IPC: 0.9438 cumulative IPC: 1.008 (Simulation time: 00 hr 21 min 06 sec)
Heartbeat CPU 0 instructions: 161500787 cycles: 122500258 heartbeat IPC: 1.015 cumulative IPC: 1.008 (Simulation time: 00 hr 21 min 11 sec)
Heartbeat CPU 0 instructions: 162000792 cycles: 122953201 heartbeat IPC: 1.104 cumulative IPC: 1.008 (Simulation time: 00 hr 21 min 15 sec)
Heartbeat CPU 0 instructions: 162500794 cycles: 123320667 heartbeat IPC: 1.361 cumulative IPC: 1.009 (Simulation time: 00 hr 21 min 19 sec)
Heartbeat CPU 0 instructions: 163000794 cycles: 123885406 heartbeat IPC: 0.8854 cumulative IPC: 1.009 (Simulation time: 00 hr 21 min 25 sec)
Heartbeat CPU 0 instructions: 163500795 cycles: 124361042 heartbeat IPC: 1.051 cumulative IPC: 1.009 (Simulation time: 00 hr 21 min 28 sec)
Heartbeat CPU 0 instructions: 164000798 cycles: 124854533 heartbeat IPC: 1.013 cumulative IPC: 1.009 (Simulation time: 00 hr 21 min 32 sec)
Heartbeat CPU 0 instructions: 164500798 cycles: 125356834 heartbeat IPC: 0.9954 cumulative IPC: 1.009 (Simulation time: 00 hr 21 min 35 sec)
Heartbeat CPU 0 instructions: 165000802 cycles: 125871495 heartbeat IPC: 0.9715 cumulative IPC: 1.009 (Simulation time: 00 hr 21 min 39 sec)
Heartbeat CPU 0 instructions: 165500805 cycles: 126395182 heartbeat IPC: 0.9548 cumulative IPC: 1.008 (Simulation time: 00 hr 21 min 43 sec)
Heartbeat CPU 0 instructions: 166000805 cycles: 126869680 heartbeat IPC: 1.054 cumulative IPC: 1.009 (Simulation time: 00 hr 21 min 47 sec)
Heartbeat CPU 0 instructions: 166500809 cycles: 127353941 heartbeat IPC: 1.033 cumulative IPC: 1.009 (Simulation time: 00 hr 21 min 50 sec)
Heartbeat CPU 0 instructions: 167000811 cycles: 127842330 heartbeat IPC: 1.024 cumulative IPC: 1.009 (Simulation time: 00 hr 21 min 54 sec)
Heartbeat CPU 0 instructions: 167500813 cycles: 128350239 heartbeat IPC: 0.9844 cumulative IPC: 1.009 (Simulation time: 00 hr 21 min 58 sec)
Heartbeat CPU 0 instructions: 168000815 cycles: 128847042 heartbeat IPC: 1.006 cumulative IPC: 1.009 (Simulation time: 00 hr 22 min 01 sec)
Heartbeat CPU 0 instructions: 168500818 cycles: 129369939 heartbeat IPC: 0.9562 cumulative IPC: 1.008 (Simulation time: 00 hr 22 min 05 sec)
Heartbeat CPU 0 instructions: 169000823 cycles: 129871304 heartbeat IPC: 0.9973 cumulative IPC: 1.008 (Simulation time: 00 hr 22 min 09 sec)
Heartbeat CPU 0 instructions: 169500823 cycles: 130380571 heartbeat IPC: 0.9818 cumulative IPC: 1.008 (Simulation time: 00 hr 22 min 12 sec)
Heartbeat CPU 0 instructions: 170000828 cycles: 130897955 heartbeat IPC: 0.9664 cumulative IPC: 1.008 (Simulation time: 00 hr 22 min 16 sec)
Heartbeat CPU 0 instructions: 170500828 cycles: 131404336 heartbeat IPC: 0.9874 cumulative IPC: 1.008 (Simulation time: 00 hr 22 min 20 sec)
Heartbeat CPU 0 instructions: 171000829 cycles: 131920267 heartbeat IPC: 0.9691 cumulative IPC: 1.008 (Simulation time: 00 hr 22 min 23 sec)
Heartbeat CPU 0 instructions: 171500829 cycles: 132429039 heartbeat IPC: 0.9828 cumulative IPC: 1.008 (Simulation time: 00 hr 22 min 27 sec)
Heartbeat CPU 0 instructions: 172000832 cycles: 132944865 heartbeat IPC: 0.9693 cumulative IPC: 1.008 (Simulation time: 00 hr 22 min 31 sec)
Heartbeat CPU 0 instructions: 172500832 cycles: 133468765 heartbeat IPC: 0.9544 cumulative IPC: 1.007 (Simulation time: 00 hr 22 min 35 sec)
Heartbeat CPU 0 instructions: 173000834 cycles: 133969635 heartbeat IPC: 0.9983 cumulative IPC: 1.007 (Simulation time: 00 hr 22 min 38 sec)
Heartbeat CPU 0 instructions: 173500834 cycles: 134400515 heartbeat IPC: 1.16 cumulative IPC: 1.008 (Simulation time: 00 hr 22 min 42 sec)
Heartbeat CPU 0 instructions: 174000835 cycles: 134766091 heartbeat IPC: 1.368 cumulative IPC: 1.009 (Simulation time: 00 hr 22 min 46 sec)
Heartbeat CPU 0 instructions: 174500840 cycles: 135421264 heartbeat IPC: 0.7632 cumulative IPC: 1.008 (Simulation time: 00 hr 22 min 52 sec)
Heartbeat CPU 0 instructions: 175000846 cycles: 135872192 heartbeat IPC: 1.109 cumulative IPC: 1.008 (Simulation time: 00 hr 22 min 57 sec)
Heartbeat CPU 0 instructions: 175500846 cycles: 136250718 heartbeat IPC: 1.321 cumulative IPC: 1.009 (Simulation time: 00 hr 23 min 01 sec)
Heartbeat CPU 0 instructions: 176000847 cycles: 136716914 heartbeat IPC: 1.073 cumulative IPC: 1.009 (Simulation time: 00 hr 23 min 06 sec)
Heartbeat CPU 0 instructions: 176500853 cycles: 137232282 heartbeat IPC: 0.9702 cumulative IPC: 1.009 (Simulation time: 00 hr 23 min 11 sec)
Heartbeat CPU 0 instructions: 177000857 cycles: 137659750 heartbeat IPC: 1.17 cumulative IPC: 1.01 (Simulation time: 00 hr 23 min 15 sec)
Heartbeat CPU 0 instructions: 177500858 cycles: 138042004 heartbeat IPC: 1.308 cumulative IPC: 1.011 (Simulation time: 00 hr 23 min 19 sec)
Heartbeat CPU 0 instructions: 178000858 cycles: 138651031 heartbeat IPC: 0.821 cumulative IPC: 1.01 (Simulation time: 00 hr 23 min 25 sec)
Heartbeat CPU 0 instructions: 178500864 cycles: 139082859 heartbeat IPC: 1.158 cumulative IPC: 1.01 (Simulation time: 00 hr 23 min 30 sec)
Heartbeat CPU 0 instructions: 179000865 cycles: 139453440 heartbeat IPC: 1.349 cumulative IPC: 1.011 (Simulation time: 00 hr 23 min 34 sec)
Heartbeat CPU 0 instructions: 179500869 cycles: 139897293 heartbeat IPC: 1.127 cumulative IPC: 1.011 (Simulation time: 00 hr 23 min 38 sec)
Heartbeat CPU 0 instructions: 180000869 cycles: 140310652 heartbeat IPC: 1.21 cumulative IPC: 1.012 (Simulation time: 00 hr 23 min 42 sec)
Heartbeat CPU 0 instructions: 180500870 cycles: 140689495 heartbeat IPC: 1.32 cumulative IPC: 1.013 (Simulation time: 00 hr 23 min 46 sec)
Heartbeat CPU 0 instructions: 181000873 cycles: 141234069 heartbeat IPC: 0.9182 cumulative IPC: 1.013 (Simulation time: 00 hr 23 min 51 sec)
Heartbeat CPU 0 instructions: 181500874 cycles: 141791611 heartbeat IPC: 0.8968 cumulative IPC: 1.012 (Simulation time: 00 hr 23 min 56 sec)
Heartbeat CPU 0 instructions: 182000878 cycles: 142330181 heartbeat IPC: 0.9284 cumulative IPC: 1.012 (Simulation time: 00 hr 24 min 00 sec)
Heartbeat CPU 0 instructions: 182500878 cycles: 142841997 heartbeat IPC: 0.9769 cumulative IPC: 1.012 (Simulation time: 00 hr 24 min 04 sec)
Heartbeat CPU 0 instructions: 183000878 cycles: 143315949 heartbeat IPC: 1.055 cumulative IPC: 1.012 (Simulation time: 00 hr 24 min 09 sec)
Heartbeat CPU 0 instructions: 183500878 cycles: 143689437 heartbeat IPC: 1.339 cumulative IPC: 1.013 (Simulation time: 00 hr 24 min 13 sec)
Heartbeat CPU 0 instructions: 184000878 cycles: 144295785 heartbeat IPC: 0.8246 cumulative IPC: 1.012 (Simulation time: 00 hr 24 min 18 sec)
Heartbeat CPU 0 instructions: 184500884 cycles: 144822490 heartbeat IPC: 0.9493 cumulative IPC: 1.012 (Simulation time: 00 hr 24 min 23 sec)
Heartbeat CPU 0 instructions: 185000887 cycles: 145268822 heartbeat IPC: 1.12 cumulative IPC: 1.012 (Simulation time: 00 hr 24 min 27 sec)
Heartbeat CPU 0 instructions: 185500889 cycles: 145627633 heartbeat IPC: 1.393 cumulative IPC: 1.013 (Simulation time: 00 hr 24 min 30 sec)
Heartbeat CPU 0 instructions: 186000889 cycles: 146113186 heartbeat IPC: 1.03 cumulative IPC: 1.013 (Simulation time: 00 hr 24 min 35 sec)
Heartbeat CPU 0 instructions: 186500891 cycles: 146729616 heartbeat IPC: 0.8111 cumulative IPC: 1.012 (Simulation time: 00 hr 24 min 41 sec)
Heartbeat CPU 0 instructions: 187000893 cycles: 147207583 heartbeat IPC: 1.046 cumulative IPC: 1.012 (Simulation time: 00 hr 24 min 45 sec)
Heartbeat CPU 0 instructions: 187500894 cycles: 147597053 heartbeat IPC: 1.284 cumulative IPC: 1.013 (Simulation time: 00 hr 24 min 49 sec)
Heartbeat CPU 0 instructions: 188000895 cycles: 147969459 heartbeat IPC: 1.343 cumulative IPC: 1.014 (Simulation time: 00 hr 24 min 53 sec)
Heartbeat CPU 0 instructions: 188500896 cycles: 148505822 heartbeat IPC: 0.9322 cumulative IPC: 1.014 (Simulation time: 00 hr 24 min 58 sec)
Heartbeat CPU 0 instructions: 189000898 cycles: 148948337 heartbeat IPC: 1.13 cumulative IPC: 1.014 (Simulation time: 00 hr 25 min 03 sec)
Heartbeat CPU 0 instructions: 189500898 cycles: 149318406 heartbeat IPC: 1.351 cumulative IPC: 1.015 (Simulation time: 00 hr 25 min 07 sec)
Heartbeat CPU 0 instructions: 190000901 cycles: 149992105 heartbeat IPC: 0.7422 cumulative IPC: 1.014 (Simulation time: 00 hr 25 min 12 sec)
Heartbeat CPU 0 instructions: 190500901 cycles: 150552707 heartbeat IPC: 0.8919 cumulative IPC: 1.013 (Simulation time: 00 hr 25 min 16 sec)
Heartbeat CPU 0 instructions: 191000902 cycles: 151102406 heartbeat IPC: 0.9096 cumulative IPC: 1.013 (Simulation time: 00 hr 25 min 20 sec)
Heartbeat CPU 0 instructions: 191500903 cycles: 151641293 heartbeat IPC: 0.9278 cumulative IPC: 1.012 (Simulation time: 00 hr 25 min 23 sec)
Heartbeat CPU 0 instructions: 192000908 cycles: 152167595 heartbeat IPC: 0.95 cumulative IPC: 1.012 (Simulation time: 00 hr 25 min 27 sec)
Heartbeat CPU 0 instructions: 192500909 cycles: 152698377 heartbeat IPC: 0.942 cumulative IPC: 1.012 (Simulation time: 00 hr 25 min 31 sec)
Heartbeat CPU 0 instructions: 193000911 cycles: 153224826 heartbeat IPC: 0.9498 cumulative IPC: 1.012 (Simulation time: 00 hr 25 min 35 sec)
Heartbeat CPU 0 instructions: 193500914 cycles: 153739004 heartbeat IPC: 0.9724 cumulative IPC: 1.011 (Simulation time: 00 hr 25 min 39 sec)
Heartbeat CPU 0 instructions: 194000914 cycles: 154252720 heartbeat IPC: 0.9733 cumulative IPC: 1.011 (Simulation time: 00 hr 25 min 44 sec)
Heartbeat CPU 0 instructions: 194500916 cycles: 154732624 heartbeat IPC: 1.042 cumulative IPC: 1.011 (Simulation time: 00 hr 25 min 48 sec)
Heartbeat CPU 0 instructions: 195000921 cycles: 155109624 heartbeat IPC: 1.326 cumulative IPC: 1.012 (Simulation time: 00 hr 25 min 51 sec)
Heartbeat CPU 0 instructions: 195500926 cycles: 155653641 heartbeat IPC: 0.9191 cumulative IPC: 1.012 (Simulation time: 00 hr 25 min 57 sec)
Heartbeat CPU 0 instructions: 196000929 cycles: 156173498 heartbeat IPC: 0.9618 cumulative IPC: 1.012 (Simulation time: 00 hr 26 min 02 sec)
Heartbeat CPU 0 instructions: 196500932 cycles: 156604917 heartbeat IPC: 1.159 cumulative IPC: 1.012 (Simulation time: 00 hr 26 min 06 sec)
Heartbeat CPU 0 instructions: 197000932 cycles: 157142734 heartbeat IPC: 0.9297 cumulative IPC: 1.012 (Simulation time: 00 hr 26 min 11 sec)
Heartbeat CPU 0 instructions: 197500935 cycles: 157746440 heartbeat IPC: 0.8282 cumulative IPC: 1.011 (Simulation time: 00 hr 26 min 16 sec)
Heartbeat CPU 0 instructions: 198000935 cycles: 158271647 heartbeat IPC: 0.952 cumulative IPC: 1.011 (Simulation time: 00 hr 26 min 20 sec)
Heartbeat CPU 0 instructions: 198500936 cycles: 158796986 heartbeat IPC: 0.9518 cumulative IPC: 1.011 (Simulation time: 00 hr 26 min 24 sec)
Heartbeat CPU 0 instructions: 199000937 cycles: 159320172 heartbeat IPC: 0.9557 cumulative IPC: 1.01 (Simulation time: 00 hr 26 min 28 sec)
Heartbeat CPU 0 instructions: 199500938 cycles: 159752790 heartbeat IPC: 1.156 cumulative IPC: 1.011 (Simulation time: 00 hr 26 min 32 sec)
Heartbeat CPU 0 instructions: 200000943 cycles: 160095041 heartbeat IPC: 1.461 cumulative IPC: 1.012 (Simulation time: 00 hr 26 min 36 sec)
Heartbeat CPU 0 instructions: 200500946 cycles: 160719313 heartbeat IPC: 0.8009 cumulative IPC: 1.011 (Simulation time: 00 hr 26 min 41 sec)
Heartbeat CPU 0 instructions: 201000948 cycles: 161200712 heartbeat IPC: 1.039 cumulative IPC: 1.011 (Simulation time: 00 hr 26 min 46 sec)
Heartbeat CPU 0 instructions: 201500950 cycles: 161588824 heartbeat IPC: 1.288 cumulative IPC: 1.012 (Simulation time: 00 hr 26 min 50 sec)
Heartbeat CPU 0 instructions: 202000952 cycles: 162007178 heartbeat IPC: 1.195 cumulative IPC: 1.012 (Simulation time: 00 hr 26 min 54 sec)
Heartbeat CPU 0 instructions: 202500958 cycles: 162599029 heartbeat IPC: 0.8448 cumulative IPC: 1.012 (Simulation time: 00 hr 26 min 59 sec)
Heartbeat CPU 0 instructions: 203000961 cycles: 163016630 heartbeat IPC: 1.197 cumulative IPC: 1.012 (Simulation time: 00 hr 27 min 03 sec)
Heartbeat CPU 0 instructions: 203500962 cycles: 163519352 heartbeat IPC: 0.9946 cumulative IPC: 1.012 (Simulation time: 00 hr 27 min 08 sec)
Heartbeat CPU 0 instructions: 204000963 cycles: 163981278 heartbeat IPC: 1.082 cumulative IPC: 1.012 (Simulation time: 00 hr 27 min 13 sec)
Heartbeat CPU 0 instructions: 204500963 cycles: 164382398 heartbeat IPC: 1.247 cumulative IPC: 1.013 (Simulation time: 00 hr 27 min 17 sec)
Heartbeat CPU 0 instructions: 205000966 cycles: 164843561 heartbeat IPC: 1.084 cumulative IPC: 1.013 (Simulation time: 00 hr 27 min 21 sec)
Heartbeat CPU 0 instructions: 205500966 cycles: 165550785 heartbeat IPC: 0.707 cumulative IPC: 1.012 (Simulation time: 00 hr 27 min 27 sec)
Heartbeat CPU 0 instructions: 206000966 cycles: 166090544 heartbeat IPC: 0.9263 cumulative IPC: 1.012 (Simulation time: 00 hr 27 min 31 sec)
Heartbeat CPU 0 instructions: 206500973 cycles: 166512801 heartbeat IPC: 1.184 cumulative IPC: 1.012 (Simulation time: 00 hr 27 min 35 sec)
Heartbeat CPU 0 instructions: 207000974 cycles: 166870680 heartbeat IPC: 1.397 cumulative IPC: 1.013 (Simulation time: 00 hr 27 min 39 sec)
Heartbeat CPU 0 instructions: 207500974 cycles: 167538740 heartbeat IPC: 0.7484 cumulative IPC: 1.012 (Simulation time: 00 hr 27 min 44 sec)
Heartbeat CPU 0 instructions: 208000975 cycles: 168153732 heartbeat IPC: 0.813 cumulative IPC: 1.011 (Simulation time: 00 hr 27 min 49 sec)
Heartbeat CPU 0 instructions: 208500975 cycles: 168679734 heartbeat IPC: 0.9506 cumulative IPC: 1.011 (Simulation time: 00 hr 27 min 53 sec)
Heartbeat CPU 0 instructions: 209000975 cycles: 169118552 heartbeat IPC: 1.139 cumulative IPC: 1.011 (Simulation time: 00 hr 27 min 57 sec)
Heartbeat CPU 0 instructions: 209500975 cycles: 169530826 heartbeat IPC: 1.213 cumulative IPC: 1.012 (Simulation time: 00 hr 28 min 01 sec)
Heartbeat CPU 0 instructions: 210000976 cycles: 169861628 heartbeat IPC: 1.511 cumulative IPC: 1.013 (Simulation time: 00 hr 28 min 04 sec)
Heartbeat CPU 0 instructions: 210500981 cycles: 170502020 heartbeat IPC: 0.7808 cumulative IPC: 1.012 (Simulation time: 00 hr 28 min 08 sec)
Heartbeat CPU 0 instructions: 211000983 cycles: 171049285 heartbeat IPC: 0.9136 cumulative IPC: 1.011 (Simulation time: 00 hr 28 min 13 sec)
Heartbeat CPU 0 instructions: 211500983 cycles: 171591122 heartbeat IPC: 0.9228 cumulative IPC: 1.011 (Simulation time: 00 hr 28 min 16 sec)
Heartbeat CPU 0 instructions: 212000984 cycles: 172102142 heartbeat IPC: 0.9784 cumulative IPC: 1.011 (Simulation time: 00 hr 28 min 20 sec)
Heartbeat CPU 0 instructions: 212500984 cycles: 172555160 heartbeat IPC: 1.104 cumulative IPC: 1.011 (Simulation time: 00 hr 28 min 24 sec)
Heartbeat CPU 0 instructions: 213000986 cycles: 172935259 heartbeat IPC: 1.315 cumulative IPC: 1.012 (Simulation time: 00 hr 28 min 28 sec)
Heartbeat CPU 0 instructions: 213500990 cycles: 173553604 heartbeat IPC: 0.8086 cumulative IPC: 1.011 (Simulation time: 00 hr 28 min 33 sec)
Heartbeat CPU 0 instructions: 214000991 cycles: 174156855 heartbeat IPC: 0.8288 cumulative IPC: 1.011 (Simulation time: 00 hr 28 min 37 sec)
Heartbeat CPU 0 instructions: 214500995 cycles: 174713473 heartbeat IPC: 0.8983 cumulative IPC: 1.01 (Simulation time: 00 hr 28 min 41 sec)
Heartbeat CPU 0 instructions: 215000997 cycles: 175223616 heartbeat IPC: 0.9801 cumulative IPC: 1.01 (Simulation time: 00 hr 28 min 44 sec)
Heartbeat CPU 0 instructions: 215500997 cycles: 175737616 heartbeat IPC: 0.9728 cumulative IPC: 1.01 (Simulation time: 00 hr 28 min 48 sec)
Heartbeat CPU 0 instructions: 216000999 cycles: 176223134 heartbeat IPC: 1.03 cumulative IPC: 1.01 (Simulation time: 00 hr 28 min 52 sec)
Heartbeat CPU 0 instructions: 216500999 cycles: 176721572 heartbeat IPC: 1.003 cumulative IPC: 1.01 (Simulation time: 00 hr 28 min 56 sec)
Heartbeat CPU 0 instructions: 217000999 cycles: 177214987 heartbeat IPC: 1.013 cumulative IPC: 1.01 (Simulation time: 00 hr 28 min 59 sec)
Heartbeat CPU 0 instructions: 217501001 cycles: 177642555 heartbeat IPC: 1.169 cumulative IPC: 1.01 (Simulation time: 00 hr 29 min 03 sec)
Heartbeat CPU 0 instructions: 218001003 cycles: 177996774 heartbeat IPC: 1.412 cumulative IPC: 1.011 (Simulation time: 00 hr 29 min 07 sec)
Heartbeat CPU 0 instructions: 218501007 cycles: 178567220 heartbeat IPC: 0.8765 cumulative IPC: 1.011 (Simulation time: 00 hr 29 min 11 sec)
Heartbeat CPU 0 instructions: 219001008 cycles: 179230414 heartbeat IPC: 0.7539 cumulative IPC: 1.01 (Simulation time: 00 hr 29 min 16 sec)
Heartbeat CPU 0 instructions: 219501009 cycles: 179780177 heartbeat IPC: 0.9095 cumulative IPC: 1.009 (Simulation time: 00 hr 29 min 20 sec)
Heartbeat CPU 0 instructions: 220001011 cycles: 180291330 heartbeat IPC: 0.9782 cumulative IPC: 1.009 (Simulation time: 00 hr 29 min 24 sec)
Heartbeat CPU 0 instructions: 220501013 cycles: 180760607 heartbeat IPC: 1.065 cumulative IPC: 1.01 (Simulation time: 00 hr 29 min 28 sec)
Heartbeat CPU 0 instructions: 221001020 cycles: 181218108 heartbeat IPC: 1.093 cumulative IPC: 1.01 (Simulation time: 00 hr 29 min 32 sec)
Heartbeat CPU 0 instructions: 221501021 cycles: 181600088 heartbeat IPC: 1.309 cumulative IPC: 1.01 (Simulation time: 00 hr 29 min 36 sec)
Heartbeat CPU 0 instructions: 222001022 cycles: 182276237 heartbeat IPC: 0.7395 cumulative IPC: 1.009 (Simulation time: 00 hr 29 min 41 sec)
Heartbeat CPU 0 instructions: 222501024 cycles: 182825802 heartbeat IPC: 0.9098 cumulative IPC: 1.009 (Simulation time: 00 hr 29 min 45 sec)
Heartbeat CPU 0 instructions: 223001025 cycles: 183325827 heartbeat IPC: 1 cumulative IPC: 1.009 (Simulation time: 00 hr 29 min 49 sec)
Heartbeat CPU 0 instructions: 223501027 cycles: 183746823 heartbeat IPC: 1.188 cumulative IPC: 1.009 (Simulation time: 00 hr 29 min 53 sec)
Heartbeat CPU 0 instructions: 224001027 cycles: 184100719 heartbeat IPC: 1.413 cumulative IPC: 1.01 (Simulation time: 00 hr 29 min 57 sec)
Heartbeat CPU 0 instructions: 224501027 cycles: 184744911 heartbeat IPC: 0.7762 cumulative IPC: 1.009 (Simulation time: 00 hr 30 min 02 sec)
Heartbeat CPU 0 instructions: 225001029 cycles: 185260266 heartbeat IPC: 0.9702 cumulative IPC: 1.009 (Simulation time: 00 hr 30 min 06 sec)
Heartbeat CPU 0 instructions: 225501031 cycles: 185705392 heartbeat IPC: 1.123 cumulative IPC: 1.01 (Simulation time: 00 hr 30 min 10 sec)
Heartbeat CPU 0 instructions: 226001034 cycles: 186085948 heartbeat IPC: 1.314 cumulative IPC: 1.01 (Simulation time: 00 hr 30 min 14 sec)
Heartbeat CPU 0 instructions: 226501036 cycles: 186590396 heartbeat IPC: 0.9912 cumulative IPC: 1.01 (Simulation time: 00 hr 30 min 18 sec)
Heartbeat CPU 0 instructions: 227001041 cycles: 187094108 heartbeat IPC: 0.9926 cumulative IPC: 1.01 (Simulation time: 00 hr 30 min 23 sec)
Heartbeat CPU 0 instructions: 227501043 cycles: 187521602 heartbeat IPC: 1.17 cumulative IPC: 1.011 (Simulation time: 00 hr 30 min 27 sec)
Heartbeat CPU 0 instructions: 228001045 cycles: 187894523 heartbeat IPC: 1.341 cumulative IPC: 1.011 (Simulation time: 00 hr 30 min 31 sec)
Heartbeat CPU 0 instructions: 228501047 cycles: 188594310 heartbeat IPC: 0.7145 cumulative IPC: 1.01 (Simulation time: 00 hr 30 min 36 sec)
Heartbeat CPU 0 instructions: 229001049 cycles: 189131454 heartbeat IPC: 0.9309 cumulative IPC: 1.01 (Simulation time: 00 hr 30 min 39 sec)
Heartbeat CPU 0 instructions: 229501050 cycles: 189644470 heartbeat IPC: 0.9746 cumulative IPC: 1.01 (Simulation time: 00 hr 30 min 43 sec)
Heartbeat CPU 0 instructions: 230001052 cycles: 190169193 heartbeat IPC: 0.9529 cumulative IPC: 1.01 (Simulation time: 00 hr 30 min 48 sec)
Heartbeat CPU 0 instructions: 230501058 cycles: 190599740 heartbeat IPC: 1.161 cumulative IPC: 1.01 (Simulation time: 00 hr 30 min 51 sec)
Heartbeat CPU 0 instructions: 231001059 cycles: 191122811 heartbeat IPC: 0.9559 cumulative IPC: 1.01 (Simulation time: 00 hr 30 min 56 sec)
Heartbeat CPU 0 instructions: 231501060 cycles: 191705050 heartbeat IPC: 0.8588 cumulative IPC: 1.009 (Simulation time: 00 hr 31 min 00 sec)
Heartbeat CPU 0 instructions: 232001061 cycles: 192182247 heartbeat IPC: 1.048 cumulative IPC: 1.009 (Simulation time: 00 hr 31 min 05 sec)
Heartbeat CPU 0 instructions: 232501061 cycles: 192603981 heartbeat IPC: 1.186 cumulative IPC: 1.01 (Simulation time: 00 hr 31 min 09 sec)
Heartbeat CPU 0 instructions: 233001061 cycles: 192960635 heartbeat IPC: 1.402 cumulative IPC: 1.011 (Simulation time: 00 hr 31 min 12 sec)
Heartbeat CPU 0 instructions: 233501062 cycles: 193418032 heartbeat IPC: 1.093 cumulative IPC: 1.011 (Simulation time: 00 hr 31 min 16 sec)
Heartbeat CPU 0 instructions: 234001062 cycles: 193816803 heartbeat IPC: 1.254 cumulative IPC: 1.011 (Simulation time: 00 hr 31 min 20 sec)
Heartbeat CPU 0 instructions: 234501066 cycles: 194188592 heartbeat IPC: 1.345 cumulative IPC: 1.012 (Simulation time: 00 hr 31 min 24 sec)
Heartbeat CPU 0 instructions: 235001066 cycles: 194690280 heartbeat IPC: 0.9966 cumulative IPC: 1.012 (Simulation time: 00 hr 31 min 28 sec)
Heartbeat CPU 0 instructions: 235501069 cycles: 195253704 heartbeat IPC: 0.8874 cumulative IPC: 1.012 (Simulation time: 00 hr 31 min 33 sec)
Heartbeat CPU 0 instructions: 236001071 cycles: 195667083 heartbeat IPC: 1.21 cumulative IPC: 1.012 (Simulation time: 00 hr 31 min 37 sec)
Heartbeat CPU 0 instructions: 236501076 cycles: 196016153 heartbeat IPC: 1.432 cumulative IPC: 1.013 (Simulation time: 00 hr 31 min 40 sec)
Heartbeat CPU 0 instructions: 237001076 cycles: 196685453 heartbeat IPC: 0.747 cumulative IPC: 1.012 (Simulation time: 00 hr 31 min 46 sec)
Heartbeat CPU 0 instructions: 237501078 cycles: 197209349 heartbeat IPC: 0.9544 cumulative IPC: 1.012 (Simulation time: 00 hr 31 min 50 sec)
Heartbeat CPU 0 instructions: 238001080 cycles: 197664090 heartbeat IPC: 1.1 cumulative IPC: 1.012 (Simulation time: 00 hr 31 min 54 sec)
Heartbeat CPU 0 instructions: 238501082 cycles: 198013022 heartbeat IPC: 1.433 cumulative IPC: 1.013 (Simulation time: 00 hr 31 min 58 sec)
Heartbeat CPU 0 instructions: 239001086 cycles: 198578099 heartbeat IPC: 0.8848 cumulative IPC: 1.012 (Simulation time: 00 hr 32 min 03 sec)
Heartbeat CPU 0 instructions: 239501086 cycles: 199018381 heartbeat IPC: 1.136 cumulative IPC: 1.013 (Simulation time: 00 hr 32 min 07 sec)
Heartbeat CPU 0 instructions: 240001088 cycles: 199374268 heartbeat IPC: 1.405 cumulative IPC: 1.013 (Simulation time: 00 hr 32 min 10 sec)
Heartbeat CPU 0 instructions: 240501093 cycles: 199810283 heartbeat IPC: 1.147 cumulative IPC: 1.014 (Simulation time: 00 hr 32 min 15 sec)
Heartbeat CPU 0 instructions: 241001095 cycles: 200240423 heartbeat IPC: 1.162 cumulative IPC: 1.014 (Simulation time: 00 hr 32 min 19 sec)
Heartbeat CPU 0 instructions: 241501098 cycles: 200627962 heartbeat IPC: 1.29 cumulative IPC: 1.015 (Simulation time: 00 hr 32 min 22 sec)
Heartbeat CPU 0 instructions: 242001101 cycles: 201073654 heartbeat IPC: 1.122 cumulative IPC: 1.015 (Simulation time: 00 hr 32 min 27 sec)
Heartbeat CPU 0 instructions: 242501104 cycles: 201539541 heartbeat IPC: 1.073 cumulative IPC: 1.015 (Simulation time: 00 hr 32 min 31 sec)
Heartbeat CPU 0 instructions: 243001105 cycles: 201936848 heartbeat IPC: 1.258 cumulative IPC: 1.015 (Simulation time: 00 hr 32 min 35 sec)
Heartbeat CPU 0 instructions: 243501109 cycles: 202385567 heartbeat IPC: 1.114 cumulative IPC: 1.016 (Simulation time: 00 hr 32 min 39 sec)
Heartbeat CPU 0 instructions: 244001111 cycles: 202900918 heartbeat IPC: 0.9702 cumulative IPC: 1.016 (Simulation time: 00 hr 32 min 44 sec)
Heartbeat CPU 0 instructions: 244501111 cycles: 203299063 heartbeat IPC: 1.256 cumulative IPC: 1.016 (Simulation time: 00 hr 32 min 47 sec)
Heartbeat CPU 0 instructions: 245001112 cycles: 203635216 heartbeat IPC: 1.487 cumulative IPC: 1.017 (Simulation time: 00 hr 32 min 50 sec)
Heartbeat CPU 0 instructions: 245501114 cycles: 204327771 heartbeat IPC: 0.722 cumulative IPC: 1.016 (Simulation time: 00 hr 32 min 56 sec)
Heartbeat CPU 0 instructions: 246001116 cycles: 204892910 heartbeat IPC: 0.8847 cumulative IPC: 1.015 (Simulation time: 00 hr 33 min 00 sec)
Heartbeat CPU 0 instructions: 246501118 cycles: 205354972 heartbeat IPC: 1.082 cumulative IPC: 1.016 (Simulation time: 00 hr 33 min 04 sec)
Heartbeat CPU 0 instructions: 247001118 cycles: 205793949 heartbeat IPC: 1.139 cumulative IPC: 1.016 (Simulation time: 00 hr 33 min 07 sec)
Heartbeat CPU 0 instructions: 247501119 cycles: 206160715 heartbeat IPC: 1.363 cumulative IPC: 1.017 (Simulation time: 00 hr 33 min 11 sec)
Heartbeat CPU 0 instructions: 248001121 cycles: 206484342 heartbeat IPC: 1.545 cumulative IPC: 1.017 (Simulation time: 00 hr 33 min 14 sec)
Heartbeat CPU 0 instructions: 248501123 cycles: 206980970 heartbeat IPC: 1.007 cumulative IPC: 1.017 (Simulation time: 00 hr 33 min 19 sec)
Heartbeat CPU 0 instructions: 249001125 cycles: 207425647 heartbeat IPC: 1.124 cumulative IPC: 1.018 (Simulation time: 00 hr 33 min 23 sec)
Heartbeat CPU 0 instructions: 249501126 cycles: 207822829 heartbeat IPC: 1.259 cumulative IPC: 1.018 (Simulation time: 00 hr 33 min 27 sec)
Simulation finished CPU 0 instructions: 200000003 cycles: 196522839 cumulative IPC: 1.018 (Simulation time: 00 hr 33 min 32 sec)
Simulation complete CPU 0 instructions: 200000003 cycles: 196522839 cumulative IPC: 1.018 (Simulation time: 00 hr 33 min 32 sec)

ChampSim completed all CPUs

=== Simulation ===
CPU 0 runs /local-ssd/ben/dpc4-traces/Graph/GMS/gms.k_clique_list_danisch_edge_parallel.soc-pokec-relationships.slice-367.champsimtrace.gz

Region of Interest Statistics

CPU 0 cumulative IPC: 1.018 instructions: 200000003 cycles: 196522839
CPU 0 Branch Prediction Accuracy: 93.96% MPKI: 9.511 Average ROB Occupancy at Mispredict: 31.16
Branch type MPKI
BRANCH_DIRECT_JUMP: 0.5053
BRANCH_INDIRECT: 0
BRANCH_CONDITIONAL: 9.005
BRANCH_DIRECT_CALL: 0
BRANCH_INDIRECT_CALL: 0
BRANCH_RETURN: 0

cpu0->cpu0_STLB TOTAL        ACCESS:   13850930 HIT:   13367915 MISS:     483015 MSHR_MERGE:          0
cpu0->cpu0_STLB LOAD         ACCESS:   13850930 HIT:   13367915 MISS:     483015 MSHR_MERGE:          0
cpu0->cpu0_STLB RFO          ACCESS:          0 HIT:          0 MISS:          0 MSHR_MERGE:          0
cpu0->cpu0_STLB PREFETCH     ACCESS:          0 HIT:          0 MISS:          0 MSHR_MERGE:          0
cpu0->cpu0_STLB WRITE        ACCESS:          0 HIT:          0 MISS:          0 MSHR_MERGE:          0
cpu0->cpu0_STLB TRANSLATION  ACCESS:          0 HIT:          0 MISS:          0 MSHR_MERGE:          0
cpu0->cpu0_STLB PREFETCH REQUESTED:          0 ISSUED:          0 USEFUL:          0 USELESS:          0
cpu0->cpu0_STLB AVERAGE MISS LATENCY: 67.8 cycles
cpu0->cpu0_L2C TOTAL        ACCESS:   19777119 HIT:   16061536 MISS:    3715583 MSHR_MERGE:     135687
cpu0->cpu0_L2C LOAD         ACCESS:    4089201 HIT:    3074307 MISS:    1014894 MSHR_MERGE:      20062
cpu0->cpu0_L2C RFO          ACCESS:    2586472 HIT:    2566093 MISS:      20379 MSHR_MERGE:          0
cpu0->cpu0_L2C PREFETCH     ACCESS:    9914323 HIT:    7274593 MISS:    2639730 MSHR_MERGE:     115625
cpu0->cpu0_L2C WRITE        ACCESS:    2784836 HIT:    2784751 MISS:         85 MSHR_MERGE:          0
cpu0->cpu0_L2C TRANSLATION  ACCESS:     402287 HIT:     361792 MISS:      40495 MSHR_MERGE:          0
cpu0->cpu0_L2C PREFETCH REQUESTED:    8706793 ISSUED:    6811432 USEFUL:     387452 USELESS:    1364853
cpu0->cpu0_L2C AVERAGE MISS LATENCY: 213.6 cycles
cpu0->cpu0_L1I TOTAL        ACCESS:   19599898 HIT:   19599898 MISS:          0 MSHR_MERGE:          0
cpu0->cpu0_L1I LOAD         ACCESS:   19599898 HIT:   19599898 MISS:          0 MSHR_MERGE:          0
cpu0->cpu0_L1I RFO          ACCESS:          0 HIT:          0 MISS:          0 MSHR_MERGE:          0
cpu0->cpu0_L1I PREFETCH     ACCESS:          0 HIT:          0 MISS:          0 MSHR_MERGE:          0
cpu0->cpu0_L1I WRITE        ACCESS:          0 HIT:          0 MISS:          0 MSHR_MERGE:          0
cpu0->cpu0_L1I TRANSLATION  ACCESS:          0 HIT:          0 MISS:          0 MSHR_MERGE:          0
cpu0->cpu0_L1I PREFETCH REQUESTED:          0 ISSUED:          0 USEFUL:          0 USELESS:          0
cpu0->cpu0_L1I AVERAGE MISS LATENCY: - cycles
cpu0->cpu0_L1D TOTAL        ACCESS:  105073662 HIT:   92389209 MISS:   12684453 MSHR_MERGE:    2501886
cpu0->cpu0_L1D LOAD         ACCESS:   38675645 HIT:   33498018 MISS:    5177627 MSHR_MERGE:    1088379
cpu0->cpu0_L1D RFO          ACCESS:          0 HIT:          0 MISS:          0 MSHR_MERGE:          0
cpu0->cpu0_L1D PREFETCH     ACCESS:   34204346 HIT:   29914207 MISS:    4290139 MSHR_MERGE:    1187229
cpu0->cpu0_L1D WRITE        ACCESS:   31240487 HIT:   28438649 MISS:    2801838 MSHR_MERGE:     213716
cpu0->cpu0_L1D TRANSLATION  ACCESS:     953184 HIT:     538335 MISS:     414849 MSHR_MERGE:      12562
cpu0->cpu0_L1D PREFETCH REQUESTED:   45839637 ISSUED:   34204338 USEFUL:      97161 USELESS:    3005491
cpu0->cpu0_L1D AVERAGE MISS LATENCY: 41.4 cycles
cpu0->cpu0_ITLB TOTAL        ACCESS:   19551259 HIT:   19551259 MISS:          0 MSHR_MERGE:          0
cpu0->cpu0_ITLB LOAD         ACCESS:   19551259 HIT:   19551259 MISS:          0 MSHR_MERGE:          0
cpu0->cpu0_ITLB RFO          ACCESS:          0 HIT:          0 MISS:          0 MSHR_MERGE:          0
cpu0->cpu0_ITLB PREFETCH     ACCESS:          0 HIT:          0 MISS:          0 MSHR_MERGE:          0
cpu0->cpu0_ITLB WRITE        ACCESS:          0 HIT:          0 MISS:          0 MSHR_MERGE:          0
cpu0->cpu0_ITLB TRANSLATION  ACCESS:          0 HIT:          0 MISS:          0 MSHR_MERGE:          0
cpu0->cpu0_ITLB PREFETCH REQUESTED:          0 ISSUED:          0 USEFUL:          0 USELESS:          0
cpu0->cpu0_ITLB AVERAGE MISS LATENCY: - cycles
cpu0->cpu0_DTLB TOTAL        ACCESS:   98239795 HIT:   80781536 MISS:   17458259 MSHR_MERGE:    3607330
cpu0->cpu0_DTLB LOAD         ACCESS:   98239795 HIT:   80781536 MISS:   17458259 MSHR_MERGE:    3607330
cpu0->cpu0_DTLB RFO          ACCESS:          0 HIT:          0 MISS:          0 MSHR_MERGE:          0
cpu0->cpu0_DTLB PREFETCH     ACCESS:          0 HIT:          0 MISS:          0 MSHR_MERGE:          0
cpu0->cpu0_DTLB WRITE        ACCESS:          0 HIT:          0 MISS:          0 MSHR_MERGE:          0
cpu0->cpu0_DTLB TRANSLATION  ACCESS:          0 HIT:          0 MISS:          0 MSHR_MERGE:          0
cpu0->cpu0_DTLB PREFETCH REQUESTED:          0 ISSUED:          0 USEFUL:          0 USELESS:          0
cpu0->cpu0_DTLB AVERAGE MISS LATENCY: 7.416 cycles
cpu0->LLC TOTAL        ACCESS:    6362258 HIT:    2457952 MISS:    3904306 MSHR_MERGE:     826109
cpu0->LLC LOAD         ACCESS:     994832 HIT:     388951 MISS:     605881 MSHR_MERGE:        216
cpu0->LLC RFO          ACCESS:      20379 HIT:      11414 MISS:       8965 MSHR_MERGE:          0
cpu0->LLC PREFETCH     ACCESS:    5266343 HIT:    2032681 MISS:    3233662 MSHR_MERGE:     825893
cpu0->LLC WRITE        ACCESS:      40209 HIT:      23591 MISS:      16618 MSHR_MERGE:          0
cpu0->LLC TRANSLATION  ACCESS:      40495 HIT:       1315 MISS:      39180 MSHR_MERGE:          0
cpu0->LLC PREFETCH REQUESTED:    2747313 ISSUED:    2742238 USEFUL:     126147 USELESS:     998593
cpu0->LLC AVERAGE MISS LATENCY: 300.7 cycles

DRAM Statistics

Channel 0 RQ ROW_BUFFER_HIT:       6428
  ROW_BUFFER_MISS:    3055124
  AVG DBUS CONGESTED CYCLE: 5.138
Channel 0 WQ ROW_BUFFER_HIT:       4403
  ROW_BUFFER_MISS:      19644
  FULL:          0
Channel 0 REFRESHES ISSUED:      16376
