[VMEM] WARNING: physical memory size is smaller than virtual memory size.

*** ChampSim Multicore Out-of-Order Simulator ***
Warmup Instructions: 50000000
Simulation Instructions: 200000000
Number of CPUs: 1
Page size: 4096
Core 0: /local-ssd/ben/dpc4-traces/Graph/GAP/bc-12.trace.gz
Off-chip DRAM Size: 64 GiB Channels: 1 Width: 64-bit Data Rate: 4807 MT/s
Heartbeat CPU 0 instructions: 500001 cycles: 508445 heartbeat IPC: 0.9834 cumulative IPC: 0.9834 (Simulation time: 00 hr 00 min 04 sec)
Heartbeat CPU 0 instructions: 1000001 cycles: 1014654 heartbeat IPC: 0.9877 cumulative IPC: 0.9856 (Simulation time: 00 hr 00 min 08 sec)
Heartbeat CPU 0 instructions: 1500001 cycles: 1520637 heartbeat IPC: 0.9882 cumulative IPC: 0.9864 (Simulation time: 00 hr 00 min 11 sec)
Heartbeat CPU 0 instructions: 2000006 cycles: 1873759 heartbeat IPC: 1.416 cumulative IPC: 1.067 (Simulation time: 00 hr 00 min 15 sec)
Heartbeat CPU 0 instructions: 2500012 cycles: 1985762 heartbeat IPC: 4.464 cumulative IPC: 1.259 (Simulation time: 00 hr 00 min 17 sec)
Heartbeat CPU 0 instructions: 3000013 cycles: 2088967 heartbeat IPC: 4.845 cumulative IPC: 1.436 (Simulation time: 00 hr 00 min 19 sec)
Heartbeat CPU 0 instructions: 3500018 cycles: 2203533 heartbeat IPC: 4.364 cumulative IPC: 1.588 (Simulation time: 00 hr 00 min 21 sec)
Heartbeat CPU 0 instructions: 4000019 cycles: 2307560 heartbeat IPC: 4.806 cumulative IPC: 1.733 (Simulation time: 00 hr 00 min 23 sec)
Heartbeat CPU 0 instructions: 4500020 cycles: 2422000 heartbeat IPC: 4.369 cumulative IPC: 1.858 (Simulation time: 00 hr 00 min 25 sec)
Heartbeat CPU 0 instructions: 5000024 cycles: 2525972 heartbeat IPC: 4.809 cumulative IPC: 1.979 (Simulation time: 00 hr 00 min 27 sec)
Heartbeat CPU 0 instructions: 5500025 cycles: 2638626 heartbeat IPC: 4.438 cumulative IPC: 2.084 (Simulation time: 00 hr 00 min 30 sec)
Heartbeat CPU 0 instructions: 6000030 cycles: 2746435 heartbeat IPC: 4.638 cumulative IPC: 2.185 (Simulation time: 00 hr 00 min 32 sec)
Heartbeat CPU 0 instructions: 6500031 cycles: 2860529 heartbeat IPC: 4.382 cumulative IPC: 2.272 (Simulation time: 00 hr 00 min 34 sec)
Heartbeat CPU 0 instructions: 7000034 cycles: 2967698 heartbeat IPC: 4.666 cumulative IPC: 2.359 (Simulation time: 00 hr 00 min 36 sec)
Heartbeat CPU 0 instructions: 7500034 cycles: 3074099 heartbeat IPC: 4.699 cumulative IPC: 2.44 (Simulation time: 00 hr 00 min 39 sec)
Heartbeat CPU 0 instructions: 8000040 cycles: 3187482 heartbeat IPC: 4.41 cumulative IPC: 2.51 (Simulation time: 00 hr 00 min 41 sec)
Heartbeat CPU 0 instructions: 8500045 cycles: 3293925 heartbeat IPC: 4.697 cumulative IPC: 2.581 (Simulation time: 00 hr 00 min 43 sec)
Heartbeat CPU 0 instructions: 9000046 cycles: 3401642 heartbeat IPC: 4.642 cumulative IPC: 2.646 (Simulation time: 00 hr 00 min 45 sec)
Heartbeat CPU 0 instructions: 9500051 cycles: 3514626 heartbeat IPC: 4.425 cumulative IPC: 2.703 (Simulation time: 00 hr 00 min 48 sec)
Heartbeat CPU 0 instructions: 10000051 cycles: 3620033 heartbeat IPC: 4.744 cumulative IPC: 2.762 (Simulation time: 00 hr 00 min 50 sec)
Heartbeat CPU 0 instructions: 10500055 cycles: 3724730 heartbeat IPC: 4.776 cumulative IPC: 2.819 (Simulation time: 00 hr 00 min 52 sec)
Heartbeat CPU 0 instructions: 11000062 cycles: 3829995 heartbeat IPC: 4.75 cumulative IPC: 2.872 (Simulation time: 00 hr 00 min 54 sec)
Heartbeat CPU 0 instructions: 11500065 cycles: 3945461 heartbeat IPC: 4.33 cumulative IPC: 2.915 (Simulation time: 00 hr 00 min 57 sec)
Heartbeat CPU 0 instructions: 12000067 cycles: 4053204 heartbeat IPC: 4.641 cumulative IPC: 2.961 (Simulation time: 00 hr 00 min 59 sec)
Heartbeat CPU 0 instructions: 12500071 cycles: 4160819 heartbeat IPC: 4.646 cumulative IPC: 3.004 (Simulation time: 00 hr 01 min 01 sec)
Heartbeat CPU 0 instructions: 13000077 cycles: 4267054 heartbeat IPC: 4.707 cumulative IPC: 3.047 (Simulation time: 00 hr 01 min 04 sec)
Heartbeat CPU 0 instructions: 13500078 cycles: 4381924 heartbeat IPC: 4.353 cumulative IPC: 3.081 (Simulation time: 00 hr 01 min 06 sec)
Heartbeat CPU 0 instructions: 14000085 cycles: 4489761 heartbeat IPC: 4.637 cumulative IPC: 3.118 (Simulation time: 00 hr 01 min 09 sec)
Heartbeat CPU 0 instructions: 14500087 cycles: 4595843 heartbeat IPC: 4.713 cumulative IPC: 3.155 (Simulation time: 00 hr 01 min 11 sec)
Heartbeat CPU 0 instructions: 15000093 cycles: 4701956 heartbeat IPC: 4.712 cumulative IPC: 3.19 (Simulation time: 00 hr 01 min 13 sec)
Heartbeat CPU 0 instructions: 15500097 cycles: 4815737 heartbeat IPC: 4.394 cumulative IPC: 3.219 (Simulation time: 00 hr 01 min 15 sec)
Heartbeat CPU 0 instructions: 16000097 cycles: 4919960 heartbeat IPC: 4.797 cumulative IPC: 3.252 (Simulation time: 00 hr 01 min 18 sec)
Heartbeat CPU 0 instructions: 16500102 cycles: 5029571 heartbeat IPC: 4.562 cumulative IPC: 3.281 (Simulation time: 00 hr 01 min 20 sec)
Heartbeat CPU 0 instructions: 17000107 cycles: 5134468 heartbeat IPC: 4.767 cumulative IPC: 3.311 (Simulation time: 00 hr 01 min 22 sec)
Heartbeat CPU 0 instructions: 17500114 cycles: 5239208 heartbeat IPC: 4.774 cumulative IPC: 3.34 (Simulation time: 00 hr 01 min 24 sec)
Heartbeat CPU 0 instructions: 18000114 cycles: 5354434 heartbeat IPC: 4.339 cumulative IPC: 3.362 (Simulation time: 00 hr 01 min 27 sec)
Heartbeat CPU 0 instructions: 18500115 cycles: 5463399 heartbeat IPC: 4.589 cumulative IPC: 3.386 (Simulation time: 00 hr 01 min 29 sec)
Heartbeat CPU 0 instructions: 19000115 cycles: 5567228 heartbeat IPC: 4.816 cumulative IPC: 3.413 (Simulation time: 00 hr 01 min 31 sec)
Heartbeat CPU 0 instructions: 19500119 cycles: 5673776 heartbeat IPC: 4.693 cumulative IPC: 3.437 (Simulation time: 00 hr 01 min 34 sec)
Heartbeat CPU 0 instructions: 20000124 cycles: 5779888 heartbeat IPC: 4.712 cumulative IPC: 3.46 (Simulation time: 00 hr 01 min 36 sec)
Heartbeat CPU 0 instructions: 20500124 cycles: 5896214 heartbeat IPC: 4.298 cumulative IPC: 3.477 (Simulation time: 00 hr 01 min 39 sec)
Heartbeat CPU 0 instructions: 21000126 cycles: 6003960 heartbeat IPC: 4.641 cumulative IPC: 3.498 (Simulation time: 00 hr 01 min 41 sec)
Heartbeat CPU 0 instructions: 21500129 cycles: 6110429 heartbeat IPC: 4.696 cumulative IPC: 3.519 (Simulation time: 00 hr 01 min 43 sec)
Heartbeat CPU 0 instructions: 22000135 cycles: 6216177 heartbeat IPC: 4.728 cumulative IPC: 3.539 (Simulation time: 00 hr 01 min 46 sec)
Heartbeat CPU 0 instructions: 22500139 cycles: 6323109 heartbeat IPC: 4.676 cumulative IPC: 3.558 (Simulation time: 00 hr 01 min 48 sec)
Heartbeat CPU 0 instructions: 23000143 cycles: 6429888 heartbeat IPC: 4.683 cumulative IPC: 3.577 (Simulation time: 00 hr 01 min 50 sec)
Heartbeat CPU 0 instructions: 23500149 cycles: 6544078 heartbeat IPC: 4.379 cumulative IPC: 3.591 (Simulation time: 00 hr 01 min 53 sec)
Heartbeat CPU 0 instructions: 24000152 cycles: 6650658 heartbeat IPC: 4.691 cumulative IPC: 3.609 (Simulation time: 00 hr 01 min 55 sec)
Heartbeat CPU 0 instructions: 24500155 cycles: 6759002 heartbeat IPC: 4.615 cumulative IPC: 3.625 (Simulation time: 00 hr 01 min 58 sec)
Heartbeat CPU 0 instructions: 25000159 cycles: 6865102 heartbeat IPC: 4.713 cumulative IPC: 3.642 (Simulation time: 00 hr 02 min 00 sec)
Heartbeat CPU 0 instructions: 25500165 cycles: 6970633 heartbeat IPC: 4.738 cumulative IPC: 3.658 (Simulation time: 00 hr 02 min 02 sec)
Heartbeat CPU 0 instructions: 26000171 cycles: 7074906 heartbeat IPC: 4.795 cumulative IPC: 3.675 (Simulation time: 00 hr 02 min 04 sec)
Heartbeat CPU 0 instructions: 26500176 cycles: 7181146 heartbeat IPC: 4.706 cumulative IPC: 3.69 (Simulation time: 00 hr 02 min 07 sec)
Heartbeat CPU 0 instructions: 27000181 cycles: 7293903 heartbeat IPC: 4.434 cumulative IPC: 3.702 (Simulation time: 00 hr 02 min 09 sec)
Heartbeat CPU 0 instructions: 27500182 cycles: 7401813 heartbeat IPC: 4.634 cumulative IPC: 3.715 (Simulation time: 00 hr 02 min 12 sec)
Heartbeat CPU 0 instructions: 28000182 cycles: 7509317 heartbeat IPC: 4.651 cumulative IPC: 3.729 (Simulation time: 00 hr 02 min 14 sec)
Heartbeat CPU 0 instructions: 28500189 cycles: 7616110 heartbeat IPC: 4.682 cumulative IPC: 3.742 (Simulation time: 00 hr 02 min 16 sec)
Heartbeat CPU 0 instructions: 29000192 cycles: 7725871 heartbeat IPC: 4.555 cumulative IPC: 3.754 (Simulation time: 00 hr 02 min 19 sec)
Heartbeat CPU 0 instructions: 29500196 cycles: 7832878 heartbeat IPC: 4.673 cumulative IPC: 3.766 (Simulation time: 00 hr 02 min 21 sec)
Heartbeat CPU 0 instructions: 30000199 cycles: 7941287 heartbeat IPC: 4.612 cumulative IPC: 3.778 (Simulation time: 00 hr 02 min 24 sec)
Heartbeat CPU 0 instructions: 30500200 cycles: 8050045 heartbeat IPC: 4.597 cumulative IPC: 3.789 (Simulation time: 00 hr 02 min 26 sec)
Heartbeat CPU 0 instructions: 31000200 cycles: 8164972 heartbeat IPC: 4.351 cumulative IPC: 3.797 (Simulation time: 00 hr 02 min 29 sec)
Heartbeat CPU 0 instructions: 31500203 cycles: 8272448 heartbeat IPC: 4.652 cumulative IPC: 3.808 (Simulation time: 00 hr 02 min 31 sec)
Heartbeat CPU 0 instructions: 32000208 cycles: 8378471 heartbeat IPC: 4.716 cumulative IPC: 3.819 (Simulation time: 00 hr 02 min 33 sec)
Heartbeat CPU 0 instructions: 32500210 cycles: 8484806 heartbeat IPC: 4.702 cumulative IPC: 3.83 (Simulation time: 00 hr 02 min 36 sec)
Heartbeat CPU 0 instructions: 33000215 cycles: 8589390 heartbeat IPC: 4.781 cumulative IPC: 3.842 (Simulation time: 00 hr 02 min 38 sec)
Heartbeat CPU 0 instructions: 33500219 cycles: 8696810 heartbeat IPC: 4.655 cumulative IPC: 3.852 (Simulation time: 00 hr 02 min 40 sec)
Heartbeat CPU 0 instructions: 34000221 cycles: 8802297 heartbeat IPC: 4.74 cumulative IPC: 3.863 (Simulation time: 00 hr 02 min 43 sec)
Heartbeat CPU 0 instructions: 34500222 cycles: 8908788 heartbeat IPC: 4.695 cumulative IPC: 3.873 (Simulation time: 00 hr 02 min 45 sec)
Heartbeat CPU 0 instructions: 35000228 cycles: 9024384 heartbeat IPC: 4.325 cumulative IPC: 3.878 (Simulation time: 00 hr 02 min 48 sec)
Heartbeat CPU 0 instructions: 35500230 cycles: 9130438 heartbeat IPC: 4.715 cumulative IPC: 3.888 (Simulation time: 00 hr 02 min 50 sec)
Heartbeat CPU 0 instructions: 36000235 cycles: 9237682 heartbeat IPC: 4.662 cumulative IPC: 3.897 (Simulation time: 00 hr 02 min 52 sec)
Heartbeat CPU 0 instructions: 36500236 cycles: 9344838 heartbeat IPC: 4.666 cumulative IPC: 3.906 (Simulation time: 00 hr 02 min 55 sec)
Heartbeat CPU 0 instructions: 37000239 cycles: 9451932 heartbeat IPC: 4.669 cumulative IPC: 3.915 (Simulation time: 00 hr 02 min 57 sec)
Heartbeat CPU 0 instructions: 37500239 cycles: 9560345 heartbeat IPC: 4.612 cumulative IPC: 3.922 (Simulation time: 00 hr 03 min 00 sec)
Heartbeat CPU 0 instructions: 38000241 cycles: 9665962 heartbeat IPC: 4.734 cumulative IPC: 3.931 (Simulation time: 00 hr 03 min 02 sec)
Heartbeat CPU 0 instructions: 38500245 cycles: 9771551 heartbeat IPC: 4.735 cumulative IPC: 3.94 (Simulation time: 00 hr 03 min 04 sec)
Heartbeat CPU 0 instructions: 39000250 cycles: 9877309 heartbeat IPC: 4.728 cumulative IPC: 3.948 (Simulation time: 00 hr 03 min 07 sec)
Heartbeat CPU 0 instructions: 39500251 cycles: 9992433 heartbeat IPC: 4.343 cumulative IPC: 3.953 (Simulation time: 00 hr 03 min 09 sec)
Heartbeat CPU 0 instructions: 40000252 cycles: 10098032 heartbeat IPC: 4.735 cumulative IPC: 3.961 (Simulation time: 00 hr 03 min 11 sec)
Heartbeat CPU 0 instructions: 40500259 cycles: 10201354 heartbeat IPC: 4.839 cumulative IPC: 3.97 (Simulation time: 00 hr 03 min 14 sec)
Heartbeat CPU 0 instructions: 41000260 cycles: 10307346 heartbeat IPC: 4.717 cumulative IPC: 3.978 (Simulation time: 00 hr 03 min 16 sec)
Heartbeat CPU 0 instructions: 41500260 cycles: 10413366 heartbeat IPC: 4.716 cumulative IPC: 3.985 (Simulation time: 00 hr 03 min 18 sec)
Heartbeat CPU 0 instructions: 42000267 cycles: 10517940 heartbeat IPC: 4.781 cumulative IPC: 3.993 (Simulation time: 00 hr 03 min 20 sec)
Heartbeat CPU 0 instructions: 42500269 cycles: 10625595 heartbeat IPC: 4.644 cumulative IPC: 4 (Simulation time: 00 hr 03 min 23 sec)
Heartbeat CPU 0 instructions: 43000273 cycles: 10730583 heartbeat IPC: 4.762 cumulative IPC: 4.007 (Simulation time: 00 hr 03 min 25 sec)
Heartbeat CPU 0 instructions: 43500277 cycles: 10838298 heartbeat IPC: 4.642 cumulative IPC: 4.014 (Simulation time: 00 hr 03 min 28 sec)
Heartbeat CPU 0 instructions: 44000279 cycles: 10952345 heartbeat IPC: 4.384 cumulative IPC: 4.017 (Simulation time: 00 hr 03 min 30 sec)
Heartbeat CPU 0 instructions: 44500284 cycles: 11059121 heartbeat IPC: 4.683 cumulative IPC: 4.024 (Simulation time: 00 hr 03 min 32 sec)
Heartbeat CPU 0 instructions: 45000288 cycles: 11166042 heartbeat IPC: 4.676 cumulative IPC: 4.03 (Simulation time: 00 hr 03 min 35 sec)
Heartbeat CPU 0 instructions: 45500290 cycles: 11274815 heartbeat IPC: 4.597 cumulative IPC: 4.036 (Simulation time: 00 hr 03 min 37 sec)
Heartbeat CPU 0 instructions: 46000291 cycles: 11380784 heartbeat IPC: 4.718 cumulative IPC: 4.042 (Simulation time: 00 hr 03 min 40 sec)
Heartbeat CPU 0 instructions: 46500291 cycles: 11488980 heartbeat IPC: 4.621 cumulative IPC: 4.047 (Simulation time: 00 hr 03 min 42 sec)
Heartbeat CPU 0 instructions: 47000291 cycles: 11593306 heartbeat IPC: 4.793 cumulative IPC: 4.054 (Simulation time: 00 hr 03 min 44 sec)
Heartbeat CPU 0 instructions: 47500296 cycles: 11698914 heartbeat IPC: 4.735 cumulative IPC: 4.06 (Simulation time: 00 hr 03 min 47 sec)
Heartbeat CPU 0 instructions: 48000299 cycles: 11804586 heartbeat IPC: 4.732 cumulative IPC: 4.066 (Simulation time: 00 hr 03 min 49 sec)
Heartbeat CPU 0 instructions: 48500304 cycles: 11910918 heartbeat IPC: 4.702 cumulative IPC: 4.072 (Simulation time: 00 hr 03 min 51 sec)
Heartbeat CPU 0 instructions: 49000308 cycles: 12015667 heartbeat IPC: 4.773 cumulative IPC: 4.078 (Simulation time: 00 hr 03 min 54 sec)
Heartbeat CPU 0 instructions: 49500312 cycles: 12130463 heartbeat IPC: 4.356 cumulative IPC: 4.081 (Simulation time: 00 hr 03 min 56 sec)
Warmup halting CPU 0 at instruction 50000006 cycle 12236204 for remainder of phase
Warmup finished CPU 0 instructions: 50000006 cycles: 12236204 cumulative IPC: 4.086 (Simulation time: 00 hr 03 min 58 sec)
Warmup complete CPU 0 instructions: 50000006 cycles: 12236204 cumulative IPC: 4.086 (Simulation time: 00 hr 03 min 58 sec)
Heartbeat CPU 0 instructions: 50000318 cycles: 12236633 heartbeat IPC: 4.709 cumulative IPC: 0.7273 (Simulation time: 00 hr 03 min 58 sec)
Heartbeat CPU 0 instructions: 50500320 cycles: 15075449 heartbeat IPC: 0.1761 cumulative IPC: 0.1762 (Simulation time: 00 hr 04 min 20 sec)
Heartbeat CPU 0 instructions: 51000320 cycles: 17121139 heartbeat IPC: 0.2444 cumulative IPC: 0.2048 (Simulation time: 00 hr 04 min 36 sec)
Heartbeat CPU 0 instructions: 51500320 cycles: 19564469 heartbeat IPC: 0.2046 cumulative IPC: 0.2047 (Simulation time: 00 hr 04 min 56 sec)
Heartbeat CPU 0 instructions: 52000322 cycles: 22314283 heartbeat IPC: 0.1818 cumulative IPC: 0.1985 (Simulation time: 00 hr 05 min 16 sec)
Heartbeat CPU 0 instructions: 52500327 cycles: 24426698 heartbeat IPC: 0.2367 cumulative IPC: 0.2051 (Simulation time: 00 hr 05 min 33 sec)
Heartbeat CPU 0 instructions: 53000327 cycles: 26740382 heartbeat IPC: 0.2161 cumulative IPC: 0.2069 (Simulation time: 00 hr 05 min 52 sec)
Heartbeat CPU 0 instructions: 53500328 cycles: 29532639 heartbeat IPC: 0.1791 cumulative IPC: 0.2024 (Simulation time: 00 hr 06 min 12 sec)
Heartbeat CPU 0 instructions: 54000328 cycles: 32324003 heartbeat IPC: 0.1791 cumulative IPC: 0.1991 (Simulation time: 00 hr 06 min 32 sec)
Heartbeat CPU 0 instructions: 54500333 cycles: 35016173 heartbeat IPC: 0.1857 cumulative IPC: 0.1976 (Simulation time: 00 hr 06 min 52 sec)
Heartbeat CPU 0 instructions: 55000337 cycles: 37786137 heartbeat IPC: 0.1805 cumulative IPC: 0.1957 (Simulation time: 00 hr 07 min 12 sec)
Heartbeat CPU 0 instructions: 55500339 cycles: 40417338 heartbeat IPC: 0.19 cumulative IPC: 0.1952 (Simulation time: 00 hr 07 min 32 sec)
Heartbeat CPU 0 instructions: 56000341 cycles: 43184988 heartbeat IPC: 0.1807 cumulative IPC: 0.1939 (Simulation time: 00 hr 07 min 52 sec)
Heartbeat CPU 0 instructions: 56500341 cycles: 45912276 heartbeat IPC: 0.1833 cumulative IPC: 0.193 (Simulation time: 00 hr 08 min 12 sec)
Heartbeat CPU 0 instructions: 57000341 cycles: 48566946 heartbeat IPC: 0.1883 cumulative IPC: 0.1927 (Simulation time: 00 hr 08 min 32 sec)
Heartbeat CPU 0 instructions: 57500347 cycles: 51072777 heartbeat IPC: 0.1995 cumulative IPC: 0.1931 (Simulation time: 00 hr 08 min 50 sec)
Heartbeat CPU 0 instructions: 58000348 cycles: 52935292 heartbeat IPC: 0.2685 cumulative IPC: 0.1966 (Simulation time: 00 hr 09 min 07 sec)
Heartbeat CPU 0 instructions: 58500350 cycles: 55633228 heartbeat IPC: 0.1853 cumulative IPC: 0.1959 (Simulation time: 00 hr 09 min 26 sec)
Heartbeat CPU 0 instructions: 59000357 cycles: 58394861 heartbeat IPC: 0.1811 cumulative IPC: 0.195 (Simulation time: 00 hr 09 min 46 sec)
Heartbeat CPU 0 instructions: 59500357 cycles: 61167799 heartbeat IPC: 0.1803 cumulative IPC: 0.1942 (Simulation time: 00 hr 10 min 06 sec)
Heartbeat CPU 0 instructions: 60000358 cycles: 63914723 heartbeat IPC: 0.182 cumulative IPC: 0.1935 (Simulation time: 00 hr 10 min 26 sec)
Heartbeat CPU 0 instructions: 60500361 cycles: 66636839 heartbeat IPC: 0.1837 cumulative IPC: 0.193 (Simulation time: 00 hr 10 min 46 sec)
Heartbeat CPU 0 instructions: 61000363 cycles: 69367291 heartbeat IPC: 0.1831 cumulative IPC: 0.1925 (Simulation time: 00 hr 11 min 06 sec)
Heartbeat CPU 0 instructions: 61500363 cycles: 72071717 heartbeat IPC: 0.1849 cumulative IPC: 0.1922 (Simulation time: 00 hr 11 min 26 sec)
Heartbeat CPU 0 instructions: 62000364 cycles: 74768303 heartbeat IPC: 0.1854 cumulative IPC: 0.1919 (Simulation time: 00 hr 11 min 45 sec)
Heartbeat CPU 0 instructions: 62500371 cycles: 77491205 heartbeat IPC: 0.1836 cumulative IPC: 0.1916 (Simulation time: 00 hr 12 min 06 sec)
Heartbeat CPU 0 instructions: 63000377 cycles: 80202508 heartbeat IPC: 0.1844 cumulative IPC: 0.1913 (Simulation time: 00 hr 12 min 25 sec)
Heartbeat CPU 0 instructions: 63500378 cycles: 82929377 heartbeat IPC: 0.1834 cumulative IPC: 0.191 (Simulation time: 00 hr 12 min 45 sec)
Heartbeat CPU 0 instructions: 64000380 cycles: 85586637 heartbeat IPC: 0.1882 cumulative IPC: 0.1909 (Simulation time: 00 hr 13 min 05 sec)
Heartbeat CPU 0 instructions: 64500382 cycles: 88291578 heartbeat IPC: 0.1848 cumulative IPC: 0.1907 (Simulation time: 00 hr 13 min 25 sec)
Heartbeat CPU 0 instructions: 65000382 cycles: 90891489 heartbeat IPC: 0.1923 cumulative IPC: 0.1907 (Simulation time: 00 hr 13 min 44 sec)
Heartbeat CPU 0 instructions: 65500382 cycles: 93520233 heartbeat IPC: 0.1902 cumulative IPC: 0.1907 (Simulation time: 00 hr 14 min 04 sec)
Heartbeat CPU 0 instructions: 66000383 cycles: 96195375 heartbeat IPC: 0.1869 cumulative IPC: 0.1906 (Simulation time: 00 hr 14 min 23 sec)
Heartbeat CPU 0 instructions: 66500383 cycles: 98885646 heartbeat IPC: 0.1859 cumulative IPC: 0.1904 (Simulation time: 00 hr 14 min 43 sec)
Heartbeat CPU 0 instructions: 67000388 cycles: 101578890 heartbeat IPC: 0.1857 cumulative IPC: 0.1903 (Simulation time: 00 hr 15 min 03 sec)
Heartbeat CPU 0 instructions: 67500394 cycles: 104252429 heartbeat IPC: 0.187 cumulative IPC: 0.1902 (Simulation time: 00 hr 15 min 22 sec)
Heartbeat CPU 0 instructions: 68000399 cycles: 106941325 heartbeat IPC: 0.186 cumulative IPC: 0.1901 (Simulation time: 00 hr 15 min 41 sec)
Heartbeat CPU 0 instructions: 68500402 cycles: 108695511 heartbeat IPC: 0.285 cumulative IPC: 0.1918 (Simulation time: 00 hr 15 min 57 sec)
Heartbeat CPU 0 instructions: 69000402 cycles: 111445110 heartbeat IPC: 0.1818 cumulative IPC: 0.1915 (Simulation time: 00 hr 16 min 17 sec)
Heartbeat CPU 0 instructions: 69500402 cycles: 114167927 heartbeat IPC: 0.1836 cumulative IPC: 0.1913 (Simulation time: 00 hr 16 min 37 sec)
Heartbeat CPU 0 instructions: 70000402 cycles: 116918426 heartbeat IPC: 0.1818 cumulative IPC: 0.1911 (Simulation time: 00 hr 16 min 57 sec)
Heartbeat CPU 0 instructions: 70500404 cycles: 119654037 heartbeat IPC: 0.1828 cumulative IPC: 0.1908 (Simulation time: 00 hr 17 min 17 sec)
Heartbeat CPU 0 instructions: 71000404 cycles: 122397203 heartbeat IPC: 0.1823 cumulative IPC: 0.1906 (Simulation time: 00 hr 17 min 36 sec)
Heartbeat CPU 0 instructions: 71500406 cycles: 125103988 heartbeat IPC: 0.1847 cumulative IPC: 0.1905 (Simulation time: 00 hr 17 min 57 sec)
Heartbeat CPU 0 instructions: 72000406 cycles: 127757381 heartbeat IPC: 0.1884 cumulative IPC: 0.1904 (Simulation time: 00 hr 18 min 16 sec)
Heartbeat CPU 0 instructions: 72500406 cycles: 130492970 heartbeat IPC: 0.1828 cumulative IPC: 0.1903 (Simulation time: 00 hr 18 min 36 sec)
Heartbeat CPU 0 instructions: 73000406 cycles: 133223798 heartbeat IPC: 0.1831 cumulative IPC: 0.1901 (Simulation time: 00 hr 18 min 56 sec)
Heartbeat CPU 0 instructions: 73500407 cycles: 135946377 heartbeat IPC: 0.1836 cumulative IPC: 0.19 (Simulation time: 00 hr 19 min 15 sec)
Heartbeat CPU 0 instructions: 74000410 cycles: 138659715 heartbeat IPC: 0.1843 cumulative IPC: 0.1898 (Simulation time: 00 hr 19 min 35 sec)
Heartbeat CPU 0 instructions: 74500413 cycles: 141377484 heartbeat IPC: 0.184 cumulative IPC: 0.1897 (Simulation time: 00 hr 19 min 54 sec)
Heartbeat CPU 0 instructions: 75000416 cycles: 144079862 heartbeat IPC: 0.185 cumulative IPC: 0.1896 (Simulation time: 00 hr 20 min 13 sec)
Heartbeat CPU 0 instructions: 75500417 cycles: 146799337 heartbeat IPC: 0.1839 cumulative IPC: 0.1895 (Simulation time: 00 hr 20 min 33 sec)
Heartbeat CPU 0 instructions: 76000417 cycles: 149529627 heartbeat IPC: 0.1831 cumulative IPC: 0.1894 (Simulation time: 00 hr 20 min 52 sec)
Heartbeat CPU 0 instructions: 76500423 cycles: 152141272 heartbeat IPC: 0.1915 cumulative IPC: 0.1894 (Simulation time: 00 hr 21 min 12 sec)
Heartbeat CPU 0 instructions: 77000428 cycles: 154407895 heartbeat IPC: 0.2206 cumulative IPC: 0.1899 (Simulation time: 00 hr 21 min 29 sec)
Heartbeat CPU 0 instructions: 77500434 cycles: 156548163 heartbeat IPC: 0.2336 cumulative IPC: 0.1906 (Simulation time: 00 hr 21 min 46 sec)
Heartbeat CPU 0 instructions: 78000439 cycles: 159317341 heartbeat IPC: 0.1806 cumulative IPC: 0.1904 (Simulation time: 00 hr 22 min 05 sec)
Heartbeat CPU 0 instructions: 78500439 cycles: 162116873 heartbeat IPC: 0.1786 cumulative IPC: 0.1902 (Simulation time: 00 hr 22 min 25 sec)
Heartbeat CPU 0 instructions: 79000439 cycles: 164896104 heartbeat IPC: 0.1799 cumulative IPC: 0.19 (Simulation time: 00 hr 22 min 44 sec)
Heartbeat CPU 0 instructions: 79500445 cycles: 167702412 heartbeat IPC: 0.1782 cumulative IPC: 0.1898 (Simulation time: 00 hr 23 min 03 sec)
Heartbeat CPU 0 instructions: 80000445 cycles: 170461257 heartbeat IPC: 0.1812 cumulative IPC: 0.1896 (Simulation time: 00 hr 23 min 22 sec)
Heartbeat CPU 0 instructions: 80500448 cycles: 173221074 heartbeat IPC: 0.1812 cumulative IPC: 0.1895 (Simulation time: 00 hr 23 min 40 sec)
Heartbeat CPU 0 instructions: 81000448 cycles: 175952139 heartbeat IPC: 0.1831 cumulative IPC: 0.1894 (Simulation time: 00 hr 23 min 59 sec)
Heartbeat CPU 0 instructions: 81500448 cycles: 178636796 heartbeat IPC: 0.1862 cumulative IPC: 0.1893 (Simulation time: 00 hr 24 min 18 sec)
Heartbeat CPU 0 instructions: 82000453 cycles: 181342717 heartbeat IPC: 0.1848 cumulative IPC: 0.1892 (Simulation time: 00 hr 24 min 36 sec)
Heartbeat CPU 0 instructions: 82500453 cycles: 184055834 heartbeat IPC: 0.1843 cumulative IPC: 0.1892 (Simulation time: 00 hr 24 min 55 sec)
Heartbeat CPU 0 instructions: 83000458 cycles: 186711958 heartbeat IPC: 0.1882 cumulative IPC: 0.1891 (Simulation time: 00 hr 25 min 13 sec)
Heartbeat CPU 0 instructions: 83500458 cycles: 189429919 heartbeat IPC: 0.184 cumulative IPC: 0.1891 (Simulation time: 00 hr 25 min 32 sec)
Heartbeat CPU 0 instructions: 84000458 cycles: 192148504 heartbeat IPC: 0.1839 cumulative IPC: 0.189 (Simulation time: 00 hr 25 min 50 sec)
Heartbeat CPU 0 instructions: 84500463 cycles: 194879595 heartbeat IPC: 0.1831 cumulative IPC: 0.1889 (Simulation time: 00 hr 26 min 08 sec)
Heartbeat CPU 0 instructions: 85000464 cycles: 197593984 heartbeat IPC: 0.1842 cumulative IPC: 0.1888 (Simulation time: 00 hr 26 min 26 sec)
Heartbeat CPU 0 instructions: 85500466 cycles: 200231677 heartbeat IPC: 0.1896 cumulative IPC: 0.1888 (Simulation time: 00 hr 26 min 44 sec)
Heartbeat CPU 0 instructions: 86000467 cycles: 203004439 heartbeat IPC: 0.1803 cumulative IPC: 0.1887 (Simulation time: 00 hr 27 min 02 sec)
Heartbeat CPU 0 instructions: 86500467 cycles: 205672135 heartbeat IPC: 0.1874 cumulative IPC: 0.1887 (Simulation time: 00 hr 27 min 20 sec)
Heartbeat CPU 0 instructions: 87000467 cycles: 208311000 heartbeat IPC: 0.1895 cumulative IPC: 0.1887 (Simulation time: 00 hr 27 min 37 sec)
Heartbeat CPU 0 instructions: 87500467 cycles: 211045702 heartbeat IPC: 0.1828 cumulative IPC: 0.1886 (Simulation time: 00 hr 27 min 55 sec)
Heartbeat CPU 0 instructions: 88000470 cycles: 213692961 heartbeat IPC: 0.1889 cumulative IPC: 0.1886 (Simulation time: 00 hr 28 min 13 sec)
Heartbeat CPU 0 instructions: 88500472 cycles: 216438636 heartbeat IPC: 0.1821 cumulative IPC: 0.1885 (Simulation time: 00 hr 28 min 31 sec)
Heartbeat CPU 0 instructions: 89000472 cycles: 219125920 heartbeat IPC: 0.1861 cumulative IPC: 0.1885 (Simulation time: 00 hr 28 min 48 sec)
Heartbeat CPU 0 instructions: 89500472 cycles: 221828198 heartbeat IPC: 0.185 cumulative IPC: 0.1885 (Simulation time: 00 hr 29 min 06 sec)
Heartbeat CPU 0 instructions: 90000477 cycles: 224546277 heartbeat IPC: 0.184 cumulative IPC: 0.1884 (Simulation time: 00 hr 29 min 23 sec)
Heartbeat CPU 0 instructions: 90500480 cycles: 227238291 heartbeat IPC: 0.1857 cumulative IPC: 0.1884 (Simulation time: 00 hr 29 min 41 sec)
Heartbeat CPU 0 instructions: 91000483 cycles: 229905440 heartbeat IPC: 0.1875 cumulative IPC: 0.1884 (Simulation time: 00 hr 29 min 58 sec)
Heartbeat CPU 0 instructions: 91500488 cycles: 232604988 heartbeat IPC: 0.1852 cumulative IPC: 0.1883 (Simulation time: 00 hr 30 min 15 sec)
Heartbeat CPU 0 instructions: 92000488 cycles: 235295359 heartbeat IPC: 0.1858 cumulative IPC: 0.1883 (Simulation time: 00 hr 30 min 32 sec)
Heartbeat CPU 0 instructions: 92500494 cycles: 237958184 heartbeat IPC: 0.1878 cumulative IPC: 0.1883 (Simulation time: 00 hr 30 min 49 sec)
Heartbeat CPU 0 instructions: 93000497 cycles: 240686411 heartbeat IPC: 0.1833 cumulative IPC: 0.1882 (Simulation time: 00 hr 31 min 07 sec)
Heartbeat CPU 0 instructions: 93500503 cycles: 243390562 heartbeat IPC: 0.1849 cumulative IPC: 0.1882 (Simulation time: 00 hr 31 min 24 sec)
Heartbeat CPU 0 instructions: 94000507 cycles: 246126259 heartbeat IPC: 0.1828 cumulative IPC: 0.1881 (Simulation time: 00 hr 31 min 41 sec)
Heartbeat CPU 0 instructions: 94500507 cycles: 248816614 heartbeat IPC: 0.1858 cumulative IPC: 0.1881 (Simulation time: 00 hr 31 min 58 sec)
Heartbeat CPU 0 instructions: 95000507 cycles: 251514666 heartbeat IPC: 0.1853 cumulative IPC: 0.1881 (Simulation time: 00 hr 32 min 16 sec)
Heartbeat CPU 0 instructions: 95500512 cycles: 254187580 heartbeat IPC: 0.1871 cumulative IPC: 0.1881 (Simulation time: 00 hr 32 min 33 sec)
Heartbeat CPU 0 instructions: 96000513 cycles: 256874234 heartbeat IPC: 0.1861 cumulative IPC: 0.188 (Simulation time: 00 hr 32 min 50 sec)
Heartbeat CPU 0 instructions: 96500517 cycles: 259537991 heartbeat IPC: 0.1877 cumulative IPC: 0.188 (Simulation time: 00 hr 33 min 07 sec)
Heartbeat CPU 0 instructions: 97000522 cycles: 262139718 heartbeat IPC: 0.1922 cumulative IPC: 0.1881 (Simulation time: 00 hr 33 min 24 sec)
Heartbeat CPU 0 instructions: 97500528 cycles: 264868748 heartbeat IPC: 0.1832 cumulative IPC: 0.188 (Simulation time: 00 hr 33 min 41 sec)
Heartbeat CPU 0 instructions: 98000528 cycles: 267538871 heartbeat IPC: 0.1873 cumulative IPC: 0.188 (Simulation time: 00 hr 33 min 59 sec)
Heartbeat CPU 0 instructions: 98500529 cycles: 270207669 heartbeat IPC: 0.1874 cumulative IPC: 0.188 (Simulation time: 00 hr 34 min 16 sec)
Heartbeat CPU 0 instructions: 99000533 cycles: 272861391 heartbeat IPC: 0.1884 cumulative IPC: 0.188 (Simulation time: 00 hr 34 min 33 sec)
Heartbeat CPU 0 instructions: 99500538 cycles: 275518795 heartbeat IPC: 0.1882 cumulative IPC: 0.188 (Simulation time: 00 hr 34 min 50 sec)
Heartbeat CPU 0 instructions: 100000539 cycles: 278198177 heartbeat IPC: 0.1866 cumulative IPC: 0.188 (Simulation time: 00 hr 35 min 07 sec)
Heartbeat CPU 0 instructions: 100500539 cycles: 280865570 heartbeat IPC: 0.1874 cumulative IPC: 0.188 (Simulation time: 00 hr 35 min 24 sec)
Heartbeat CPU 0 instructions: 101000539 cycles: 283517141 heartbeat IPC: 0.1886 cumulative IPC: 0.188 (Simulation time: 00 hr 35 min 41 sec)
Heartbeat CPU 0 instructions: 101500543 cycles: 286289806 heartbeat IPC: 0.1803 cumulative IPC: 0.1879 (Simulation time: 00 hr 35 min 58 sec)
Heartbeat CPU 0 instructions: 102000543 cycles: 288989225 heartbeat IPC: 0.1852 cumulative IPC: 0.1879 (Simulation time: 00 hr 36 min 15 sec)
Heartbeat CPU 0 instructions: 102500545 cycles: 291718685 heartbeat IPC: 0.1832 cumulative IPC: 0.1878 (Simulation time: 00 hr 36 min 33 sec)
Heartbeat CPU 0 instructions: 103000545 cycles: 294393744 heartbeat IPC: 0.1869 cumulative IPC: 0.1878 (Simulation time: 00 hr 36 min 50 sec)
Heartbeat CPU 0 instructions: 103500545 cycles: 297041893 heartbeat IPC: 0.1888 cumulative IPC: 0.1878 (Simulation time: 00 hr 37 min 07 sec)
Heartbeat CPU 0 instructions: 104000548 cycles: 299758165 heartbeat IPC: 0.1841 cumulative IPC: 0.1878 (Simulation time: 00 hr 37 min 24 sec)
Heartbeat CPU 0 instructions: 104500548 cycles: 302427373 heartbeat IPC: 0.1873 cumulative IPC: 0.1878 (Simulation time: 00 hr 37 min 41 sec)
Heartbeat CPU 0 instructions: 105000551 cycles: 305121917 heartbeat IPC: 0.1856 cumulative IPC: 0.1878 (Simulation time: 00 hr 37 min 59 sec)
Heartbeat CPU 0 instructions: 105500552 cycles: 307775015 heartbeat IPC: 0.1885 cumulative IPC: 0.1878 (Simulation time: 00 hr 38 min 16 sec)
Heartbeat CPU 0 instructions: 106000558 cycles: 310387896 heartbeat IPC: 0.1914 cumulative IPC: 0.1878 (Simulation time: 00 hr 38 min 33 sec)
Heartbeat CPU 0 instructions: 106500563 cycles: 313074764 heartbeat IPC: 0.1861 cumulative IPC: 0.1878 (Simulation time: 00 hr 38 min 50 sec)
Heartbeat CPU 0 instructions: 107000564 cycles: 315741991 heartbeat IPC: 0.1875 cumulative IPC: 0.1878 (Simulation time: 00 hr 39 min 07 sec)
Heartbeat CPU 0 instructions: 107500564 cycles: 318446782 heartbeat IPC: 0.1849 cumulative IPC: 0.1878 (Simulation time: 00 hr 39 min 24 sec)
Heartbeat CPU 0 instructions: 108000564 cycles: 321140787 heartbeat IPC: 0.1856 cumulative IPC: 0.1878 (Simulation time: 00 hr 39 min 41 sec)
Heartbeat CPU 0 instructions: 108500564 cycles: 323833078 heartbeat IPC: 0.1857 cumulative IPC: 0.1877 (Simulation time: 00 hr 39 min 59 sec)
Heartbeat CPU 0 instructions: 109000567 cycles: 326573637 heartbeat IPC: 0.1824 cumulative IPC: 0.1877 (Simulation time: 00 hr 40 min 16 sec)
Heartbeat CPU 0 instructions: 109500567 cycles: 329249364 heartbeat IPC: 0.1869 cumulative IPC: 0.1877 (Simulation time: 00 hr 40 min 33 sec)
Heartbeat CPU 0 instructions: 110000568 cycles: 331956859 heartbeat IPC: 0.1847 cumulative IPC: 0.1877 (Simulation time: 00 hr 40 min 50 sec)
Heartbeat CPU 0 instructions: 110500568 cycles: 334625380 heartbeat IPC: 0.1874 cumulative IPC: 0.1877 (Simulation time: 00 hr 41 min 07 sec)
Heartbeat CPU 0 instructions: 111000575 cycles: 337367570 heartbeat IPC: 0.1823 cumulative IPC: 0.1876 (Simulation time: 00 hr 41 min 25 sec)
Heartbeat CPU 0 instructions: 111500579 cycles: 340055321 heartbeat IPC: 0.186 cumulative IPC: 0.1876 (Simulation time: 00 hr 41 min 42 sec)
Heartbeat CPU 0 instructions: 112000583 cycles: 342745494 heartbeat IPC: 0.1859 cumulative IPC: 0.1876 (Simulation time: 00 hr 41 min 59 sec)
Heartbeat CPU 0 instructions: 112500588 cycles: 345476901 heartbeat IPC: 0.1831 cumulative IPC: 0.1876 (Simulation time: 00 hr 42 min 16 sec)
Heartbeat CPU 0 instructions: 113000591 cycles: 348157429 heartbeat IPC: 0.1865 cumulative IPC: 0.1875 (Simulation time: 00 hr 42 min 34 sec)
Heartbeat CPU 0 instructions: 113500591 cycles: 350871210 heartbeat IPC: 0.1842 cumulative IPC: 0.1875 (Simulation time: 00 hr 42 min 51 sec)
Heartbeat CPU 0 instructions: 114000596 cycles: 353530362 heartbeat IPC: 0.188 cumulative IPC: 0.1875 (Simulation time: 00 hr 43 min 08 sec)
Heartbeat CPU 0 instructions: 114500596 cycles: 356228827 heartbeat IPC: 0.1853 cumulative IPC: 0.1875 (Simulation time: 00 hr 43 min 25 sec)
Heartbeat CPU 0 instructions: 115000598 cycles: 358911276 heartbeat IPC: 0.1864 cumulative IPC: 0.1875 (Simulation time: 00 hr 43 min 42 sec)
Heartbeat CPU 0 instructions: 115500604 cycles: 361576375 heartbeat IPC: 0.1876 cumulative IPC: 0.1875 (Simulation time: 00 hr 43 min 59 sec)
Heartbeat CPU 0 instructions: 116000604 cycles: 364177556 heartbeat IPC: 0.1922 cumulative IPC: 0.1875 (Simulation time: 00 hr 44 min 16 sec)
Heartbeat CPU 0 instructions: 116500609 cycles: 366332962 heartbeat IPC: 0.232 cumulative IPC: 0.1878 (Simulation time: 00 hr 44 min 31 sec)
Heartbeat CPU 0 instructions: 117000611 cycles: 368615050 heartbeat IPC: 0.2191 cumulative IPC: 0.188 (Simulation time: 00 hr 44 min 47 sec)
Heartbeat CPU 0 instructions: 117500618 cycles: 371411795 heartbeat IPC: 0.1788 cumulative IPC: 0.1879 (Simulation time: 00 hr 45 min 04 sec)
Heartbeat CPU 0 instructions: 118000618 cycles: 374203184 heartbeat IPC: 0.1791 cumulative IPC: 0.1879 (Simulation time: 00 hr 45 min 22 sec)
Heartbeat CPU 0 instructions: 118500622 cycles: 376906632 heartbeat IPC: 0.185 cumulative IPC: 0.1878 (Simulation time: 00 hr 45 min 39 sec)
Heartbeat CPU 0 instructions: 119000623 cycles: 379668405 heartbeat IPC: 0.181 cumulative IPC: 0.1878 (Simulation time: 00 hr 45 min 57 sec)
Heartbeat CPU 0 instructions: 119500624 cycles: 381602005 heartbeat IPC: 0.2586 cumulative IPC: 0.1882 (Simulation time: 00 hr 46 min 11 sec)
Heartbeat CPU 0 instructions: 120000624 cycles: 384096457 heartbeat IPC: 0.2004 cumulative IPC: 0.1882 (Simulation time: 00 hr 46 min 28 sec)
Heartbeat CPU 0 instructions: 120500626 cycles: 386837617 heartbeat IPC: 0.1824 cumulative IPC: 0.1882 (Simulation time: 00 hr 46 min 45 sec)
Heartbeat CPU 0 instructions: 121000632 cycles: 389480149 heartbeat IPC: 0.1892 cumulative IPC: 0.1882 (Simulation time: 00 hr 47 min 02 sec)
Heartbeat CPU 0 instructions: 121500637 cycles: 392192744 heartbeat IPC: 0.1843 cumulative IPC: 0.1882 (Simulation time: 00 hr 47 min 19 sec)
Heartbeat CPU 0 instructions: 122000638 cycles: 394824367 heartbeat IPC: 0.19 cumulative IPC: 0.1882 (Simulation time: 00 hr 47 min 36 sec)
Heartbeat CPU 0 instructions: 122500638 cycles: 397534143 heartbeat IPC: 0.1845 cumulative IPC: 0.1882 (Simulation time: 00 hr 47 min 54 sec)
Heartbeat CPU 0 instructions: 123000640 cycles: 400199642 heartbeat IPC: 0.1876 cumulative IPC: 0.1882 (Simulation time: 00 hr 48 min 11 sec)
Heartbeat CPU 0 instructions: 123500642 cycles: 402936452 heartbeat IPC: 0.1827 cumulative IPC: 0.1881 (Simulation time: 00 hr 48 min 28 sec)
Heartbeat CPU 0 instructions: 124000646 cycles: 405592253 heartbeat IPC: 0.1883 cumulative IPC: 0.1881 (Simulation time: 00 hr 48 min 45 sec)
Heartbeat CPU 0 instructions: 124500646 cycles: 408303876 heartbeat IPC: 0.1844 cumulative IPC: 0.1881 (Simulation time: 00 hr 49 min 02 sec)
Heartbeat CPU 0 instructions: 125000648 cycles: 411023112 heartbeat IPC: 0.1839 cumulative IPC: 0.1881 (Simulation time: 00 hr 49 min 19 sec)
Heartbeat CPU 0 instructions: 125500649 cycles: 413733838 heartbeat IPC: 0.1845 cumulative IPC: 0.188 (Simulation time: 00 hr 49 min 37 sec)
Heartbeat CPU 0 instructions: 126000650 cycles: 416450224 heartbeat IPC: 0.1841 cumulative IPC: 0.188 (Simulation time: 00 hr 49 min 54 sec)
Heartbeat CPU 0 instructions: 126500656 cycles: 419207326 heartbeat IPC: 0.1814 cumulative IPC: 0.188 (Simulation time: 00 hr 50 min 11 sec)
Heartbeat CPU 0 instructions: 127000660 cycles: 421925437 heartbeat IPC: 0.184 cumulative IPC: 0.1879 (Simulation time: 00 hr 50 min 28 sec)
Heartbeat CPU 0 instructions: 127500667 cycles: 424640907 heartbeat IPC: 0.1841 cumulative IPC: 0.1879 (Simulation time: 00 hr 50 min 46 sec)
Heartbeat CPU 0 instructions: 128000667 cycles: 427338064 heartbeat IPC: 0.1854 cumulative IPC: 0.1879 (Simulation time: 00 hr 51 min 03 sec)
Heartbeat CPU 0 instructions: 128500670 cycles: 430040296 heartbeat IPC: 0.185 cumulative IPC: 0.1879 (Simulation time: 00 hr 51 min 20 sec)
Heartbeat CPU 0 instructions: 129000671 cycles: 432781086 heartbeat IPC: 0.1824 cumulative IPC: 0.1879 (Simulation time: 00 hr 51 min 37 sec)
Heartbeat CPU 0 instructions: 129500677 cycles: 435501555 heartbeat IPC: 0.1838 cumulative IPC: 0.1878 (Simulation time: 00 hr 51 min 54 sec)
Heartbeat CPU 0 instructions: 130000684 cycles: 438230464 heartbeat IPC: 0.1832 cumulative IPC: 0.1878 (Simulation time: 00 hr 52 min 12 sec)
Heartbeat CPU 0 instructions: 130500686 cycles: 440764197 heartbeat IPC: 0.1973 cumulative IPC: 0.1879 (Simulation time: 00 hr 52 min 28 sec)
Heartbeat CPU 0 instructions: 131000689 cycles: 442628441 heartbeat IPC: 0.2682 cumulative IPC: 0.1882 (Simulation time: 00 hr 52 min 42 sec)
Heartbeat CPU 0 instructions: 131500689 cycles: 445309799 heartbeat IPC: 0.1865 cumulative IPC: 0.1882 (Simulation time: 00 hr 52 min 59 sec)
Heartbeat CPU 0 instructions: 132000692 cycles: 448057343 heartbeat IPC: 0.182 cumulative IPC: 0.1882 (Simulation time: 00 hr 53 min 16 sec)
Heartbeat CPU 0 instructions: 132500693 cycles: 450804956 heartbeat IPC: 0.182 cumulative IPC: 0.1881 (Simulation time: 00 hr 53 min 34 sec)
Heartbeat CPU 0 instructions: 133000693 cycles: 453522264 heartbeat IPC: 0.184 cumulative IPC: 0.1881 (Simulation time: 00 hr 53 min 51 sec)
Heartbeat CPU 0 instructions: 133500697 cycles: 456244294 heartbeat IPC: 0.1837 cumulative IPC: 0.1881 (Simulation time: 00 hr 54 min 08 sec)
Heartbeat CPU 0 instructions: 134000700 cycles: 458848798 heartbeat IPC: 0.192 cumulative IPC: 0.1881 (Simulation time: 00 hr 54 min 25 sec)
Heartbeat CPU 0 instructions: 134500702 cycles: 461595848 heartbeat IPC: 0.182 cumulative IPC: 0.188 (Simulation time: 00 hr 54 min 42 sec)
Heartbeat CPU 0 instructions: 135000704 cycles: 464295374 heartbeat IPC: 0.1852 cumulative IPC: 0.188 (Simulation time: 00 hr 54 min 59 sec)
Heartbeat CPU 0 instructions: 135500704 cycles: 466988605 heartbeat IPC: 0.1857 cumulative IPC: 0.188 (Simulation time: 00 hr 55 min 17 sec)
Heartbeat CPU 0 instructions: 136000706 cycles: 469726754 heartbeat IPC: 0.1826 cumulative IPC: 0.188 (Simulation time: 00 hr 55 min 34 sec)
Heartbeat CPU 0 instructions: 136500712 cycles: 472395953 heartbeat IPC: 0.1873 cumulative IPC: 0.188 (Simulation time: 00 hr 55 min 51 sec)
Heartbeat CPU 0 instructions: 137000713 cycles: 475020845 heartbeat IPC: 0.1905 cumulative IPC: 0.188 (Simulation time: 00 hr 56 min 08 sec)
Heartbeat CPU 0 instructions: 137500714 cycles: 476987836 heartbeat IPC: 0.2542 cumulative IPC: 0.1883 (Simulation time: 00 hr 56 min 22 sec)
Heartbeat CPU 0 instructions: 138000716 cycles: 479470451 heartbeat IPC: 0.2014 cumulative IPC: 0.1883 (Simulation time: 00 hr 56 min 39 sec)
Heartbeat CPU 0 instructions: 138500717 cycles: 482228766 heartbeat IPC: 0.1813 cumulative IPC: 0.1883 (Simulation time: 00 hr 56 min 56 sec)
Heartbeat CPU 0 instructions: 139000717 cycles: 484913636 heartbeat IPC: 0.1862 cumulative IPC: 0.1883 (Simulation time: 00 hr 57 min 13 sec)
Heartbeat CPU 0 instructions: 139500717 cycles: 487662516 heartbeat IPC: 0.1819 cumulative IPC: 0.1883 (Simulation time: 00 hr 57 min 31 sec)
Heartbeat CPU 0 instructions: 140000718 cycles: 490335490 heartbeat IPC: 0.1871 cumulative IPC: 0.1882 (Simulation time: 00 hr 57 min 48 sec)
Heartbeat CPU 0 instructions: 140500718 cycles: 493082842 heartbeat IPC: 0.182 cumulative IPC: 0.1882 (Simulation time: 00 hr 58 min 05 sec)
Heartbeat CPU 0 instructions: 141000720 cycles: 495830456 heartbeat IPC: 0.182 cumulative IPC: 0.1882 (Simulation time: 00 hr 58 min 22 sec)
Heartbeat CPU 0 instructions: 141500722 cycles: 498534217 heartbeat IPC: 0.1849 cumulative IPC: 0.1882 (Simulation time: 00 hr 58 min 40 sec)
Heartbeat CPU 0 instructions: 142000728 cycles: 501268995 heartbeat IPC: 0.1828 cumulative IPC: 0.1881 (Simulation time: 00 hr 58 min 57 sec)
Heartbeat CPU 0 instructions: 142500734 cycles: 503975329 heartbeat IPC: 0.1848 cumulative IPC: 0.1881 (Simulation time: 00 hr 59 min 14 sec)
Heartbeat CPU 0 instructions: 143000739 cycles: 506633635 heartbeat IPC: 0.1881 cumulative IPC: 0.1881 (Simulation time: 00 hr 59 min 31 sec)
Heartbeat CPU 0 instructions: 143500742 cycles: 509318628 heartbeat IPC: 0.1862 cumulative IPC: 0.1881 (Simulation time: 00 hr 59 min 48 sec)
Heartbeat CPU 0 instructions: 144000747 cycles: 512029667 heartbeat IPC: 0.1844 cumulative IPC: 0.1881 (Simulation time: 01 hr 00 min 05 sec)
Heartbeat CPU 0 instructions: 144500754 cycles: 514739681 heartbeat IPC: 0.1845 cumulative IPC: 0.1881 (Simulation time: 01 hr 00 min 22 sec)
Heartbeat CPU 0 instructions: 145000755 cycles: 517481283 heartbeat IPC: 0.1824 cumulative IPC: 0.188 (Simulation time: 01 hr 00 min 39 sec)
Heartbeat CPU 0 instructions: 145500755 cycles: 520148603 heartbeat IPC: 0.1875 cumulative IPC: 0.188 (Simulation time: 01 hr 00 min 56 sec)
Heartbeat CPU 0 instructions: 146000757 cycles: 522867161 heartbeat IPC: 0.1839 cumulative IPC: 0.188 (Simulation time: 01 hr 01 min 14 sec)
Heartbeat CPU 0 instructions: 146500757 cycles: 525585504 heartbeat IPC: 0.1839 cumulative IPC: 0.188 (Simulation time: 01 hr 01 min 31 sec)
Heartbeat CPU 0 instructions: 147000758 cycles: 528321461 heartbeat IPC: 0.1828 cumulative IPC: 0.188 (Simulation time: 01 hr 01 min 48 sec)
Heartbeat CPU 0 instructions: 147500758 cycles: 530981885 heartbeat IPC: 0.1879 cumulative IPC: 0.188 (Simulation time: 01 hr 02 min 05 sec)
Heartbeat CPU 0 instructions: 148000765 cycles: 533688566 heartbeat IPC: 0.1847 cumulative IPC: 0.1879 (Simulation time: 01 hr 02 min 22 sec)
Heartbeat CPU 0 instructions: 148500772 cycles: 536382690 heartbeat IPC: 0.1856 cumulative IPC: 0.1879 (Simulation time: 01 hr 02 min 40 sec)
Heartbeat CPU 0 instructions: 149000773 cycles: 539037138 heartbeat IPC: 0.1884 cumulative IPC: 0.1879 (Simulation time: 01 hr 02 min 57 sec)
Heartbeat CPU 0 instructions: 149500773 cycles: 541728327 heartbeat IPC: 0.1858 cumulative IPC: 0.1879 (Simulation time: 01 hr 03 min 14 sec)
Heartbeat CPU 0 instructions: 150000773 cycles: 544395831 heartbeat IPC: 0.1874 cumulative IPC: 0.1879 (Simulation time: 01 hr 03 min 31 sec)
Heartbeat CPU 0 instructions: 150500775 cycles: 547041355 heartbeat IPC: 0.189 cumulative IPC: 0.1879 (Simulation time: 01 hr 03 min 48 sec)
Heartbeat CPU 0 instructions: 151000777 cycles: 549786153 heartbeat IPC: 0.1822 cumulative IPC: 0.1879 (Simulation time: 01 hr 04 min 06 sec)
Heartbeat CPU 0 instructions: 151500778 cycles: 552512005 heartbeat IPC: 0.1834 cumulative IPC: 0.1879 (Simulation time: 01 hr 04 min 23 sec)
Heartbeat CPU 0 instructions: 152000779 cycles: 555190452 heartbeat IPC: 0.1867 cumulative IPC: 0.1879 (Simulation time: 01 hr 04 min 40 sec)
Heartbeat CPU 0 instructions: 152500781 cycles: 557252416 heartbeat IPC: 0.2425 cumulative IPC: 0.1881 (Simulation time: 01 hr 04 min 54 sec)
Heartbeat CPU 0 instructions: 153000783 cycles: 559075283 heartbeat IPC: 0.2743 cumulative IPC: 0.1884 (Simulation time: 01 hr 05 min 08 sec)
Heartbeat CPU 0 instructions: 153500783 cycles: 561236719 heartbeat IPC: 0.2313 cumulative IPC: 0.1885 (Simulation time: 01 hr 05 min 24 sec)
Heartbeat CPU 0 instructions: 154000787 cycles: 564036219 heartbeat IPC: 0.1786 cumulative IPC: 0.1885 (Simulation time: 01 hr 05 min 41 sec)
Heartbeat CPU 0 instructions: 154500792 cycles: 566751716 heartbeat IPC: 0.1841 cumulative IPC: 0.1885 (Simulation time: 01 hr 05 min 58 sec)
Heartbeat CPU 0 instructions: 155000792 cycles: 569480405 heartbeat IPC: 0.1832 cumulative IPC: 0.1884 (Simulation time: 01 hr 06 min 16 sec)
Heartbeat CPU 0 instructions: 155500795 cycles: 572224079 heartbeat IPC: 0.1822 cumulative IPC: 0.1884 (Simulation time: 01 hr 06 min 33 sec)
Heartbeat CPU 0 instructions: 156000801 cycles: 574934092 heartbeat IPC: 0.1845 cumulative IPC: 0.1884 (Simulation time: 01 hr 06 min 50 sec)
Heartbeat CPU 0 instructions: 156500802 cycles: 577593381 heartbeat IPC: 0.188 cumulative IPC: 0.1884 (Simulation time: 01 hr 07 min 07 sec)
Heartbeat CPU 0 instructions: 157000802 cycles: 580327037 heartbeat IPC: 0.1829 cumulative IPC: 0.1884 (Simulation time: 01 hr 07 min 24 sec)
Heartbeat CPU 0 instructions: 157500803 cycles: 583046543 heartbeat IPC: 0.1839 cumulative IPC: 0.1883 (Simulation time: 01 hr 07 min 41 sec)
Heartbeat CPU 0 instructions: 158000805 cycles: 585794947 heartbeat IPC: 0.1819 cumulative IPC: 0.1883 (Simulation time: 01 hr 07 min 58 sec)
Heartbeat CPU 0 instructions: 158500807 cycles: 588457350 heartbeat IPC: 0.1878 cumulative IPC: 0.1883 (Simulation time: 01 hr 08 min 15 sec)
Heartbeat CPU 0 instructions: 159000810 cycles: 590415750 heartbeat IPC: 0.2553 cumulative IPC: 0.1885 (Simulation time: 01 hr 08 min 29 sec)
Heartbeat CPU 0 instructions: 159500810 cycles: 592887336 heartbeat IPC: 0.2023 cumulative IPC: 0.1886 (Simulation time: 01 hr 08 min 46 sec)
Heartbeat CPU 0 instructions: 160000814 cycles: 595578713 heartbeat IPC: 0.1858 cumulative IPC: 0.1886 (Simulation time: 01 hr 09 min 03 sec)
Heartbeat CPU 0 instructions: 160500814 cycles: 598281438 heartbeat IPC: 0.185 cumulative IPC: 0.1886 (Simulation time: 01 hr 09 min 20 sec)
Heartbeat CPU 0 instructions: 161000814 cycles: 600966111 heartbeat IPC: 0.1862 cumulative IPC: 0.1885 (Simulation time: 01 hr 09 min 37 sec)
Heartbeat CPU 0 instructions: 161500817 cycles: 603221856 heartbeat IPC: 0.2217 cumulative IPC: 0.1887 (Simulation time: 01 hr 09 min 52 sec)
Heartbeat CPU 0 instructions: 162000822 cycles: 605377188 heartbeat IPC: 0.232 cumulative IPC: 0.1888 (Simulation time: 01 hr 10 min 07 sec)
Heartbeat CPU 0 instructions: 162500824 cycles: 608114066 heartbeat IPC: 0.1827 cumulative IPC: 0.1888 (Simulation time: 01 hr 10 min 25 sec)
Heartbeat CPU 0 instructions: 163000825 cycles: 610738909 heartbeat IPC: 0.1905 cumulative IPC: 0.1888 (Simulation time: 01 hr 10 min 42 sec)
Heartbeat CPU 0 instructions: 163500829 cycles: 613461472 heartbeat IPC: 0.1837 cumulative IPC: 0.1888 (Simulation time: 01 hr 10 min 59 sec)
Heartbeat CPU 0 instructions: 164000829 cycles: 616150727 heartbeat IPC: 0.1859 cumulative IPC: 0.1888 (Simulation time: 01 hr 11 min 16 sec)
Heartbeat CPU 0 instructions: 164500831 cycles: 618433157 heartbeat IPC: 0.2191 cumulative IPC: 0.1889 (Simulation time: 01 hr 11 min 31 sec)
Heartbeat CPU 0 instructions: 165000837 cycles: 620520266 heartbeat IPC: 0.2396 cumulative IPC: 0.1891 (Simulation time: 01 hr 11 min 46 sec)
Heartbeat CPU 0 instructions: 165500837 cycles: 623281371 heartbeat IPC: 0.1811 cumulative IPC: 0.189 (Simulation time: 01 hr 12 min 03 sec)
Heartbeat CPU 0 instructions: 166000838 cycles: 625969518 heartbeat IPC: 0.186 cumulative IPC: 0.189 (Simulation time: 01 hr 12 min 20 sec)
Heartbeat CPU 0 instructions: 166500841 cycles: 627830199 heartbeat IPC: 0.2687 cumulative IPC: 0.1892 (Simulation time: 01 hr 12 min 33 sec)
Heartbeat CPU 0 instructions: 167000841 cycles: 630373238 heartbeat IPC: 0.1966 cumulative IPC: 0.1893 (Simulation time: 01 hr 12 min 50 sec)
Heartbeat CPU 0 instructions: 167500841 cycles: 633098871 heartbeat IPC: 0.1834 cumulative IPC: 0.1893 (Simulation time: 01 hr 13 min 07 sec)
Heartbeat CPU 0 instructions: 168000844 cycles: 635800144 heartbeat IPC: 0.1851 cumulative IPC: 0.1892 (Simulation time: 01 hr 13 min 24 sec)
Heartbeat CPU 0 instructions: 168500844 cycles: 638236385 heartbeat IPC: 0.2052 cumulative IPC: 0.1893 (Simulation time: 01 hr 13 min 40 sec)
Heartbeat CPU 0 instructions: 169000845 cycles: 640239416 heartbeat IPC: 0.2496 cumulative IPC: 0.1895 (Simulation time: 01 hr 13 min 55 sec)
Heartbeat CPU 0 instructions: 169500846 cycles: 643008851 heartbeat IPC: 0.1805 cumulative IPC: 0.1895 (Simulation time: 01 hr 14 min 12 sec)
Heartbeat CPU 0 instructions: 170000852 cycles: 645752542 heartbeat IPC: 0.1822 cumulative IPC: 0.1894 (Simulation time: 01 hr 14 min 29 sec)
Heartbeat CPU 0 instructions: 170500859 cycles: 648406113 heartbeat IPC: 0.1884 cumulative IPC: 0.1894 (Simulation time: 01 hr 14 min 46 sec)
Heartbeat CPU 0 instructions: 171000859 cycles: 650716163 heartbeat IPC: 0.2164 cumulative IPC: 0.1895 (Simulation time: 01 hr 15 min 01 sec)
Heartbeat CPU 0 instructions: 171500864 cycles: 652888811 heartbeat IPC: 0.2301 cumulative IPC: 0.1897 (Simulation time: 01 hr 15 min 16 sec)
Heartbeat CPU 0 instructions: 172000864 cycles: 655618056 heartbeat IPC: 0.1832 cumulative IPC: 0.1896 (Simulation time: 01 hr 15 min 34 sec)
Heartbeat CPU 0 instructions: 172500867 cycles: 658376096 heartbeat IPC: 0.1813 cumulative IPC: 0.1896 (Simulation time: 01 hr 15 min 51 sec)
Heartbeat CPU 0 instructions: 173000869 cycles: 661039975 heartbeat IPC: 0.1877 cumulative IPC: 0.1896 (Simulation time: 01 hr 16 min 07 sec)
Heartbeat CPU 0 instructions: 173500870 cycles: 663770773 heartbeat IPC: 0.1831 cumulative IPC: 0.1896 (Simulation time: 01 hr 16 min 25 sec)
Heartbeat CPU 0 instructions: 174000872 cycles: 666509258 heartbeat IPC: 0.1826 cumulative IPC: 0.1895 (Simulation time: 01 hr 16 min 42 sec)
Heartbeat CPU 0 instructions: 174500879 cycles: 669256220 heartbeat IPC: 0.182 cumulative IPC: 0.1895 (Simulation time: 01 hr 16 min 59 sec)
Heartbeat CPU 0 instructions: 175000885 cycles: 671945965 heartbeat IPC: 0.1859 cumulative IPC: 0.1895 (Simulation time: 01 hr 17 min 16 sec)
Heartbeat CPU 0 instructions: 175500885 cycles: 674624851 heartbeat IPC: 0.1866 cumulative IPC: 0.1895 (Simulation time: 01 hr 17 min 33 sec)
Heartbeat CPU 0 instructions: 176000888 cycles: 677336937 heartbeat IPC: 0.1844 cumulative IPC: 0.1894 (Simulation time: 01 hr 17 min 50 sec)
Heartbeat CPU 0 instructions: 176500889 cycles: 680022817 heartbeat IPC: 0.1862 cumulative IPC: 0.1894 (Simulation time: 01 hr 18 min 07 sec)
Heartbeat CPU 0 instructions: 177000891 cycles: 682667384 heartbeat IPC: 0.1891 cumulative IPC: 0.1894 (Simulation time: 01 hr 18 min 24 sec)
Heartbeat CPU 0 instructions: 177500893 cycles: 685343399 heartbeat IPC: 0.1868 cumulative IPC: 0.1894 (Simulation time: 01 hr 18 min 40 sec)
Heartbeat CPU 0 instructions: 178000895 cycles: 687953030 heartbeat IPC: 0.1916 cumulative IPC: 0.1894 (Simulation time: 01 hr 18 min 57 sec)
Heartbeat CPU 0 instructions: 178500900 cycles: 690690853 heartbeat IPC: 0.1826 cumulative IPC: 0.1894 (Simulation time: 01 hr 19 min 14 sec)
Heartbeat CPU 0 instructions: 179000900 cycles: 693367336 heartbeat IPC: 0.1868 cumulative IPC: 0.1894 (Simulation time: 01 hr 19 min 31 sec)
Heartbeat CPU 0 instructions: 179500907 cycles: 696078158 heartbeat IPC: 0.1844 cumulative IPC: 0.1894 (Simulation time: 01 hr 19 min 48 sec)
Heartbeat CPU 0 instructions: 180000907 cycles: 698810780 heartbeat IPC: 0.183 cumulative IPC: 0.1893 (Simulation time: 01 hr 20 min 05 sec)
Heartbeat CPU 0 instructions: 180500909 cycles: 701415649 heartbeat IPC: 0.1919 cumulative IPC: 0.1894 (Simulation time: 01 hr 20 min 22 sec)
Heartbeat CPU 0 instructions: 181000911 cycles: 704163067 heartbeat IPC: 0.182 cumulative IPC: 0.1893 (Simulation time: 01 hr 20 min 39 sec)
Heartbeat CPU 0 instructions: 181500918 cycles: 706817036 heartbeat IPC: 0.1884 cumulative IPC: 0.1893 (Simulation time: 01 hr 20 min 56 sec)
Heartbeat CPU 0 instructions: 182000918 cycles: 709484961 heartbeat IPC: 0.1874 cumulative IPC: 0.1893 (Simulation time: 01 hr 21 min 13 sec)
Heartbeat CPU 0 instructions: 182500919 cycles: 712156516 heartbeat IPC: 0.1872 cumulative IPC: 0.1893 (Simulation time: 01 hr 21 min 30 sec)
Heartbeat CPU 0 instructions: 183000920 cycles: 714794333 heartbeat IPC: 0.1896 cumulative IPC: 0.1893 (Simulation time: 01 hr 21 min 47 sec)
Heartbeat CPU 0 instructions: 183500920 cycles: 717405737 heartbeat IPC: 0.1915 cumulative IPC: 0.1893 (Simulation time: 01 hr 22 min 03 sec)
Heartbeat CPU 0 instructions: 184000926 cycles: 720016594 heartbeat IPC: 0.1915 cumulative IPC: 0.1893 (Simulation time: 01 hr 22 min 20 sec)
Heartbeat CPU 0 instructions: 184500929 cycles: 722646729 heartbeat IPC: 0.1901 cumulative IPC: 0.1893 (Simulation time: 01 hr 22 min 37 sec)
Heartbeat CPU 0 instructions: 185000931 cycles: 725294541 heartbeat IPC: 0.1888 cumulative IPC: 0.1893 (Simulation time: 01 hr 22 min 54 sec)
Heartbeat CPU 0 instructions: 185500931 cycles: 727986927 heartbeat IPC: 0.1857 cumulative IPC: 0.1893 (Simulation time: 01 hr 23 min 10 sec)
Heartbeat CPU 0 instructions: 186000934 cycles: 729732898 heartbeat IPC: 0.2864 cumulative IPC: 0.1895 (Simulation time: 01 hr 23 min 22 sec)
Heartbeat CPU 0 instructions: 186500937 cycles: 730586233 heartbeat IPC: 0.5859 cumulative IPC: 0.19 (Simulation time: 01 hr 23 min 30 sec)
Heartbeat CPU 0 instructions: 187000943 cycles: 731540697 heartbeat IPC: 0.5239 cumulative IPC: 0.1905 (Simulation time: 01 hr 23 min 38 sec)
Heartbeat CPU 0 instructions: 187500947 cycles: 734200462 heartbeat IPC: 0.188 cumulative IPC: 0.1905 (Simulation time: 01 hr 23 min 55 sec)
Heartbeat CPU 0 instructions: 188000952 cycles: 737020868 heartbeat IPC: 0.1773 cumulative IPC: 0.1904 (Simulation time: 01 hr 24 min 13 sec)
Heartbeat CPU 0 instructions: 188500952 cycles: 739876591 heartbeat IPC: 0.1751 cumulative IPC: 0.1903 (Simulation time: 01 hr 24 min 30 sec)
Heartbeat CPU 0 instructions: 189000958 cycles: 742722047 heartbeat IPC: 0.1757 cumulative IPC: 0.1903 (Simulation time: 01 hr 24 min 48 sec)
Heartbeat CPU 0 instructions: 189500958 cycles: 745585012 heartbeat IPC: 0.1746 cumulative IPC: 0.1902 (Simulation time: 01 hr 25 min 06 sec)
Heartbeat CPU 0 instructions: 190000959 cycles: 748425224 heartbeat IPC: 0.176 cumulative IPC: 0.1902 (Simulation time: 01 hr 25 min 23 sec)
Heartbeat CPU 0 instructions: 190500959 cycles: 751300467 heartbeat IPC: 0.1739 cumulative IPC: 0.1901 (Simulation time: 01 hr 25 min 41 sec)
Heartbeat CPU 0 instructions: 191000966 cycles: 754193746 heartbeat IPC: 0.1728 cumulative IPC: 0.19 (Simulation time: 01 hr 25 min 59 sec)
Heartbeat CPU 0 instructions: 191500966 cycles: 757029756 heartbeat IPC: 0.1763 cumulative IPC: 0.19 (Simulation time: 01 hr 26 min 16 sec)
Heartbeat CPU 0 instructions: 192000972 cycles: 759871918 heartbeat IPC: 0.1759 cumulative IPC: 0.1899 (Simulation time: 01 hr 26 min 34 sec)
Heartbeat CPU 0 instructions: 192500973 cycles: 762682886 heartbeat IPC: 0.1779 cumulative IPC: 0.1899 (Simulation time: 01 hr 26 min 51 sec)
Heartbeat CPU 0 instructions: 193000974 cycles: 765475132 heartbeat IPC: 0.1791 cumulative IPC: 0.1898 (Simulation time: 01 hr 27 min 08 sec)
Heartbeat CPU 0 instructions: 193500974 cycles: 768281914 heartbeat IPC: 0.1781 cumulative IPC: 0.1898 (Simulation time: 01 hr 27 min 26 sec)
Heartbeat CPU 0 instructions: 194000977 cycles: 771076803 heartbeat IPC: 0.1789 cumulative IPC: 0.1898 (Simulation time: 01 hr 27 min 43 sec)
Heartbeat CPU 0 instructions: 194500981 cycles: 773876046 heartbeat IPC: 0.1786 cumulative IPC: 0.1897 (Simulation time: 01 hr 28 min 00 sec)
Heartbeat CPU 0 instructions: 195000981 cycles: 776682120 heartbeat IPC: 0.1782 cumulative IPC: 0.1897 (Simulation time: 01 hr 28 min 18 sec)
Heartbeat CPU 0 instructions: 195500982 cycles: 779465611 heartbeat IPC: 0.1796 cumulative IPC: 0.1896 (Simulation time: 01 hr 28 min 35 sec)
Heartbeat CPU 0 instructions: 196000986 cycles: 782260452 heartbeat IPC: 0.1789 cumulative IPC: 0.1896 (Simulation time: 01 hr 28 min 52 sec)
Heartbeat CPU 0 instructions: 196500992 cycles: 785045639 heartbeat IPC: 0.1795 cumulative IPC: 0.1896 (Simulation time: 01 hr 29 min 09 sec)
Heartbeat CPU 0 instructions: 197000999 cycles: 787866421 heartbeat IPC: 0.1773 cumulative IPC: 0.1895 (Simulation time: 01 hr 29 min 27 sec)
Heartbeat CPU 0 instructions: 197501000 cycles: 790670025 heartbeat IPC: 0.1783 cumulative IPC: 0.1895 (Simulation time: 01 hr 29 min 44 sec)
Heartbeat CPU 0 instructions: 198001001 cycles: 793462915 heartbeat IPC: 0.179 cumulative IPC: 0.1894 (Simulation time: 01 hr 30 min 01 sec)
Heartbeat CPU 0 instructions: 198501006 cycles: 796241519 heartbeat IPC: 0.1799 cumulative IPC: 0.1894 (Simulation time: 01 hr 30 min 18 sec)
Heartbeat CPU 0 instructions: 199001011 cycles: 799041527 heartbeat IPC: 0.1786 cumulative IPC: 0.1894 (Simulation time: 01 hr 30 min 36 sec)
Heartbeat CPU 0 instructions: 199501017 cycles: 801829077 heartbeat IPC: 0.1794 cumulative IPC: 0.1893 (Simulation time: 01 hr 30 min 53 sec)
Heartbeat CPU 0 instructions: 200001018 cycles: 804653078 heartbeat IPC: 0.1771 cumulative IPC: 0.1893 (Simulation time: 01 hr 31 min 10 sec)
Heartbeat CPU 0 instructions: 200501020 cycles: 807416972 heartbeat IPC: 0.1809 cumulative IPC: 0.1893 (Simulation time: 01 hr 31 min 28 sec)
Heartbeat CPU 0 instructions: 201001021 cycles: 810180349 heartbeat IPC: 0.1809 cumulative IPC: 0.1892 (Simulation time: 01 hr 31 min 45 sec)
Heartbeat CPU 0 instructions: 201501022 cycles: 812961310 heartbeat IPC: 0.1798 cumulative IPC: 0.1892 (Simulation time: 01 hr 32 min 02 sec)
Heartbeat CPU 0 instructions: 202001022 cycles: 815724448 heartbeat IPC: 0.181 cumulative IPC: 0.1892 (Simulation time: 01 hr 32 min 19 sec)
Heartbeat CPU 0 instructions: 202501022 cycles: 818518655 heartbeat IPC: 0.1789 cumulative IPC: 0.1891 (Simulation time: 01 hr 32 min 37 sec)
Heartbeat CPU 0 instructions: 203001023 cycles: 821306961 heartbeat IPC: 0.1793 cumulative IPC: 0.1891 (Simulation time: 01 hr 32 min 54 sec)
Heartbeat CPU 0 instructions: 203501024 cycles: 824115678 heartbeat IPC: 0.178 cumulative IPC: 0.1891 (Simulation time: 01 hr 33 min 11 sec)
Heartbeat CPU 0 instructions: 204001024 cycles: 826906306 heartbeat IPC: 0.1792 cumulative IPC: 0.189 (Simulation time: 01 hr 33 min 28 sec)
Heartbeat CPU 0 instructions: 204501024 cycles: 829705732 heartbeat IPC: 0.1786 cumulative IPC: 0.189 (Simulation time: 01 hr 33 min 46 sec)
Heartbeat CPU 0 instructions: 205001025 cycles: 832478824 heartbeat IPC: 0.1803 cumulative IPC: 0.189 (Simulation time: 01 hr 34 min 03 sec)
Heartbeat CPU 0 instructions: 205501030 cycles: 835250218 heartbeat IPC: 0.1804 cumulative IPC: 0.1889 (Simulation time: 01 hr 34 min 20 sec)
Heartbeat CPU 0 instructions: 206001031 cycles: 838021243 heartbeat IPC: 0.1804 cumulative IPC: 0.1889 (Simulation time: 01 hr 34 min 37 sec)
Heartbeat CPU 0 instructions: 206501033 cycles: 840824750 heartbeat IPC: 0.1783 cumulative IPC: 0.1889 (Simulation time: 01 hr 34 min 55 sec)
Heartbeat CPU 0 instructions: 207001033 cycles: 843551319 heartbeat IPC: 0.1834 cumulative IPC: 0.1889 (Simulation time: 01 hr 35 min 12 sec)
Heartbeat CPU 0 instructions: 207501035 cycles: 846350471 heartbeat IPC: 0.1786 cumulative IPC: 0.1888 (Simulation time: 01 hr 35 min 29 sec)
Heartbeat CPU 0 instructions: 208001040 cycles: 849135060 heartbeat IPC: 0.1796 cumulative IPC: 0.1888 (Simulation time: 01 hr 35 min 46 sec)
Heartbeat CPU 0 instructions: 208501040 cycles: 851866103 heartbeat IPC: 0.1831 cumulative IPC: 0.1888 (Simulation time: 01 hr 36 min 04 sec)
Heartbeat CPU 0 instructions: 209001040 cycles: 854678475 heartbeat IPC: 0.1778 cumulative IPC: 0.1887 (Simulation time: 01 hr 36 min 21 sec)
Heartbeat CPU 0 instructions: 209501041 cycles: 857460480 heartbeat IPC: 0.1797 cumulative IPC: 0.1887 (Simulation time: 01 hr 36 min 38 sec)
Heartbeat CPU 0 instructions: 210001041 cycles: 860223356 heartbeat IPC: 0.181 cumulative IPC: 0.1887 (Simulation time: 01 hr 36 min 55 sec)
Heartbeat CPU 0 instructions: 210501041 cycles: 862969895 heartbeat IPC: 0.182 cumulative IPC: 0.1887 (Simulation time: 01 hr 37 min 13 sec)
Heartbeat CPU 0 instructions: 211001041 cycles: 865729934 heartbeat IPC: 0.1812 cumulative IPC: 0.1886 (Simulation time: 01 hr 37 min 30 sec)
Heartbeat CPU 0 instructions: 211501044 cycles: 868494971 heartbeat IPC: 0.1808 cumulative IPC: 0.1886 (Simulation time: 01 hr 37 min 47 sec)
Heartbeat CPU 0 instructions: 212001047 cycles: 871285827 heartbeat IPC: 0.1792 cumulative IPC: 0.1886 (Simulation time: 01 hr 38 min 04 sec)
Heartbeat CPU 0 instructions: 212501047 cycles: 874033376 heartbeat IPC: 0.182 cumulative IPC: 0.1886 (Simulation time: 01 hr 38 min 21 sec)
Heartbeat CPU 0 instructions: 213001049 cycles: 876782867 heartbeat IPC: 0.1819 cumulative IPC: 0.1885 (Simulation time: 01 hr 38 min 38 sec)
Heartbeat CPU 0 instructions: 213501050 cycles: 879564642 heartbeat IPC: 0.1797 cumulative IPC: 0.1885 (Simulation time: 01 hr 38 min 55 sec)
Heartbeat CPU 0 instructions: 214001051 cycles: 882352986 heartbeat IPC: 0.1793 cumulative IPC: 0.1885 (Simulation time: 01 hr 39 min 13 sec)
Heartbeat CPU 0 instructions: 214501054 cycles: 885109329 heartbeat IPC: 0.1814 cumulative IPC: 0.1885 (Simulation time: 01 hr 39 min 30 sec)
Heartbeat CPU 0 instructions: 215001054 cycles: 887879689 heartbeat IPC: 0.1805 cumulative IPC: 0.1884 (Simulation time: 01 hr 39 min 47 sec)
Heartbeat CPU 0 instructions: 215501057 cycles: 890659419 heartbeat IPC: 0.1799 cumulative IPC: 0.1884 (Simulation time: 01 hr 40 min 04 sec)
Heartbeat CPU 0 instructions: 216001063 cycles: 893405278 heartbeat IPC: 0.1821 cumulative IPC: 0.1884 (Simulation time: 01 hr 40 min 21 sec)
Heartbeat CPU 0 instructions: 216501067 cycles: 896184290 heartbeat IPC: 0.1799 cumulative IPC: 0.1884 (Simulation time: 01 hr 40 min 38 sec)
Heartbeat CPU 0 instructions: 217001068 cycles: 898969424 heartbeat IPC: 0.1795 cumulative IPC: 0.1883 (Simulation time: 01 hr 40 min 55 sec)
Heartbeat CPU 0 instructions: 217501070 cycles: 901734835 heartbeat IPC: 0.1808 cumulative IPC: 0.1883 (Simulation time: 01 hr 41 min 13 sec)
Heartbeat CPU 0 instructions: 218001075 cycles: 904465886 heartbeat IPC: 0.1831 cumulative IPC: 0.1883 (Simulation time: 01 hr 41 min 30 sec)
Heartbeat CPU 0 instructions: 218501077 cycles: 907223560 heartbeat IPC: 0.1813 cumulative IPC: 0.1883 (Simulation time: 01 hr 41 min 47 sec)
Heartbeat CPU 0 instructions: 219001077 cycles: 910002882 heartbeat IPC: 0.1799 cumulative IPC: 0.1882 (Simulation time: 01 hr 42 min 04 sec)
Heartbeat CPU 0 instructions: 219501078 cycles: 912772808 heartbeat IPC: 0.1805 cumulative IPC: 0.1882 (Simulation time: 01 hr 42 min 21 sec)
Heartbeat CPU 0 instructions: 220001078 cycles: 915536062 heartbeat IPC: 0.1809 cumulative IPC: 0.1882 (Simulation time: 01 hr 42 min 38 sec)
Heartbeat CPU 0 instructions: 220501079 cycles: 918308537 heartbeat IPC: 0.1803 cumulative IPC: 0.1882 (Simulation time: 01 hr 42 min 55 sec)
Heartbeat CPU 0 instructions: 221001085 cycles: 921084291 heartbeat IPC: 0.1801 cumulative IPC: 0.1882 (Simulation time: 01 hr 43 min 13 sec)
Heartbeat CPU 0 instructions: 221501085 cycles: 923852876 heartbeat IPC: 0.1806 cumulative IPC: 0.1881 (Simulation time: 01 hr 43 min 30 sec)
Heartbeat CPU 0 instructions: 222001085 cycles: 926643267 heartbeat IPC: 0.1792 cumulative IPC: 0.1881 (Simulation time: 01 hr 43 min 47 sec)
Heartbeat CPU 0 instructions: 222501090 cycles: 929458581 heartbeat IPC: 0.1776 cumulative IPC: 0.1881 (Simulation time: 01 hr 44 min 04 sec)
Heartbeat CPU 0 instructions: 223001095 cycles: 932254676 heartbeat IPC: 0.1788 cumulative IPC: 0.188 (Simulation time: 01 hr 44 min 22 sec)
Heartbeat CPU 0 instructions: 223501100 cycles: 935034176 heartbeat IPC: 0.1799 cumulative IPC: 0.188 (Simulation time: 01 hr 44 min 39 sec)
Heartbeat CPU 0 instructions: 224001102 cycles: 937806594 heartbeat IPC: 0.1803 cumulative IPC: 0.188 (Simulation time: 01 hr 44 min 56 sec)
Heartbeat CPU 0 instructions: 224501102 cycles: 940593854 heartbeat IPC: 0.1794 cumulative IPC: 0.188 (Simulation time: 01 hr 45 min 13 sec)
Heartbeat CPU 0 instructions: 225001103 cycles: 943386018 heartbeat IPC: 0.1791 cumulative IPC: 0.1879 (Simulation time: 01 hr 45 min 31 sec)
Heartbeat CPU 0 instructions: 225501106 cycles: 946222951 heartbeat IPC: 0.1762 cumulative IPC: 0.1879 (Simulation time: 01 hr 45 min 48 sec)
Heartbeat CPU 0 instructions: 226001109 cycles: 949002519 heartbeat IPC: 0.1799 cumulative IPC: 0.1879 (Simulation time: 01 hr 46 min 06 sec)
Heartbeat CPU 0 instructions: 226501116 cycles: 951785267 heartbeat IPC: 0.1797 cumulative IPC: 0.1879 (Simulation time: 01 hr 46 min 23 sec)
Heartbeat CPU 0 instructions: 227001117 cycles: 954556328 heartbeat IPC: 0.1804 cumulative IPC: 0.1878 (Simulation time: 01 hr 46 min 40 sec)
Heartbeat CPU 0 instructions: 227501119 cycles: 957308854 heartbeat IPC: 0.1817 cumulative IPC: 0.1878 (Simulation time: 01 hr 46 min 57 sec)
Heartbeat CPU 0 instructions: 228001124 cycles: 960140678 heartbeat IPC: 0.1766 cumulative IPC: 0.1878 (Simulation time: 01 hr 47 min 15 sec)
Heartbeat CPU 0 instructions: 228501128 cycles: 962933930 heartbeat IPC: 0.179 cumulative IPC: 0.1878 (Simulation time: 01 hr 47 min 32 sec)
Heartbeat CPU 0 instructions: 229001129 cycles: 965717808 heartbeat IPC: 0.1796 cumulative IPC: 0.1877 (Simulation time: 01 hr 47 min 49 sec)
Heartbeat CPU 0 instructions: 229501133 cycles: 968493855 heartbeat IPC: 0.1801 cumulative IPC: 0.1877 (Simulation time: 01 hr 48 min 07 sec)
Heartbeat CPU 0 instructions: 230001137 cycles: 971284549 heartbeat IPC: 0.1792 cumulative IPC: 0.1877 (Simulation time: 01 hr 48 min 24 sec)
Heartbeat CPU 0 instructions: 230501144 cycles: 974063557 heartbeat IPC: 0.1799 cumulative IPC: 0.1877 (Simulation time: 01 hr 48 min 41 sec)
Heartbeat CPU 0 instructions: 231001144 cycles: 976811755 heartbeat IPC: 0.1819 cumulative IPC: 0.1876 (Simulation time: 01 hr 48 min 58 sec)
Heartbeat CPU 0 instructions: 231501144 cycles: 979598520 heartbeat IPC: 0.1794 cumulative IPC: 0.1876 (Simulation time: 01 hr 49 min 15 sec)
Heartbeat CPU 0 instructions: 232001147 cycles: 982402791 heartbeat IPC: 0.1783 cumulative IPC: 0.1876 (Simulation time: 01 hr 49 min 33 sec)
Heartbeat CPU 0 instructions: 232501154 cycles: 985170509 heartbeat IPC: 0.1807 cumulative IPC: 0.1876 (Simulation time: 01 hr 49 min 50 sec)
Heartbeat CPU 0 instructions: 233001156 cycles: 987924897 heartbeat IPC: 0.1815 cumulative IPC: 0.1876 (Simulation time: 01 hr 50 min 07 sec)
Heartbeat CPU 0 instructions: 233501159 cycles: 990732583 heartbeat IPC: 0.1781 cumulative IPC: 0.1875 (Simulation time: 01 hr 50 min 24 sec)
Heartbeat CPU 0 instructions: 234001164 cycles: 993537467 heartbeat IPC: 0.1783 cumulative IPC: 0.1875 (Simulation time: 01 hr 50 min 42 sec)
Heartbeat CPU 0 instructions: 234501165 cycles: 996331585 heartbeat IPC: 0.1789 cumulative IPC: 0.1875 (Simulation time: 01 hr 50 min 59 sec)
Heartbeat CPU 0 instructions: 235001169 cycles: 999106410 heartbeat IPC: 0.1802 cumulative IPC: 0.1875 (Simulation time: 01 hr 51 min 16 sec)
Heartbeat CPU 0 instructions: 235501170 cycles: 1001889476 heartbeat IPC: 0.1797 cumulative IPC: 0.1874 (Simulation time: 01 hr 51 min 34 sec)
Heartbeat CPU 0 instructions: 236001174 cycles: 1004635775 heartbeat IPC: 0.1821 cumulative IPC: 0.1874 (Simulation time: 01 hr 51 min 51 sec)
Heartbeat CPU 0 instructions: 236501174 cycles: 1007419390 heartbeat IPC: 0.1796 cumulative IPC: 0.1874 (Simulation time: 01 hr 52 min 08 sec)
Heartbeat CPU 0 instructions: 237001180 cycles: 1010202048 heartbeat IPC: 0.1797 cumulative IPC: 0.1874 (Simulation time: 01 hr 52 min 25 sec)
Heartbeat CPU 0 instructions: 237501187 cycles: 1013028294 heartbeat IPC: 0.1769 cumulative IPC: 0.1874 (Simulation time: 01 hr 52 min 43 sec)
Heartbeat CPU 0 instructions: 238001189 cycles: 1015827259 heartbeat IPC: 0.1786 cumulative IPC: 0.1873 (Simulation time: 01 hr 53 min 00 sec)
Heartbeat CPU 0 instructions: 238501190 cycles: 1018608704 heartbeat IPC: 0.1798 cumulative IPC: 0.1873 (Simulation time: 01 hr 53 min 17 sec)
Heartbeat CPU 0 instructions: 239001191 cycles: 1021369866 heartbeat IPC: 0.1811 cumulative IPC: 0.1873 (Simulation time: 01 hr 53 min 34 sec)
Heartbeat CPU 0 instructions: 239501191 cycles: 1024171752 heartbeat IPC: 0.1785 cumulative IPC: 0.1873 (Simulation time: 01 hr 53 min 51 sec)
Heartbeat CPU 0 instructions: 240001191 cycles: 1026967386 heartbeat IPC: 0.1789 cumulative IPC: 0.1872 (Simulation time: 01 hr 54 min 09 sec)
Heartbeat CPU 0 instructions: 240501196 cycles: 1029765056 heartbeat IPC: 0.1787 cumulative IPC: 0.1872 (Simulation time: 01 hr 54 min 26 sec)
Heartbeat CPU 0 instructions: 241001203 cycles: 1032530716 heartbeat IPC: 0.1808 cumulative IPC: 0.1872 (Simulation time: 01 hr 54 min 43 sec)
Heartbeat CPU 0 instructions: 241501204 cycles: 1035322476 heartbeat IPC: 0.1791 cumulative IPC: 0.1872 (Simulation time: 01 hr 55 min 00 sec)
Heartbeat CPU 0 instructions: 242001204 cycles: 1038140734 heartbeat IPC: 0.1774 cumulative IPC: 0.1872 (Simulation time: 01 hr 55 min 18 sec)
Heartbeat CPU 0 instructions: 242501209 cycles: 1040921959 heartbeat IPC: 0.1798 cumulative IPC: 0.1871 (Simulation time: 01 hr 55 min 35 sec)
Heartbeat CPU 0 instructions: 243001210 cycles: 1043682541 heartbeat IPC: 0.1811 cumulative IPC: 0.1871 (Simulation time: 01 hr 55 min 52 sec)
Heartbeat CPU 0 instructions: 243501210 cycles: 1046420600 heartbeat IPC: 0.1826 cumulative IPC: 0.1871 (Simulation time: 01 hr 56 min 09 sec)
Heartbeat CPU 0 instructions: 244001211 cycles: 1049168651 heartbeat IPC: 0.1819 cumulative IPC: 0.1871 (Simulation time: 01 hr 56 min 26 sec)
Heartbeat CPU 0 instructions: 244501213 cycles: 1051917638 heartbeat IPC: 0.1819 cumulative IPC: 0.1871 (Simulation time: 01 hr 56 min 43 sec)
Heartbeat CPU 0 instructions: 245001219 cycles: 1054674628 heartbeat IPC: 0.1814 cumulative IPC: 0.1871 (Simulation time: 01 hr 57 min 01 sec)
Heartbeat CPU 0 instructions: 245501219 cycles: 1057431652 heartbeat IPC: 0.1814 cumulative IPC: 0.187 (Simulation time: 01 hr 57 min 18 sec)
Heartbeat CPU 0 instructions: 246001222 cycles: 1060185348 heartbeat IPC: 0.1816 cumulative IPC: 0.187 (Simulation time: 01 hr 57 min 35 sec)
Heartbeat CPU 0 instructions: 246501229 cycles: 1062946156 heartbeat IPC: 0.1811 cumulative IPC: 0.187 (Simulation time: 01 hr 57 min 52 sec)
Heartbeat CPU 0 instructions: 247001233 cycles: 1065754181 heartbeat IPC: 0.1781 cumulative IPC: 0.187 (Simulation time: 01 hr 58 min 09 sec)
Heartbeat CPU 0 instructions: 247501233 cycles: 1068555183 heartbeat IPC: 0.1785 cumulative IPC: 0.187 (Simulation time: 01 hr 58 min 27 sec)
Heartbeat CPU 0 instructions: 248001234 cycles: 1071339928 heartbeat IPC: 0.1796 cumulative IPC: 0.187 (Simulation time: 01 hr 58 min 44 sec)
Heartbeat CPU 0 instructions: 248501235 cycles: 1074079053 heartbeat IPC: 0.1825 cumulative IPC: 0.1869 (Simulation time: 01 hr 59 min 01 sec)
Heartbeat CPU 0 instructions: 249001236 cycles: 1076864021 heartbeat IPC: 0.1795 cumulative IPC: 0.1869 (Simulation time: 01 hr 59 min 18 sec)
Heartbeat CPU 0 instructions: 249501237 cycles: 1079597204 heartbeat IPC: 0.1829 cumulative IPC: 0.1869 (Simulation time: 01 hr 59 min 35 sec)
Simulation finished CPU 0 instructions: 200000000 cycles: 1070119579 cumulative IPC: 0.1869 (Simulation time: 01 hr 59 min 52 sec)
Simulation complete CPU 0 instructions: 200000000 cycles: 1070119579 cumulative IPC: 0.1869 (Simulation time: 01 hr 59 min 52 sec)

ChampSim completed all CPUs

=== Simulation ===
CPU 0 runs /local-ssd/ben/dpc4-traces/Graph/GAP/bc-12.trace.gz

Region of Interest Statistics

CPU 0 cumulative IPC: 0.1869 instructions: 200000000 cycles: 1070119579
CPU 0 Branch Prediction Accuracy: 84.19% MPKI: 27.85 Average ROB Occupancy at Mispredict: 35.96
Branch type MPKI
BRANCH_DIRECT_JUMP: 0
BRANCH_INDIRECT: 0
BRANCH_CONDITIONAL: 27.85
BRANCH_DIRECT_CALL: 0
BRANCH_INDIRECT_CALL: 0
BRANCH_RETURN: 0

cpu0->cpu0_STLB TOTAL        ACCESS:    9249165 HIT:    5466459 MISS:    3782706 MSHR_MERGE:          0
cpu0->cpu0_STLB LOAD         ACCESS:    9249165 HIT:    5466459 MISS:    3782706 MSHR_MERGE:          0
cpu0->cpu0_STLB RFO          ACCESS:          0 HIT:          0 MISS:          0 MSHR_MERGE:          0
cpu0->cpu0_STLB PREFETCH     ACCESS:          0 HIT:          0 MISS:          0 MSHR_MERGE:          0
cpu0->cpu0_STLB WRITE        ACCESS:          0 HIT:          0 MISS:          0 MSHR_MERGE:          0
cpu0->cpu0_STLB TRANSLATION  ACCESS:          0 HIT:          0 MISS:          0 MSHR_MERGE:          0
cpu0->cpu0_STLB PREFETCH REQUESTED:          0 ISSUED:          0 USEFUL:          0 USELESS:          0
cpu0->cpu0_STLB AVERAGE MISS LATENCY: 19.91 cycles
cpu0->cpu0_L2C TOTAL        ACCESS:   76574555 HIT:   32713433 MISS:   43861122 MSHR_MERGE:    9406138
cpu0->cpu0_L2C LOAD         ACCESS:   16125635 HIT:    5893555 MISS:   10232080 MSHR_MERGE:     208847
cpu0->cpu0_L2C RFO          ACCESS:      58523 HIT:      29554 MISS:      28969 MSHR_MERGE:          0
cpu0->cpu0_L2C PREFETCH     ACCESS:   53293386 HIT:   19741029 MISS:   33552357 MSHR_MERGE:    9197291
cpu0->cpu0_L2C WRITE        ACCESS:    5575851 HIT:    5575807 MISS:         44 MSHR_MERGE:          0
cpu0->cpu0_L2C TRANSLATION  ACCESS:    1521160 HIT:    1473488 MISS:      47672 MSHR_MERGE:          0
cpu0->cpu0_L2C PREFETCH REQUESTED:   37197490 ISSUED:   37112147 USEFUL:    3793547 USELESS:   12328712
cpu0->cpu0_L2C AVERAGE MISS LATENCY: 180.2 cycles
cpu0->cpu0_L1I TOTAL        ACCESS:     459144 HIT:     459144 MISS:          0 MSHR_MERGE:          0
cpu0->cpu0_L1I LOAD         ACCESS:     459144 HIT:     459144 MISS:          0 MSHR_MERGE:          0
cpu0->cpu0_L1I RFO          ACCESS:          0 HIT:          0 MISS:          0 MSHR_MERGE:          0
cpu0->cpu0_L1I PREFETCH     ACCESS:          0 HIT:          0 MISS:          0 MSHR_MERGE:          0
cpu0->cpu0_L1I WRITE        ACCESS:          0 HIT:          0 MISS:          0 MSHR_MERGE:          0
cpu0->cpu0_L1I TRANSLATION  ACCESS:          0 HIT:          0 MISS:          0 MSHR_MERGE:          0
cpu0->cpu0_L1I PREFETCH REQUESTED:          0 ISSUED:          0 USEFUL:          0 USELESS:          0
cpu0->cpu0_L1I AVERAGE MISS LATENCY: - cycles
cpu0->cpu0_L1D TOTAL        ACCESS:  121791967 HIT:   86672985 MISS:   35118982 MSHR_MERGE:    1232433
cpu0->cpu0_L1D LOAD         ACCESS:   52806245 HIT:   36318507 MISS:   16487738 MSHR_MERGE:     362103
cpu0->cpu0_L1D RFO          ACCESS:          0 HIT:          0 MISS:          0 MSHR_MERGE:          0
cpu0->cpu0_L1D PREFETCH     ACCESS:   50338092 HIT:   33409437 MISS:   16928655 MSHR_MERGE:     747432
cpu0->cpu0_L1D WRITE        ACCESS:   11240971 HIT:   11138265 MISS:     102706 MSHR_MERGE:      44175
cpu0->cpu0_L1D TRANSLATION  ACCESS:    7406659 HIT:    5806776 MISS:    1599883 MSHR_MERGE:      78723
cpu0->cpu0_L1D PREFETCH REQUESTED:   53387975 ISSUED:   50338084 USEFUL:    1162571 USELESS:   15018442
cpu0->cpu0_L1D AVERAGE MISS LATENCY: 114.2 cycles
cpu0->cpu0_ITLB TOTAL        ACCESS:     442947 HIT:     442947 MISS:          0 MSHR_MERGE:          0
cpu0->cpu0_ITLB LOAD         ACCESS:     442947 HIT:     442947 MISS:          0 MSHR_MERGE:          0
cpu0->cpu0_ITLB RFO          ACCESS:          0 HIT:          0 MISS:          0 MSHR_MERGE:          0
cpu0->cpu0_ITLB PREFETCH     ACCESS:          0 HIT:          0 MISS:          0 MSHR_MERGE:          0
cpu0->cpu0_ITLB WRITE        ACCESS:          0 HIT:          0 MISS:          0 MSHR_MERGE:          0
cpu0->cpu0_ITLB TRANSLATION  ACCESS:          0 HIT:          0 MISS:          0 MSHR_MERGE:          0
cpu0->cpu0_ITLB PREFETCH REQUESTED:          0 ISSUED:          0 USEFUL:          0 USELESS:          0
cpu0->cpu0_ITLB AVERAGE MISS LATENCY: - cycles
cpu0->cpu0_DTLB TOTAL        ACCESS:  109512527 HIT:   98693042 MISS:   10819485 MSHR_MERGE:    1570320
cpu0->cpu0_DTLB LOAD         ACCESS:  109512527 HIT:   98693042 MISS:   10819485 MSHR_MERGE:    1570320
cpu0->cpu0_DTLB RFO          ACCESS:          0 HIT:          0 MISS:          0 MSHR_MERGE:          0
cpu0->cpu0_DTLB PREFETCH     ACCESS:          0 HIT:          0 MISS:          0 MSHR_MERGE:          0
cpu0->cpu0_DTLB WRITE        ACCESS:          0 HIT:          0 MISS:          0 MSHR_MERGE:          0
cpu0->cpu0_DTLB TRANSLATION  ACCESS:          0 HIT:          0 MISS:          0 MSHR_MERGE:          0
cpu0->cpu0_DTLB PREFETCH REQUESTED:          0 ISSUED:          0 USEFUL:          0 USELESS:          0
cpu0->cpu0_DTLB AVERAGE MISS LATENCY: 13.56 cycles
cpu0->LLC TOTAL        ACCESS:   68131923 HIT:   25765401 MISS:   42366522 MSHR_MERGE:    6457365
cpu0->LLC LOAD         ACCESS:   10023231 HIT:    4180904 MISS:    5842327 MSHR_MERGE:     140841
cpu0->LLC RFO          ACCESS:      28969 HIT:         74 MISS:      28895 MSHR_MERGE:          0
cpu0->LLC PREFETCH     ACCESS:   52952084 HIT:   19407624 MISS:   33544460 MSHR_MERGE:    6316524
cpu0->LLC WRITE        ACCESS:    5079967 HIT:    2176728 MISS:    2903239 MSHR_MERGE:          0
cpu0->LLC TRANSLATION  ACCESS:      47672 HIT:         71 MISS:      47601 MSHR_MERGE:          0
cpu0->LLC PREFETCH REQUESTED:   28680041 ISSUED:   28596987 USEFUL:    1819645 USELESS:   11377796
cpu0->LLC AVERAGE MISS LATENCY: 185.4 cycles

DRAM Statistics

Channel 0 RQ ROW_BUFFER_HIT:    1368346
  ROW_BUFFER_MISS:   31618728
  AVG DBUS CONGESTED CYCLE: 8.835
Channel 0 WQ ROW_BUFFER_HIT:     649546
  ROW_BUFFER_MISS:    2843491
  FULL:          0
Channel 0 REFRESHES ISSUED:      89171
