[VMEM] WARNING: physical memory size is smaller than virtual memory size.

*** ChampSim Multicore Out-of-Order Simulator ***
Warmup Instructions: 50000000
Simulation Instructions: 200000000
Number of CPUs: 1
Page size: 4096
Core 0: /local-ssd/ben/dpc4-traces/gtraces_v2/charlie_0002.champsim.gz
Off-chip DRAM Size: 64 GiB Channels: 1 Width: 64-bit Data Rate: 4807 MT/s
[BTB] WARNING: target of return is a lower address than the corresponding call. This is usually a problem with your trace.
[BTB] WARNING: target of return is a lower address than the corresponding call. This is usually a problem with your trace.
[BTB] WARNING: target of return is a lower address than the corresponding call. This is usually a problem with your trace.
[BTB] WARNING: target of return is a lower address than the corresponding call. This is usually a problem with your trace.
[BTB] WARNING: target of return is a lower address than the corresponding call. This is usually a problem with your trace.
Heartbeat CPU 0 instructions: 500003 cycles: 259947 heartbeat IPC: 1.923 cumulative IPC: 1.923 (Simulation time: 00 hr 00 min 03 sec)
[BTB] WARNING: target of return is a lower address than the corresponding call. This is usually a problem with your trace.
Heartbeat CPU 0 instructions: 1000004 cycles: 458734 heartbeat IPC: 2.515 cumulative IPC: 2.18 (Simulation time: 00 hr 00 min 06 sec)
Heartbeat CPU 0 instructions: 1500008 cycles: 638699 heartbeat IPC: 2.778 cumulative IPC: 2.349 (Simulation time: 00 hr 00 min 09 sec)
[BTB] WARNING: target of return is a lower address than the corresponding call. This is usually a problem with your trace.
[BTB] WARNING: target of return is a lower address than the corresponding call. This is usually a problem with your trace.
Heartbeat CPU 0 instructions: 2000015 cycles: 812673 heartbeat IPC: 2.874 cumulative IPC: 2.461 (Simulation time: 00 hr 00 min 12 sec)
[BTB] WARNING: target of return is a lower address than the corresponding call. This is usually a problem with your trace.
[BTB] WARNING: target of return is a lower address than the corresponding call. This is usually a problem with your trace.
Heartbeat CPU 0 instructions: 2500019 cycles: 994564 heartbeat IPC: 2.749 cumulative IPC: 2.514 (Simulation time: 00 hr 00 min 15 sec)
Heartbeat CPU 0 instructions: 3000022 cycles: 1144962 heartbeat IPC: 3.325 cumulative IPC: 2.62 (Simulation time: 00 hr 00 min 18 sec)
Heartbeat CPU 0 instructions: 3500023 cycles: 1288445 heartbeat IPC: 3.485 cumulative IPC: 2.716 (Simulation time: 00 hr 00 min 20 sec)
Heartbeat CPU 0 instructions: 4000029 cycles: 1423243 heartbeat IPC: 3.709 cumulative IPC: 2.811 (Simulation time: 00 hr 00 min 22 sec)
Heartbeat CPU 0 instructions: 4500034 cycles: 1573060 heartbeat IPC: 3.337 cumulative IPC: 2.861 (Simulation time: 00 hr 00 min 25 sec)
Heartbeat CPU 0 instructions: 5000039 cycles: 1715698 heartbeat IPC: 3.505 cumulative IPC: 2.914 (Simulation time: 00 hr 00 min 27 sec)
Heartbeat CPU 0 instructions: 5500042 cycles: 1879465 heartbeat IPC: 3.053 cumulative IPC: 2.926 (Simulation time: 00 hr 00 min 30 sec)
Heartbeat CPU 0 instructions: 6000049 cycles: 2040611 heartbeat IPC: 3.103 cumulative IPC: 2.94 (Simulation time: 00 hr 00 min 33 sec)
Heartbeat CPU 0 instructions: 6500054 cycles: 2211911 heartbeat IPC: 2.919 cumulative IPC: 2.939 (Simulation time: 00 hr 00 min 35 sec)
Heartbeat CPU 0 instructions: 7000058 cycles: 2355993 heartbeat IPC: 3.47 cumulative IPC: 2.971 (Simulation time: 00 hr 00 min 38 sec)
Heartbeat CPU 0 instructions: 7500060 cycles: 2507099 heartbeat IPC: 3.309 cumulative IPC: 2.992 (Simulation time: 00 hr 00 min 40 sec)
Heartbeat CPU 0 instructions: 8000063 cycles: 2659066 heartbeat IPC: 3.29 cumulative IPC: 3.009 (Simulation time: 00 hr 00 min 43 sec)
Heartbeat CPU 0 instructions: 8500064 cycles: 2767282 heartbeat IPC: 4.62 cumulative IPC: 3.072 (Simulation time: 00 hr 00 min 45 sec)
Heartbeat CPU 0 instructions: 9000069 cycles: 2871323 heartbeat IPC: 4.806 cumulative IPC: 3.134 (Simulation time: 00 hr 00 min 46 sec)
Heartbeat CPU 0 instructions: 9500071 cycles: 2980027 heartbeat IPC: 4.6 cumulative IPC: 3.188 (Simulation time: 00 hr 00 min 48 sec)
Heartbeat CPU 0 instructions: 10000077 cycles: 3105442 heartbeat IPC: 3.987 cumulative IPC: 3.22 (Simulation time: 00 hr 00 min 50 sec)
Heartbeat CPU 0 instructions: 10500079 cycles: 3307779 heartbeat IPC: 2.471 cumulative IPC: 3.174 (Simulation time: 00 hr 00 min 53 sec)
Heartbeat CPU 0 instructions: 11000079 cycles: 3439667 heartbeat IPC: 3.791 cumulative IPC: 3.198 (Simulation time: 00 hr 00 min 55 sec)
Heartbeat CPU 0 instructions: 11500084 cycles: 3633558 heartbeat IPC: 2.579 cumulative IPC: 3.165 (Simulation time: 00 hr 00 min 58 sec)
Heartbeat CPU 0 instructions: 12000084 cycles: 3809915 heartbeat IPC: 2.835 cumulative IPC: 3.15 (Simulation time: 00 hr 01 min 01 sec)
Heartbeat CPU 0 instructions: 12500089 cycles: 3929511 heartbeat IPC: 4.181 cumulative IPC: 3.181 (Simulation time: 00 hr 01 min 03 sec)
Heartbeat CPU 0 instructions: 13000096 cycles: 4035938 heartbeat IPC: 4.698 cumulative IPC: 3.221 (Simulation time: 00 hr 01 min 05 sec)
Heartbeat CPU 0 instructions: 13500103 cycles: 4217155 heartbeat IPC: 2.759 cumulative IPC: 3.201 (Simulation time: 00 hr 01 min 07 sec)
Heartbeat CPU 0 instructions: 14000109 cycles: 4429478 heartbeat IPC: 2.355 cumulative IPC: 3.161 (Simulation time: 00 hr 01 min 10 sec)
Heartbeat CPU 0 instructions: 14500113 cycles: 4567726 heartbeat IPC: 3.617 cumulative IPC: 3.174 (Simulation time: 00 hr 01 min 12 sec)
Heartbeat CPU 0 instructions: 15000114 cycles: 4673552 heartbeat IPC: 4.725 cumulative IPC: 3.21 (Simulation time: 00 hr 01 min 14 sec)
Heartbeat CPU 0 instructions: 15500119 cycles: 4778610 heartbeat IPC: 4.759 cumulative IPC: 3.244 (Simulation time: 00 hr 01 min 16 sec)
Heartbeat CPU 0 instructions: 16000122 cycles: 4882670 heartbeat IPC: 4.805 cumulative IPC: 3.277 (Simulation time: 00 hr 01 min 17 sec)
Heartbeat CPU 0 instructions: 16500122 cycles: 4986470 heartbeat IPC: 4.817 cumulative IPC: 3.309 (Simulation time: 00 hr 01 min 19 sec)
Heartbeat CPU 0 instructions: 17000122 cycles: 5090773 heartbeat IPC: 4.794 cumulative IPC: 3.339 (Simulation time: 00 hr 01 min 20 sec)
Heartbeat CPU 0 instructions: 17500125 cycles: 5198841 heartbeat IPC: 4.627 cumulative IPC: 3.366 (Simulation time: 00 hr 01 min 22 sec)
Heartbeat CPU 0 instructions: 18000125 cycles: 5301777 heartbeat IPC: 4.857 cumulative IPC: 3.395 (Simulation time: 00 hr 01 min 24 sec)
Heartbeat CPU 0 instructions: 18500129 cycles: 5404462 heartbeat IPC: 4.869 cumulative IPC: 3.423 (Simulation time: 00 hr 01 min 25 sec)
Heartbeat CPU 0 instructions: 19000130 cycles: 5508335 heartbeat IPC: 4.814 cumulative IPC: 3.449 (Simulation time: 00 hr 01 min 27 sec)
Heartbeat CPU 0 instructions: 19500134 cycles: 5612940 heartbeat IPC: 4.78 cumulative IPC: 3.474 (Simulation time: 00 hr 01 min 28 sec)
Heartbeat CPU 0 instructions: 20000134 cycles: 5716795 heartbeat IPC: 4.814 cumulative IPC: 3.498 (Simulation time: 00 hr 01 min 30 sec)
Heartbeat CPU 0 instructions: 20500134 cycles: 5823304 heartbeat IPC: 4.694 cumulative IPC: 3.52 (Simulation time: 00 hr 01 min 32 sec)
Heartbeat CPU 0 instructions: 21000135 cycles: 5927269 heartbeat IPC: 4.809 cumulative IPC: 3.543 (Simulation time: 00 hr 01 min 33 sec)
Heartbeat CPU 0 instructions: 21500139 cycles: 6031053 heartbeat IPC: 4.818 cumulative IPC: 3.565 (Simulation time: 00 hr 01 min 35 sec)
Heartbeat CPU 0 instructions: 22000142 cycles: 6135276 heartbeat IPC: 4.797 cumulative IPC: 3.586 (Simulation time: 00 hr 01 min 36 sec)
Heartbeat CPU 0 instructions: 22500144 cycles: 6239656 heartbeat IPC: 4.79 cumulative IPC: 3.606 (Simulation time: 00 hr 01 min 38 sec)
Heartbeat CPU 0 instructions: 23000146 cycles: 6343764 heartbeat IPC: 4.803 cumulative IPC: 3.626 (Simulation time: 00 hr 01 min 40 sec)
Heartbeat CPU 0 instructions: 23500147 cycles: 6448849 heartbeat IPC: 4.758 cumulative IPC: 3.644 (Simulation time: 00 hr 01 min 41 sec)
Heartbeat CPU 0 instructions: 24000149 cycles: 6556404 heartbeat IPC: 4.649 cumulative IPC: 3.661 (Simulation time: 00 hr 01 min 43 sec)
Heartbeat CPU 0 instructions: 24500153 cycles: 6694820 heartbeat IPC: 3.612 cumulative IPC: 3.66 (Simulation time: 00 hr 01 min 45 sec)
Heartbeat CPU 0 instructions: 25000154 cycles: 6805105 heartbeat IPC: 4.534 cumulative IPC: 3.674 (Simulation time: 00 hr 01 min 47 sec)
Heartbeat CPU 0 instructions: 25500157 cycles: 6916135 heartbeat IPC: 4.503 cumulative IPC: 3.687 (Simulation time: 00 hr 01 min 48 sec)
Heartbeat CPU 0 instructions: 26000162 cycles: 7029639 heartbeat IPC: 4.405 cumulative IPC: 3.699 (Simulation time: 00 hr 01 min 50 sec)
Heartbeat CPU 0 instructions: 26500165 cycles: 7174683 heartbeat IPC: 3.447 cumulative IPC: 3.694 (Simulation time: 00 hr 01 min 52 sec)
Heartbeat CPU 0 instructions: 27000165 cycles: 7297666 heartbeat IPC: 4.066 cumulative IPC: 3.7 (Simulation time: 00 hr 01 min 54 sec)
Heartbeat CPU 0 instructions: 27500170 cycles: 7421817 heartbeat IPC: 4.027 cumulative IPC: 3.705 (Simulation time: 00 hr 01 min 56 sec)
Heartbeat CPU 0 instructions: 28000170 cycles: 7561904 heartbeat IPC: 3.569 cumulative IPC: 3.703 (Simulation time: 00 hr 01 min 58 sec)
Heartbeat CPU 0 instructions: 28500172 cycles: 7695388 heartbeat IPC: 3.746 cumulative IPC: 3.704 (Simulation time: 00 hr 02 min 00 sec)
Heartbeat CPU 0 instructions: 29000178 cycles: 7801539 heartbeat IPC: 4.71 cumulative IPC: 3.717 (Simulation time: 00 hr 02 min 02 sec)
Heartbeat CPU 0 instructions: 29500181 cycles: 7907069 heartbeat IPC: 4.738 cumulative IPC: 3.731 (Simulation time: 00 hr 02 min 03 sec)
Heartbeat CPU 0 instructions: 30000185 cycles: 8018539 heartbeat IPC: 4.486 cumulative IPC: 3.741 (Simulation time: 00 hr 02 min 05 sec)
Heartbeat CPU 0 instructions: 30500188 cycles: 8175010 heartbeat IPC: 3.195 cumulative IPC: 3.731 (Simulation time: 00 hr 02 min 08 sec)
Heartbeat CPU 0 instructions: 31000193 cycles: 8309852 heartbeat IPC: 3.708 cumulative IPC: 3.731 (Simulation time: 00 hr 02 min 10 sec)
Heartbeat CPU 0 instructions: 31500193 cycles: 8451087 heartbeat IPC: 3.54 cumulative IPC: 3.727 (Simulation time: 00 hr 02 min 12 sec)
Heartbeat CPU 0 instructions: 32000194 cycles: 8592827 heartbeat IPC: 3.528 cumulative IPC: 3.724 (Simulation time: 00 hr 02 min 14 sec)
Heartbeat CPU 0 instructions: 32500200 cycles: 8696811 heartbeat IPC: 4.808 cumulative IPC: 3.737 (Simulation time: 00 hr 02 min 16 sec)
Heartbeat CPU 0 instructions: 33000204 cycles: 8802690 heartbeat IPC: 4.722 cumulative IPC: 3.749 (Simulation time: 00 hr 02 min 17 sec)
Heartbeat CPU 0 instructions: 33500206 cycles: 8916039 heartbeat IPC: 4.411 cumulative IPC: 3.757 (Simulation time: 00 hr 02 min 19 sec)
Heartbeat CPU 0 instructions: 34000211 cycles: 9068016 heartbeat IPC: 3.29 cumulative IPC: 3.749 (Simulation time: 00 hr 02 min 21 sec)
Heartbeat CPU 0 instructions: 34500217 cycles: 9233729 heartbeat IPC: 3.017 cumulative IPC: 3.736 (Simulation time: 00 hr 02 min 24 sec)
Heartbeat CPU 0 instructions: 35000219 cycles: 9430300 heartbeat IPC: 2.544 cumulative IPC: 3.711 (Simulation time: 00 hr 02 min 27 sec)
Heartbeat CPU 0 instructions: 35500226 cycles: 9625548 heartbeat IPC: 2.561 cumulative IPC: 3.688 (Simulation time: 00 hr 02 min 30 sec)
Heartbeat CPU 0 instructions: 36000229 cycles: 9780870 heartbeat IPC: 3.219 cumulative IPC: 3.681 (Simulation time: 00 hr 02 min 33 sec)
Heartbeat CPU 0 instructions: 36500232 cycles: 9905845 heartbeat IPC: 4.001 cumulative IPC: 3.685 (Simulation time: 00 hr 02 min 35 sec)
Heartbeat CPU 0 instructions: 37000233 cycles: 10009676 heartbeat IPC: 4.816 cumulative IPC: 3.696 (Simulation time: 00 hr 02 min 36 sec)
Heartbeat CPU 0 instructions: 37500235 cycles: 10113454 heartbeat IPC: 4.818 cumulative IPC: 3.708 (Simulation time: 00 hr 02 min 38 sec)
Heartbeat CPU 0 instructions: 38000237 cycles: 10216938 heartbeat IPC: 4.832 cumulative IPC: 3.719 (Simulation time: 00 hr 02 min 40 sec)
Heartbeat CPU 0 instructions: 38500237 cycles: 10320797 heartbeat IPC: 4.814 cumulative IPC: 3.73 (Simulation time: 00 hr 02 min 41 sec)
Heartbeat CPU 0 instructions: 39000238 cycles: 10424778 heartbeat IPC: 4.809 cumulative IPC: 3.741 (Simulation time: 00 hr 02 min 43 sec)
Heartbeat CPU 0 instructions: 39500239 cycles: 10529108 heartbeat IPC: 4.792 cumulative IPC: 3.752 (Simulation time: 00 hr 02 min 44 sec)
Heartbeat CPU 0 instructions: 40000244 cycles: 10633495 heartbeat IPC: 4.79 cumulative IPC: 3.762 (Simulation time: 00 hr 02 min 46 sec)
Heartbeat CPU 0 instructions: 40500250 cycles: 10738281 heartbeat IPC: 4.772 cumulative IPC: 3.772 (Simulation time: 00 hr 02 min 48 sec)
Heartbeat CPU 0 instructions: 41000256 cycles: 10840481 heartbeat IPC: 4.892 cumulative IPC: 3.782 (Simulation time: 00 hr 02 min 49 sec)
Heartbeat CPU 0 instructions: 41500263 cycles: 10954395 heartbeat IPC: 4.389 cumulative IPC: 3.788 (Simulation time: 00 hr 02 min 51 sec)
Heartbeat CPU 0 instructions: 42000270 cycles: 11067486 heartbeat IPC: 4.421 cumulative IPC: 3.795 (Simulation time: 00 hr 02 min 53 sec)
Heartbeat CPU 0 instructions: 42500277 cycles: 11175108 heartbeat IPC: 4.646 cumulative IPC: 3.803 (Simulation time: 00 hr 02 min 54 sec)
Heartbeat CPU 0 instructions: 43000281 cycles: 11286135 heartbeat IPC: 4.503 cumulative IPC: 3.81 (Simulation time: 00 hr 02 min 56 sec)
Heartbeat CPU 0 instructions: 43500282 cycles: 11394813 heartbeat IPC: 4.601 cumulative IPC: 3.818 (Simulation time: 00 hr 02 min 58 sec)
Heartbeat CPU 0 instructions: 44000285 cycles: 11510914 heartbeat IPC: 4.307 cumulative IPC: 3.822 (Simulation time: 00 hr 02 min 59 sec)
Heartbeat CPU 0 instructions: 44500291 cycles: 11620400 heartbeat IPC: 4.567 cumulative IPC: 3.829 (Simulation time: 00 hr 03 min 01 sec)
Heartbeat CPU 0 instructions: 45000291 cycles: 11733058 heartbeat IPC: 4.438 cumulative IPC: 3.835 (Simulation time: 00 hr 03 min 03 sec)
Heartbeat CPU 0 instructions: 45500298 cycles: 11845229 heartbeat IPC: 4.458 cumulative IPC: 3.841 (Simulation time: 00 hr 03 min 05 sec)
Heartbeat CPU 0 instructions: 46000304 cycles: 11953599 heartbeat IPC: 4.614 cumulative IPC: 3.848 (Simulation time: 00 hr 03 min 06 sec)
Heartbeat CPU 0 instructions: 46500305 cycles: 12064847 heartbeat IPC: 4.494 cumulative IPC: 3.854 (Simulation time: 00 hr 03 min 08 sec)
Heartbeat CPU 0 instructions: 47000311 cycles: 12178095 heartbeat IPC: 4.415 cumulative IPC: 3.859 (Simulation time: 00 hr 03 min 10 sec)
Heartbeat CPU 0 instructions: 47500312 cycles: 12287421 heartbeat IPC: 4.573 cumulative IPC: 3.866 (Simulation time: 00 hr 03 min 11 sec)
Heartbeat CPU 0 instructions: 48000312 cycles: 12430001 heartbeat IPC: 3.507 cumulative IPC: 3.862 (Simulation time: 00 hr 03 min 14 sec)
Heartbeat CPU 0 instructions: 48500315 cycles: 12569185 heartbeat IPC: 3.592 cumulative IPC: 3.859 (Simulation time: 00 hr 03 min 16 sec)
Heartbeat CPU 0 instructions: 49000322 cycles: 12743171 heartbeat IPC: 2.874 cumulative IPC: 3.845 (Simulation time: 00 hr 03 min 19 sec)
Heartbeat CPU 0 instructions: 49500323 cycles: 12847777 heartbeat IPC: 4.78 cumulative IPC: 3.853 (Simulation time: 00 hr 03 min 20 sec)
Warmup halting CPU 0 at instruction 50000001 cycle 12951399 for remainder of phase
Warmup finished CPU 0 instructions: 50000001 cycles: 12951399 cumulative IPC: 3.861 (Simulation time: 00 hr 03 min 22 sec)
Warmup complete CPU 0 instructions: 50000001 cycles: 12951399 cumulative IPC: 3.861 (Simulation time: 00 hr 03 min 22 sec)
Heartbeat CPU 0 instructions: 50000329 cycles: 12951440 heartbeat IPC: 4.823 cumulative IPC: 8 (Simulation time: 00 hr 03 min 22 sec)
Heartbeat CPU 0 instructions: 50500333 cycles: 13150035 heartbeat IPC: 2.518 cumulative IPC: 2.519 (Simulation time: 00 hr 03 min 25 sec)
Heartbeat CPU 0 instructions: 51000335 cycles: 13606943 heartbeat IPC: 1.094 cumulative IPC: 1.526 (Simulation time: 00 hr 03 min 29 sec)
Heartbeat CPU 0 instructions: 51500337 cycles: 13864194 heartbeat IPC: 1.944 cumulative IPC: 1.644 (Simulation time: 00 hr 03 min 31 sec)
Heartbeat CPU 0 instructions: 52000339 cycles: 14103674 heartbeat IPC: 2.088 cumulative IPC: 1.736 (Simulation time: 00 hr 03 min 34 sec)
Heartbeat CPU 0 instructions: 52500340 cycles: 14339495 heartbeat IPC: 2.12 cumulative IPC: 1.801 (Simulation time: 00 hr 03 min 36 sec)
Heartbeat CPU 0 instructions: 53000340 cycles: 14641101 heartbeat IPC: 1.658 cumulative IPC: 1.776 (Simulation time: 00 hr 03 min 39 sec)
Heartbeat CPU 0 instructions: 53500342 cycles: 14890029 heartbeat IPC: 2.009 cumulative IPC: 1.806 (Simulation time: 00 hr 03 min 42 sec)
Heartbeat CPU 0 instructions: 54000348 cycles: 16419946 heartbeat IPC: 0.3268 cumulative IPC: 1.153 (Simulation time: 00 hr 03 min 53 sec)
Heartbeat CPU 0 instructions: 54500354 cycles: 18158439 heartbeat IPC: 0.2876 cumulative IPC: 0.8643 (Simulation time: 00 hr 04 min 05 sec)
Heartbeat CPU 0 instructions: 55000354 cycles: 19136913 heartbeat IPC: 0.511 cumulative IPC: 0.8084 (Simulation time: 00 hr 04 min 12 sec)
Heartbeat CPU 0 instructions: 55500358 cycles: 20880834 heartbeat IPC: 0.2867 cumulative IPC: 0.6937 (Simulation time: 00 hr 04 min 24 sec)
Heartbeat CPU 0 instructions: 56000359 cycles: 21657962 heartbeat IPC: 0.6434 cumulative IPC: 0.6892 (Simulation time: 00 hr 04 min 30 sec)
Heartbeat CPU 0 instructions: 56500359 cycles: 23391172 heartbeat IPC: 0.2885 cumulative IPC: 0.6227 (Simulation time: 00 hr 04 min 41 sec)
Heartbeat CPU 0 instructions: 57000359 cycles: 25120997 heartbeat IPC: 0.289 cumulative IPC: 0.5752 (Simulation time: 00 hr 04 min 53 sec)
Heartbeat CPU 0 instructions: 57500359 cycles: 26120435 heartbeat IPC: 0.5003 cumulative IPC: 0.5695 (Simulation time: 00 hr 05 min 00 sec)
Heartbeat CPU 0 instructions: 58000359 cycles: 27391206 heartbeat IPC: 0.3935 cumulative IPC: 0.554 (Simulation time: 00 hr 05 min 09 sec)
Heartbeat CPU 0 instructions: 58500362 cycles: 28083291 heartbeat IPC: 0.7225 cumulative IPC: 0.5618 (Simulation time: 00 hr 05 min 14 sec)
Heartbeat CPU 0 instructions: 59000365 cycles: 28447269 heartbeat IPC: 1.374 cumulative IPC: 0.5808 (Simulation time: 00 hr 05 min 17 sec)
Heartbeat CPU 0 instructions: 59500367 cycles: 28784460 heartbeat IPC: 1.483 cumulative IPC: 0.6 (Simulation time: 00 hr 05 min 20 sec)
Heartbeat CPU 0 instructions: 60000369 cycles: 30174032 heartbeat IPC: 0.3598 cumulative IPC: 0.5807 (Simulation time: 00 hr 05 min 29 sec)
Heartbeat CPU 0 instructions: 60500369 cycles: 31431279 heartbeat IPC: 0.3977 cumulative IPC: 0.5682 (Simulation time: 00 hr 05 min 38 sec)
Heartbeat CPU 0 instructions: 61000369 cycles: 31772610 heartbeat IPC: 1.465 cumulative IPC: 0.5845 (Simulation time: 00 hr 05 min 41 sec)
Heartbeat CPU 0 instructions: 61500370 cycles: 32067626 heartbeat IPC: 1.695 cumulative IPC: 0.6016 (Simulation time: 00 hr 05 min 44 sec)
Heartbeat CPU 0 instructions: 62000375 cycles: 32358122 heartbeat IPC: 1.721 cumulative IPC: 0.6184 (Simulation time: 00 hr 05 min 47 sec)
Heartbeat CPU 0 instructions: 62500377 cycles: 32624015 heartbeat IPC: 1.88 cumulative IPC: 0.6354 (Simulation time: 00 hr 05 min 49 sec)
Heartbeat CPU 0 instructions: 63000378 cycles: 32980785 heartbeat IPC: 1.401 cumulative IPC: 0.6491 (Simulation time: 00 hr 05 min 52 sec)
Heartbeat CPU 0 instructions: 63500380 cycles: 33273564 heartbeat IPC: 1.708 cumulative IPC: 0.6643 (Simulation time: 00 hr 05 min 55 sec)
Heartbeat CPU 0 instructions: 64000384 cycles: 33564280 heartbeat IPC: 1.72 cumulative IPC: 0.6792 (Simulation time: 00 hr 05 min 58 sec)
Heartbeat CPU 0 instructions: 64500388 cycles: 33845425 heartbeat IPC: 1.778 cumulative IPC: 0.694 (Simulation time: 00 hr 06 min 01 sec)
Heartbeat CPU 0 instructions: 65000388 cycles: 34165474 heartbeat IPC: 1.562 cumulative IPC: 0.7071 (Simulation time: 00 hr 06 min 04 sec)
Heartbeat CPU 0 instructions: 65500388 cycles: 34457366 heartbeat IPC: 1.713 cumulative IPC: 0.7207 (Simulation time: 00 hr 06 min 07 sec)
Heartbeat CPU 0 instructions: 66000395 cycles: 34730650 heartbeat IPC: 1.83 cumulative IPC: 0.7347 (Simulation time: 00 hr 06 min 10 sec)
Heartbeat CPU 0 instructions: 66500398 cycles: 34964663 heartbeat IPC: 2.137 cumulative IPC: 0.7496 (Simulation time: 00 hr 06 min 12 sec)
Heartbeat CPU 0 instructions: 67000399 cycles: 35323882 heartbeat IPC: 1.392 cumulative IPC: 0.7599 (Simulation time: 00 hr 06 min 16 sec)
Heartbeat CPU 0 instructions: 67500400 cycles: 35595792 heartbeat IPC: 1.839 cumulative IPC: 0.7728 (Simulation time: 00 hr 06 min 18 sec)
Heartbeat CPU 0 instructions: 68000407 cycles: 35845873 heartbeat IPC: 1.999 cumulative IPC: 0.7862 (Simulation time: 00 hr 06 min 21 sec)
Heartbeat CPU 0 instructions: 68500412 cycles: 36340246 heartbeat IPC: 1.011 cumulative IPC: 0.791 (Simulation time: 00 hr 06 min 25 sec)
Heartbeat CPU 0 instructions: 69000413 cycles: 36836553 heartbeat IPC: 1.007 cumulative IPC: 0.7955 (Simulation time: 00 hr 06 min 30 sec)
Heartbeat CPU 0 instructions: 69500417 cycles: 37128110 heartbeat IPC: 1.715 cumulative IPC: 0.8066 (Simulation time: 00 hr 06 min 32 sec)
Heartbeat CPU 0 instructions: 70000418 cycles: 37434277 heartbeat IPC: 1.633 cumulative IPC: 0.8169 (Simulation time: 00 hr 06 min 35 sec)
Heartbeat CPU 0 instructions: 70500419 cycles: 37713444 heartbeat IPC: 1.791 cumulative IPC: 0.8279 (Simulation time: 00 hr 06 min 38 sec)
Heartbeat CPU 0 instructions: 71000419 cycles: 37985320 heartbeat IPC: 1.839 cumulative IPC: 0.8389 (Simulation time: 00 hr 06 min 41 sec)
Heartbeat CPU 0 instructions: 71500423 cycles: 38317077 heartbeat IPC: 1.507 cumulative IPC: 0.8476 (Simulation time: 00 hr 06 min 44 sec)
Heartbeat CPU 0 instructions: 72000426 cycles: 38636553 heartbeat IPC: 1.565 cumulative IPC: 0.8565 (Simulation time: 00 hr 06 min 47 sec)
Heartbeat CPU 0 instructions: 72500428 cycles: 38986569 heartbeat IPC: 1.429 cumulative IPC: 0.8642 (Simulation time: 00 hr 06 min 51 sec)
Heartbeat CPU 0 instructions: 73000430 cycles: 39215490 heartbeat IPC: 2.184 cumulative IPC: 0.8757 (Simulation time: 00 hr 06 min 53 sec)
Heartbeat CPU 0 instructions: 73500430 cycles: 39500885 heartbeat IPC: 1.752 cumulative IPC: 0.8852 (Simulation time: 00 hr 06 min 56 sec)
Heartbeat CPU 0 instructions: 74000433 cycles: 39784624 heartbeat IPC: 1.762 cumulative IPC: 0.8944 (Simulation time: 00 hr 06 min 59 sec)
Heartbeat CPU 0 instructions: 74500436 cycles: 40092051 heartbeat IPC: 1.626 cumulative IPC: 0.9027 (Simulation time: 00 hr 07 min 03 sec)
Heartbeat CPU 0 instructions: 75000436 cycles: 40397236 heartbeat IPC: 1.638 cumulative IPC: 0.9109 (Simulation time: 00 hr 07 min 06 sec)
Heartbeat CPU 0 instructions: 75500440 cycles: 40754026 heartbeat IPC: 1.401 cumulative IPC: 0.9172 (Simulation time: 00 hr 07 min 09 sec)
Heartbeat CPU 0 instructions: 76000440 cycles: 41033710 heartbeat IPC: 1.788 cumulative IPC: 0.9259 (Simulation time: 00 hr 07 min 12 sec)
Heartbeat CPU 0 instructions: 76500443 cycles: 41300492 heartbeat IPC: 1.874 cumulative IPC: 0.9348 (Simulation time: 00 hr 07 min 15 sec)
Heartbeat CPU 0 instructions: 77000446 cycles: 41570945 heartbeat IPC: 1.849 cumulative IPC: 0.9434 (Simulation time: 00 hr 07 min 17 sec)
Heartbeat CPU 0 instructions: 77500446 cycles: 41837064 heartbeat IPC: 1.879 cumulative IPC: 0.952 (Simulation time: 00 hr 07 min 20 sec)
Heartbeat CPU 0 instructions: 78000448 cycles: 42142904 heartbeat IPC: 1.635 cumulative IPC: 0.9592 (Simulation time: 00 hr 07 min 23 sec)
Heartbeat CPU 0 instructions: 78500454 cycles: 42459795 heartbeat IPC: 1.578 cumulative IPC: 0.9658 (Simulation time: 00 hr 07 min 26 sec)
Heartbeat CPU 0 instructions: 79000459 cycles: 43069031 heartbeat IPC: 0.8207 cumulative IPC: 0.9629 (Simulation time: 00 hr 07 min 32 sec)
Heartbeat CPU 0 instructions: 79500460 cycles: 43330729 heartbeat IPC: 1.911 cumulative IPC: 0.9711 (Simulation time: 00 hr 07 min 34 sec)
Heartbeat CPU 0 instructions: 80000460 cycles: 43630449 heartbeat IPC: 1.668 cumulative IPC: 0.9779 (Simulation time: 00 hr 07 min 37 sec)
Heartbeat CPU 0 instructions: 80500460 cycles: 43909876 heartbeat IPC: 1.789 cumulative IPC: 0.9852 (Simulation time: 00 hr 07 min 41 sec)
Heartbeat CPU 0 instructions: 81000465 cycles: 44225552 heartbeat IPC: 1.584 cumulative IPC: 0.9912 (Simulation time: 00 hr 07 min 44 sec)
Heartbeat CPU 0 instructions: 81500466 cycles: 44502116 heartbeat IPC: 1.808 cumulative IPC: 0.9984 (Simulation time: 00 hr 07 min 46 sec)
Heartbeat CPU 0 instructions: 82000473 cycles: 44782700 heartbeat IPC: 1.782 cumulative IPC: 1.005 (Simulation time: 00 hr 07 min 49 sec)
Heartbeat CPU 0 instructions: 82500479 cycles: 45049119 heartbeat IPC: 1.877 cumulative IPC: 1.013 (Simulation time: 00 hr 07 min 52 sec)
Heartbeat CPU 0 instructions: 83000479 cycles: 45487437 heartbeat IPC: 1.141 cumulative IPC: 1.014 (Simulation time: 00 hr 07 min 56 sec)
Heartbeat CPU 0 instructions: 83500479 cycles: 45760990 heartbeat IPC: 1.828 cumulative IPC: 1.021 (Simulation time: 00 hr 07 min 59 sec)
Heartbeat CPU 0 instructions: 84000481 cycles: 46050214 heartbeat IPC: 1.729 cumulative IPC: 1.027 (Simulation time: 00 hr 08 min 02 sec)
Heartbeat CPU 0 instructions: 84500484 cycles: 46380644 heartbeat IPC: 1.513 cumulative IPC: 1.032 (Simulation time: 00 hr 08 min 05 sec)
Heartbeat CPU 0 instructions: 85000484 cycles: 46695893 heartbeat IPC: 1.586 cumulative IPC: 1.037 (Simulation time: 00 hr 08 min 08 sec)
Heartbeat CPU 0 instructions: 85500490 cycles: 46928715 heartbeat IPC: 2.148 cumulative IPC: 1.045 (Simulation time: 00 hr 08 min 11 sec)
Heartbeat CPU 0 instructions: 86000491 cycles: 47242803 heartbeat IPC: 1.592 cumulative IPC: 1.05 (Simulation time: 00 hr 08 min 14 sec)
Heartbeat CPU 0 instructions: 86500497 cycles: 47553066 heartbeat IPC: 1.612 cumulative IPC: 1.055 (Simulation time: 00 hr 08 min 17 sec)
Heartbeat CPU 0 instructions: 87000500 cycles: 47922341 heartbeat IPC: 1.354 cumulative IPC: 1.058 (Simulation time: 00 hr 08 min 20 sec)
Heartbeat CPU 0 instructions: 87500501 cycles: 48233212 heartbeat IPC: 1.608 cumulative IPC: 1.063 (Simulation time: 00 hr 08 min 23 sec)
Heartbeat CPU 0 instructions: 88000507 cycles: 48483860 heartbeat IPC: 1.995 cumulative IPC: 1.069 (Simulation time: 00 hr 08 min 26 sec)
Heartbeat CPU 0 instructions: 88500508 cycles: 48702994 heartbeat IPC: 2.282 cumulative IPC: 1.077 (Simulation time: 00 hr 08 min 29 sec)
Heartbeat CPU 0 instructions: 89000511 cycles: 49834349 heartbeat IPC: 0.442 cumulative IPC: 1.057 (Simulation time: 00 hr 08 min 38 sec)
Heartbeat CPU 0 instructions: 89500514 cycles: 50189962 heartbeat IPC: 1.406 cumulative IPC: 1.061 (Simulation time: 00 hr 08 min 41 sec)
Heartbeat CPU 0 instructions: 90000516 cycles: 50460281 heartbeat IPC: 1.85 cumulative IPC: 1.066 (Simulation time: 00 hr 08 min 44 sec)
Heartbeat CPU 0 instructions: 90500523 cycles: 50782178 heartbeat IPC: 1.553 cumulative IPC: 1.071 (Simulation time: 00 hr 08 min 47 sec)
Heartbeat CPU 0 instructions: 91000529 cycles: 51042388 heartbeat IPC: 1.922 cumulative IPC: 1.076 (Simulation time: 00 hr 08 min 50 sec)
Heartbeat CPU 0 instructions: 91500532 cycles: 51298156 heartbeat IPC: 1.955 cumulative IPC: 1.082 (Simulation time: 00 hr 08 min 52 sec)
Heartbeat CPU 0 instructions: 92000532 cycles: 51560878 heartbeat IPC: 1.903 cumulative IPC: 1.088 (Simulation time: 00 hr 08 min 55 sec)
Heartbeat CPU 0 instructions: 92500537 cycles: 51811682 heartbeat IPC: 1.994 cumulative IPC: 1.094 (Simulation time: 00 hr 08 min 58 sec)
Heartbeat CPU 0 instructions: 93000544 cycles: 52128829 heartbeat IPC: 1.577 cumulative IPC: 1.098 (Simulation time: 00 hr 09 min 01 sec)
Heartbeat CPU 0 instructions: 93500546 cycles: 52410855 heartbeat IPC: 1.773 cumulative IPC: 1.102 (Simulation time: 00 hr 09 min 04 sec)
Heartbeat CPU 0 instructions: 94000551 cycles: 52730614 heartbeat IPC: 1.564 cumulative IPC: 1.106 (Simulation time: 00 hr 09 min 07 sec)
Heartbeat CPU 0 instructions: 94500551 cycles: 52967204 heartbeat IPC: 2.113 cumulative IPC: 1.112 (Simulation time: 00 hr 09 min 10 sec)
Heartbeat CPU 0 instructions: 95000552 cycles: 53228282 heartbeat IPC: 1.915 cumulative IPC: 1.117 (Simulation time: 00 hr 09 min 13 sec)
Heartbeat CPU 0 instructions: 95500558 cycles: 53504518 heartbeat IPC: 1.81 cumulative IPC: 1.122 (Simulation time: 00 hr 09 min 15 sec)
Heartbeat CPU 0 instructions: 96000564 cycles: 53771833 heartbeat IPC: 1.87 cumulative IPC: 1.127 (Simulation time: 00 hr 09 min 18 sec)
Heartbeat CPU 0 instructions: 96500564 cycles: 54054572 heartbeat IPC: 1.768 cumulative IPC: 1.131 (Simulation time: 00 hr 09 min 21 sec)
Heartbeat CPU 0 instructions: 97000569 cycles: 54303245 heartbeat IPC: 2.011 cumulative IPC: 1.137 (Simulation time: 00 hr 09 min 24 sec)
Heartbeat CPU 0 instructions: 97500571 cycles: 54641943 heartbeat IPC: 1.476 cumulative IPC: 1.139 (Simulation time: 00 hr 09 min 28 sec)
Heartbeat CPU 0 instructions: 98000572 cycles: 54911486 heartbeat IPC: 1.855 cumulative IPC: 1.144 (Simulation time: 00 hr 09 min 30 sec)
Heartbeat CPU 0 instructions: 98500574 cycles: 55104905 heartbeat IPC: 2.585 cumulative IPC: 1.151 (Simulation time: 00 hr 09 min 33 sec)
Heartbeat CPU 0 instructions: 99000574 cycles: 55829377 heartbeat IPC: 0.6902 cumulative IPC: 1.143 (Simulation time: 00 hr 09 min 39 sec)
Heartbeat CPU 0 instructions: 99500575 cycles: 56167090 heartbeat IPC: 1.481 cumulative IPC: 1.145 (Simulation time: 00 hr 09 min 43 sec)
Heartbeat CPU 0 instructions: 100000575 cycles: 56483687 heartbeat IPC: 1.579 cumulative IPC: 1.149 (Simulation time: 00 hr 09 min 46 sec)
Heartbeat CPU 0 instructions: 100500575 cycles: 56770611 heartbeat IPC: 1.743 cumulative IPC: 1.152 (Simulation time: 00 hr 09 min 49 sec)
Heartbeat CPU 0 instructions: 101000582 cycles: 57083096 heartbeat IPC: 1.6 cumulative IPC: 1.156 (Simulation time: 00 hr 09 min 52 sec)
Heartbeat CPU 0 instructions: 101500583 cycles: 57418316 heartbeat IPC: 1.492 cumulative IPC: 1.158 (Simulation time: 00 hr 09 min 55 sec)
Heartbeat CPU 0 instructions: 102000587 cycles: 57747742 heartbeat IPC: 1.518 cumulative IPC: 1.161 (Simulation time: 00 hr 09 min 58 sec)
Heartbeat CPU 0 instructions: 102500594 cycles: 58047043 heartbeat IPC: 1.671 cumulative IPC: 1.164 (Simulation time: 00 hr 10 min 01 sec)
Heartbeat CPU 0 instructions: 103000600 cycles: 58330781 heartbeat IPC: 1.762 cumulative IPC: 1.168 (Simulation time: 00 hr 10 min 04 sec)
Heartbeat CPU 0 instructions: 103500607 cycles: 58683555 heartbeat IPC: 1.417 cumulative IPC: 1.17 (Simulation time: 00 hr 10 min 08 sec)
Heartbeat CPU 0 instructions: 104000608 cycles: 58951507 heartbeat IPC: 1.866 cumulative IPC: 1.174 (Simulation time: 00 hr 10 min 10 sec)
Heartbeat CPU 0 instructions: 104500608 cycles: 59254015 heartbeat IPC: 1.653 cumulative IPC: 1.177 (Simulation time: 00 hr 10 min 13 sec)
Heartbeat CPU 0 instructions: 105000608 cycles: 59531912 heartbeat IPC: 1.799 cumulative IPC: 1.181 (Simulation time: 00 hr 10 min 16 sec)
Heartbeat CPU 0 instructions: 105500614 cycles: 59853376 heartbeat IPC: 1.555 cumulative IPC: 1.183 (Simulation time: 00 hr 10 min 19 sec)
Heartbeat CPU 0 instructions: 106000614 cycles: 60139645 heartbeat IPC: 1.747 cumulative IPC: 1.187 (Simulation time: 00 hr 10 min 22 sec)
Heartbeat CPU 0 instructions: 106500617 cycles: 60452448 heartbeat IPC: 1.598 cumulative IPC: 1.189 (Simulation time: 00 hr 10 min 25 sec)
Heartbeat CPU 0 instructions: 107000620 cycles: 60760356 heartbeat IPC: 1.624 cumulative IPC: 1.192 (Simulation time: 00 hr 10 min 28 sec)
Heartbeat CPU 0 instructions: 107500624 cycles: 61057838 heartbeat IPC: 1.681 cumulative IPC: 1.195 (Simulation time: 00 hr 10 min 31 sec)
Heartbeat CPU 0 instructions: 108000624 cycles: 61297767 heartbeat IPC: 2.084 cumulative IPC: 1.2 (Simulation time: 00 hr 10 min 34 sec)
Heartbeat CPU 0 instructions: 108500625 cycles: 61546283 heartbeat IPC: 2.012 cumulative IPC: 1.204 (Simulation time: 00 hr 10 min 37 sec)
Heartbeat CPU 0 instructions: 109000629 cycles: 62500504 heartbeat IPC: 0.524 cumulative IPC: 1.191 (Simulation time: 00 hr 10 min 45 sec)
Heartbeat CPU 0 instructions: 109500635 cycles: 62851792 heartbeat IPC: 1.423 cumulative IPC: 1.192 (Simulation time: 00 hr 10 min 48 sec)
Heartbeat CPU 0 instructions: 110000640 cycles: 63121313 heartbeat IPC: 1.855 cumulative IPC: 1.196 (Simulation time: 00 hr 10 min 51 sec)
Heartbeat CPU 0 instructions: 110500642 cycles: 63402440 heartbeat IPC: 1.779 cumulative IPC: 1.199 (Simulation time: 00 hr 10 min 53 sec)
Heartbeat CPU 0 instructions: 111000642 cycles: 63689782 heartbeat IPC: 1.74 cumulative IPC: 1.202 (Simulation time: 00 hr 10 min 56 sec)
Heartbeat CPU 0 instructions: 111500642 cycles: 63967113 heartbeat IPC: 1.803 cumulative IPC: 1.206 (Simulation time: 00 hr 10 min 59 sec)
Heartbeat CPU 0 instructions: 112000646 cycles: 64245609 heartbeat IPC: 1.795 cumulative IPC: 1.209 (Simulation time: 00 hr 11 min 02 sec)
Heartbeat CPU 0 instructions: 112500646 cycles: 64486775 heartbeat IPC: 2.073 cumulative IPC: 1.213 (Simulation time: 00 hr 11 min 05 sec)
Heartbeat CPU 0 instructions: 113000649 cycles: 64802541 heartbeat IPC: 1.583 cumulative IPC: 1.215 (Simulation time: 00 hr 11 min 08 sec)
Heartbeat CPU 0 instructions: 113500650 cycles: 65127240 heartbeat IPC: 1.54 cumulative IPC: 1.217 (Simulation time: 00 hr 11 min 11 sec)
Heartbeat CPU 0 instructions: 114000650 cycles: 65411685 heartbeat IPC: 1.758 cumulative IPC: 1.22 (Simulation time: 00 hr 11 min 14 sec)
Heartbeat CPU 0 instructions: 114500654 cycles: 65717266 heartbeat IPC: 1.636 cumulative IPC: 1.222 (Simulation time: 00 hr 11 min 17 sec)
Heartbeat CPU 0 instructions: 115000659 cycles: 66006888 heartbeat IPC: 1.726 cumulative IPC: 1.225 (Simulation time: 00 hr 11 min 20 sec)
Heartbeat CPU 0 instructions: 115500662 cycles: 66316546 heartbeat IPC: 1.615 cumulative IPC: 1.227 (Simulation time: 00 hr 11 min 23 sec)
Heartbeat CPU 0 instructions: 116000665 cycles: 66670769 heartbeat IPC: 1.412 cumulative IPC: 1.229 (Simulation time: 00 hr 11 min 26 sec)
Heartbeat CPU 0 instructions: 116500666 cycles: 66975494 heartbeat IPC: 1.641 cumulative IPC: 1.231 (Simulation time: 00 hr 11 min 30 sec)
Heartbeat CPU 0 instructions: 117000673 cycles: 67223136 heartbeat IPC: 2.019 cumulative IPC: 1.235 (Simulation time: 00 hr 11 min 32 sec)
Heartbeat CPU 0 instructions: 117500677 cycles: 67479214 heartbeat IPC: 1.953 cumulative IPC: 1.238 (Simulation time: 00 hr 11 min 35 sec)
Heartbeat CPU 0 instructions: 118000682 cycles: 69006275 heartbeat IPC: 0.3274 cumulative IPC: 1.213 (Simulation time: 00 hr 11 min 46 sec)
Heartbeat CPU 0 instructions: 118500683 cycles: 71301679 heartbeat IPC: 0.2178 cumulative IPC: 1.174 (Simulation time: 00 hr 12 min 08 sec)
Heartbeat CPU 0 instructions: 119000683 cycles: 73259935 heartbeat IPC: 0.2553 cumulative IPC: 1.144 (Simulation time: 00 hr 12 min 29 sec)
Heartbeat CPU 0 instructions: 119500684 cycles: 75403194 heartbeat IPC: 0.2333 cumulative IPC: 1.113 (Simulation time: 00 hr 12 min 52 sec)
Heartbeat CPU 0 instructions: 120000685 cycles: 78166254 heartbeat IPC: 0.181 cumulative IPC: 1.073 (Simulation time: 00 hr 13 min 09 sec)
Heartbeat CPU 0 instructions: 120500692 cycles: 79715957 heartbeat IPC: 0.3226 cumulative IPC: 1.056 (Simulation time: 00 hr 13 min 19 sec)
Heartbeat CPU 0 instructions: 121000695 cycles: 80077887 heartbeat IPC: 1.381 cumulative IPC: 1.058 (Simulation time: 00 hr 13 min 23 sec)
Heartbeat CPU 0 instructions: 121500695 cycles: 80424214 heartbeat IPC: 1.444 cumulative IPC: 1.06 (Simulation time: 00 hr 13 min 26 sec)
Heartbeat CPU 0 instructions: 122000695 cycles: 80752379 heartbeat IPC: 1.524 cumulative IPC: 1.062 (Simulation time: 00 hr 13 min 29 sec)
Heartbeat CPU 0 instructions: 122500695 cycles: 82752844 heartbeat IPC: 0.2499 cumulative IPC: 1.039 (Simulation time: 00 hr 13 min 41 sec)
Heartbeat CPU 0 instructions: 123000696 cycles: 83685682 heartbeat IPC: 0.536 cumulative IPC: 1.032 (Simulation time: 00 hr 13 min 48 sec)
Heartbeat CPU 0 instructions: 123500700 cycles: 85581190 heartbeat IPC: 0.2638 cumulative IPC: 1.012 (Simulation time: 00 hr 14 min 00 sec)
Heartbeat CPU 0 instructions: 124000707 cycles: 87551016 heartbeat IPC: 0.2538 cumulative IPC: 0.992 (Simulation time: 00 hr 14 min 13 sec)
Heartbeat CPU 0 instructions: 124500708 cycles: 89028671 heartbeat IPC: 0.3384 cumulative IPC: 0.9793 (Simulation time: 00 hr 14 min 23 sec)
Heartbeat CPU 0 instructions: 125000708 cycles: 90335717 heartbeat IPC: 0.3825 cumulative IPC: 0.9692 (Simulation time: 00 hr 14 min 32 sec)
Heartbeat CPU 0 instructions: 125500709 cycles: 91050136 heartbeat IPC: 0.6999 cumulative IPC: 0.9667 (Simulation time: 00 hr 14 min 37 sec)
Heartbeat CPU 0 instructions: 126000714 cycles: 91536473 heartbeat IPC: 1.028 cumulative IPC: 0.9671 (Simulation time: 00 hr 14 min 42 sec)
Heartbeat CPU 0 instructions: 126500721 cycles: 92037405 heartbeat IPC: 0.9982 cumulative IPC: 0.9673 (Simulation time: 00 hr 14 min 46 sec)
Heartbeat CPU 0 instructions: 127000724 cycles: 92744295 heartbeat IPC: 0.7073 cumulative IPC: 0.965 (Simulation time: 00 hr 14 min 51 sec)
Heartbeat CPU 0 instructions: 127500729 cycles: 94571691 heartbeat IPC: 0.2736 cumulative IPC: 0.9495 (Simulation time: 00 hr 15 min 03 sec)
Heartbeat CPU 0 instructions: 128000729 cycles: 95524119 heartbeat IPC: 0.525 cumulative IPC: 0.9446 (Simulation time: 00 hr 15 min 10 sec)
Heartbeat CPU 0 instructions: 128500729 cycles: 96879126 heartbeat IPC: 0.369 cumulative IPC: 0.9353 (Simulation time: 00 hr 15 min 19 sec)
Heartbeat CPU 0 instructions: 129000736 cycles: 98657129 heartbeat IPC: 0.2812 cumulative IPC: 0.9218 (Simulation time: 00 hr 15 min 30 sec)
Heartbeat CPU 0 instructions: 129500742 cycles: 99027348 heartbeat IPC: 1.351 cumulative IPC: 0.9236 (Simulation time: 00 hr 15 min 34 sec)
Heartbeat CPU 0 instructions: 130000746 cycles: 99337987 heartbeat IPC: 1.61 cumulative IPC: 0.9261 (Simulation time: 00 hr 15 min 37 sec)
Heartbeat CPU 0 instructions: 130500753 cycles: 99678624 heartbeat IPC: 1.468 cumulative IPC: 0.9282 (Simulation time: 00 hr 15 min 40 sec)
Heartbeat CPU 0 instructions: 131000753 cycles: 101622372 heartbeat IPC: 0.2572 cumulative IPC: 0.9135 (Simulation time: 00 hr 15 min 53 sec)
Heartbeat CPU 0 instructions: 131500753 cycles: 102889566 heartbeat IPC: 0.3946 cumulative IPC: 0.9062 (Simulation time: 00 hr 16 min 01 sec)
Heartbeat CPU 0 instructions: 132000755 cycles: 103463079 heartbeat IPC: 0.8718 cumulative IPC: 0.906 (Simulation time: 00 hr 16 min 06 sec)
Heartbeat CPU 0 instructions: 132500756 cycles: 104442306 heartbeat IPC: 0.5106 cumulative IPC: 0.9017 (Simulation time: 00 hr 16 min 12 sec)
Heartbeat CPU 0 instructions: 133000762 cycles: 106001135 heartbeat IPC: 0.3208 cumulative IPC: 0.892 (Simulation time: 00 hr 16 min 22 sec)
Heartbeat CPU 0 instructions: 133500762 cycles: 106987477 heartbeat IPC: 0.5069 cumulative IPC: 0.888 (Simulation time: 00 hr 16 min 29 sec)
Heartbeat CPU 0 instructions: 134000762 cycles: 108254422 heartbeat IPC: 0.3947 cumulative IPC: 0.8814 (Simulation time: 00 hr 16 min 38 sec)
Heartbeat CPU 0 instructions: 134500768 cycles: 109868821 heartbeat IPC: 0.3097 cumulative IPC: 0.8719 (Simulation time: 00 hr 16 min 50 sec)
Heartbeat CPU 0 instructions: 135000769 cycles: 110283416 heartbeat IPC: 1.206 cumulative IPC: 0.8733 (Simulation time: 00 hr 16 min 53 sec)
Heartbeat CPU 0 instructions: 135500775 cycles: 110547645 heartbeat IPC: 1.892 cumulative IPC: 0.8761 (Simulation time: 00 hr 16 min 56 sec)
Heartbeat CPU 0 instructions: 136000776 cycles: 110867512 heartbeat IPC: 1.563 cumulative IPC: 0.8783 (Simulation time: 00 hr 16 min 59 sec)
Heartbeat CPU 0 instructions: 136500778 cycles: 111798796 heartbeat IPC: 0.5369 cumulative IPC: 0.8751 (Simulation time: 00 hr 17 min 05 sec)
Heartbeat CPU 0 instructions: 137000780 cycles: 114238361 heartbeat IPC: 0.205 cumulative IPC: 0.859 (Simulation time: 00 hr 17 min 21 sec)
Heartbeat CPU 0 instructions: 137500781 cycles: 115357206 heartbeat IPC: 0.4469 cumulative IPC: 0.8545 (Simulation time: 00 hr 17 min 28 sec)
Heartbeat CPU 0 instructions: 138000784 cycles: 115744174 heartbeat IPC: 1.292 cumulative IPC: 0.8561 (Simulation time: 00 hr 17 min 32 sec)
Heartbeat CPU 0 instructions: 138500786 cycles: 116218374 heartbeat IPC: 1.054 cumulative IPC: 0.857 (Simulation time: 00 hr 17 min 36 sec)
Heartbeat CPU 0 instructions: 139000789 cycles: 116440427 heartbeat IPC: 2.252 cumulative IPC: 0.86 (Simulation time: 00 hr 17 min 39 sec)
Heartbeat CPU 0 instructions: 139500794 cycles: 116639598 heartbeat IPC: 2.51 cumulative IPC: 0.8632 (Simulation time: 00 hr 17 min 41 sec)
Heartbeat CPU 0 instructions: 140000794 cycles: 117957736 heartbeat IPC: 0.3793 cumulative IPC: 0.8571 (Simulation time: 00 hr 17 min 50 sec)
Heartbeat CPU 0 instructions: 140500797 cycles: 119109955 heartbeat IPC: 0.4339 cumulative IPC: 0.8525 (Simulation time: 00 hr 17 min 59 sec)
Heartbeat CPU 0 instructions: 141000797 cycles: 120070867 heartbeat IPC: 0.5203 cumulative IPC: 0.8495 (Simulation time: 00 hr 18 min 05 sec)
Heartbeat CPU 0 instructions: 141500799 cycles: 120863475 heartbeat IPC: 0.6308 cumulative IPC: 0.8479 (Simulation time: 00 hr 18 min 10 sec)
Heartbeat CPU 0 instructions: 142000805 cycles: 121336392 heartbeat IPC: 1.057 cumulative IPC: 0.8488 (Simulation time: 00 hr 18 min 15 sec)
Heartbeat CPU 0 instructions: 142500812 cycles: 122368900 heartbeat IPC: 0.4843 cumulative IPC: 0.8454 (Simulation time: 00 hr 18 min 22 sec)
Heartbeat CPU 0 instructions: 143000816 cycles: 123648607 heartbeat IPC: 0.3907 cumulative IPC: 0.8401 (Simulation time: 00 hr 18 min 30 sec)
Heartbeat CPU 0 instructions: 143500817 cycles: 124664140 heartbeat IPC: 0.4924 cumulative IPC: 0.837 (Simulation time: 00 hr 18 min 37 sec)
Heartbeat CPU 0 instructions: 144000821 cycles: 126366490 heartbeat IPC: 0.2937 cumulative IPC: 0.8288 (Simulation time: 00 hr 18 min 48 sec)
Heartbeat CPU 0 instructions: 144500826 cycles: 128062599 heartbeat IPC: 0.2948 cumulative IPC: 0.821 (Simulation time: 00 hr 18 min 59 sec)
Heartbeat CPU 0 instructions: 145000829 cycles: 129828817 heartbeat IPC: 0.2831 cumulative IPC: 0.8128 (Simulation time: 00 hr 19 min 10 sec)
Heartbeat CPU 0 instructions: 145500832 cycles: 131350058 heartbeat IPC: 0.3287 cumulative IPC: 0.8066 (Simulation time: 00 hr 19 min 20 sec)
Heartbeat CPU 0 instructions: 146000832 cycles: 131954699 heartbeat IPC: 0.8269 cumulative IPC: 0.8067 (Simulation time: 00 hr 19 min 25 sec)
Heartbeat CPU 0 instructions: 146500832 cycles: 132335164 heartbeat IPC: 1.314 cumulative IPC: 0.8083 (Simulation time: 00 hr 19 min 28 sec)
Heartbeat CPU 0 instructions: 147000836 cycles: 132661067 heartbeat IPC: 1.534 cumulative IPC: 0.8103 (Simulation time: 00 hr 19 min 31 sec)
Heartbeat CPU 0 instructions: 147500836 cycles: 132976270 heartbeat IPC: 1.586 cumulative IPC: 0.8123 (Simulation time: 00 hr 19 min 34 sec)
Heartbeat CPU 0 instructions: 148000836 cycles: 133229524 heartbeat IPC: 1.974 cumulative IPC: 0.8148 (Simulation time: 00 hr 19 min 37 sec)
Heartbeat CPU 0 instructions: 148500836 cycles: 133560089 heartbeat IPC: 1.513 cumulative IPC: 0.8167 (Simulation time: 00 hr 19 min 40 sec)
Heartbeat CPU 0 instructions: 149000837 cycles: 133866274 heartbeat IPC: 1.633 cumulative IPC: 0.8188 (Simulation time: 00 hr 19 min 43 sec)
Heartbeat CPU 0 instructions: 149500837 cycles: 134186040 heartbeat IPC: 1.564 cumulative IPC: 0.8207 (Simulation time: 00 hr 19 min 46 sec)
Heartbeat CPU 0 instructions: 150000840 cycles: 134466851 heartbeat IPC: 1.781 cumulative IPC: 0.8229 (Simulation time: 00 hr 19 min 49 sec)
Heartbeat CPU 0 instructions: 150500843 cycles: 134741155 heartbeat IPC: 1.823 cumulative IPC: 0.8252 (Simulation time: 00 hr 19 min 51 sec)
Heartbeat CPU 0 instructions: 151000845 cycles: 134997107 heartbeat IPC: 1.953 cumulative IPC: 0.8276 (Simulation time: 00 hr 19 min 54 sec)
Heartbeat CPU 0 instructions: 151500849 cycles: 135524797 heartbeat IPC: 0.9475 cumulative IPC: 0.8281 (Simulation time: 00 hr 19 min 58 sec)
Heartbeat CPU 0 instructions: 152000849 cycles: 135780606 heartbeat IPC: 1.955 cumulative IPC: 0.8304 (Simulation time: 00 hr 20 min 01 sec)
Heartbeat CPU 0 instructions: 152500851 cycles: 136852812 heartbeat IPC: 0.4663 cumulative IPC: 0.8273 (Simulation time: 00 hr 20 min 09 sec)
Heartbeat CPU 0 instructions: 153000852 cycles: 138326386 heartbeat IPC: 0.3393 cumulative IPC: 0.8215 (Simulation time: 00 hr 20 min 19 sec)
Heartbeat CPU 0 instructions: 153500854 cycles: 140247267 heartbeat IPC: 0.2603 cumulative IPC: 0.8131 (Simulation time: 00 hr 20 min 32 sec)
Heartbeat CPU 0 instructions: 154000854 cycles: 142710318 heartbeat IPC: 0.203 cumulative IPC: 0.8015 (Simulation time: 00 hr 20 min 47 sec)
Heartbeat CPU 0 instructions: 154500855 cycles: 143371400 heartbeat IPC: 0.7563 cumulative IPC: 0.8013 (Simulation time: 00 hr 20 min 53 sec)
Heartbeat CPU 0 instructions: 155000855 cycles: 144062634 heartbeat IPC: 0.7233 cumulative IPC: 0.8009 (Simulation time: 00 hr 20 min 58 sec)
Heartbeat CPU 0 instructions: 155500856 cycles: 144736079 heartbeat IPC: 0.7425 cumulative IPC: 0.8006 (Simulation time: 00 hr 21 min 04 sec)
Heartbeat CPU 0 instructions: 156000858 cycles: 145378692 heartbeat IPC: 0.7781 cumulative IPC: 0.8004 (Simulation time: 00 hr 21 min 10 sec)
Heartbeat CPU 0 instructions: 156500862 cycles: 146034819 heartbeat IPC: 0.7621 cumulative IPC: 0.8003 (Simulation time: 00 hr 21 min 16 sec)
Heartbeat CPU 0 instructions: 157000862 cycles: 146791301 heartbeat IPC: 0.661 cumulative IPC: 0.7995 (Simulation time: 00 hr 21 min 23 sec)
Heartbeat CPU 0 instructions: 157500866 cycles: 147351445 heartbeat IPC: 0.8926 cumulative IPC: 0.7999 (Simulation time: 00 hr 21 min 29 sec)
Heartbeat CPU 0 instructions: 158000871 cycles: 147859992 heartbeat IPC: 0.9832 cumulative IPC: 0.8005 (Simulation time: 00 hr 21 min 35 sec)
Heartbeat CPU 0 instructions: 158500875 cycles: 148589039 heartbeat IPC: 0.6858 cumulative IPC: 0.7999 (Simulation time: 00 hr 21 min 42 sec)
Heartbeat CPU 0 instructions: 159000876 cycles: 149192945 heartbeat IPC: 0.8279 cumulative IPC: 0.8001 (Simulation time: 00 hr 21 min 48 sec)
Heartbeat CPU 0 instructions: 159500876 cycles: 149853350 heartbeat IPC: 0.7571 cumulative IPC: 0.7998 (Simulation time: 00 hr 21 min 55 sec)
Heartbeat CPU 0 instructions: 160000879 cycles: 150464334 heartbeat IPC: 0.8184 cumulative IPC: 0.7999 (Simulation time: 00 hr 22 min 01 sec)
Heartbeat CPU 0 instructions: 160500879 cycles: 151233415 heartbeat IPC: 0.6501 cumulative IPC: 0.7991 (Simulation time: 00 hr 22 min 09 sec)
Heartbeat CPU 0 instructions: 161000881 cycles: 151929996 heartbeat IPC: 0.7178 cumulative IPC: 0.7987 (Simulation time: 00 hr 22 min 16 sec)
Heartbeat CPU 0 instructions: 161500882 cycles: 152712357 heartbeat IPC: 0.6391 cumulative IPC: 0.7978 (Simulation time: 00 hr 22 min 23 sec)
Heartbeat CPU 0 instructions: 162000884 cycles: 153178319 heartbeat IPC: 1.073 cumulative IPC: 0.7987 (Simulation time: 00 hr 22 min 29 sec)
Heartbeat CPU 0 instructions: 162500884 cycles: 153805032 heartbeat IPC: 0.7978 cumulative IPC: 0.7987 (Simulation time: 00 hr 22 min 35 sec)
Heartbeat CPU 0 instructions: 163000888 cycles: 154743879 heartbeat IPC: 0.5326 cumulative IPC: 0.7969 (Simulation time: 00 hr 22 min 43 sec)
Heartbeat CPU 0 instructions: 163500894 cycles: 155535592 heartbeat IPC: 0.6315 cumulative IPC: 0.796 (Simulation time: 00 hr 22 min 50 sec)
Heartbeat CPU 0 instructions: 164000900 cycles: 156121948 heartbeat IPC: 0.8527 cumulative IPC: 0.7963 (Simulation time: 00 hr 22 min 56 sec)
Heartbeat CPU 0 instructions: 164500902 cycles: 156811206 heartbeat IPC: 0.7254 cumulative IPC: 0.7959 (Simulation time: 00 hr 23 min 03 sec)
Heartbeat CPU 0 instructions: 165000906 cycles: 157462442 heartbeat IPC: 0.7678 cumulative IPC: 0.7958 (Simulation time: 00 hr 23 min 09 sec)
Heartbeat CPU 0 instructions: 165500908 cycles: 157981348 heartbeat IPC: 0.9636 cumulative IPC: 0.7964 (Simulation time: 00 hr 23 min 14 sec)
Heartbeat CPU 0 instructions: 166000908 cycles: 158641738 heartbeat IPC: 0.7571 cumulative IPC: 0.7962 (Simulation time: 00 hr 23 min 21 sec)
Heartbeat CPU 0 instructions: 166500913 cycles: 159152143 heartbeat IPC: 0.9796 cumulative IPC: 0.7969 (Simulation time: 00 hr 23 min 27 sec)
Heartbeat CPU 0 instructions: 167000915 cycles: 159786030 heartbeat IPC: 0.7888 cumulative IPC: 0.7968 (Simulation time: 00 hr 23 min 33 sec)
Heartbeat CPU 0 instructions: 167500918 cycles: 160566289 heartbeat IPC: 0.6408 cumulative IPC: 0.796 (Simulation time: 00 hr 23 min 40 sec)
Heartbeat CPU 0 instructions: 168000920 cycles: 161158140 heartbeat IPC: 0.8448 cumulative IPC: 0.7962 (Simulation time: 00 hr 23 min 46 sec)
Heartbeat CPU 0 instructions: 168500923 cycles: 161818158 heartbeat IPC: 0.7576 cumulative IPC: 0.796 (Simulation time: 00 hr 23 min 52 sec)
Heartbeat CPU 0 instructions: 169000923 cycles: 162339306 heartbeat IPC: 0.9594 cumulative IPC: 0.7966 (Simulation time: 00 hr 23 min 58 sec)
Heartbeat CPU 0 instructions: 169500924 cycles: 162999600 heartbeat IPC: 0.7572 cumulative IPC: 0.7964 (Simulation time: 00 hr 24 min 04 sec)
Heartbeat CPU 0 instructions: 170000929 cycles: 163616786 heartbeat IPC: 0.8101 cumulative IPC: 0.7965 (Simulation time: 00 hr 24 min 10 sec)
Heartbeat CPU 0 instructions: 170500932 cycles: 164217035 heartbeat IPC: 0.833 cumulative IPC: 0.7966 (Simulation time: 00 hr 24 min 16 sec)
Heartbeat CPU 0 instructions: 171000933 cycles: 164895271 heartbeat IPC: 0.7372 cumulative IPC: 0.7964 (Simulation time: 00 hr 24 min 23 sec)
Heartbeat CPU 0 instructions: 171500933 cycles: 165657164 heartbeat IPC: 0.6563 cumulative IPC: 0.7957 (Simulation time: 00 hr 24 min 30 sec)
Heartbeat CPU 0 instructions: 172000937 cycles: 166227537 heartbeat IPC: 0.8766 cumulative IPC: 0.796 (Simulation time: 00 hr 24 min 36 sec)
Heartbeat CPU 0 instructions: 172500940 cycles: 166808619 heartbeat IPC: 0.8605 cumulative IPC: 0.7962 (Simulation time: 00 hr 24 min 41 sec)
Heartbeat CPU 0 instructions: 173000941 cycles: 167557083 heartbeat IPC: 0.668 cumulative IPC: 0.7956 (Simulation time: 00 hr 24 min 48 sec)
Heartbeat CPU 0 instructions: 173500943 cycles: 168190181 heartbeat IPC: 0.7898 cumulative IPC: 0.7956 (Simulation time: 00 hr 24 min 54 sec)
Heartbeat CPU 0 instructions: 174000946 cycles: 168773423 heartbeat IPC: 0.8573 cumulative IPC: 0.7958 (Simulation time: 00 hr 25 min 00 sec)
Heartbeat CPU 0 instructions: 174500948 cycles: 169361980 heartbeat IPC: 0.8495 cumulative IPC: 0.796 (Simulation time: 00 hr 25 min 06 sec)
Heartbeat CPU 0 instructions: 175000948 cycles: 169946627 heartbeat IPC: 0.8552 cumulative IPC: 0.7962 (Simulation time: 00 hr 25 min 12 sec)
Heartbeat CPU 0 instructions: 175500948 cycles: 172790225 heartbeat IPC: 0.1758 cumulative IPC: 0.7852 (Simulation time: 00 hr 25 min 30 sec)
Heartbeat CPU 0 instructions: 176000948 cycles: 174478148 heartbeat IPC: 0.2962 cumulative IPC: 0.7801 (Simulation time: 00 hr 25 min 41 sec)
Heartbeat CPU 0 instructions: 176500951 cycles: 175829408 heartbeat IPC: 0.37 cumulative IPC: 0.7767 (Simulation time: 00 hr 25 min 50 sec)
Heartbeat CPU 0 instructions: 177000956 cycles: 176958697 heartbeat IPC: 0.4428 cumulative IPC: 0.7744 (Simulation time: 00 hr 25 min 57 sec)
Heartbeat CPU 0 instructions: 177500956 cycles: 181456343 heartbeat IPC: 0.1112 cumulative IPC: 0.7567 (Simulation time: 00 hr 26 min 24 sec)
Heartbeat CPU 0 instructions: 178000958 cycles: 185116383 heartbeat IPC: 0.1366 cumulative IPC: 0.7435 (Simulation time: 00 hr 26 min 45 sec)
Heartbeat CPU 0 instructions: 178500961 cycles: 186541924 heartbeat IPC: 0.3507 cumulative IPC: 0.7403 (Simulation time: 00 hr 26 min 54 sec)
Heartbeat CPU 0 instructions: 179000968 cycles: 187129595 heartbeat IPC: 0.8508 cumulative IPC: 0.7406 (Simulation time: 00 hr 27 min 00 sec)
Heartbeat CPU 0 instructions: 179500971 cycles: 187526275 heartbeat IPC: 1.26 cumulative IPC: 0.7418 (Simulation time: 00 hr 27 min 03 sec)
Heartbeat CPU 0 instructions: 180000974 cycles: 187798318 heartbeat IPC: 1.838 cumulative IPC: 0.7435 (Simulation time: 00 hr 27 min 07 sec)
Heartbeat CPU 0 instructions: 180500974 cycles: 187995605 heartbeat IPC: 2.534 cumulative IPC: 0.7455 (Simulation time: 00 hr 27 min 09 sec)
Heartbeat CPU 0 instructions: 181000981 cycles: 188833753 heartbeat IPC: 0.5966 cumulative IPC: 0.7448 (Simulation time: 00 hr 27 min 17 sec)
Heartbeat CPU 0 instructions: 181500983 cycles: 189632922 heartbeat IPC: 0.6257 cumulative IPC: 0.7443 (Simulation time: 00 hr 27 min 24 sec)
Heartbeat CPU 0 instructions: 182000984 cycles: 190220833 heartbeat IPC: 0.8505 cumulative IPC: 0.7446 (Simulation time: 00 hr 27 min 30 sec)
Heartbeat CPU 0 instructions: 182500987 cycles: 190783540 heartbeat IPC: 0.8886 cumulative IPC: 0.7451 (Simulation time: 00 hr 27 min 35 sec)
Heartbeat CPU 0 instructions: 183000991 cycles: 191378986 heartbeat IPC: 0.8397 cumulative IPC: 0.7454 (Simulation time: 00 hr 27 min 42 sec)
Heartbeat CPU 0 instructions: 183500991 cycles: 192107508 heartbeat IPC: 0.6863 cumulative IPC: 0.7452 (Simulation time: 00 hr 27 min 48 sec)
Heartbeat CPU 0 instructions: 184000995 cycles: 192560369 heartbeat IPC: 1.104 cumulative IPC: 0.7461 (Simulation time: 00 hr 27 min 53 sec)
Heartbeat CPU 0 instructions: 184500997 cycles: 194193101 heartbeat IPC: 0.3062 cumulative IPC: 0.7421 (Simulation time: 00 hr 28 min 03 sec)
Heartbeat CPU 0 instructions: 185000999 cycles: 195060313 heartbeat IPC: 0.5766 cumulative IPC: 0.7413 (Simulation time: 00 hr 28 min 09 sec)
Heartbeat CPU 0 instructions: 185501003 cycles: 195852235 heartbeat IPC: 0.6314 cumulative IPC: 0.7408 (Simulation time: 00 hr 28 min 15 sec)
Heartbeat CPU 0 instructions: 186001009 cycles: 196411508 heartbeat IPC: 0.894 cumulative IPC: 0.7413 (Simulation time: 00 hr 28 min 21 sec)
Heartbeat CPU 0 instructions: 186501013 cycles: 197133664 heartbeat IPC: 0.6924 cumulative IPC: 0.7411 (Simulation time: 00 hr 28 min 27 sec)
Heartbeat CPU 0 instructions: 187001017 cycles: 197912956 heartbeat IPC: 0.6416 cumulative IPC: 0.7407 (Simulation time: 00 hr 28 min 33 sec)
Heartbeat CPU 0 instructions: 187501023 cycles: 198572979 heartbeat IPC: 0.7576 cumulative IPC: 0.7408 (Simulation time: 00 hr 28 min 39 sec)
Heartbeat CPU 0 instructions: 188001028 cycles: 199277629 heartbeat IPC: 0.7096 cumulative IPC: 0.7406 (Simulation time: 00 hr 28 min 46 sec)
Heartbeat CPU 0 instructions: 188501029 cycles: 199958036 heartbeat IPC: 0.7349 cumulative IPC: 0.7406 (Simulation time: 00 hr 28 min 52 sec)
Heartbeat CPU 0 instructions: 189001029 cycles: 200600240 heartbeat IPC: 0.7786 cumulative IPC: 0.7408 (Simulation time: 00 hr 28 min 57 sec)
Heartbeat CPU 0 instructions: 189501031 cycles: 201690535 heartbeat IPC: 0.4586 cumulative IPC: 0.7391 (Simulation time: 00 hr 29 min 05 sec)
Heartbeat CPU 0 instructions: 190001031 cycles: 202782776 heartbeat IPC: 0.4578 cumulative IPC: 0.7375 (Simulation time: 00 hr 29 min 14 sec)
Heartbeat CPU 0 instructions: 190501031 cycles: 204546948 heartbeat IPC: 0.2834 cumulative IPC: 0.7333 (Simulation time: 00 hr 29 min 31 sec)
Heartbeat CPU 0 instructions: 191001033 cycles: 206158883 heartbeat IPC: 0.3102 cumulative IPC: 0.7298 (Simulation time: 00 hr 29 min 46 sec)
Heartbeat CPU 0 instructions: 191501040 cycles: 207562967 heartbeat IPC: 0.3561 cumulative IPC: 0.7271 (Simulation time: 00 hr 29 min 56 sec)
Heartbeat CPU 0 instructions: 192001044 cycles: 208779713 heartbeat IPC: 0.4109 cumulative IPC: 0.7251 (Simulation time: 00 hr 30 min 05 sec)
Heartbeat CPU 0 instructions: 192501048 cycles: 210102395 heartbeat IPC: 0.378 cumulative IPC: 0.7228 (Simulation time: 00 hr 30 min 15 sec)
Heartbeat CPU 0 instructions: 193001050 cycles: 211276009 heartbeat IPC: 0.426 cumulative IPC: 0.721 (Simulation time: 00 hr 30 min 24 sec)
Heartbeat CPU 0 instructions: 193501052 cycles: 212661595 heartbeat IPC: 0.3609 cumulative IPC: 0.7185 (Simulation time: 00 hr 30 min 35 sec)
Heartbeat CPU 0 instructions: 194001053 cycles: 214013899 heartbeat IPC: 0.3697 cumulative IPC: 0.7162 (Simulation time: 00 hr 30 min 46 sec)
Heartbeat CPU 0 instructions: 194501054 cycles: 215243083 heartbeat IPC: 0.4068 cumulative IPC: 0.7143 (Simulation time: 00 hr 30 min 56 sec)
Heartbeat CPU 0 instructions: 195001061 cycles: 216308397 heartbeat IPC: 0.4694 cumulative IPC: 0.713 (Simulation time: 00 hr 31 min 04 sec)
Heartbeat CPU 0 instructions: 195501062 cycles: 217686958 heartbeat IPC: 0.3627 cumulative IPC: 0.7107 (Simulation time: 00 hr 31 min 15 sec)
Heartbeat CPU 0 instructions: 196001064 cycles: 218419114 heartbeat IPC: 0.6829 cumulative IPC: 0.7106 (Simulation time: 00 hr 31 min 22 sec)
Heartbeat CPU 0 instructions: 196501070 cycles: 219112380 heartbeat IPC: 0.7212 cumulative IPC: 0.7106 (Simulation time: 00 hr 31 min 29 sec)
Heartbeat CPU 0 instructions: 197001072 cycles: 219844712 heartbeat IPC: 0.6828 cumulative IPC: 0.7105 (Simulation time: 00 hr 31 min 36 sec)
Heartbeat CPU 0 instructions: 197501075 cycles: 220820588 heartbeat IPC: 0.5124 cumulative IPC: 0.7096 (Simulation time: 00 hr 31 min 44 sec)
Heartbeat CPU 0 instructions: 198001075 cycles: 222595300 heartbeat IPC: 0.2817 cumulative IPC: 0.706 (Simulation time: 00 hr 31 min 58 sec)
Heartbeat CPU 0 instructions: 198501079 cycles: 223550468 heartbeat IPC: 0.5235 cumulative IPC: 0.7051 (Simulation time: 00 hr 32 min 07 sec)
Heartbeat CPU 0 instructions: 199001083 cycles: 224468579 heartbeat IPC: 0.5446 cumulative IPC: 0.7044 (Simulation time: 00 hr 32 min 15 sec)
Heartbeat CPU 0 instructions: 199501083 cycles: 225501504 heartbeat IPC: 0.4841 cumulative IPC: 0.7034 (Simulation time: 00 hr 32 min 23 sec)
Heartbeat CPU 0 instructions: 200001084 cycles: 227144866 heartbeat IPC: 0.3043 cumulative IPC: 0.7003 (Simulation time: 00 hr 32 min 33 sec)
Heartbeat CPU 0 instructions: 200501089 cycles: 227870333 heartbeat IPC: 0.6892 cumulative IPC: 0.7003 (Simulation time: 00 hr 32 min 39 sec)
Heartbeat CPU 0 instructions: 201001096 cycles: 229384392 heartbeat IPC: 0.3302 cumulative IPC: 0.6977 (Simulation time: 00 hr 32 min 53 sec)
Heartbeat CPU 0 instructions: 201501100 cycles: 230765389 heartbeat IPC: 0.3621 cumulative IPC: 0.6956 (Simulation time: 00 hr 33 min 05 sec)
Heartbeat CPU 0 instructions: 202001101 cycles: 232523347 heartbeat IPC: 0.2844 cumulative IPC: 0.6923 (Simulation time: 00 hr 33 min 15 sec)
Heartbeat CPU 0 instructions: 202501102 cycles: 233642086 heartbeat IPC: 0.4469 cumulative IPC: 0.691 (Simulation time: 00 hr 33 min 22 sec)
Heartbeat CPU 0 instructions: 203001103 cycles: 234046784 heartbeat IPC: 1.235 cumulative IPC: 0.692 (Simulation time: 00 hr 33 min 25 sec)
Heartbeat CPU 0 instructions: 203501105 cycles: 234320845 heartbeat IPC: 1.824 cumulative IPC: 0.6934 (Simulation time: 00 hr 33 min 27 sec)
Heartbeat CPU 0 instructions: 204001106 cycles: 234623419 heartbeat IPC: 1.652 cumulative IPC: 0.6947 (Simulation time: 00 hr 33 min 30 sec)
Heartbeat CPU 0 instructions: 204501109 cycles: 236319725 heartbeat IPC: 0.2948 cumulative IPC: 0.6917 (Simulation time: 00 hr 33 min 40 sec)
Heartbeat CPU 0 instructions: 205001111 cycles: 236724144 heartbeat IPC: 1.236 cumulative IPC: 0.6927 (Simulation time: 00 hr 33 min 43 sec)
Heartbeat CPU 0 instructions: 205501111 cycles: 237499000 heartbeat IPC: 0.6453 cumulative IPC: 0.6925 (Simulation time: 00 hr 33 min 48 sec)
Heartbeat CPU 0 instructions: 206001111 cycles: 237888411 heartbeat IPC: 1.284 cumulative IPC: 0.6935 (Simulation time: 00 hr 33 min 51 sec)
Heartbeat CPU 0 instructions: 206501112 cycles: 238793775 heartbeat IPC: 0.5523 cumulative IPC: 0.693 (Simulation time: 00 hr 33 min 57 sec)
Heartbeat CPU 0 instructions: 207001112 cycles: 239180071 heartbeat IPC: 1.294 cumulative IPC: 0.694 (Simulation time: 00 hr 34 min 00 sec)
Heartbeat CPU 0 instructions: 207501113 cycles: 239765996 heartbeat IPC: 0.8534 cumulative IPC: 0.6944 (Simulation time: 00 hr 34 min 03 sec)
Heartbeat CPU 0 instructions: 208001116 cycles: 240101004 heartbeat IPC: 1.493 cumulative IPC: 0.6956 (Simulation time: 00 hr 34 min 06 sec)
Heartbeat CPU 0 instructions: 208501121 cycles: 240401190 heartbeat IPC: 1.666 cumulative IPC: 0.6969 (Simulation time: 00 hr 34 min 09 sec)
Heartbeat CPU 0 instructions: 209001124 cycles: 240768625 heartbeat IPC: 1.361 cumulative IPC: 0.6979 (Simulation time: 00 hr 34 min 12 sec)
Heartbeat CPU 0 instructions: 209501125 cycles: 241119569 heartbeat IPC: 1.425 cumulative IPC: 0.6991 (Simulation time: 00 hr 34 min 14 sec)
Heartbeat CPU 0 instructions: 210001125 cycles: 241453599 heartbeat IPC: 1.497 cumulative IPC: 0.7002 (Simulation time: 00 hr 34 min 17 sec)
Heartbeat CPU 0 instructions: 210501128 cycles: 241794595 heartbeat IPC: 1.466 cumulative IPC: 0.7014 (Simulation time: 00 hr 34 min 20 sec)
Heartbeat CPU 0 instructions: 211001128 cycles: 242122912 heartbeat IPC: 1.523 cumulative IPC: 0.7025 (Simulation time: 00 hr 34 min 23 sec)
Heartbeat CPU 0 instructions: 211501135 cycles: 242417061 heartbeat IPC: 1.7 cumulative IPC: 0.7038 (Simulation time: 00 hr 34 min 25 sec)
Heartbeat CPU 0 instructions: 212001139 cycles: 242672306 heartbeat IPC: 1.959 cumulative IPC: 0.7052 (Simulation time: 00 hr 34 min 28 sec)
Heartbeat CPU 0 instructions: 212501143 cycles: 242987741 heartbeat IPC: 1.585 cumulative IPC: 0.7064 (Simulation time: 00 hr 34 min 30 sec)
Heartbeat CPU 0 instructions: 213001150 cycles: 243275633 heartbeat IPC: 1.737 cumulative IPC: 0.7077 (Simulation time: 00 hr 34 min 33 sec)
Heartbeat CPU 0 instructions: 213501151 cycles: 243541813 heartbeat IPC: 1.878 cumulative IPC: 0.7091 (Simulation time: 00 hr 34 min 35 sec)
Heartbeat CPU 0 instructions: 214001152 cycles: 243804696 heartbeat IPC: 1.902 cumulative IPC: 0.7104 (Simulation time: 00 hr 34 min 38 sec)
Heartbeat CPU 0 instructions: 214501152 cycles: 244467703 heartbeat IPC: 0.7541 cumulative IPC: 0.7105 (Simulation time: 00 hr 34 min 42 sec)
Heartbeat CPU 0 instructions: 215001153 cycles: 244833611 heartbeat IPC: 1.366 cumulative IPC: 0.7116 (Simulation time: 00 hr 34 min 46 sec)
Heartbeat CPU 0 instructions: 215501155 cycles: 245092923 heartbeat IPC: 1.928 cumulative IPC: 0.7129 (Simulation time: 00 hr 34 min 48 sec)
Heartbeat CPU 0 instructions: 216001159 cycles: 245307559 heartbeat IPC: 2.33 cumulative IPC: 0.7144 (Simulation time: 00 hr 34 min 50 sec)
Heartbeat CPU 0 instructions: 216501160 cycles: 245573915 heartbeat IPC: 1.877 cumulative IPC: 0.7158 (Simulation time: 00 hr 34 min 52 sec)
Heartbeat CPU 0 instructions: 217001162 cycles: 245852055 heartbeat IPC: 1.798 cumulative IPC: 0.717 (Simulation time: 00 hr 34 min 55 sec)
Heartbeat CPU 0 instructions: 217501164 cycles: 246250860 heartbeat IPC: 1.254 cumulative IPC: 0.718 (Simulation time: 00 hr 34 min 58 sec)
Heartbeat CPU 0 instructions: 218001166 cycles: 246475815 heartbeat IPC: 2.223 cumulative IPC: 0.7194 (Simulation time: 00 hr 35 min 00 sec)
Heartbeat CPU 0 instructions: 218501166 cycles: 246872916 heartbeat IPC: 1.259 cumulative IPC: 0.7203 (Simulation time: 00 hr 35 min 03 sec)
Heartbeat CPU 0 instructions: 219001167 cycles: 247194828 heartbeat IPC: 1.553 cumulative IPC: 0.7215 (Simulation time: 00 hr 35 min 06 sec)
Heartbeat CPU 0 instructions: 219501169 cycles: 247570491 heartbeat IPC: 1.331 cumulative IPC: 0.7225 (Simulation time: 00 hr 35 min 09 sec)
Heartbeat CPU 0 instructions: 220001170 cycles: 247945843 heartbeat IPC: 1.332 cumulative IPC: 0.7234 (Simulation time: 00 hr 35 min 12 sec)
Heartbeat CPU 0 instructions: 220501172 cycles: 249125617 heartbeat IPC: 0.4238 cumulative IPC: 0.7219 (Simulation time: 00 hr 35 min 20 sec)
Heartbeat CPU 0 instructions: 221001174 cycles: 249443937 heartbeat IPC: 1.571 cumulative IPC: 0.7231 (Simulation time: 00 hr 35 min 23 sec)
Heartbeat CPU 0 instructions: 221501177 cycles: 249747220 heartbeat IPC: 1.649 cumulative IPC: 0.7243 (Simulation time: 00 hr 35 min 25 sec)
Heartbeat CPU 0 instructions: 222001179 cycles: 250061243 heartbeat IPC: 1.592 cumulative IPC: 0.7254 (Simulation time: 00 hr 35 min 28 sec)
Heartbeat CPU 0 instructions: 222501180 cycles: 250340027 heartbeat IPC: 1.794 cumulative IPC: 0.7267 (Simulation time: 00 hr 35 min 30 sec)
Heartbeat CPU 0 instructions: 223001186 cycles: 250796007 heartbeat IPC: 1.097 cumulative IPC: 0.7274 (Simulation time: 00 hr 35 min 34 sec)
Heartbeat CPU 0 instructions: 223501189 cycles: 251061898 heartbeat IPC: 1.88 cumulative IPC: 0.7287 (Simulation time: 00 hr 35 min 36 sec)
Heartbeat CPU 0 instructions: 224001190 cycles: 251348747 heartbeat IPC: 1.743 cumulative IPC: 0.7299 (Simulation time: 00 hr 35 min 38 sec)
Heartbeat CPU 0 instructions: 224501192 cycles: 251639452 heartbeat IPC: 1.72 cumulative IPC: 0.7311 (Simulation time: 00 hr 35 min 41 sec)
Heartbeat CPU 0 instructions: 225001195 cycles: 251997086 heartbeat IPC: 1.398 cumulative IPC: 0.7321 (Simulation time: 00 hr 35 min 44 sec)
Heartbeat CPU 0 instructions: 225501198 cycles: 252345459 heartbeat IPC: 1.435 cumulative IPC: 0.7331 (Simulation time: 00 hr 35 min 47 sec)
Heartbeat CPU 0 instructions: 226001200 cycles: 252654637 heartbeat IPC: 1.617 cumulative IPC: 0.7342 (Simulation time: 00 hr 35 min 49 sec)
Heartbeat CPU 0 instructions: 226501205 cycles: 252941501 heartbeat IPC: 1.743 cumulative IPC: 0.7355 (Simulation time: 00 hr 35 min 52 sec)
Heartbeat CPU 0 instructions: 227001206 cycles: 253224022 heartbeat IPC: 1.77 cumulative IPC: 0.7367 (Simulation time: 00 hr 35 min 54 sec)
Heartbeat CPU 0 instructions: 227501206 cycles: 253515175 heartbeat IPC: 1.717 cumulative IPC: 0.7379 (Simulation time: 00 hr 35 min 57 sec)
Heartbeat CPU 0 instructions: 228001207 cycles: 253757498 heartbeat IPC: 2.063 cumulative IPC: 0.7392 (Simulation time: 00 hr 35 min 59 sec)
Heartbeat CPU 0 instructions: 228501212 cycles: 254021860 heartbeat IPC: 1.891 cumulative IPC: 0.7405 (Simulation time: 00 hr 36 min 02 sec)
Heartbeat CPU 0 instructions: 229001215 cycles: 254274596 heartbeat IPC: 1.978 cumulative IPC: 0.7417 (Simulation time: 00 hr 36 min 04 sec)
Heartbeat CPU 0 instructions: 229501218 cycles: 254557925 heartbeat IPC: 1.765 cumulative IPC: 0.7429 (Simulation time: 00 hr 36 min 06 sec)
Heartbeat CPU 0 instructions: 230001220 cycles: 254798800 heartbeat IPC: 2.076 cumulative IPC: 0.7443 (Simulation time: 00 hr 36 min 09 sec)
Heartbeat CPU 0 instructions: 230501220 cycles: 255415568 heartbeat IPC: 0.8107 cumulative IPC: 0.7444 (Simulation time: 00 hr 36 min 13 sec)
Heartbeat CPU 0 instructions: 231001221 cycles: 255807268 heartbeat IPC: 1.276 cumulative IPC: 0.7453 (Simulation time: 00 hr 36 min 16 sec)
Heartbeat CPU 0 instructions: 231501223 cycles: 256165157 heartbeat IPC: 1.397 cumulative IPC: 0.7463 (Simulation time: 00 hr 36 min 19 sec)
Heartbeat CPU 0 instructions: 232001228 cycles: 256543383 heartbeat IPC: 1.322 cumulative IPC: 0.7472 (Simulation time: 00 hr 36 min 22 sec)
Heartbeat CPU 0 instructions: 232501229 cycles: 256827198 heartbeat IPC: 1.762 cumulative IPC: 0.7483 (Simulation time: 00 hr 36 min 25 sec)
Heartbeat CPU 0 instructions: 233001230 cycles: 257078912 heartbeat IPC: 1.986 cumulative IPC: 0.7496 (Simulation time: 00 hr 36 min 27 sec)
Heartbeat CPU 0 instructions: 233501235 cycles: 257471207 heartbeat IPC: 1.275 cumulative IPC: 0.7505 (Simulation time: 00 hr 36 min 30 sec)
Heartbeat CPU 0 instructions: 234001238 cycles: 257834260 heartbeat IPC: 1.377 cumulative IPC: 0.7514 (Simulation time: 00 hr 36 min 33 sec)
Heartbeat CPU 0 instructions: 234501238 cycles: 258108566 heartbeat IPC: 1.823 cumulative IPC: 0.7526 (Simulation time: 00 hr 36 min 35 sec)
Heartbeat CPU 0 instructions: 235001244 cycles: 258377036 heartbeat IPC: 1.862 cumulative IPC: 0.7538 (Simulation time: 00 hr 36 min 38 sec)
Heartbeat CPU 0 instructions: 235501244 cycles: 259059604 heartbeat IPC: 0.7325 cumulative IPC: 0.7537 (Simulation time: 00 hr 36 min 43 sec)
Heartbeat CPU 0 instructions: 236001245 cycles: 259453706 heartbeat IPC: 1.269 cumulative IPC: 0.7546 (Simulation time: 00 hr 36 min 46 sec)
Heartbeat CPU 0 instructions: 236501247 cycles: 259803060 heartbeat IPC: 1.431 cumulative IPC: 0.7555 (Simulation time: 00 hr 36 min 49 sec)
Heartbeat CPU 0 instructions: 237001254 cycles: 260138175 heartbeat IPC: 1.492 cumulative IPC: 0.7565 (Simulation time: 00 hr 36 min 51 sec)
Heartbeat CPU 0 instructions: 237501255 cycles: 260432985 heartbeat IPC: 1.696 cumulative IPC: 0.7576 (Simulation time: 00 hr 36 min 54 sec)
Heartbeat CPU 0 instructions: 238001256 cycles: 260811271 heartbeat IPC: 1.322 cumulative IPC: 0.7585 (Simulation time: 00 hr 36 min 57 sec)
Heartbeat CPU 0 instructions: 238501257 cycles: 261048134 heartbeat IPC: 2.111 cumulative IPC: 0.7598 (Simulation time: 00 hr 37 min 00 sec)
Heartbeat CPU 0 instructions: 239001257 cycles: 261367009 heartbeat IPC: 1.568 cumulative IPC: 0.7608 (Simulation time: 00 hr 37 min 02 sec)
Heartbeat CPU 0 instructions: 239501264 cycles: 261675201 heartbeat IPC: 1.622 cumulative IPC: 0.7619 (Simulation time: 00 hr 37 min 05 sec)
Heartbeat CPU 0 instructions: 240001268 cycles: 262044930 heartbeat IPC: 1.352 cumulative IPC: 0.7628 (Simulation time: 00 hr 37 min 08 sec)
Heartbeat CPU 0 instructions: 240501271 cycles: 262272597 heartbeat IPC: 2.196 cumulative IPC: 0.7641 (Simulation time: 00 hr 37 min 10 sec)
Heartbeat CPU 0 instructions: 241001271 cycles: 262510716 heartbeat IPC: 2.1 cumulative IPC: 0.7654 (Simulation time: 00 hr 37 min 13 sec)
Heartbeat CPU 0 instructions: 241501276 cycles: 262885098 heartbeat IPC: 1.336 cumulative IPC: 0.7662 (Simulation time: 00 hr 37 min 16 sec)
Heartbeat CPU 0 instructions: 242001281 cycles: 263236599 heartbeat IPC: 1.422 cumulative IPC: 0.7671 (Simulation time: 00 hr 37 min 19 sec)
Heartbeat CPU 0 instructions: 242501282 cycles: 263601365 heartbeat IPC: 1.371 cumulative IPC: 0.768 (Simulation time: 00 hr 37 min 22 sec)
Heartbeat CPU 0 instructions: 243001289 cycles: 264138999 heartbeat IPC: 0.93 cumulative IPC: 0.7684 (Simulation time: 00 hr 37 min 26 sec)
Heartbeat CPU 0 instructions: 243501295 cycles: 264431942 heartbeat IPC: 1.707 cumulative IPC: 0.7694 (Simulation time: 00 hr 37 min 28 sec)
Heartbeat CPU 0 instructions: 244001296 cycles: 264694965 heartbeat IPC: 1.901 cumulative IPC: 0.7706 (Simulation time: 00 hr 37 min 30 sec)
Heartbeat CPU 0 instructions: 244501300 cycles: 265692506 heartbeat IPC: 0.5012 cumulative IPC: 0.7696 (Simulation time: 00 hr 37 min 37 sec)
Heartbeat CPU 0 instructions: 245001301 cycles: 266483279 heartbeat IPC: 0.6323 cumulative IPC: 0.7691 (Simulation time: 00 hr 37 min 43 sec)
Heartbeat CPU 0 instructions: 245501301 cycles: 267121080 heartbeat IPC: 0.7839 cumulative IPC: 0.7692 (Simulation time: 00 hr 37 min 48 sec)
Heartbeat CPU 0 instructions: 246001301 cycles: 267832591 heartbeat IPC: 0.7027 cumulative IPC: 0.769 (Simulation time: 00 hr 37 min 53 sec)
Heartbeat CPU 0 instructions: 246501306 cycles: 268481386 heartbeat IPC: 0.7707 cumulative IPC: 0.769 (Simulation time: 00 hr 37 min 58 sec)
Heartbeat CPU 0 instructions: 247001310 cycles: 269215054 heartbeat IPC: 0.6815 cumulative IPC: 0.7687 (Simulation time: 00 hr 38 min 04 sec)
Heartbeat CPU 0 instructions: 247501311 cycles: 269852806 heartbeat IPC: 0.784 cumulative IPC: 0.7688 (Simulation time: 00 hr 38 min 09 sec)
Heartbeat CPU 0 instructions: 248001311 cycles: 270653376 heartbeat IPC: 0.6246 cumulative IPC: 0.7683 (Simulation time: 00 hr 38 min 15 sec)
Heartbeat CPU 0 instructions: 248501313 cycles: 271480697 heartbeat IPC: 0.6044 cumulative IPC: 0.7678 (Simulation time: 00 hr 38 min 22 sec)
Heartbeat CPU 0 instructions: 249001315 cycles: 272298291 heartbeat IPC: 0.6116 cumulative IPC: 0.7673 (Simulation time: 00 hr 38 min 29 sec)
Heartbeat CPU 0 instructions: 249501316 cycles: 272838724 heartbeat IPC: 0.9252 cumulative IPC: 0.7676 (Simulation time: 00 hr 38 min 34 sec)
Simulation finished CPU 0 instructions: 200000003 cycles: 260481384 cumulative IPC: 0.7678 (Simulation time: 00 hr 38 min 39 sec)
Simulation complete CPU 0 instructions: 200000003 cycles: 260481384 cumulative IPC: 0.7678 (Simulation time: 00 hr 38 min 39 sec)

ChampSim completed all CPUs

=== Simulation ===
CPU 0 runs /local-ssd/ben/dpc4-traces/gtraces_v2/charlie_0002.champsim.gz

Region of Interest Statistics

CPU 0 cumulative IPC: 0.7678 instructions: 200000003 cycles: 260481384
CPU 0 Branch Prediction Accuracy: 93.59% MPKI: 11.85 Average ROB Occupancy at Mispredict: 41.44
Branch type MPKI
BRANCH_DIRECT_JUMP: 0.2716
BRANCH_INDIRECT: 0.4003
BRANCH_CONDITIONAL: 10.34
BRANCH_DIRECT_CALL: 0.2414
BRANCH_INDIRECT_CALL: 0.3428
BRANCH_RETURN: 0.2576

cpu0->cpu0_STLB TOTAL        ACCESS:    1050445 HIT:     736019 MISS:     314426 MSHR_MERGE:          0
cpu0->cpu0_STLB LOAD         ACCESS:    1050445 HIT:     736019 MISS:     314426 MSHR_MERGE:          0
cpu0->cpu0_STLB RFO          ACCESS:          0 HIT:          0 MISS:          0 MSHR_MERGE:          0
cpu0->cpu0_STLB PREFETCH     ACCESS:          0 HIT:          0 MISS:          0 MSHR_MERGE:          0
cpu0->cpu0_STLB WRITE        ACCESS:          0 HIT:          0 MISS:          0 MSHR_MERGE:          0
cpu0->cpu0_STLB TRANSLATION  ACCESS:          0 HIT:          0 MISS:          0 MSHR_MERGE:          0
cpu0->cpu0_STLB PREFETCH REQUESTED:          0 ISSUED:          0 USEFUL:          0 USELESS:          0
cpu0->cpu0_STLB AVERAGE MISS LATENCY: 223.3 cycles
cpu0->cpu0_L2C TOTAL        ACCESS:   12152711 HIT:    8327323 MISS:    3825388 MSHR_MERGE:     709224
cpu0->cpu0_L2C LOAD         ACCESS:    2365135 HIT:    1636687 MISS:     728448 MSHR_MERGE:       4628
cpu0->cpu0_L2C RFO          ACCESS:     702533 HIT:     268980 MISS:     433553 MSHR_MERGE:       4082
cpu0->cpu0_L2C PREFETCH     ACCESS:    7295182 HIT:    4788028 MISS:    2507154 MSHR_MERGE:     700514
cpu0->cpu0_L2C WRITE        ACCESS:    1444900 HIT:    1444822 MISS:         78 MSHR_MERGE:          0
cpu0->cpu0_L2C TRANSLATION  ACCESS:     344961 HIT:     188806 MISS:     156155 MSHR_MERGE:          0
cpu0->cpu0_L2C PREFETCH REQUESTED:    5463627 ISSUED:    5381380 USEFUL:     814154 USELESS:     521778
cpu0->cpu0_L2C AVERAGE MISS LATENCY: 245.4 cycles
cpu0->cpu0_L1I TOTAL        ACCESS:   14954058 HIT:   13483654 MISS:    1470404 MSHR_MERGE:     380643
cpu0->cpu0_L1I LOAD         ACCESS:   14954058 HIT:   13483654 MISS:    1470404 MSHR_MERGE:     380643
cpu0->cpu0_L1I RFO          ACCESS:          0 HIT:          0 MISS:          0 MSHR_MERGE:          0
cpu0->cpu0_L1I PREFETCH     ACCESS:          0 HIT:          0 MISS:          0 MSHR_MERGE:          0
cpu0->cpu0_L1I WRITE        ACCESS:          0 HIT:          0 MISS:          0 MSHR_MERGE:          0
cpu0->cpu0_L1I TRANSLATION  ACCESS:          0 HIT:          0 MISS:          0 MSHR_MERGE:          0
cpu0->cpu0_L1I PREFETCH REQUESTED:          0 ISSUED:          0 USEFUL:          0 USELESS:          0
cpu0->cpu0_L1I AVERAGE MISS LATENCY: 64.05 cycles
cpu0->cpu0_L1D TOTAL        ACCESS:   83664223 HIT:   75901958 MISS:    7762265 MSHR_MERGE:    3525568
cpu0->cpu0_L1D LOAD         ACCESS:   31118506 HIT:   29305139 MISS:    1813367 MSHR_MERGE:     537989
cpu0->cpu0_L1D RFO          ACCESS:          0 HIT:          0 MISS:          0 MSHR_MERGE:          0
cpu0->cpu0_L1D PREFETCH     ACCESS:   26915257 HIT:   24144560 MISS:    2770697 MSHR_MERGE:     856890
cpu0->cpu0_L1D WRITE        ACCESS:   24770186 HIT:   21941764 MISS:    2828422 MSHR_MERGE:    2125871
cpu0->cpu0_L1D TRANSLATION  ACCESS:     860274 HIT:     510495 MISS:     349779 MSHR_MERGE:       4818
cpu0->cpu0_L1D PREFETCH REQUESTED:   31587818 ISSUED:   26915249 USEFUL:     767475 USELESS:    1146155
cpu0->cpu0_L1D AVERAGE MISS LATENCY: 121.9 cycles
cpu0->cpu0_ITLB TOTAL        ACCESS:   11987384 HIT:   11868254 MISS:     119130 MSHR_MERGE:      56133
cpu0->cpu0_ITLB LOAD         ACCESS:   11987384 HIT:   11868254 MISS:     119130 MSHR_MERGE:      56133
cpu0->cpu0_ITLB RFO          ACCESS:          0 HIT:          0 MISS:          0 MSHR_MERGE:          0
cpu0->cpu0_ITLB PREFETCH     ACCESS:          0 HIT:          0 MISS:          0 MSHR_MERGE:          0
cpu0->cpu0_ITLB WRITE        ACCESS:          0 HIT:          0 MISS:          0 MSHR_MERGE:          0
cpu0->cpu0_ITLB TRANSLATION  ACCESS:          0 HIT:          0 MISS:          0 MSHR_MERGE:          0
cpu0->cpu0_ITLB PREFETCH REQUESTED:          0 ISSUED:          0 USEFUL:          0 USELESS:          0
cpu0->cpu0_ITLB AVERAGE MISS LATENCY: 50.61 cycles
cpu0->cpu0_DTLB TOTAL        ACCESS:   75227050 HIT:   73523754 MISS:    1703296 MSHR_MERGE:     715848
cpu0->cpu0_DTLB LOAD         ACCESS:   75227050 HIT:   73523754 MISS:    1703296 MSHR_MERGE:     715848
cpu0->cpu0_DTLB RFO          ACCESS:          0 HIT:          0 MISS:          0 MSHR_MERGE:          0
cpu0->cpu0_DTLB PREFETCH     ACCESS:          0 HIT:          0 MISS:          0 MSHR_MERGE:          0
cpu0->cpu0_DTLB WRITE        ACCESS:          0 HIT:          0 MISS:          0 MSHR_MERGE:          0
cpu0->cpu0_DTLB TRANSLATION  ACCESS:          0 HIT:          0 MISS:          0 MSHR_MERGE:          0
cpu0->cpu0_DTLB PREFETCH REQUESTED:          0 ISSUED:          0 USEFUL:          0 USELESS:          0
cpu0->cpu0_DTLB AVERAGE MISS LATENCY: 73.53 cycles
cpu0->LLC TOTAL        ACCESS:    5811871 HIT:    1344949 MISS:    4466922 MSHR_MERGE:     325132
cpu0->LLC LOAD         ACCESS:     723820 HIT:      99031 MISS:     624789 MSHR_MERGE:       3718
cpu0->LLC RFO          ACCESS:     429471 HIT:      62470 MISS:     367001 MSHR_MERGE:       2914
cpu0->LLC PREFETCH     ACCESS:    3293488 HIT:     603565 MISS:    2689923 MSHR_MERGE:     318500
cpu0->LLC WRITE        ACCESS:    1208937 HIT:     573111 MISS:     635826 MSHR_MERGE:          0
cpu0->LLC TRANSLATION  ACCESS:     156155 HIT:       6772 MISS:     149383 MSHR_MERGE:          0
cpu0->LLC PREFETCH REQUESTED:    1556485 ISSUED:    1486848 USEFUL:     533189 USELESS:     578771
cpu0->LLC AVERAGE MISS LATENCY: 169.8 cycles

DRAM Statistics

Channel 0 RQ ROW_BUFFER_HIT:     168501
  ROW_BUFFER_MISS:    3337301
  AVG DBUS CONGESTED CYCLE: 15.49
Channel 0 WQ ROW_BUFFER_HIT:     205777
  ROW_BUFFER_MISS:     968819
  FULL:       2955
Channel 0 REFRESHES ISSUED:      21705
