[VMEM] WARNING: physical memory size is smaller than virtual memory size.

*** ChampSim Multicore Out-of-Order Simulator ***
Warmup Instructions: 50000000
Simulation Instructions: 200000000
Number of CPUs: 1
Page size: 4096
Core 0: /local-ssd/ben/dpc4-traces/gtraces_v2/merced_0004.champsim.gz
Off-chip DRAM Size: 64 GiB Channels: 1 Width: 64-bit Data Rate: 4807 MT/s
Heartbeat CPU 0 instructions: 500001 cycles: 176570 heartbeat IPC: 2.832 cumulative IPC: 2.832 (Simulation time: 00 hr 00 min 03 sec)
[BTB] WARNING: target of return is a lower address than the corresponding call. This is usually a problem with your trace.
[BTB] WARNING: target of return is a lower address than the corresponding call. This is usually a problem with your trace.
Heartbeat CPU 0 instructions: 1000006 cycles: 307337 heartbeat IPC: 3.824 cumulative IPC: 3.254 (Simulation time: 00 hr 00 min 04 sec)
[BTB] WARNING: target of return is a lower address than the corresponding call. This is usually a problem with your trace.
[BTB] WARNING: target of return is a lower address than the corresponding call. This is usually a problem with your trace.
[BTB] WARNING: target of return is a lower address than the corresponding call. This is usually a problem with your trace.
Heartbeat CPU 0 instructions: 1500007 cycles: 423389 heartbeat IPC: 4.308 cumulative IPC: 3.543 (Simulation time: 00 hr 00 min 06 sec)
[BTB] WARNING: target of return is a lower address than the corresponding call. This is usually a problem with your trace.
[BTB] WARNING: target of return is a lower address than the corresponding call. This is usually a problem with your trace.
Heartbeat CPU 0 instructions: 2000008 cycles: 542013 heartbeat IPC: 4.215 cumulative IPC: 3.69 (Simulation time: 00 hr 00 min 08 sec)
[BTB] WARNING: target of return is a lower address than the corresponding call. This is usually a problem with your trace.
Heartbeat CPU 0 instructions: 2500011 cycles: 730281 heartbeat IPC: 2.656 cumulative IPC: 3.423 (Simulation time: 00 hr 00 min 11 sec)
[BTB] WARNING: target of return is a lower address than the corresponding call. This is usually a problem with your trace.
[BTB] WARNING: target of return is a lower address than the corresponding call. This is usually a problem with your trace.
Heartbeat CPU 0 instructions: 3000012 cycles: 929649 heartbeat IPC: 2.508 cumulative IPC: 3.227 (Simulation time: 00 hr 00 min 13 sec)
Heartbeat CPU 0 instructions: 3500015 cycles: 1164421 heartbeat IPC: 2.13 cumulative IPC: 3.006 (Simulation time: 00 hr 00 min 17 sec)
Heartbeat CPU 0 instructions: 4000019 cycles: 1347301 heartbeat IPC: 2.734 cumulative IPC: 2.969 (Simulation time: 00 hr 00 min 20 sec)
Heartbeat CPU 0 instructions: 4500019 cycles: 1501648 heartbeat IPC: 3.239 cumulative IPC: 2.997 (Simulation time: 00 hr 00 min 22 sec)
Heartbeat CPU 0 instructions: 5000022 cycles: 1623005 heartbeat IPC: 4.12 cumulative IPC: 3.081 (Simulation time: 00 hr 00 min 24 sec)
Heartbeat CPU 0 instructions: 5500027 cycles: 1740704 heartbeat IPC: 4.248 cumulative IPC: 3.16 (Simulation time: 00 hr 00 min 26 sec)
Heartbeat CPU 0 instructions: 6000029 cycles: 1913874 heartbeat IPC: 2.887 cumulative IPC: 3.135 (Simulation time: 00 hr 00 min 29 sec)
Heartbeat CPU 0 instructions: 6500035 cycles: 2082218 heartbeat IPC: 2.97 cumulative IPC: 3.122 (Simulation time: 00 hr 00 min 31 sec)
Heartbeat CPU 0 instructions: 7000042 cycles: 2203093 heartbeat IPC: 4.137 cumulative IPC: 3.177 (Simulation time: 00 hr 00 min 34 sec)
Heartbeat CPU 0 instructions: 7500043 cycles: 2331354 heartbeat IPC: 3.898 cumulative IPC: 3.217 (Simulation time: 00 hr 00 min 36 sec)
Heartbeat CPU 0 instructions: 8000046 cycles: 2464456 heartbeat IPC: 3.757 cumulative IPC: 3.246 (Simulation time: 00 hr 00 min 38 sec)
Heartbeat CPU 0 instructions: 8500051 cycles: 2608855 heartbeat IPC: 3.463 cumulative IPC: 3.258 (Simulation time: 00 hr 00 min 40 sec)
Heartbeat CPU 0 instructions: 9000056 cycles: 2718178 heartbeat IPC: 4.574 cumulative IPC: 3.311 (Simulation time: 00 hr 00 min 42 sec)
Heartbeat CPU 0 instructions: 9500062 cycles: 2825545 heartbeat IPC: 4.657 cumulative IPC: 3.362 (Simulation time: 00 hr 00 min 43 sec)
Heartbeat CPU 0 instructions: 10000062 cycles: 2962286 heartbeat IPC: 3.657 cumulative IPC: 3.376 (Simulation time: 00 hr 00 min 45 sec)
Heartbeat CPU 0 instructions: 10500062 cycles: 3067303 heartbeat IPC: 4.761 cumulative IPC: 3.423 (Simulation time: 00 hr 00 min 46 sec)
Heartbeat CPU 0 instructions: 11000065 cycles: 3204996 heartbeat IPC: 3.631 cumulative IPC: 3.432 (Simulation time: 00 hr 00 min 48 sec)
Heartbeat CPU 0 instructions: 11500071 cycles: 3356055 heartbeat IPC: 3.31 cumulative IPC: 3.427 (Simulation time: 00 hr 00 min 51 sec)
Heartbeat CPU 0 instructions: 12000078 cycles: 3509955 heartbeat IPC: 3.249 cumulative IPC: 3.419 (Simulation time: 00 hr 00 min 53 sec)
Heartbeat CPU 0 instructions: 12500083 cycles: 3669255 heartbeat IPC: 3.139 cumulative IPC: 3.407 (Simulation time: 00 hr 00 min 56 sec)
Heartbeat CPU 0 instructions: 13000084 cycles: 3847722 heartbeat IPC: 2.802 cumulative IPC: 3.379 (Simulation time: 00 hr 00 min 59 sec)
Heartbeat CPU 0 instructions: 13500090 cycles: 3974849 heartbeat IPC: 3.933 cumulative IPC: 3.396 (Simulation time: 00 hr 01 min 01 sec)
Heartbeat CPU 0 instructions: 14000090 cycles: 4113395 heartbeat IPC: 3.609 cumulative IPC: 3.404 (Simulation time: 00 hr 01 min 03 sec)
Heartbeat CPU 0 instructions: 14500091 cycles: 4276810 heartbeat IPC: 3.06 cumulative IPC: 3.39 (Simulation time: 00 hr 01 min 05 sec)
Heartbeat CPU 0 instructions: 15000096 cycles: 4438320 heartbeat IPC: 3.096 cumulative IPC: 3.38 (Simulation time: 00 hr 01 min 08 sec)
Heartbeat CPU 0 instructions: 15500098 cycles: 4578903 heartbeat IPC: 3.557 cumulative IPC: 3.385 (Simulation time: 00 hr 01 min 10 sec)
Heartbeat CPU 0 instructions: 16000099 cycles: 4685310 heartbeat IPC: 4.699 cumulative IPC: 3.415 (Simulation time: 00 hr 01 min 12 sec)
Heartbeat CPU 0 instructions: 16500103 cycles: 4832234 heartbeat IPC: 3.403 cumulative IPC: 3.415 (Simulation time: 00 hr 01 min 14 sec)
Heartbeat CPU 0 instructions: 17000104 cycles: 4958262 heartbeat IPC: 3.967 cumulative IPC: 3.429 (Simulation time: 00 hr 01 min 16 sec)
Heartbeat CPU 0 instructions: 17500104 cycles: 5079808 heartbeat IPC: 4.114 cumulative IPC: 3.445 (Simulation time: 00 hr 01 min 18 sec)
Heartbeat CPU 0 instructions: 18000111 cycles: 5212610 heartbeat IPC: 3.765 cumulative IPC: 3.453 (Simulation time: 00 hr 01 min 20 sec)
Heartbeat CPU 0 instructions: 18500114 cycles: 5365275 heartbeat IPC: 3.275 cumulative IPC: 3.448 (Simulation time: 00 hr 01 min 23 sec)
Heartbeat CPU 0 instructions: 19000116 cycles: 5480063 heartbeat IPC: 4.356 cumulative IPC: 3.467 (Simulation time: 00 hr 01 min 25 sec)
Heartbeat CPU 0 instructions: 19500120 cycles: 5632945 heartbeat IPC: 3.271 cumulative IPC: 3.462 (Simulation time: 00 hr 01 min 27 sec)
Heartbeat CPU 0 instructions: 20000124 cycles: 5743614 heartbeat IPC: 4.518 cumulative IPC: 3.482 (Simulation time: 00 hr 01 min 29 sec)
Heartbeat CPU 0 instructions: 20500130 cycles: 5853501 heartbeat IPC: 4.55 cumulative IPC: 3.502 (Simulation time: 00 hr 01 min 30 sec)
Heartbeat CPU 0 instructions: 21000136 cycles: 5963746 heartbeat IPC: 4.535 cumulative IPC: 3.521 (Simulation time: 00 hr 01 min 32 sec)
Heartbeat CPU 0 instructions: 21500138 cycles: 6117314 heartbeat IPC: 3.256 cumulative IPC: 3.515 (Simulation time: 00 hr 01 min 34 sec)
Heartbeat CPU 0 instructions: 22000144 cycles: 6278299 heartbeat IPC: 3.106 cumulative IPC: 3.504 (Simulation time: 00 hr 01 min 37 sec)
Heartbeat CPU 0 instructions: 22500149 cycles: 6418775 heartbeat IPC: 3.559 cumulative IPC: 3.505 (Simulation time: 00 hr 01 min 39 sec)
Heartbeat CPU 0 instructions: 23000156 cycles: 6546027 heartbeat IPC: 3.929 cumulative IPC: 3.514 (Simulation time: 00 hr 01 min 41 sec)
Heartbeat CPU 0 instructions: 23500160 cycles: 6667772 heartbeat IPC: 4.107 cumulative IPC: 3.524 (Simulation time: 00 hr 01 min 43 sec)
Heartbeat CPU 0 instructions: 24000166 cycles: 6783890 heartbeat IPC: 4.306 cumulative IPC: 3.538 (Simulation time: 00 hr 01 min 45 sec)
Heartbeat CPU 0 instructions: 24500166 cycles: 6913174 heartbeat IPC: 3.867 cumulative IPC: 3.544 (Simulation time: 00 hr 01 min 47 sec)
Heartbeat CPU 0 instructions: 25000166 cycles: 7051524 heartbeat IPC: 3.614 cumulative IPC: 3.545 (Simulation time: 00 hr 01 min 49 sec)
Heartbeat CPU 0 instructions: 25500170 cycles: 7206271 heartbeat IPC: 3.231 cumulative IPC: 3.539 (Simulation time: 00 hr 01 min 52 sec)
Heartbeat CPU 0 instructions: 26000175 cycles: 7336450 heartbeat IPC: 3.841 cumulative IPC: 3.544 (Simulation time: 00 hr 01 min 54 sec)
Heartbeat CPU 0 instructions: 26500175 cycles: 7444043 heartbeat IPC: 4.647 cumulative IPC: 3.56 (Simulation time: 00 hr 01 min 55 sec)
Heartbeat CPU 0 instructions: 27000179 cycles: 7568483 heartbeat IPC: 4.018 cumulative IPC: 3.567 (Simulation time: 00 hr 01 min 57 sec)
Heartbeat CPU 0 instructions: 27500183 cycles: 7720242 heartbeat IPC: 3.295 cumulative IPC: 3.562 (Simulation time: 00 hr 02 min 00 sec)
Heartbeat CPU 0 instructions: 28000185 cycles: 7848328 heartbeat IPC: 3.904 cumulative IPC: 3.568 (Simulation time: 00 hr 02 min 02 sec)
Heartbeat CPU 0 instructions: 28500186 cycles: 7990822 heartbeat IPC: 3.509 cumulative IPC: 3.567 (Simulation time: 00 hr 02 min 04 sec)
Heartbeat CPU 0 instructions: 29000193 cycles: 8110831 heartbeat IPC: 4.166 cumulative IPC: 3.575 (Simulation time: 00 hr 02 min 06 sec)
Heartbeat CPU 0 instructions: 29500196 cycles: 8237555 heartbeat IPC: 3.946 cumulative IPC: 3.581 (Simulation time: 00 hr 02 min 08 sec)
Heartbeat CPU 0 instructions: 30000199 cycles: 8354066 heartbeat IPC: 4.291 cumulative IPC: 3.591 (Simulation time: 00 hr 02 min 09 sec)
Heartbeat CPU 0 instructions: 30500202 cycles: 8462578 heartbeat IPC: 4.608 cumulative IPC: 3.604 (Simulation time: 00 hr 02 min 11 sec)
Heartbeat CPU 0 instructions: 31000202 cycles: 8610710 heartbeat IPC: 3.375 cumulative IPC: 3.6 (Simulation time: 00 hr 02 min 13 sec)
Heartbeat CPU 0 instructions: 31500209 cycles: 8725843 heartbeat IPC: 4.343 cumulative IPC: 3.61 (Simulation time: 00 hr 02 min 15 sec)
Heartbeat CPU 0 instructions: 32000214 cycles: 8847066 heartbeat IPC: 4.125 cumulative IPC: 3.617 (Simulation time: 00 hr 02 min 17 sec)
Heartbeat CPU 0 instructions: 32500221 cycles: 8999621 heartbeat IPC: 3.278 cumulative IPC: 3.611 (Simulation time: 00 hr 02 min 20 sec)
Heartbeat CPU 0 instructions: 33000226 cycles: 9106946 heartbeat IPC: 4.659 cumulative IPC: 3.624 (Simulation time: 00 hr 02 min 22 sec)
Heartbeat CPU 0 instructions: 33500230 cycles: 9264588 heartbeat IPC: 3.172 cumulative IPC: 3.616 (Simulation time: 00 hr 02 min 24 sec)
Heartbeat CPU 0 instructions: 34000233 cycles: 9386711 heartbeat IPC: 4.094 cumulative IPC: 3.622 (Simulation time: 00 hr 02 min 26 sec)
Heartbeat CPU 0 instructions: 34500235 cycles: 9528199 heartbeat IPC: 3.534 cumulative IPC: 3.621 (Simulation time: 00 hr 02 min 29 sec)
Heartbeat CPU 0 instructions: 35000241 cycles: 9635028 heartbeat IPC: 4.68 cumulative IPC: 3.633 (Simulation time: 00 hr 02 min 30 sec)
Heartbeat CPU 0 instructions: 35500242 cycles: 9742637 heartbeat IPC: 4.646 cumulative IPC: 3.644 (Simulation time: 00 hr 02 min 32 sec)
Heartbeat CPU 0 instructions: 36000247 cycles: 9846463 heartbeat IPC: 4.816 cumulative IPC: 3.656 (Simulation time: 00 hr 02 min 34 sec)
Heartbeat CPU 0 instructions: 36500248 cycles: 9996372 heartbeat IPC: 3.335 cumulative IPC: 3.651 (Simulation time: 00 hr 02 min 37 sec)
Heartbeat CPU 0 instructions: 37000248 cycles: 10159506 heartbeat IPC: 3.065 cumulative IPC: 3.642 (Simulation time: 00 hr 02 min 40 sec)
Heartbeat CPU 0 instructions: 37500252 cycles: 10327300 heartbeat IPC: 2.98 cumulative IPC: 3.631 (Simulation time: 00 hr 02 min 42 sec)
Heartbeat CPU 0 instructions: 38000256 cycles: 10475631 heartbeat IPC: 3.371 cumulative IPC: 3.627 (Simulation time: 00 hr 02 min 45 sec)
Heartbeat CPU 0 instructions: 38500263 cycles: 10616856 heartbeat IPC: 3.54 cumulative IPC: 3.626 (Simulation time: 00 hr 02 min 47 sec)
Heartbeat CPU 0 instructions: 39000263 cycles: 10752930 heartbeat IPC: 3.674 cumulative IPC: 3.627 (Simulation time: 00 hr 02 min 49 sec)
Heartbeat CPU 0 instructions: 39500268 cycles: 10859051 heartbeat IPC: 4.712 cumulative IPC: 3.638 (Simulation time: 00 hr 02 min 51 sec)
Heartbeat CPU 0 instructions: 40000271 cycles: 10973732 heartbeat IPC: 4.36 cumulative IPC: 3.645 (Simulation time: 00 hr 02 min 53 sec)
Heartbeat CPU 0 instructions: 40500275 cycles: 11099837 heartbeat IPC: 3.965 cumulative IPC: 3.649 (Simulation time: 00 hr 02 min 55 sec)
Heartbeat CPU 0 instructions: 41000276 cycles: 11229796 heartbeat IPC: 3.847 cumulative IPC: 3.651 (Simulation time: 00 hr 02 min 57 sec)
Heartbeat CPU 0 instructions: 41500276 cycles: 11359269 heartbeat IPC: 3.862 cumulative IPC: 3.653 (Simulation time: 00 hr 02 min 59 sec)
Heartbeat CPU 0 instructions: 42000276 cycles: 11498713 heartbeat IPC: 3.586 cumulative IPC: 3.653 (Simulation time: 00 hr 03 min 01 sec)
Heartbeat CPU 0 instructions: 42500281 cycles: 11654941 heartbeat IPC: 3.2 cumulative IPC: 3.647 (Simulation time: 00 hr 03 min 04 sec)
Heartbeat CPU 0 instructions: 43000288 cycles: 11796214 heartbeat IPC: 3.539 cumulative IPC: 3.645 (Simulation time: 00 hr 03 min 06 sec)
Heartbeat CPU 0 instructions: 43500290 cycles: 11936953 heartbeat IPC: 3.553 cumulative IPC: 3.644 (Simulation time: 00 hr 03 min 09 sec)
Heartbeat CPU 0 instructions: 44000295 cycles: 12064625 heartbeat IPC: 3.916 cumulative IPC: 3.647 (Simulation time: 00 hr 03 min 11 sec)
Heartbeat CPU 0 instructions: 44500296 cycles: 12183407 heartbeat IPC: 4.209 cumulative IPC: 3.653 (Simulation time: 00 hr 03 min 12 sec)
Heartbeat CPU 0 instructions: 45000301 cycles: 12293604 heartbeat IPC: 4.537 cumulative IPC: 3.66 (Simulation time: 00 hr 03 min 14 sec)
Heartbeat CPU 0 instructions: 45500302 cycles: 12426200 heartbeat IPC: 3.771 cumulative IPC: 3.662 (Simulation time: 00 hr 03 min 16 sec)
Heartbeat CPU 0 instructions: 46000302 cycles: 12539786 heartbeat IPC: 4.402 cumulative IPC: 3.668 (Simulation time: 00 hr 03 min 17 sec)
Heartbeat CPU 0 instructions: 46500303 cycles: 12673566 heartbeat IPC: 3.737 cumulative IPC: 3.669 (Simulation time: 00 hr 03 min 19 sec)
Heartbeat CPU 0 instructions: 47000305 cycles: 12800761 heartbeat IPC: 3.931 cumulative IPC: 3.672 (Simulation time: 00 hr 03 min 22 sec)
Heartbeat CPU 0 instructions: 47500311 cycles: 12974526 heartbeat IPC: 2.877 cumulative IPC: 3.661 (Simulation time: 00 hr 03 min 25 sec)
Heartbeat CPU 0 instructions: 48000313 cycles: 13102130 heartbeat IPC: 3.918 cumulative IPC: 3.664 (Simulation time: 00 hr 03 min 27 sec)
Heartbeat CPU 0 instructions: 48500314 cycles: 13231420 heartbeat IPC: 3.867 cumulative IPC: 3.666 (Simulation time: 00 hr 03 min 29 sec)
Heartbeat CPU 0 instructions: 49000316 cycles: 13344170 heartbeat IPC: 4.435 cumulative IPC: 3.672 (Simulation time: 00 hr 03 min 30 sec)
Heartbeat CPU 0 instructions: 49500316 cycles: 13449558 heartbeat IPC: 4.744 cumulative IPC: 3.68 (Simulation time: 00 hr 03 min 31 sec)
Warmup finished CPU 0 instructions: 50000007 cycles: 13570467 cumulative IPC: 3.684 (Simulation time: 00 hr 03 min 33 sec)
Warmup complete CPU 0 instructions: 50000007 cycles: 13570467 cumulative IPC: 3.684 (Simulation time: 00 hr 03 min 33 sec)
Heartbeat CPU 0 instructions: 50000319 cycles: 13570506 heartbeat IPC: 4.134 cumulative IPC: 8 (Simulation time: 00 hr 03 min 33 sec)
Heartbeat CPU 0 instructions: 50500320 cycles: 14396282 heartbeat IPC: 0.6055 cumulative IPC: 0.6058 (Simulation time: 00 hr 03 min 39 sec)
Heartbeat CPU 0 instructions: 51000321 cycles: 15209834 heartbeat IPC: 0.6146 cumulative IPC: 0.6102 (Simulation time: 00 hr 03 min 45 sec)
Heartbeat CPU 0 instructions: 51500324 cycles: 16831159 heartbeat IPC: 0.3084 cumulative IPC: 0.4601 (Simulation time: 00 hr 03 min 55 sec)
Heartbeat CPU 0 instructions: 52000324 cycles: 17694870 heartbeat IPC: 0.5789 cumulative IPC: 0.485 (Simulation time: 00 hr 04 min 01 sec)
Heartbeat CPU 0 instructions: 52500325 cycles: 18041072 heartbeat IPC: 1.444 cumulative IPC: 0.5593 (Simulation time: 00 hr 04 min 03 sec)
Heartbeat CPU 0 instructions: 53000329 cycles: 18496595 heartbeat IPC: 1.098 cumulative IPC: 0.6091 (Simulation time: 00 hr 04 min 07 sec)
Heartbeat CPU 0 instructions: 53500330 cycles: 19336919 heartbeat IPC: 0.595 cumulative IPC: 0.607 (Simulation time: 00 hr 04 min 13 sec)
Heartbeat CPU 0 instructions: 54000331 cycles: 20270506 heartbeat IPC: 0.5356 cumulative IPC: 0.5971 (Simulation time: 00 hr 04 min 19 sec)
Heartbeat CPU 0 instructions: 54500337 cycles: 20831047 heartbeat IPC: 0.892 cumulative IPC: 0.6198 (Simulation time: 00 hr 04 min 23 sec)
Heartbeat CPU 0 instructions: 55000341 cycles: 21450504 heartbeat IPC: 0.8072 cumulative IPC: 0.6346 (Simulation time: 00 hr 04 min 27 sec)
Heartbeat CPU 0 instructions: 55500345 cycles: 22231020 heartbeat IPC: 0.6406 cumulative IPC: 0.6351 (Simulation time: 00 hr 04 min 33 sec)
Heartbeat CPU 0 instructions: 56000346 cycles: 22941995 heartbeat IPC: 0.7033 cumulative IPC: 0.6403 (Simulation time: 00 hr 04 min 38 sec)
Heartbeat CPU 0 instructions: 56500346 cycles: 23439101 heartbeat IPC: 1.006 cumulative IPC: 0.6587 (Simulation time: 00 hr 04 min 42 sec)
Heartbeat CPU 0 instructions: 57000350 cycles: 23816304 heartbeat IPC: 1.326 cumulative IPC: 0.6832 (Simulation time: 00 hr 04 min 45 sec)
Heartbeat CPU 0 instructions: 57500352 cycles: 23989217 heartbeat IPC: 2.892 cumulative IPC: 0.7199 (Simulation time: 00 hr 04 min 47 sec)
Heartbeat CPU 0 instructions: 58000355 cycles: 24157956 heartbeat IPC: 2.963 cumulative IPC: 0.7556 (Simulation time: 00 hr 04 min 49 sec)
Heartbeat CPU 0 instructions: 58500356 cycles: 24318753 heartbeat IPC: 3.11 cumulative IPC: 0.7909 (Simulation time: 00 hr 04 min 50 sec)
Heartbeat CPU 0 instructions: 59000360 cycles: 24508645 heartbeat IPC: 2.633 cumulative IPC: 0.8228 (Simulation time: 00 hr 04 min 52 sec)
Heartbeat CPU 0 instructions: 59500363 cycles: 25379387 heartbeat IPC: 0.5742 cumulative IPC: 0.8045 (Simulation time: 00 hr 04 min 58 sec)
Heartbeat CPU 0 instructions: 60000370 cycles: 25944798 heartbeat IPC: 0.8843 cumulative IPC: 0.8082 (Simulation time: 00 hr 05 min 02 sec)
Heartbeat CPU 0 instructions: 60500372 cycles: 26558523 heartbeat IPC: 0.8147 cumulative IPC: 0.8085 (Simulation time: 00 hr 05 min 07 sec)
Heartbeat CPU 0 instructions: 61000373 cycles: 26927779 heartbeat IPC: 1.354 cumulative IPC: 0.8235 (Simulation time: 00 hr 05 min 10 sec)
Heartbeat CPU 0 instructions: 61500375 cycles: 27289292 heartbeat IPC: 1.383 cumulative IPC: 0.8383 (Simulation time: 00 hr 05 min 13 sec)
Heartbeat CPU 0 instructions: 62000376 cycles: 27667645 heartbeat IPC: 1.322 cumulative IPC: 0.8513 (Simulation time: 00 hr 05 min 17 sec)
Heartbeat CPU 0 instructions: 62500379 cycles: 28447700 heartbeat IPC: 0.641 cumulative IPC: 0.8402 (Simulation time: 00 hr 05 min 22 sec)
Heartbeat CPU 0 instructions: 63000381 cycles: 29655676 heartbeat IPC: 0.4139 cumulative IPC: 0.8082 (Simulation time: 00 hr 05 min 30 sec)
Heartbeat CPU 0 instructions: 63500381 cycles: 30748702 heartbeat IPC: 0.4574 cumulative IPC: 0.7859 (Simulation time: 00 hr 05 min 38 sec)
Heartbeat CPU 0 instructions: 64000384 cycles: 32593758 heartbeat IPC: 0.271 cumulative IPC: 0.736 (Simulation time: 00 hr 05 min 49 sec)
Heartbeat CPU 0 instructions: 64500389 cycles: 33990521 heartbeat IPC: 0.358 cumulative IPC: 0.7101 (Simulation time: 00 hr 05 min 59 sec)
Heartbeat CPU 0 instructions: 65000389 cycles: 34659507 heartbeat IPC: 0.7474 cumulative IPC: 0.7113 (Simulation time: 00 hr 06 min 04 sec)
Heartbeat CPU 0 instructions: 65500389 cycles: 35254911 heartbeat IPC: 0.8398 cumulative IPC: 0.7148 (Simulation time: 00 hr 06 min 09 sec)
Heartbeat CPU 0 instructions: 66000391 cycles: 36398271 heartbeat IPC: 0.4373 cumulative IPC: 0.7009 (Simulation time: 00 hr 06 min 16 sec)
Heartbeat CPU 0 instructions: 66500391 cycles: 37733863 heartbeat IPC: 0.3744 cumulative IPC: 0.6829 (Simulation time: 00 hr 06 min 25 sec)
Heartbeat CPU 0 instructions: 67000393 cycles: 39043050 heartbeat IPC: 0.3819 cumulative IPC: 0.6674 (Simulation time: 00 hr 06 min 33 sec)
Heartbeat CPU 0 instructions: 67500395 cycles: 40469779 heartbeat IPC: 0.3505 cumulative IPC: 0.6506 (Simulation time: 00 hr 06 min 43 sec)
Heartbeat CPU 0 instructions: 68000395 cycles: 41158072 heartbeat IPC: 0.7264 cumulative IPC: 0.6525 (Simulation time: 00 hr 06 min 48 sec)
Heartbeat CPU 0 instructions: 68500395 cycles: 42545927 heartbeat IPC: 0.3603 cumulative IPC: 0.6385 (Simulation time: 00 hr 06 min 57 sec)
Heartbeat CPU 0 instructions: 69000402 cycles: 43067829 heartbeat IPC: 0.958 cumulative IPC: 0.6441 (Simulation time: 00 hr 07 min 01 sec)
Heartbeat CPU 0 instructions: 69500405 cycles: 43473005 heartbeat IPC: 1.234 cumulative IPC: 0.6521 (Simulation time: 00 hr 07 min 04 sec)
Heartbeat CPU 0 instructions: 70000405 cycles: 43945370 heartbeat IPC: 1.059 cumulative IPC: 0.6585 (Simulation time: 00 hr 07 min 08 sec)
Heartbeat CPU 0 instructions: 70500406 cycles: 44309361 heartbeat IPC: 1.374 cumulative IPC: 0.6669 (Simulation time: 00 hr 07 min 11 sec)
Heartbeat CPU 0 instructions: 71000410 cycles: 44682707 heartbeat IPC: 1.339 cumulative IPC: 0.675 (Simulation time: 00 hr 07 min 14 sec)
Heartbeat CPU 0 instructions: 71500410 cycles: 45371378 heartbeat IPC: 0.726 cumulative IPC: 0.6761 (Simulation time: 00 hr 07 min 19 sec)
Heartbeat CPU 0 instructions: 72000411 cycles: 45512729 heartbeat IPC: 3.537 cumulative IPC: 0.6888 (Simulation time: 00 hr 07 min 20 sec)
Heartbeat CPU 0 instructions: 72500413 cycles: 45665331 heartbeat IPC: 3.277 cumulative IPC: 0.7011 (Simulation time: 00 hr 07 min 22 sec)
Heartbeat CPU 0 instructions: 73000419 cycles: 45809161 heartbeat IPC: 3.476 cumulative IPC: 0.7134 (Simulation time: 00 hr 07 min 24 sec)
Heartbeat CPU 0 instructions: 73500420 cycles: 45990480 heartbeat IPC: 2.758 cumulative IPC: 0.7249 (Simulation time: 00 hr 07 min 26 sec)
Heartbeat CPU 0 instructions: 74000421 cycles: 46833657 heartbeat IPC: 0.593 cumulative IPC: 0.7215 (Simulation time: 00 hr 07 min 32 sec)
Heartbeat CPU 0 instructions: 74500424 cycles: 47596552 heartbeat IPC: 0.6554 cumulative IPC: 0.72 (Simulation time: 00 hr 07 min 37 sec)
Heartbeat CPU 0 instructions: 75000424 cycles: 48451660 heartbeat IPC: 0.5847 cumulative IPC: 0.7167 (Simulation time: 00 hr 07 min 44 sec)
Heartbeat CPU 0 instructions: 75500427 cycles: 49817866 heartbeat IPC: 0.366 cumulative IPC: 0.7035 (Simulation time: 00 hr 07 min 52 sec)
Heartbeat CPU 0 instructions: 76000429 cycles: 50484076 heartbeat IPC: 0.7505 cumulative IPC: 0.7044 (Simulation time: 00 hr 07 min 57 sec)
Heartbeat CPU 0 instructions: 76500434 cycles: 50954871 heartbeat IPC: 1.062 cumulative IPC: 0.7089 (Simulation time: 00 hr 08 min 01 sec)
Heartbeat CPU 0 instructions: 77000440 cycles: 51257936 heartbeat IPC: 1.65 cumulative IPC: 0.7164 (Simulation time: 00 hr 08 min 03 sec)
Heartbeat CPU 0 instructions: 77500444 cycles: 51558119 heartbeat IPC: 1.666 cumulative IPC: 0.7239 (Simulation time: 00 hr 08 min 06 sec)
Heartbeat CPU 0 instructions: 78000446 cycles: 51781352 heartbeat IPC: 2.24 cumulative IPC: 0.7328 (Simulation time: 00 hr 08 min 09 sec)
Heartbeat CPU 0 instructions: 78500446 cycles: 52693925 heartbeat IPC: 0.5479 cumulative IPC: 0.7285 (Simulation time: 00 hr 08 min 16 sec)
Heartbeat CPU 0 instructions: 79000447 cycles: 53925164 heartbeat IPC: 0.4061 cumulative IPC: 0.7186 (Simulation time: 00 hr 08 min 23 sec)
Heartbeat CPU 0 instructions: 79500449 cycles: 54504659 heartbeat IPC: 0.8628 cumulative IPC: 0.7207 (Simulation time: 00 hr 08 min 28 sec)
Heartbeat CPU 0 instructions: 80000449 cycles: 55042572 heartbeat IPC: 0.9295 cumulative IPC: 0.7234 (Simulation time: 00 hr 08 min 32 sec)
Heartbeat CPU 0 instructions: 80500449 cycles: 56241392 heartbeat IPC: 0.4171 cumulative IPC: 0.7148 (Simulation time: 00 hr 08 min 40 sec)
Heartbeat CPU 0 instructions: 81000450 cycles: 56896576 heartbeat IPC: 0.7631 cumulative IPC: 0.7155 (Simulation time: 00 hr 08 min 45 sec)
Heartbeat CPU 0 instructions: 81500450 cycles: 57376931 heartbeat IPC: 1.041 cumulative IPC: 0.7191 (Simulation time: 00 hr 08 min 49 sec)
Heartbeat CPU 0 instructions: 82000450 cycles: 57806673 heartbeat IPC: 1.163 cumulative IPC: 0.7234 (Simulation time: 00 hr 08 min 52 sec)
Heartbeat CPU 0 instructions: 82500457 cycles: 58292937 heartbeat IPC: 1.028 cumulative IPC: 0.7267 (Simulation time: 00 hr 08 min 56 sec)
Heartbeat CPU 0 instructions: 83000457 cycles: 58711439 heartbeat IPC: 1.195 cumulative IPC: 0.7311 (Simulation time: 00 hr 09 min 00 sec)
Heartbeat CPU 0 instructions: 83500457 cycles: 59221128 heartbeat IPC: 0.981 cumulative IPC: 0.7338 (Simulation time: 00 hr 09 min 04 sec)
Heartbeat CPU 0 instructions: 84000460 cycles: 60136275 heartbeat IPC: 0.5464 cumulative IPC: 0.7302 (Simulation time: 00 hr 09 min 10 sec)
Heartbeat CPU 0 instructions: 84500464 cycles: 61386453 heartbeat IPC: 0.3999 cumulative IPC: 0.7215 (Simulation time: 00 hr 09 min 18 sec)
Heartbeat CPU 0 instructions: 85000464 cycles: 62678316 heartbeat IPC: 0.387 cumulative IPC: 0.7127 (Simulation time: 00 hr 09 min 27 sec)
Heartbeat CPU 0 instructions: 85500464 cycles: 63890961 heartbeat IPC: 0.4123 cumulative IPC: 0.7055 (Simulation time: 00 hr 09 min 35 sec)
Heartbeat CPU 0 instructions: 86000464 cycles: 65498268 heartbeat IPC: 0.3111 cumulative IPC: 0.6933 (Simulation time: 00 hr 09 min 45 sec)
Heartbeat CPU 0 instructions: 86500467 cycles: 66576647 heartbeat IPC: 0.4637 cumulative IPC: 0.6886 (Simulation time: 00 hr 09 min 53 sec)
Heartbeat CPU 0 instructions: 87000473 cycles: 67585940 heartbeat IPC: 0.4954 cumulative IPC: 0.685 (Simulation time: 00 hr 10 min 00 sec)
Heartbeat CPU 0 instructions: 87500473 cycles: 68566970 heartbeat IPC: 0.5097 cumulative IPC: 0.6819 (Simulation time: 00 hr 10 min 07 sec)
Heartbeat CPU 0 instructions: 88000474 cycles: 69194339 heartbeat IPC: 0.797 cumulative IPC: 0.6832 (Simulation time: 00 hr 10 min 11 sec)
Heartbeat CPU 0 instructions: 88500477 cycles: 69549111 heartbeat IPC: 1.409 cumulative IPC: 0.6878 (Simulation time: 00 hr 10 min 14 sec)
Heartbeat CPU 0 instructions: 89000477 cycles: 69903319 heartbeat IPC: 1.412 cumulative IPC: 0.6923 (Simulation time: 00 hr 10 min 17 sec)
Heartbeat CPU 0 instructions: 89500477 cycles: 70273611 heartbeat IPC: 1.35 cumulative IPC: 0.6966 (Simulation time: 00 hr 10 min 20 sec)
Heartbeat CPU 0 instructions: 90000479 cycles: 70515386 heartbeat IPC: 2.068 cumulative IPC: 0.7024 (Simulation time: 00 hr 10 min 22 sec)
Heartbeat CPU 0 instructions: 90500481 cycles: 70793302 heartbeat IPC: 1.799 cumulative IPC: 0.7078 (Simulation time: 00 hr 10 min 25 sec)
Heartbeat CPU 0 instructions: 91000481 cycles: 71122394 heartbeat IPC: 1.519 cumulative IPC: 0.7124 (Simulation time: 00 hr 10 min 28 sec)
Heartbeat CPU 0 instructions: 91500482 cycles: 71438004 heartbeat IPC: 1.584 cumulative IPC: 0.7172 (Simulation time: 00 hr 10 min 32 sec)
Heartbeat CPU 0 instructions: 92000482 cycles: 71785338 heartbeat IPC: 1.44 cumulative IPC: 0.7215 (Simulation time: 00 hr 10 min 35 sec)
Heartbeat CPU 0 instructions: 92500483 cycles: 72081836 heartbeat IPC: 1.686 cumulative IPC: 0.7264 (Simulation time: 00 hr 10 min 38 sec)
Heartbeat CPU 0 instructions: 93000483 cycles: 72402231 heartbeat IPC: 1.561 cumulative IPC: 0.7309 (Simulation time: 00 hr 10 min 41 sec)
Heartbeat CPU 0 instructions: 93500484 cycles: 72670681 heartbeat IPC: 1.863 cumulative IPC: 0.736 (Simulation time: 00 hr 10 min 43 sec)
Heartbeat CPU 0 instructions: 94000486 cycles: 72929938 heartbeat IPC: 1.929 cumulative IPC: 0.7413 (Simulation time: 00 hr 10 min 46 sec)
Heartbeat CPU 0 instructions: 94500489 cycles: 73282665 heartbeat IPC: 1.418 cumulative IPC: 0.7452 (Simulation time: 00 hr 10 min 49 sec)
Heartbeat CPU 0 instructions: 95000493 cycles: 73634759 heartbeat IPC: 1.42 cumulative IPC: 0.7492 (Simulation time: 00 hr 10 min 52 sec)
Heartbeat CPU 0 instructions: 95500496 cycles: 74030223 heartbeat IPC: 1.264 cumulative IPC: 0.7526 (Simulation time: 00 hr 10 min 56 sec)
Heartbeat CPU 0 instructions: 96000498 cycles: 74963810 heartbeat IPC: 0.5356 cumulative IPC: 0.7493 (Simulation time: 00 hr 11 min 02 sec)
Heartbeat CPU 0 instructions: 96500499 cycles: 75609012 heartbeat IPC: 0.775 cumulative IPC: 0.7495 (Simulation time: 00 hr 11 min 07 sec)
Heartbeat CPU 0 instructions: 97000502 cycles: 75912820 heartbeat IPC: 1.646 cumulative IPC: 0.7539 (Simulation time: 00 hr 11 min 10 sec)
Heartbeat CPU 0 instructions: 97500506 cycles: 76194931 heartbeat IPC: 1.772 cumulative IPC: 0.7585 (Simulation time: 00 hr 11 min 13 sec)
Heartbeat CPU 0 instructions: 98000509 cycles: 76466715 heartbeat IPC: 1.84 cumulative IPC: 0.7632 (Simulation time: 00 hr 11 min 16 sec)
Heartbeat CPU 0 instructions: 98500510 cycles: 76729445 heartbeat IPC: 1.903 cumulative IPC: 0.7679 (Simulation time: 00 hr 11 min 19 sec)
Heartbeat CPU 0 instructions: 99000511 cycles: 76998592 heartbeat IPC: 1.858 cumulative IPC: 0.7725 (Simulation time: 00 hr 11 min 22 sec)
Heartbeat CPU 0 instructions: 99500513 cycles: 77269389 heartbeat IPC: 1.846 cumulative IPC: 0.7771 (Simulation time: 00 hr 11 min 25 sec)
Heartbeat CPU 0 instructions: 100000513 cycles: 78544335 heartbeat IPC: 0.3922 cumulative IPC: 0.7695 (Simulation time: 00 hr 11 min 34 sec)
Heartbeat CPU 0 instructions: 100500518 cycles: 79913940 heartbeat IPC: 0.3651 cumulative IPC: 0.7612 (Simulation time: 00 hr 11 min 43 sec)
Heartbeat CPU 0 instructions: 101000518 cycles: 81126726 heartbeat IPC: 0.4123 cumulative IPC: 0.7549 (Simulation time: 00 hr 11 min 51 sec)
Heartbeat CPU 0 instructions: 101500521 cycles: 81953873 heartbeat IPC: 0.6045 cumulative IPC: 0.7531 (Simulation time: 00 hr 11 min 57 sec)
Heartbeat CPU 0 instructions: 102000526 cycles: 83560351 heartbeat IPC: 0.3112 cumulative IPC: 0.743 (Simulation time: 00 hr 12 min 07 sec)
Heartbeat CPU 0 instructions: 102500530 cycles: 84936806 heartbeat IPC: 0.3633 cumulative IPC: 0.7356 (Simulation time: 00 hr 12 min 16 sec)
Heartbeat CPU 0 instructions: 103000533 cycles: 86123010 heartbeat IPC: 0.4215 cumulative IPC: 0.7305 (Simulation time: 00 hr 12 min 24 sec)
Heartbeat CPU 0 instructions: 103500535 cycles: 87149232 heartbeat IPC: 0.4872 cumulative IPC: 0.7271 (Simulation time: 00 hr 12 min 32 sec)
Heartbeat CPU 0 instructions: 104000535 cycles: 88148630 heartbeat IPC: 0.5003 cumulative IPC: 0.7241 (Simulation time: 00 hr 12 min 39 sec)
Heartbeat CPU 0 instructions: 104500541 cycles: 88951489 heartbeat IPC: 0.6228 cumulative IPC: 0.723 (Simulation time: 00 hr 12 min 44 sec)
Heartbeat CPU 0 instructions: 105000542 cycles: 89905057 heartbeat IPC: 0.5243 cumulative IPC: 0.7205 (Simulation time: 00 hr 12 min 51 sec)
Heartbeat CPU 0 instructions: 105500543 cycles: 90217713 heartbeat IPC: 1.599 cumulative IPC: 0.7241 (Simulation time: 00 hr 12 min 53 sec)
Heartbeat CPU 0 instructions: 106000545 cycles: 90736947 heartbeat IPC: 0.963 cumulative IPC: 0.7257 (Simulation time: 00 hr 12 min 57 sec)
Heartbeat CPU 0 instructions: 106500548 cycles: 90984711 heartbeat IPC: 2.018 cumulative IPC: 0.7298 (Simulation time: 00 hr 12 min 59 sec)
Heartbeat CPU 0 instructions: 107000550 cycles: 91174584 heartbeat IPC: 2.633 cumulative IPC: 0.7345 (Simulation time: 00 hr 13 min 01 sec)
Heartbeat CPU 0 instructions: 107500553 cycles: 91397391 heartbeat IPC: 2.244 cumulative IPC: 0.7388 (Simulation time: 00 hr 13 min 03 sec)
Heartbeat CPU 0 instructions: 108000560 cycles: 92695241 heartbeat IPC: 0.3853 cumulative IPC: 0.733 (Simulation time: 00 hr 13 min 11 sec)
Heartbeat CPU 0 instructions: 108500561 cycles: 93537430 heartbeat IPC: 0.5937 cumulative IPC: 0.7316 (Simulation time: 00 hr 13 min 17 sec)
Heartbeat CPU 0 instructions: 109000565 cycles: 93784223 heartbeat IPC: 2.026 cumulative IPC: 0.7355 (Simulation time: 00 hr 13 min 20 sec)
Heartbeat CPU 0 instructions: 109500566 cycles: 94034146 heartbeat IPC: 2.001 cumulative IPC: 0.7395 (Simulation time: 00 hr 13 min 22 sec)
Heartbeat CPU 0 instructions: 110000568 cycles: 94272179 heartbeat IPC: 2.101 cumulative IPC: 0.7435 (Simulation time: 00 hr 13 min 24 sec)
Heartbeat CPU 0 instructions: 110500568 cycles: 94542803 heartbeat IPC: 1.848 cumulative IPC: 0.7472 (Simulation time: 00 hr 13 min 27 sec)
Heartbeat CPU 0 instructions: 111000572 cycles: 95424505 heartbeat IPC: 0.5671 cumulative IPC: 0.7452 (Simulation time: 00 hr 13 min 33 sec)
Heartbeat CPU 0 instructions: 111500573 cycles: 96110450 heartbeat IPC: 0.7289 cumulative IPC: 0.7451 (Simulation time: 00 hr 13 min 38 sec)
Heartbeat CPU 0 instructions: 112000579 cycles: 96452059 heartbeat IPC: 1.464 cumulative IPC: 0.7481 (Simulation time: 00 hr 13 min 41 sec)
Heartbeat CPU 0 instructions: 112500581 cycles: 97655628 heartbeat IPC: 0.4154 cumulative IPC: 0.7433 (Simulation time: 00 hr 13 min 49 sec)
Heartbeat CPU 0 instructions: 113000581 cycles: 98796683 heartbeat IPC: 0.4382 cumulative IPC: 0.7392 (Simulation time: 00 hr 13 min 56 sec)
Heartbeat CPU 0 instructions: 113500581 cycles: 99263503 heartbeat IPC: 1.071 cumulative IPC: 0.741 (Simulation time: 00 hr 14 min 00 sec)
Heartbeat CPU 0 instructions: 114000581 cycles: 99618315 heartbeat IPC: 1.409 cumulative IPC: 0.7438 (Simulation time: 00 hr 14 min 03 sec)
Heartbeat CPU 0 instructions: 114500583 cycles: 100442476 heartbeat IPC: 0.6067 cumulative IPC: 0.7425 (Simulation time: 00 hr 14 min 09 sec)
Heartbeat CPU 0 instructions: 115000590 cycles: 101848382 heartbeat IPC: 0.3556 cumulative IPC: 0.7363 (Simulation time: 00 hr 14 min 18 sec)
Heartbeat CPU 0 instructions: 115500592 cycles: 102657805 heartbeat IPC: 0.6177 cumulative IPC: 0.7352 (Simulation time: 00 hr 14 min 24 sec)
Heartbeat CPU 0 instructions: 116000593 cycles: 103331318 heartbeat IPC: 0.7424 cumulative IPC: 0.7353 (Simulation time: 00 hr 14 min 29 sec)
Heartbeat CPU 0 instructions: 116500596 cycles: 104184961 heartbeat IPC: 0.5857 cumulative IPC: 0.7339 (Simulation time: 00 hr 14 min 35 sec)
Heartbeat CPU 0 instructions: 117000596 cycles: 104584167 heartbeat IPC: 1.252 cumulative IPC: 0.7362 (Simulation time: 00 hr 14 min 38 sec)
Heartbeat CPU 0 instructions: 117500603 cycles: 105392857 heartbeat IPC: 0.6183 cumulative IPC: 0.7351 (Simulation time: 00 hr 14 min 44 sec)
Heartbeat CPU 0 instructions: 118000604 cycles: 105991083 heartbeat IPC: 0.8358 cumulative IPC: 0.7358 (Simulation time: 00 hr 14 min 49 sec)
Heartbeat CPU 0 instructions: 118500604 cycles: 106652409 heartbeat IPC: 0.7561 cumulative IPC: 0.7359 (Simulation time: 00 hr 14 min 54 sec)
Heartbeat CPU 0 instructions: 119000604 cycles: 108294074 heartbeat IPC: 0.3046 cumulative IPC: 0.7284 (Simulation time: 00 hr 15 min 05 sec)
Heartbeat CPU 0 instructions: 119500610 cycles: 108686302 heartbeat IPC: 1.275 cumulative IPC: 0.7307 (Simulation time: 00 hr 15 min 08 sec)
Heartbeat CPU 0 instructions: 120000612 cycles: 109709527 heartbeat IPC: 0.4887 cumulative IPC: 0.7281 (Simulation time: 00 hr 15 min 15 sec)
Heartbeat CPU 0 instructions: 120500614 cycles: 110546881 heartbeat IPC: 0.5971 cumulative IPC: 0.727 (Simulation time: 00 hr 15 min 21 sec)
Heartbeat CPU 0 instructions: 121000615 cycles: 111432727 heartbeat IPC: 0.5644 cumulative IPC: 0.7255 (Simulation time: 00 hr 15 min 28 sec)
Heartbeat CPU 0 instructions: 121500615 cycles: 112321772 heartbeat IPC: 0.5624 cumulative IPC: 0.724 (Simulation time: 00 hr 15 min 34 sec)
Heartbeat CPU 0 instructions: 122000620 cycles: 112870989 heartbeat IPC: 0.9104 cumulative IPC: 0.7251 (Simulation time: 00 hr 15 min 38 sec)
Heartbeat CPU 0 instructions: 122500621 cycles: 114195314 heartbeat IPC: 0.3776 cumulative IPC: 0.7205 (Simulation time: 00 hr 15 min 47 sec)
Heartbeat CPU 0 instructions: 123000621 cycles: 114893669 heartbeat IPC: 0.716 cumulative IPC: 0.7205 (Simulation time: 00 hr 15 min 52 sec)
Heartbeat CPU 0 instructions: 123500621 cycles: 115775826 heartbeat IPC: 0.5668 cumulative IPC: 0.7191 (Simulation time: 00 hr 15 min 59 sec)
Heartbeat CPU 0 instructions: 124000621 cycles: 117071232 heartbeat IPC: 0.386 cumulative IPC: 0.715 (Simulation time: 00 hr 16 min 07 sec)
Heartbeat CPU 0 instructions: 124500622 cycles: 118423781 heartbeat IPC: 0.3697 cumulative IPC: 0.7105 (Simulation time: 00 hr 16 min 16 sec)
Heartbeat CPU 0 instructions: 125000624 cycles: 119106333 heartbeat IPC: 0.7325 cumulative IPC: 0.7107 (Simulation time: 00 hr 16 min 21 sec)
Heartbeat CPU 0 instructions: 125500624 cycles: 121118265 heartbeat IPC: 0.2485 cumulative IPC: 0.702 (Simulation time: 00 hr 16 min 34 sec)
Heartbeat CPU 0 instructions: 126000624 cycles: 122181972 heartbeat IPC: 0.4701 cumulative IPC: 0.6997 (Simulation time: 00 hr 16 min 41 sec)
Heartbeat CPU 0 instructions: 126500630 cycles: 122655306 heartbeat IPC: 1.056 cumulative IPC: 0.7013 (Simulation time: 00 hr 16 min 44 sec)
Heartbeat CPU 0 instructions: 127000630 cycles: 123079408 heartbeat IPC: 1.179 cumulative IPC: 0.7031 (Simulation time: 00 hr 16 min 48 sec)
Heartbeat CPU 0 instructions: 127500633 cycles: 123475428 heartbeat IPC: 1.263 cumulative IPC: 0.7052 (Simulation time: 00 hr 16 min 51 sec)
Heartbeat CPU 0 instructions: 128000633 cycles: 124771891 heartbeat IPC: 0.3857 cumulative IPC: 0.7014 (Simulation time: 00 hr 17 min 00 sec)
Heartbeat CPU 0 instructions: 128500633 cycles: 126161509 heartbeat IPC: 0.3598 cumulative IPC: 0.6972 (Simulation time: 00 hr 17 min 09 sec)
Heartbeat CPU 0 instructions: 129000633 cycles: 127464564 heartbeat IPC: 0.3837 cumulative IPC: 0.6936 (Simulation time: 00 hr 17 min 18 sec)
Heartbeat CPU 0 instructions: 129500633 cycles: 128009694 heartbeat IPC: 0.9172 cumulative IPC: 0.6947 (Simulation time: 00 hr 17 min 22 sec)
Heartbeat CPU 0 instructions: 130000635 cycles: 128418383 heartbeat IPC: 1.223 cumulative IPC: 0.6966 (Simulation time: 00 hr 17 min 25 sec)
Heartbeat CPU 0 instructions: 130500638 cycles: 128787128 heartbeat IPC: 1.356 cumulative IPC: 0.6987 (Simulation time: 00 hr 17 min 28 sec)
Heartbeat CPU 0 instructions: 131000640 cycles: 129156098 heartbeat IPC: 1.355 cumulative IPC: 0.7008 (Simulation time: 00 hr 17 min 31 sec)
Heartbeat CPU 0 instructions: 131500643 cycles: 129905272 heartbeat IPC: 0.6674 cumulative IPC: 0.7006 (Simulation time: 00 hr 17 min 36 sec)
Heartbeat CPU 0 instructions: 132000648 cycles: 130926583 heartbeat IPC: 0.4896 cumulative IPC: 0.6987 (Simulation time: 00 hr 17 min 43 sec)
Heartbeat CPU 0 instructions: 132500652 cycles: 131806756 heartbeat IPC: 0.5681 cumulative IPC: 0.6978 (Simulation time: 00 hr 17 min 50 sec)
Heartbeat CPU 0 instructions: 133000653 cycles: 132977993 heartbeat IPC: 0.4269 cumulative IPC: 0.6951 (Simulation time: 00 hr 17 min 57 sec)
Heartbeat CPU 0 instructions: 133500658 cycles: 133964983 heartbeat IPC: 0.5066 cumulative IPC: 0.6936 (Simulation time: 00 hr 18 min 04 sec)
Heartbeat CPU 0 instructions: 134000660 cycles: 135320928 heartbeat IPC: 0.3687 cumulative IPC: 0.6899 (Simulation time: 00 hr 18 min 12 sec)
Heartbeat CPU 0 instructions: 134500665 cycles: 136439439 heartbeat IPC: 0.447 cumulative IPC: 0.6877 (Simulation time: 00 hr 18 min 20 sec)
Heartbeat CPU 0 instructions: 135000669 cycles: 137308298 heartbeat IPC: 0.5755 cumulative IPC: 0.6869 (Simulation time: 00 hr 18 min 25 sec)
Heartbeat CPU 0 instructions: 135500672 cycles: 138807280 heartbeat IPC: 0.3336 cumulative IPC: 0.6827 (Simulation time: 00 hr 18 min 35 sec)
Heartbeat CPU 0 instructions: 136000677 cycles: 140237325 heartbeat IPC: 0.3496 cumulative IPC: 0.679 (Simulation time: 00 hr 18 min 44 sec)
Heartbeat CPU 0 instructions: 136500677 cycles: 140824215 heartbeat IPC: 0.8519 cumulative IPC: 0.6797 (Simulation time: 00 hr 18 min 48 sec)
Heartbeat CPU 0 instructions: 137000681 cycles: 141891600 heartbeat IPC: 0.4684 cumulative IPC: 0.678 (Simulation time: 00 hr 18 min 55 sec)
Heartbeat CPU 0 instructions: 137500685 cycles: 142811442 heartbeat IPC: 0.5436 cumulative IPC: 0.677 (Simulation time: 00 hr 19 min 01 sec)
Heartbeat CPU 0 instructions: 138000686 cycles: 144066133 heartbeat IPC: 0.3985 cumulative IPC: 0.6744 (Simulation time: 00 hr 19 min 10 sec)
Heartbeat CPU 0 instructions: 138500689 cycles: 145530760 heartbeat IPC: 0.3414 cumulative IPC: 0.6707 (Simulation time: 00 hr 19 min 20 sec)
Heartbeat CPU 0 instructions: 139000692 cycles: 147024471 heartbeat IPC: 0.3347 cumulative IPC: 0.6669 (Simulation time: 00 hr 19 min 30 sec)
Heartbeat CPU 0 instructions: 139500695 cycles: 147433552 heartbeat IPC: 1.222 cumulative IPC: 0.6686 (Simulation time: 00 hr 19 min 33 sec)
Heartbeat CPU 0 instructions: 140000695 cycles: 147814810 heartbeat IPC: 1.311 cumulative IPC: 0.6704 (Simulation time: 00 hr 19 min 36 sec)
Heartbeat CPU 0 instructions: 140500695 cycles: 148452795 heartbeat IPC: 0.7837 cumulative IPC: 0.671 (Simulation time: 00 hr 19 min 41 sec)
Heartbeat CPU 0 instructions: 141000696 cycles: 149180630 heartbeat IPC: 0.687 cumulative IPC: 0.671 (Simulation time: 00 hr 19 min 46 sec)
Heartbeat CPU 0 instructions: 141500699 cycles: 149538408 heartbeat IPC: 1.398 cumulative IPC: 0.673 (Simulation time: 00 hr 19 min 49 sec)
Heartbeat CPU 0 instructions: 142000700 cycles: 150835955 heartbeat IPC: 0.3853 cumulative IPC: 0.6702 (Simulation time: 00 hr 19 min 58 sec)
Heartbeat CPU 0 instructions: 142500703 cycles: 151749747 heartbeat IPC: 0.5472 cumulative IPC: 0.6694 (Simulation time: 00 hr 20 min 04 sec)
Heartbeat CPU 0 instructions: 143000708 cycles: 152305265 heartbeat IPC: 0.9001 cumulative IPC: 0.6703 (Simulation time: 00 hr 20 min 08 sec)
Heartbeat CPU 0 instructions: 143500708 cycles: 152664951 heartbeat IPC: 1.39 cumulative IPC: 0.6722 (Simulation time: 00 hr 20 min 11 sec)
Heartbeat CPU 0 instructions: 144000715 cycles: 153421037 heartbeat IPC: 0.6613 cumulative IPC: 0.6722 (Simulation time: 00 hr 20 min 16 sec)
Heartbeat CPU 0 instructions: 144500718 cycles: 153962161 heartbeat IPC: 0.924 cumulative IPC: 0.6731 (Simulation time: 00 hr 20 min 21 sec)
Heartbeat CPU 0 instructions: 145000720 cycles: 154820858 heartbeat IPC: 0.5823 cumulative IPC: 0.6726 (Simulation time: 00 hr 20 min 26 sec)
Heartbeat CPU 0 instructions: 145500725 cycles: 156219167 heartbeat IPC: 0.3576 cumulative IPC: 0.6695 (Simulation time: 00 hr 20 min 35 sec)
Heartbeat CPU 0 instructions: 146000725 cycles: 156956460 heartbeat IPC: 0.6782 cumulative IPC: 0.6695 (Simulation time: 00 hr 20 min 40 sec)
Heartbeat CPU 0 instructions: 146500725 cycles: 157601630 heartbeat IPC: 0.775 cumulative IPC: 0.67 (Simulation time: 00 hr 20 min 45 sec)
Heartbeat CPU 0 instructions: 147000725 cycles: 158235842 heartbeat IPC: 0.7884 cumulative IPC: 0.6705 (Simulation time: 00 hr 20 min 50 sec)
Heartbeat CPU 0 instructions: 147500726 cycles: 159467559 heartbeat IPC: 0.4059 cumulative IPC: 0.6683 (Simulation time: 00 hr 20 min 59 sec)
Heartbeat CPU 0 instructions: 148000727 cycles: 160190452 heartbeat IPC: 0.6917 cumulative IPC: 0.6684 (Simulation time: 00 hr 21 min 04 sec)
Heartbeat CPU 0 instructions: 148500727 cycles: 161558276 heartbeat IPC: 0.3655 cumulative IPC: 0.6656 (Simulation time: 00 hr 21 min 12 sec)
Heartbeat CPU 0 instructions: 149000727 cycles: 162822237 heartbeat IPC: 0.3956 cumulative IPC: 0.6633 (Simulation time: 00 hr 21 min 21 sec)
Heartbeat CPU 0 instructions: 149500727 cycles: 163083657 heartbeat IPC: 1.913 cumulative IPC: 0.6655 (Simulation time: 00 hr 21 min 23 sec)
Heartbeat CPU 0 instructions: 150000731 cycles: 163365881 heartbeat IPC: 1.772 cumulative IPC: 0.6676 (Simulation time: 00 hr 21 min 25 sec)
Heartbeat CPU 0 instructions: 150500733 cycles: 164350254 heartbeat IPC: 0.5079 cumulative IPC: 0.6665 (Simulation time: 00 hr 21 min 32 sec)
Heartbeat CPU 0 instructions: 151000734 cycles: 165299889 heartbeat IPC: 0.5265 cumulative IPC: 0.6657 (Simulation time: 00 hr 21 min 38 sec)
Heartbeat CPU 0 instructions: 151500734 cycles: 166601467 heartbeat IPC: 0.3841 cumulative IPC: 0.6633 (Simulation time: 00 hr 21 min 47 sec)
Heartbeat CPU 0 instructions: 152000734 cycles: 167094262 heartbeat IPC: 1.015 cumulative IPC: 0.6644 (Simulation time: 00 hr 21 min 51 sec)
Heartbeat CPU 0 instructions: 152500740 cycles: 167623393 heartbeat IPC: 0.945 cumulative IPC: 0.6654 (Simulation time: 00 hr 21 min 55 sec)
Heartbeat CPU 0 instructions: 153000740 cycles: 168285079 heartbeat IPC: 0.7556 cumulative IPC: 0.6657 (Simulation time: 00 hr 22 min 00 sec)
Heartbeat CPU 0 instructions: 153500740 cycles: 169984837 heartbeat IPC: 0.2942 cumulative IPC: 0.6617 (Simulation time: 00 hr 22 min 10 sec)
Heartbeat CPU 0 instructions: 154000740 cycles: 170116206 heartbeat IPC: 3.806 cumulative IPC: 0.6643 (Simulation time: 00 hr 22 min 12 sec)
Heartbeat CPU 0 instructions: 154500743 cycles: 170494610 heartbeat IPC: 1.321 cumulative IPC: 0.6659 (Simulation time: 00 hr 22 min 15 sec)
Heartbeat CPU 0 instructions: 155000743 cycles: 170843260 heartbeat IPC: 1.434 cumulative IPC: 0.6676 (Simulation time: 00 hr 22 min 18 sec)
Heartbeat CPU 0 instructions: 155500748 cycles: 171149796 heartbeat IPC: 1.631 cumulative IPC: 0.6695 (Simulation time: 00 hr 22 min 21 sec)
Heartbeat CPU 0 instructions: 156000749 cycles: 171442756 heartbeat IPC: 1.707 cumulative IPC: 0.6714 (Simulation time: 00 hr 22 min 24 sec)
Heartbeat CPU 0 instructions: 156500750 cycles: 172350816 heartbeat IPC: 0.5506 cumulative IPC: 0.6707 (Simulation time: 00 hr 22 min 30 sec)
Heartbeat CPU 0 instructions: 157000757 cycles: 172650455 heartbeat IPC: 1.669 cumulative IPC: 0.6726 (Simulation time: 00 hr 22 min 33 sec)
Heartbeat CPU 0 instructions: 157500757 cycles: 173141924 heartbeat IPC: 1.017 cumulative IPC: 0.6737 (Simulation time: 00 hr 22 min 36 sec)
Heartbeat CPU 0 instructions: 158000757 cycles: 173678059 heartbeat IPC: 0.9326 cumulative IPC: 0.6746 (Simulation time: 00 hr 22 min 40 sec)
Heartbeat CPU 0 instructions: 158500760 cycles: 174064320 heartbeat IPC: 1.294 cumulative IPC: 0.676 (Simulation time: 00 hr 22 min 43 sec)
Heartbeat CPU 0 instructions: 159000761 cycles: 175084952 heartbeat IPC: 0.4899 cumulative IPC: 0.6749 (Simulation time: 00 hr 22 min 49 sec)
Heartbeat CPU 0 instructions: 159500763 cycles: 175771357 heartbeat IPC: 0.7284 cumulative IPC: 0.6751 (Simulation time: 00 hr 22 min 54 sec)
Heartbeat CPU 0 instructions: 160000763 cycles: 176591500 heartbeat IPC: 0.6096 cumulative IPC: 0.6748 (Simulation time: 00 hr 22 min 59 sec)
Heartbeat CPU 0 instructions: 160500769 cycles: 177454237 heartbeat IPC: 0.5796 cumulative IPC: 0.6743 (Simulation time: 00 hr 23 min 05 sec)
Heartbeat CPU 0 instructions: 161000776 cycles: 178282345 heartbeat IPC: 0.6038 cumulative IPC: 0.6739 (Simulation time: 00 hr 23 min 10 sec)
Heartbeat CPU 0 instructions: 161500782 cycles: 178836283 heartbeat IPC: 0.9026 cumulative IPC: 0.6747 (Simulation time: 00 hr 23 min 14 sec)
Heartbeat CPU 0 instructions: 162000788 cycles: 179704828 heartbeat IPC: 0.5757 cumulative IPC: 0.6742 (Simulation time: 00 hr 23 min 20 sec)
Heartbeat CPU 0 instructions: 162500792 cycles: 180799190 heartbeat IPC: 0.4569 cumulative IPC: 0.6727 (Simulation time: 00 hr 23 min 27 sec)
Heartbeat CPU 0 instructions: 163000795 cycles: 181379604 heartbeat IPC: 0.8615 cumulative IPC: 0.6734 (Simulation time: 00 hr 23 min 32 sec)
Heartbeat CPU 0 instructions: 163500801 cycles: 182098141 heartbeat IPC: 0.6959 cumulative IPC: 0.6735 (Simulation time: 00 hr 23 min 37 sec)
Heartbeat CPU 0 instructions: 164000801 cycles: 182961066 heartbeat IPC: 0.5794 cumulative IPC: 0.673 (Simulation time: 00 hr 23 min 43 sec)
Heartbeat CPU 0 instructions: 164500804 cycles: 184086582 heartbeat IPC: 0.4442 cumulative IPC: 0.6715 (Simulation time: 00 hr 23 min 50 sec)
Heartbeat CPU 0 instructions: 165000806 cycles: 184977971 heartbeat IPC: 0.5609 cumulative IPC: 0.6709 (Simulation time: 00 hr 23 min 56 sec)
Heartbeat CPU 0 instructions: 165500810 cycles: 186063181 heartbeat IPC: 0.4607 cumulative IPC: 0.6696 (Simulation time: 00 hr 24 min 02 sec)
Heartbeat CPU 0 instructions: 166000812 cycles: 187344102 heartbeat IPC: 0.3903 cumulative IPC: 0.6675 (Simulation time: 00 hr 24 min 11 sec)
Heartbeat CPU 0 instructions: 166500813 cycles: 188149736 heartbeat IPC: 0.6206 cumulative IPC: 0.6673 (Simulation time: 00 hr 24 min 16 sec)
Heartbeat CPU 0 instructions: 167000815 cycles: 188686049 heartbeat IPC: 0.9323 cumulative IPC: 0.6681 (Simulation time: 00 hr 24 min 20 sec)
Heartbeat CPU 0 instructions: 167500820 cycles: 189323048 heartbeat IPC: 0.7849 cumulative IPC: 0.6686 (Simulation time: 00 hr 24 min 24 sec)
Heartbeat CPU 0 instructions: 168000824 cycles: 189633546 heartbeat IPC: 1.61 cumulative IPC: 0.6702 (Simulation time: 00 hr 24 min 27 sec)
Heartbeat CPU 0 instructions: 168500825 cycles: 190006369 heartbeat IPC: 1.341 cumulative IPC: 0.6716 (Simulation time: 00 hr 24 min 30 sec)
Heartbeat CPU 0 instructions: 169000825 cycles: 190447959 heartbeat IPC: 1.132 cumulative IPC: 0.6728 (Simulation time: 00 hr 24 min 33 sec)
Heartbeat CPU 0 instructions: 169500827 cycles: 191076134 heartbeat IPC: 0.796 cumulative IPC: 0.6732 (Simulation time: 00 hr 24 min 38 sec)
Heartbeat CPU 0 instructions: 170000831 cycles: 191654474 heartbeat IPC: 0.8646 cumulative IPC: 0.6738 (Simulation time: 00 hr 24 min 42 sec)
Heartbeat CPU 0 instructions: 170500831 cycles: 192151500 heartbeat IPC: 1.006 cumulative IPC: 0.6748 (Simulation time: 00 hr 24 min 45 sec)
Heartbeat CPU 0 instructions: 171000831 cycles: 192637854 heartbeat IPC: 1.028 cumulative IPC: 0.6757 (Simulation time: 00 hr 24 min 49 sec)
Heartbeat CPU 0 instructions: 171500833 cycles: 193100607 heartbeat IPC: 1.08 cumulative IPC: 0.6768 (Simulation time: 00 hr 24 min 53 sec)
Heartbeat CPU 0 instructions: 172000837 cycles: 193816390 heartbeat IPC: 0.6985 cumulative IPC: 0.6769 (Simulation time: 00 hr 24 min 58 sec)
Heartbeat CPU 0 instructions: 172500841 cycles: 194443880 heartbeat IPC: 0.7968 cumulative IPC: 0.6773 (Simulation time: 00 hr 25 min 02 sec)
Heartbeat CPU 0 instructions: 173000843 cycles: 195384150 heartbeat IPC: 0.5318 cumulative IPC: 0.6765 (Simulation time: 00 hr 25 min 08 sec)
Heartbeat CPU 0 instructions: 173500846 cycles: 196072194 heartbeat IPC: 0.7267 cumulative IPC: 0.6767 (Simulation time: 00 hr 25 min 13 sec)
Heartbeat CPU 0 instructions: 174000846 cycles: 197642909 heartbeat IPC: 0.3183 cumulative IPC: 0.6737 (Simulation time: 00 hr 25 min 22 sec)
Heartbeat CPU 0 instructions: 174500846 cycles: 198360192 heartbeat IPC: 0.6971 cumulative IPC: 0.6737 (Simulation time: 00 hr 25 min 27 sec)
Heartbeat CPU 0 instructions: 175000850 cycles: 198990551 heartbeat IPC: 0.7932 cumulative IPC: 0.6741 (Simulation time: 00 hr 25 min 31 sec)
Heartbeat CPU 0 instructions: 175500853 cycles: 199688563 heartbeat IPC: 0.7163 cumulative IPC: 0.6743 (Simulation time: 00 hr 25 min 36 sec)
Heartbeat CPU 0 instructions: 176000855 cycles: 200850885 heartbeat IPC: 0.4302 cumulative IPC: 0.6728 (Simulation time: 00 hr 25 min 43 sec)
Heartbeat CPU 0 instructions: 176500857 cycles: 201934483 heartbeat IPC: 0.4614 cumulative IPC: 0.6716 (Simulation time: 00 hr 25 min 50 sec)
Heartbeat CPU 0 instructions: 177000858 cycles: 202975477 heartbeat IPC: 0.4803 cumulative IPC: 0.6705 (Simulation time: 00 hr 25 min 56 sec)
Heartbeat CPU 0 instructions: 177500859 cycles: 203322417 heartbeat IPC: 1.441 cumulative IPC: 0.6719 (Simulation time: 00 hr 25 min 59 sec)
Heartbeat CPU 0 instructions: 178000865 cycles: 204431212 heartbeat IPC: 0.4509 cumulative IPC: 0.6707 (Simulation time: 00 hr 26 min 06 sec)
Heartbeat CPU 0 instructions: 178500871 cycles: 205767423 heartbeat IPC: 0.3742 cumulative IPC: 0.6686 (Simulation time: 00 hr 26 min 14 sec)
Heartbeat CPU 0 instructions: 179000875 cycles: 206087123 heartbeat IPC: 1.564 cumulative IPC: 0.6701 (Simulation time: 00 hr 26 min 16 sec)
Heartbeat CPU 0 instructions: 179500876 cycles: 206386734 heartbeat IPC: 1.669 cumulative IPC: 0.6716 (Simulation time: 00 hr 26 min 19 sec)
Heartbeat CPU 0 instructions: 180000876 cycles: 206687086 heartbeat IPC: 1.665 cumulative IPC: 0.6732 (Simulation time: 00 hr 26 min 22 sec)
Heartbeat CPU 0 instructions: 180500880 cycles: 207719352 heartbeat IPC: 0.4844 cumulative IPC: 0.6722 (Simulation time: 00 hr 26 min 28 sec)
Heartbeat CPU 0 instructions: 181000883 cycles: 209065150 heartbeat IPC: 0.3715 cumulative IPC: 0.6701 (Simulation time: 00 hr 26 min 36 sec)
Heartbeat CPU 0 instructions: 181500884 cycles: 210004641 heartbeat IPC: 0.5322 cumulative IPC: 0.6694 (Simulation time: 00 hr 26 min 42 sec)
Heartbeat CPU 0 instructions: 182000889 cycles: 210663690 heartbeat IPC: 0.7587 cumulative IPC: 0.6697 (Simulation time: 00 hr 26 min 46 sec)
Heartbeat CPU 0 instructions: 182500892 cycles: 211443920 heartbeat IPC: 0.6408 cumulative IPC: 0.6696 (Simulation time: 00 hr 26 min 52 sec)
Heartbeat CPU 0 instructions: 183000895 cycles: 212736395 heartbeat IPC: 0.3869 cumulative IPC: 0.6678 (Simulation time: 00 hr 26 min 59 sec)
Heartbeat CPU 0 instructions: 183500896 cycles: 213899819 heartbeat IPC: 0.4298 cumulative IPC: 0.6664 (Simulation time: 00 hr 27 min 06 sec)
Heartbeat CPU 0 instructions: 184000900 cycles: 214313047 heartbeat IPC: 1.21 cumulative IPC: 0.6675 (Simulation time: 00 hr 27 min 09 sec)
Heartbeat CPU 0 instructions: 184500900 cycles: 215601330 heartbeat IPC: 0.3881 cumulative IPC: 0.6657 (Simulation time: 00 hr 27 min 17 sec)
Heartbeat CPU 0 instructions: 185000901 cycles: 216327415 heartbeat IPC: 0.6886 cumulative IPC: 0.6658 (Simulation time: 00 hr 27 min 22 sec)
Heartbeat CPU 0 instructions: 185500904 cycles: 217265610 heartbeat IPC: 0.5329 cumulative IPC: 0.6652 (Simulation time: 00 hr 27 min 28 sec)
Heartbeat CPU 0 instructions: 186000907 cycles: 217522637 heartbeat IPC: 1.945 cumulative IPC: 0.6668 (Simulation time: 00 hr 27 min 30 sec)
Heartbeat CPU 0 instructions: 186500909 cycles: 218274777 heartbeat IPC: 0.6648 cumulative IPC: 0.6668 (Simulation time: 00 hr 27 min 34 sec)
Heartbeat CPU 0 instructions: 187000909 cycles: 218710780 heartbeat IPC: 1.147 cumulative IPC: 0.6678 (Simulation time: 00 hr 27 min 37 sec)
Heartbeat CPU 0 instructions: 187500911 cycles: 219199889 heartbeat IPC: 1.022 cumulative IPC: 0.6687 (Simulation time: 00 hr 27 min 41 sec)
Heartbeat CPU 0 instructions: 188000912 cycles: 219995742 heartbeat IPC: 0.6283 cumulative IPC: 0.6685 (Simulation time: 00 hr 27 min 46 sec)
Heartbeat CPU 0 instructions: 188500914 cycles: 221539313 heartbeat IPC: 0.3239 cumulative IPC: 0.666 (Simulation time: 00 hr 27 min 55 sec)
Heartbeat CPU 0 instructions: 189000914 cycles: 223167483 heartbeat IPC: 0.3071 cumulative IPC: 0.6632 (Simulation time: 00 hr 28 min 04 sec)
Heartbeat CPU 0 instructions: 189500918 cycles: 224342325 heartbeat IPC: 0.4256 cumulative IPC: 0.6619 (Simulation time: 00 hr 28 min 11 sec)
Heartbeat CPU 0 instructions: 190000918 cycles: 225386028 heartbeat IPC: 0.4791 cumulative IPC: 0.661 (Simulation time: 00 hr 28 min 18 sec)
Heartbeat CPU 0 instructions: 190500920 cycles: 226120141 heartbeat IPC: 0.6811 cumulative IPC: 0.661 (Simulation time: 00 hr 28 min 23 sec)
Heartbeat CPU 0 instructions: 191000926 cycles: 227428170 heartbeat IPC: 0.3823 cumulative IPC: 0.6593 (Simulation time: 00 hr 28 min 31 sec)
Heartbeat CPU 0 instructions: 191500926 cycles: 228633175 heartbeat IPC: 0.4149 cumulative IPC: 0.658 (Simulation time: 00 hr 28 min 39 sec)
Heartbeat CPU 0 instructions: 192000926 cycles: 229741755 heartbeat IPC: 0.451 cumulative IPC: 0.6569 (Simulation time: 00 hr 28 min 46 sec)
Heartbeat CPU 0 instructions: 192500932 cycles: 230398227 heartbeat IPC: 0.7617 cumulative IPC: 0.6572 (Simulation time: 00 hr 28 min 51 sec)
Heartbeat CPU 0 instructions: 193000932 cycles: 231285212 heartbeat IPC: 0.5637 cumulative IPC: 0.6568 (Simulation time: 00 hr 28 min 56 sec)
Heartbeat CPU 0 instructions: 193500933 cycles: 231993750 heartbeat IPC: 0.7057 cumulative IPC: 0.657 (Simulation time: 00 hr 29 min 01 sec)
Heartbeat CPU 0 instructions: 194000935 cycles: 232622768 heartbeat IPC: 0.7949 cumulative IPC: 0.6574 (Simulation time: 00 hr 29 min 05 sec)
Heartbeat CPU 0 instructions: 194500935 cycles: 233220566 heartbeat IPC: 0.8364 cumulative IPC: 0.6579 (Simulation time: 00 hr 29 min 09 sec)
Heartbeat CPU 0 instructions: 195000942 cycles: 233690667 heartbeat IPC: 1.064 cumulative IPC: 0.6587 (Simulation time: 00 hr 29 min 12 sec)
Heartbeat CPU 0 instructions: 195500948 cycles: 234610895 heartbeat IPC: 0.5434 cumulative IPC: 0.6583 (Simulation time: 00 hr 29 min 17 sec)
Heartbeat CPU 0 instructions: 196000954 cycles: 235199518 heartbeat IPC: 0.8495 cumulative IPC: 0.6588 (Simulation time: 00 hr 29 min 22 sec)
Heartbeat CPU 0 instructions: 196500955 cycles: 235538267 heartbeat IPC: 1.476 cumulative IPC: 0.66 (Simulation time: 00 hr 29 min 25 sec)
Heartbeat CPU 0 instructions: 197000960 cycles: 235824065 heartbeat IPC: 1.75 cumulative IPC: 0.6614 (Simulation time: 00 hr 29 min 27 sec)
Heartbeat CPU 0 instructions: 197500960 cycles: 236135765 heartbeat IPC: 1.604 cumulative IPC: 0.6627 (Simulation time: 00 hr 29 min 30 sec)
Heartbeat CPU 0 instructions: 198000967 cycles: 236693954 heartbeat IPC: 0.8958 cumulative IPC: 0.6633 (Simulation time: 00 hr 29 min 33 sec)
Heartbeat CPU 0 instructions: 198500967 cycles: 237295993 heartbeat IPC: 0.8305 cumulative IPC: 0.6638 (Simulation time: 00 hr 29 min 37 sec)
Heartbeat CPU 0 instructions: 199000967 cycles: 237743163 heartbeat IPC: 1.118 cumulative IPC: 0.6647 (Simulation time: 00 hr 29 min 41 sec)
Heartbeat CPU 0 instructions: 199500967 cycles: 238104113 heartbeat IPC: 1.385 cumulative IPC: 0.6658 (Simulation time: 00 hr 29 min 44 sec)
Heartbeat CPU 0 instructions: 200000967 cycles: 238881306 heartbeat IPC: 0.6433 cumulative IPC: 0.6658 (Simulation time: 00 hr 29 min 49 sec)
Heartbeat CPU 0 instructions: 200500968 cycles: 240284049 heartbeat IPC: 0.3564 cumulative IPC: 0.6638 (Simulation time: 00 hr 29 min 57 sec)
Heartbeat CPU 0 instructions: 201000973 cycles: 241186503 heartbeat IPC: 0.5541 cumulative IPC: 0.6634 (Simulation time: 00 hr 30 min 02 sec)
Heartbeat CPU 0 instructions: 201500980 cycles: 241470027 heartbeat IPC: 1.764 cumulative IPC: 0.6648 (Simulation time: 00 hr 30 min 04 sec)
Heartbeat CPU 0 instructions: 202000981 cycles: 242155385 heartbeat IPC: 0.7295 cumulative IPC: 0.665 (Simulation time: 00 hr 30 min 09 sec)
Heartbeat CPU 0 instructions: 202500986 cycles: 243693826 heartbeat IPC: 0.325 cumulative IPC: 0.6627 (Simulation time: 00 hr 30 min 18 sec)
Heartbeat CPU 0 instructions: 203000993 cycles: 244814488 heartbeat IPC: 0.4462 cumulative IPC: 0.6616 (Simulation time: 00 hr 30 min 24 sec)
Heartbeat CPU 0 instructions: 203500994 cycles: 245303272 heartbeat IPC: 1.023 cumulative IPC: 0.6624 (Simulation time: 00 hr 30 min 27 sec)
Heartbeat CPU 0 instructions: 204000994 cycles: 245641248 heartbeat IPC: 1.479 cumulative IPC: 0.6636 (Simulation time: 00 hr 30 min 30 sec)
Heartbeat CPU 0 instructions: 204500997 cycles: 246358884 heartbeat IPC: 0.6967 cumulative IPC: 0.6637 (Simulation time: 00 hr 30 min 34 sec)
Heartbeat CPU 0 instructions: 205000999 cycles: 247076340 heartbeat IPC: 0.6969 cumulative IPC: 0.6638 (Simulation time: 00 hr 30 min 39 sec)
Heartbeat CPU 0 instructions: 205500999 cycles: 247579825 heartbeat IPC: 0.9931 cumulative IPC: 0.6645 (Simulation time: 00 hr 30 min 42 sec)
Heartbeat CPU 0 instructions: 206001000 cycles: 248298677 heartbeat IPC: 0.6956 cumulative IPC: 0.6646 (Simulation time: 00 hr 30 min 47 sec)
Heartbeat CPU 0 instructions: 206501001 cycles: 249215017 heartbeat IPC: 0.5457 cumulative IPC: 0.6641 (Simulation time: 00 hr 30 min 53 sec)
Heartbeat CPU 0 instructions: 207001002 cycles: 250001507 heartbeat IPC: 0.6357 cumulative IPC: 0.664 (Simulation time: 00 hr 30 min 58 sec)
Heartbeat CPU 0 instructions: 207501002 cycles: 250666661 heartbeat IPC: 0.7517 cumulative IPC: 0.6643 (Simulation time: 00 hr 31 min 02 sec)
Heartbeat CPU 0 instructions: 208001002 cycles: 250979770 heartbeat IPC: 1.597 cumulative IPC: 0.6655 (Simulation time: 00 hr 31 min 05 sec)
Heartbeat CPU 0 instructions: 208501002 cycles: 252319024 heartbeat IPC: 0.3733 cumulative IPC: 0.6639 (Simulation time: 00 hr 31 min 13 sec)
Heartbeat CPU 0 instructions: 209001003 cycles: 253378142 heartbeat IPC: 0.4721 cumulative IPC: 0.663 (Simulation time: 00 hr 31 min 19 sec)
Heartbeat CPU 0 instructions: 209501003 cycles: 254324871 heartbeat IPC: 0.5281 cumulative IPC: 0.6625 (Simulation time: 00 hr 31 min 24 sec)
Heartbeat CPU 0 instructions: 210001006 cycles: 255060892 heartbeat IPC: 0.6793 cumulative IPC: 0.6626 (Simulation time: 00 hr 31 min 29 sec)
Heartbeat CPU 0 instructions: 210501007 cycles: 256328533 heartbeat IPC: 0.3944 cumulative IPC: 0.6612 (Simulation time: 00 hr 31 min 37 sec)
Heartbeat CPU 0 instructions: 211001008 cycles: 257052404 heartbeat IPC: 0.6907 cumulative IPC: 0.6612 (Simulation time: 00 hr 31 min 42 sec)
Heartbeat CPU 0 instructions: 211501008 cycles: 258076698 heartbeat IPC: 0.4881 cumulative IPC: 0.6605 (Simulation time: 00 hr 31 min 48 sec)
Heartbeat CPU 0 instructions: 212001008 cycles: 258534589 heartbeat IPC: 1.092 cumulative IPC: 0.6613 (Simulation time: 00 hr 31 min 51 sec)
Heartbeat CPU 0 instructions: 212501012 cycles: 259125263 heartbeat IPC: 0.8465 cumulative IPC: 0.6618 (Simulation time: 00 hr 31 min 55 sec)
Heartbeat CPU 0 instructions: 213001017 cycles: 260451963 heartbeat IPC: 0.3769 cumulative IPC: 0.6602 (Simulation time: 00 hr 32 min 03 sec)
Heartbeat CPU 0 instructions: 213501019 cycles: 261679108 heartbeat IPC: 0.4075 cumulative IPC: 0.659 (Simulation time: 00 hr 32 min 10 sec)
Heartbeat CPU 0 instructions: 214001023 cycles: 262098518 heartbeat IPC: 1.192 cumulative IPC: 0.6599 (Simulation time: 00 hr 32 min 14 sec)
Heartbeat CPU 0 instructions: 214501026 cycles: 262479042 heartbeat IPC: 1.314 cumulative IPC: 0.6609 (Simulation time: 00 hr 32 min 17 sec)
Heartbeat CPU 0 instructions: 215001029 cycles: 262907877 heartbeat IPC: 1.166 cumulative IPC: 0.6618 (Simulation time: 00 hr 32 min 19 sec)
Heartbeat CPU 0 instructions: 215501030 cycles: 263214121 heartbeat IPC: 1.633 cumulative IPC: 0.6629 (Simulation time: 00 hr 32 min 22 sec)
Heartbeat CPU 0 instructions: 216001030 cycles: 263552167 heartbeat IPC: 1.479 cumulative IPC: 0.6641 (Simulation time: 00 hr 32 min 24 sec)
Heartbeat CPU 0 instructions: 216501032 cycles: 264042508 heartbeat IPC: 1.02 cumulative IPC: 0.6647 (Simulation time: 00 hr 32 min 28 sec)
Heartbeat CPU 0 instructions: 217001034 cycles: 264468211 heartbeat IPC: 1.175 cumulative IPC: 0.6656 (Simulation time: 00 hr 32 min 31 sec)
Heartbeat CPU 0 instructions: 217501035 cycles: 264761141 heartbeat IPC: 1.707 cumulative IPC: 0.6668 (Simulation time: 00 hr 32 min 34 sec)
Heartbeat CPU 0 instructions: 218001035 cycles: 264910765 heartbeat IPC: 3.342 cumulative IPC: 0.6684 (Simulation time: 00 hr 32 min 35 sec)
Heartbeat CPU 0 instructions: 218501037 cycles: 266112241 heartbeat IPC: 0.4162 cumulative IPC: 0.6672 (Simulation time: 00 hr 32 min 42 sec)
Heartbeat CPU 0 instructions: 219001037 cycles: 267144843 heartbeat IPC: 0.4842 cumulative IPC: 0.6665 (Simulation time: 00 hr 32 min 48 sec)
Heartbeat CPU 0 instructions: 219501038 cycles: 268487439 heartbeat IPC: 0.3724 cumulative IPC: 0.6649 (Simulation time: 00 hr 32 min 55 sec)
Heartbeat CPU 0 instructions: 220001043 cycles: 268775906 heartbeat IPC: 1.733 cumulative IPC: 0.6661 (Simulation time: 00 hr 32 min 57 sec)
Heartbeat CPU 0 instructions: 220501044 cycles: 269460236 heartbeat IPC: 0.7306 cumulative IPC: 0.6663 (Simulation time: 00 hr 33 min 02 sec)
Heartbeat CPU 0 instructions: 221001044 cycles: 270169534 heartbeat IPC: 0.7049 cumulative IPC: 0.6664 (Simulation time: 00 hr 33 min 06 sec)
Heartbeat CPU 0 instructions: 221501046 cycles: 271070191 heartbeat IPC: 0.5552 cumulative IPC: 0.666 (Simulation time: 00 hr 33 min 12 sec)
Heartbeat CPU 0 instructions: 222001047 cycles: 272227013 heartbeat IPC: 0.4322 cumulative IPC: 0.665 (Simulation time: 00 hr 33 min 19 sec)
Heartbeat CPU 0 instructions: 222501048 cycles: 272586556 heartbeat IPC: 1.391 cumulative IPC: 0.666 (Simulation time: 00 hr 33 min 22 sec)
Heartbeat CPU 0 instructions: 223001049 cycles: 273368531 heartbeat IPC: 0.6394 cumulative IPC: 0.6659 (Simulation time: 00 hr 33 min 27 sec)
Heartbeat CPU 0 instructions: 223501050 cycles: 274654710 heartbeat IPC: 0.3887 cumulative IPC: 0.6645 (Simulation time: 00 hr 33 min 34 sec)
Heartbeat CPU 0 instructions: 224001057 cycles: 275989948 heartbeat IPC: 0.3745 cumulative IPC: 0.6631 (Simulation time: 00 hr 33 min 42 sec)
Heartbeat CPU 0 instructions: 224501063 cycles: 276934304 heartbeat IPC: 0.5295 cumulative IPC: 0.6626 (Simulation time: 00 hr 33 min 48 sec)
Heartbeat CPU 0 instructions: 225001065 cycles: 278008569 heartbeat IPC: 0.4654 cumulative IPC: 0.6618 (Simulation time: 00 hr 33 min 54 sec)
Heartbeat CPU 0 instructions: 225501065 cycles: 279492686 heartbeat IPC: 0.3369 cumulative IPC: 0.66 (Simulation time: 00 hr 34 min 03 sec)
Heartbeat CPU 0 instructions: 226001065 cycles: 280327469 heartbeat IPC: 0.599 cumulative IPC: 0.6598 (Simulation time: 00 hr 34 min 08 sec)
Heartbeat CPU 0 instructions: 226501071 cycles: 281884941 heartbeat IPC: 0.321 cumulative IPC: 0.6578 (Simulation time: 00 hr 34 min 17 sec)
Heartbeat CPU 0 instructions: 227001075 cycles: 283643501 heartbeat IPC: 0.2843 cumulative IPC: 0.6554 (Simulation time: 00 hr 34 min 27 sec)
Heartbeat CPU 0 instructions: 227501080 cycles: 284546951 heartbeat IPC: 0.5534 cumulative IPC: 0.655 (Simulation time: 00 hr 34 min 33 sec)
Heartbeat CPU 0 instructions: 228001080 cycles: 285182430 heartbeat IPC: 0.7868 cumulative IPC: 0.6554 (Simulation time: 00 hr 34 min 37 sec)
Heartbeat CPU 0 instructions: 228501080 cycles: 285800059 heartbeat IPC: 0.8095 cumulative IPC: 0.6557 (Simulation time: 00 hr 34 min 41 sec)
Heartbeat CPU 0 instructions: 229001080 cycles: 286846297 heartbeat IPC: 0.4779 cumulative IPC: 0.655 (Simulation time: 00 hr 34 min 47 sec)
Heartbeat CPU 0 instructions: 229501080 cycles: 287661861 heartbeat IPC: 0.6131 cumulative IPC: 0.6549 (Simulation time: 00 hr 34 min 52 sec)
Heartbeat CPU 0 instructions: 230001084 cycles: 288142550 heartbeat IPC: 1.04 cumulative IPC: 0.6556 (Simulation time: 00 hr 34 min 56 sec)
Heartbeat CPU 0 instructions: 230501085 cycles: 289724213 heartbeat IPC: 0.3161 cumulative IPC: 0.6536 (Simulation time: 00 hr 35 min 04 sec)
Heartbeat CPU 0 instructions: 231001087 cycles: 290311892 heartbeat IPC: 0.8508 cumulative IPC: 0.654 (Simulation time: 00 hr 35 min 08 sec)
Heartbeat CPU 0 instructions: 231501087 cycles: 290568553 heartbeat IPC: 1.948 cumulative IPC: 0.6552 (Simulation time: 00 hr 35 min 10 sec)
Heartbeat CPU 0 instructions: 232001088 cycles: 290849291 heartbeat IPC: 1.781 cumulative IPC: 0.6564 (Simulation time: 00 hr 35 min 13 sec)
Heartbeat CPU 0 instructions: 232501095 cycles: 291783964 heartbeat IPC: 0.535 cumulative IPC: 0.656 (Simulation time: 00 hr 35 min 18 sec)
Heartbeat CPU 0 instructions: 233001095 cycles: 293290061 heartbeat IPC: 0.332 cumulative IPC: 0.6542 (Simulation time: 00 hr 35 min 27 sec)
Heartbeat CPU 0 instructions: 233501097 cycles: 293819180 heartbeat IPC: 0.945 cumulative IPC: 0.6548 (Simulation time: 00 hr 35 min 31 sec)
Heartbeat CPU 0 instructions: 234001101 cycles: 294619094 heartbeat IPC: 0.6251 cumulative IPC: 0.6547 (Simulation time: 00 hr 35 min 36 sec)
Heartbeat CPU 0 instructions: 234501101 cycles: 295726768 heartbeat IPC: 0.4514 cumulative IPC: 0.6539 (Simulation time: 00 hr 35 min 43 sec)
Heartbeat CPU 0 instructions: 235001105 cycles: 296519427 heartbeat IPC: 0.6308 cumulative IPC: 0.6538 (Simulation time: 00 hr 35 min 48 sec)
Heartbeat CPU 0 instructions: 235501105 cycles: 297458878 heartbeat IPC: 0.5322 cumulative IPC: 0.6534 (Simulation time: 00 hr 35 min 53 sec)
Heartbeat CPU 0 instructions: 236001109 cycles: 298124538 heartbeat IPC: 0.7511 cumulative IPC: 0.6537 (Simulation time: 00 hr 35 min 58 sec)
Heartbeat CPU 0 instructions: 236501112 cycles: 298452657 heartbeat IPC: 1.524 cumulative IPC: 0.6547 (Simulation time: 00 hr 36 min 01 sec)
Heartbeat CPU 0 instructions: 237001112 cycles: 298736199 heartbeat IPC: 1.763 cumulative IPC: 0.6558 (Simulation time: 00 hr 36 min 03 sec)
Heartbeat CPU 0 instructions: 237501114 cycles: 299093604 heartbeat IPC: 1.399 cumulative IPC: 0.6567 (Simulation time: 00 hr 36 min 06 sec)
Heartbeat CPU 0 instructions: 238001116 cycles: 299744809 heartbeat IPC: 0.7678 cumulative IPC: 0.6569 (Simulation time: 00 hr 36 min 10 sec)
Heartbeat CPU 0 instructions: 238501121 cycles: 300836924 heartbeat IPC: 0.4578 cumulative IPC: 0.6562 (Simulation time: 00 hr 36 min 17 sec)
Heartbeat CPU 0 instructions: 239001122 cycles: 301665723 heartbeat IPC: 0.6033 cumulative IPC: 0.656 (Simulation time: 00 hr 36 min 22 sec)
Heartbeat CPU 0 instructions: 239501122 cycles: 302688284 heartbeat IPC: 0.489 cumulative IPC: 0.6554 (Simulation time: 00 hr 36 min 28 sec)
Heartbeat CPU 0 instructions: 240001122 cycles: 303460511 heartbeat IPC: 0.6475 cumulative IPC: 0.6554 (Simulation time: 00 hr 36 min 33 sec)
Heartbeat CPU 0 instructions: 240501124 cycles: 304426500 heartbeat IPC: 0.5176 cumulative IPC: 0.655 (Simulation time: 00 hr 36 min 39 sec)
Heartbeat CPU 0 instructions: 241001129 cycles: 305531570 heartbeat IPC: 0.4525 cumulative IPC: 0.6542 (Simulation time: 00 hr 36 min 45 sec)
Heartbeat CPU 0 instructions: 241501130 cycles: 306275172 heartbeat IPC: 0.6724 cumulative IPC: 0.6542 (Simulation time: 00 hr 36 min 50 sec)
Heartbeat CPU 0 instructions: 242001131 cycles: 306583925 heartbeat IPC: 1.619 cumulative IPC: 0.6553 (Simulation time: 00 hr 36 min 52 sec)
Heartbeat CPU 0 instructions: 242501131 cycles: 307554534 heartbeat IPC: 0.5151 cumulative IPC: 0.6548 (Simulation time: 00 hr 36 min 58 sec)
Heartbeat CPU 0 instructions: 243001133 cycles: 309255025 heartbeat IPC: 0.294 cumulative IPC: 0.6527 (Simulation time: 00 hr 37 min 08 sec)
Heartbeat CPU 0 instructions: 243501136 cycles: 309814512 heartbeat IPC: 0.8937 cumulative IPC: 0.6532 (Simulation time: 00 hr 37 min 12 sec)
Heartbeat CPU 0 instructions: 244001143 cycles: 310617363 heartbeat IPC: 0.6228 cumulative IPC: 0.6531 (Simulation time: 00 hr 37 min 17 sec)
Heartbeat CPU 0 instructions: 244501143 cycles: 311375837 heartbeat IPC: 0.6592 cumulative IPC: 0.6531 (Simulation time: 00 hr 37 min 22 sec)
Heartbeat CPU 0 instructions: 245001143 cycles: 312798331 heartbeat IPC: 0.3515 cumulative IPC: 0.6517 (Simulation time: 00 hr 37 min 30 sec)
Heartbeat CPU 0 instructions: 245501143 cycles: 313574758 heartbeat IPC: 0.644 cumulative IPC: 0.6517 (Simulation time: 00 hr 37 min 35 sec)
Heartbeat CPU 0 instructions: 246001150 cycles: 314795266 heartbeat IPC: 0.4097 cumulative IPC: 0.6507 (Simulation time: 00 hr 37 min 42 sec)
Heartbeat CPU 0 instructions: 246501151 cycles: 315775788 heartbeat IPC: 0.5099 cumulative IPC: 0.6502 (Simulation time: 00 hr 37 min 48 sec)
Heartbeat CPU 0 instructions: 247001155 cycles: 316022427 heartbeat IPC: 2.027 cumulative IPC: 0.6513 (Simulation time: 00 hr 37 min 49 sec)
Heartbeat CPU 0 instructions: 247501156 cycles: 316427665 heartbeat IPC: 1.234 cumulative IPC: 0.6521 (Simulation time: 00 hr 37 min 52 sec)
Heartbeat CPU 0 instructions: 248001156 cycles: 316702861 heartbeat IPC: 1.817 cumulative IPC: 0.6532 (Simulation time: 00 hr 37 min 54 sec)
Heartbeat CPU 0 instructions: 248501157 cycles: 316910921 heartbeat IPC: 2.403 cumulative IPC: 0.6544 (Simulation time: 00 hr 37 min 56 sec)
Heartbeat CPU 0 instructions: 249001157 cycles: 317675839 heartbeat IPC: 0.6537 cumulative IPC: 0.6544 (Simulation time: 00 hr 38 min 01 sec)
Heartbeat CPU 0 instructions: 249501158 cycles: 318918040 heartbeat IPC: 0.4025 cumulative IPC: 0.6534 (Simulation time: 00 hr 38 min 08 sec)
Simulation finished CPU 0 instructions: 200000001 cycles: 305942799 cumulative IPC: 0.6537 (Simulation time: 00 hr 38 min 12 sec)
Simulation complete CPU 0 instructions: 200000001 cycles: 305942799 cumulative IPC: 0.6537 (Simulation time: 00 hr 38 min 12 sec)

ChampSim completed all CPUs

=== Simulation ===
CPU 0 runs /local-ssd/ben/dpc4-traces/gtraces_v2/merced_0004.champsim.gz

Region of Interest Statistics

CPU 0 cumulative IPC: 0.6537 instructions: 200000001 cycles: 305942799
CPU 0 Branch Prediction Accuracy: 90.21% MPKI: 16.51 Average ROB Occupancy at Mispredict: 24.87
Branch type MPKI
BRANCH_DIRECT_JUMP: 1.288
BRANCH_INDIRECT: 0.2266
BRANCH_CONDITIONAL: 13.52
BRANCH_DIRECT_CALL: 0.709
BRANCH_INDIRECT_CALL: 0.2726
BRANCH_RETURN: 0.4968

cpu0->cpu0_STLB TOTAL        ACCESS:    1616802 HIT:    1215530 MISS:     401272 MSHR_MERGE:          0
cpu0->cpu0_STLB LOAD         ACCESS:    1616802 HIT:    1215530 MISS:     401272 MSHR_MERGE:          0
cpu0->cpu0_STLB RFO          ACCESS:          0 HIT:          0 MISS:          0 MSHR_MERGE:          0
cpu0->cpu0_STLB PREFETCH     ACCESS:          0 HIT:          0 MISS:          0 MSHR_MERGE:          0
cpu0->cpu0_STLB WRITE        ACCESS:          0 HIT:          0 MISS:          0 MSHR_MERGE:          0
cpu0->cpu0_STLB TRANSLATION  ACCESS:          0 HIT:          0 MISS:          0 MSHR_MERGE:          0
cpu0->cpu0_STLB PREFETCH REQUESTED:          0 ISSUED:          0 USEFUL:          0 USELESS:          0
cpu0->cpu0_STLB AVERAGE MISS LATENCY: 206.6 cycles
cpu0->cpu0_L2C TOTAL        ACCESS:   15799489 HIT:   11223692 MISS:    4575797 MSHR_MERGE:    1410691
cpu0->cpu0_L2C LOAD         ACCESS:    3797019 HIT:    2843837 MISS:     953182 MSHR_MERGE:     141030
cpu0->cpu0_L2C RFO          ACCESS:     632147 HIT:     240469 MISS:     391678 MSHR_MERGE:       5822
cpu0->cpu0_L2C PREFETCH     ACCESS:    9991883 HIT:    6975536 MISS:    3016347 MSHR_MERGE:    1263839
cpu0->cpu0_L2C WRITE        ACCESS:     938763 HIT:     938741 MISS:         22 MSHR_MERGE:          0
cpu0->cpu0_L2C TRANSLATION  ACCESS:     439677 HIT:     225109 MISS:     214568 MSHR_MERGE:          0
cpu0->cpu0_L2C PREFETCH REQUESTED:   10724307 ISSUED:    9991884 USEFUL:    1003492 USELESS:     749632
cpu0->cpu0_L2C AVERAGE MISS LATENCY: 213.6 cycles
cpu0->cpu0_L1I TOTAL        ACCESS:   15955715 HIT:   13972720 MISS:    1982995 MSHR_MERGE:     462908
cpu0->cpu0_L1I LOAD         ACCESS:   15955715 HIT:   13972720 MISS:    1982995 MSHR_MERGE:     462908
cpu0->cpu0_L1I RFO          ACCESS:          0 HIT:          0 MISS:          0 MSHR_MERGE:          0
cpu0->cpu0_L1I PREFETCH     ACCESS:          0 HIT:          0 MISS:          0 MSHR_MERGE:          0
cpu0->cpu0_L1I WRITE        ACCESS:          0 HIT:          0 MISS:          0 MSHR_MERGE:          0
cpu0->cpu0_L1I TRANSLATION  ACCESS:          0 HIT:          0 MISS:          0 MSHR_MERGE:          0
cpu0->cpu0_L1I PREFETCH REQUESTED:          0 ISSUED:          0 USEFUL:          0 USELESS:          0
cpu0->cpu0_L1I AVERAGE MISS LATENCY: 48.92 cycles
cpu0->cpu0_L1D TOTAL        ACCESS:   46756861 HIT:   40741908 MISS:    6014953 MSHR_MERGE:    2666123
cpu0->cpu0_L1D LOAD         ACCESS:   29073963 HIT:   25897562 MISS:    3176401 MSHR_MERGE:     899428
cpu0->cpu0_L1D RFO          ACCESS:          0 HIT:          0 MISS:          0 MSHR_MERGE:          0
cpu0->cpu0_L1D PREFETCH     ACCESS:          0 HIT:          0 MISS:          0 MSHR_MERGE:          0
cpu0->cpu0_L1D WRITE        ACCESS:   16654813 HIT:   14262400 MISS:    2392413 MSHR_MERGE:    1760233
cpu0->cpu0_L1D TRANSLATION  ACCESS:    1028085 HIT:     581946 MISS:     446139 MSHR_MERGE:       6462
cpu0->cpu0_L1D PREFETCH REQUESTED:          0 ISSUED:          0 USEFUL:          0 USELESS:          0
cpu0->cpu0_L1D AVERAGE MISS LATENCY: 89.09 cycles
cpu0->cpu0_ITLB TOTAL        ACCESS:   13249091 HIT:   13036278 MISS:     212813 MSHR_MERGE:     108300
cpu0->cpu0_ITLB LOAD         ACCESS:   13249091 HIT:   13036278 MISS:     212813 MSHR_MERGE:     108300
cpu0->cpu0_ITLB RFO          ACCESS:          0 HIT:          0 MISS:          0 MSHR_MERGE:          0
cpu0->cpu0_ITLB PREFETCH     ACCESS:          0 HIT:          0 MISS:          0 MSHR_MERGE:          0
cpu0->cpu0_ITLB WRITE        ACCESS:          0 HIT:          0 MISS:          0 MSHR_MERGE:          0
cpu0->cpu0_ITLB TRANSLATION  ACCESS:          0 HIT:          0 MISS:          0 MSHR_MERGE:          0
cpu0->cpu0_ITLB PREFETCH REQUESTED:          0 ISSUED:          0 USEFUL:          0 USELESS:          0
cpu0->cpu0_ITLB AVERAGE MISS LATENCY: 37.5 cycles
cpu0->cpu0_DTLB TOTAL        ACCESS:   44093611 HIT:   41562336 MISS:    2531275 MSHR_MERGE:    1018986
cpu0->cpu0_DTLB LOAD         ACCESS:   44093611 HIT:   41562336 MISS:    2531275 MSHR_MERGE:    1018986
cpu0->cpu0_DTLB RFO          ACCESS:          0 HIT:          0 MISS:          0 MSHR_MERGE:          0
cpu0->cpu0_DTLB PREFETCH     ACCESS:          0 HIT:          0 MISS:          0 MSHR_MERGE:          0
cpu0->cpu0_DTLB WRITE        ACCESS:          0 HIT:          0 MISS:          0 MSHR_MERGE:          0
cpu0->cpu0_DTLB TRANSLATION  ACCESS:          0 HIT:          0 MISS:          0 MSHR_MERGE:          0
cpu0->cpu0_DTLB PREFETCH REQUESTED:          0 ISSUED:          0 USEFUL:          0 USELESS:          0
cpu0->cpu0_DTLB AVERAGE MISS LATENCY: 57.85 cycles
cpu0->LLC TOTAL        ACCESS:    4729069 HIT:     865148 MISS:    3863921 MSHR_MERGE:     142722
cpu0->LLC LOAD         ACCESS:     812152 HIT:     133191 MISS:     678961 MSHR_MERGE:       3695
cpu0->LLC RFO          ACCESS:     385856 HIT:      18360 MISS:     367496 MSHR_MERGE:         57
cpu0->LLC PREFETCH     ACCESS:    2752709 HIT:     591016 MISS:    2161693 MSHR_MERGE:     138970
cpu0->LLC WRITE        ACCESS:     563784 HIT:     110155 MISS:     453629 MSHR_MERGE:          0
cpu0->LLC TRANSLATION  ACCESS:     214568 HIT:      12426 MISS:     202142 MSHR_MERGE:          0
cpu0->LLC PREFETCH REQUESTED:    1044641 ISSUED:    1000201 USEFUL:     269148 USELESS:     480769
cpu0->LLC AVERAGE MISS LATENCY: 169.1 cycles

DRAM Statistics

Channel 0 RQ ROW_BUFFER_HIT:     204056
  ROW_BUFFER_MISS:    3063482
  AVG DBUS CONGESTED CYCLE: 20.69
Channel 0 WQ ROW_BUFFER_HIT:     129894
  ROW_BUFFER_MISS:     386163
  FULL:          0
Channel 0 REFRESHES ISSUED:      25494
