[VMEM] WARNING: physical memory size is smaller than virtual memory size.

*** ChampSim Multicore Out-of-Order Simulator ***
Warmup Instructions: 50000000
Simulation Instructions: 200000000
Number of CPUs: 1
Page size: 4096
Core 0: /local-ssd/ben/dpc4-traces/ai-ml/llama2.c-stories110M.2.champsimtrace.gz
 L1D Berti prefetcher
Off-chip DRAM Size: 64 GiB Channels: 1 Width: 64-bit Data Rate: 4807 MT/s
Heartbeat CPU 0 instructions: 500007 cycles: 128209 heartbeat IPC: 3.9 cumulative IPC: 3.9 (Simulation time: 00 hr 00 min 02 sec)
Heartbeat CPU 0 instructions: 1000012 cycles: 254818 heartbeat IPC: 3.949 cumulative IPC: 3.924 (Simulation time: 00 hr 00 min 04 sec)
Heartbeat CPU 0 instructions: 1500018 cycles: 381223 heartbeat IPC: 3.956 cumulative IPC: 3.935 (Simulation time: 00 hr 00 min 06 sec)
Heartbeat CPU 0 instructions: 2000025 cycles: 507613 heartbeat IPC: 3.956 cumulative IPC: 3.94 (Simulation time: 00 hr 00 min 08 sec)
Heartbeat CPU 0 instructions: 2500027 cycles: 634084 heartbeat IPC: 3.953 cumulative IPC: 3.943 (Simulation time: 00 hr 00 min 10 sec)
Heartbeat CPU 0 instructions: 3000030 cycles: 760758 heartbeat IPC: 3.947 cumulative IPC: 3.943 (Simulation time: 00 hr 00 min 12 sec)
Heartbeat CPU 0 instructions: 3500033 cycles: 887236 heartbeat IPC: 3.953 cumulative IPC: 3.945 (Simulation time: 00 hr 00 min 14 sec)
Heartbeat CPU 0 instructions: 4000035 cycles: 1013922 heartbeat IPC: 3.947 cumulative IPC: 3.945 (Simulation time: 00 hr 00 min 16 sec)
Heartbeat CPU 0 instructions: 4500038 cycles: 1140612 heartbeat IPC: 3.947 cumulative IPC: 3.945 (Simulation time: 00 hr 00 min 18 sec)
Heartbeat CPU 0 instructions: 5000042 cycles: 1268080 heartbeat IPC: 3.923 cumulative IPC: 3.943 (Simulation time: 00 hr 00 min 20 sec)
Heartbeat CPU 0 instructions: 5500042 cycles: 1394380 heartbeat IPC: 3.959 cumulative IPC: 3.944 (Simulation time: 00 hr 00 min 22 sec)
Heartbeat CPU 0 instructions: 6000048 cycles: 1521294 heartbeat IPC: 3.94 cumulative IPC: 3.944 (Simulation time: 00 hr 00 min 24 sec)
Heartbeat CPU 0 instructions: 6500053 cycles: 1647689 heartbeat IPC: 3.956 cumulative IPC: 3.945 (Simulation time: 00 hr 00 min 26 sec)
Heartbeat CPU 0 instructions: 7000053 cycles: 1774437 heartbeat IPC: 3.945 cumulative IPC: 3.945 (Simulation time: 00 hr 00 min 28 sec)
Heartbeat CPU 0 instructions: 7500054 cycles: 1900416 heartbeat IPC: 3.969 cumulative IPC: 3.947 (Simulation time: 00 hr 00 min 30 sec)
Heartbeat CPU 0 instructions: 8000058 cycles: 2025515 heartbeat IPC: 3.997 cumulative IPC: 3.95 (Simulation time: 00 hr 00 min 32 sec)
Heartbeat CPU 0 instructions: 8500058 cycles: 2152014 heartbeat IPC: 3.953 cumulative IPC: 3.95 (Simulation time: 00 hr 00 min 35 sec)
Heartbeat CPU 0 instructions: 9000062 cycles: 2278320 heartbeat IPC: 3.959 cumulative IPC: 3.95 (Simulation time: 00 hr 00 min 37 sec)
Heartbeat CPU 0 instructions: 9500062 cycles: 2405329 heartbeat IPC: 3.937 cumulative IPC: 3.95 (Simulation time: 00 hr 00 min 39 sec)
Heartbeat CPU 0 instructions: 10000067 cycles: 2531942 heartbeat IPC: 3.949 cumulative IPC: 3.95 (Simulation time: 00 hr 00 min 41 sec)
Heartbeat CPU 0 instructions: 10500072 cycles: 2658345 heartbeat IPC: 3.956 cumulative IPC: 3.95 (Simulation time: 00 hr 00 min 43 sec)
Heartbeat CPU 0 instructions: 11000074 cycles: 2784750 heartbeat IPC: 3.956 cumulative IPC: 3.95 (Simulation time: 00 hr 00 min 45 sec)
Heartbeat CPU 0 instructions: 11500079 cycles: 2911150 heartbeat IPC: 3.956 cumulative IPC: 3.95 (Simulation time: 00 hr 00 min 47 sec)
Heartbeat CPU 0 instructions: 12000083 cycles: 3037745 heartbeat IPC: 3.95 cumulative IPC: 3.95 (Simulation time: 00 hr 00 min 49 sec)
Heartbeat CPU 0 instructions: 12500083 cycles: 3164147 heartbeat IPC: 3.956 cumulative IPC: 3.951 (Simulation time: 00 hr 00 min 51 sec)
Heartbeat CPU 0 instructions: 13000089 cycles: 3290757 heartbeat IPC: 3.949 cumulative IPC: 3.95 (Simulation time: 00 hr 00 min 53 sec)
Heartbeat CPU 0 instructions: 13500094 cycles: 3417368 heartbeat IPC: 3.949 cumulative IPC: 3.95 (Simulation time: 00 hr 00 min 55 sec)
Heartbeat CPU 0 instructions: 14000099 cycles: 3543771 heartbeat IPC: 3.956 cumulative IPC: 3.951 (Simulation time: 00 hr 00 min 57 sec)
Heartbeat CPU 0 instructions: 14500105 cycles: 3670381 heartbeat IPC: 3.949 cumulative IPC: 3.951 (Simulation time: 00 hr 00 min 59 sec)
Heartbeat CPU 0 instructions: 15000109 cycles: 3794969 heartbeat IPC: 4.013 cumulative IPC: 3.953 (Simulation time: 00 hr 01 min 01 sec)
Heartbeat CPU 0 instructions: 15500116 cycles: 3921648 heartbeat IPC: 3.947 cumulative IPC: 3.952 (Simulation time: 00 hr 01 min 04 sec)
Heartbeat CPU 0 instructions: 16000123 cycles: 4048136 heartbeat IPC: 3.953 cumulative IPC: 3.952 (Simulation time: 00 hr 01 min 06 sec)
Heartbeat CPU 0 instructions: 16500125 cycles: 4175024 heartbeat IPC: 3.94 cumulative IPC: 3.952 (Simulation time: 00 hr 01 min 08 sec)
Heartbeat CPU 0 instructions: 17000128 cycles: 4301501 heartbeat IPC: 3.953 cumulative IPC: 3.952 (Simulation time: 00 hr 01 min 10 sec)
Heartbeat CPU 0 instructions: 17500133 cycles: 4427969 heartbeat IPC: 3.954 cumulative IPC: 3.952 (Simulation time: 00 hr 01 min 12 sec)
Heartbeat CPU 0 instructions: 18000137 cycles: 4554268 heartbeat IPC: 3.959 cumulative IPC: 3.952 (Simulation time: 00 hr 01 min 14 sec)
Heartbeat CPU 0 instructions: 18500138 cycles: 4680910 heartbeat IPC: 3.948 cumulative IPC: 3.952 (Simulation time: 00 hr 01 min 16 sec)
Heartbeat CPU 0 instructions: 19000143 cycles: 4807311 heartbeat IPC: 3.956 cumulative IPC: 3.952 (Simulation time: 00 hr 01 min 18 sec)
Heartbeat CPU 0 instructions: 19500148 cycles: 4933508 heartbeat IPC: 3.962 cumulative IPC: 3.953 (Simulation time: 00 hr 01 min 20 sec)
Heartbeat CPU 0 instructions: 20000148 cycles: 5059838 heartbeat IPC: 3.958 cumulative IPC: 3.953 (Simulation time: 00 hr 01 min 22 sec)
Heartbeat CPU 0 instructions: 20500153 cycles: 5186243 heartbeat IPC: 3.956 cumulative IPC: 3.953 (Simulation time: 00 hr 01 min 24 sec)
Heartbeat CPU 0 instructions: 21000153 cycles: 5309832 heartbeat IPC: 4.046 cumulative IPC: 3.955 (Simulation time: 00 hr 01 min 26 sec)
Heartbeat CPU 0 instructions: 21500157 cycles: 5436135 heartbeat IPC: 3.959 cumulative IPC: 3.955 (Simulation time: 00 hr 01 min 28 sec)
Heartbeat CPU 0 instructions: 22000159 cycles: 5562368 heartbeat IPC: 3.961 cumulative IPC: 3.955 (Simulation time: 00 hr 01 min 30 sec)
Heartbeat CPU 0 instructions: 22500165 cycles: 5688983 heartbeat IPC: 3.949 cumulative IPC: 3.955 (Simulation time: 00 hr 01 min 32 sec)
Heartbeat CPU 0 instructions: 23000170 cycles: 5815386 heartbeat IPC: 3.956 cumulative IPC: 3.955 (Simulation time: 00 hr 01 min 34 sec)
Heartbeat CPU 0 instructions: 23500175 cycles: 5941994 heartbeat IPC: 3.949 cumulative IPC: 3.955 (Simulation time: 00 hr 01 min 37 sec)
Heartbeat CPU 0 instructions: 24000181 cycles: 6068404 heartbeat IPC: 3.955 cumulative IPC: 3.955 (Simulation time: 00 hr 01 min 39 sec)
Heartbeat CPU 0 instructions: 24500185 cycles: 6195013 heartbeat IPC: 3.949 cumulative IPC: 3.955 (Simulation time: 00 hr 01 min 41 sec)
Heartbeat CPU 0 instructions: 25000186 cycles: 6321206 heartbeat IPC: 3.962 cumulative IPC: 3.955 (Simulation time: 00 hr 01 min 43 sec)
Heartbeat CPU 0 instructions: 25500188 cycles: 6447804 heartbeat IPC: 3.95 cumulative IPC: 3.955 (Simulation time: 00 hr 01 min 45 sec)
Heartbeat CPU 0 instructions: 26000189 cycles: 6574202 heartbeat IPC: 3.956 cumulative IPC: 3.955 (Simulation time: 00 hr 01 min 47 sec)
Heartbeat CPU 0 instructions: 26500189 cycles: 6700806 heartbeat IPC: 3.949 cumulative IPC: 3.955 (Simulation time: 00 hr 01 min 49 sec)
Heartbeat CPU 0 instructions: 27000194 cycles: 6827211 heartbeat IPC: 3.956 cumulative IPC: 3.955 (Simulation time: 00 hr 01 min 51 sec)
Heartbeat CPU 0 instructions: 27500196 cycles: 6952001 heartbeat IPC: 4.007 cumulative IPC: 3.956 (Simulation time: 00 hr 01 min 53 sec)
Heartbeat CPU 0 instructions: 28000202 cycles: 7078487 heartbeat IPC: 3.953 cumulative IPC: 3.956 (Simulation time: 00 hr 01 min 55 sec)
Heartbeat CPU 0 instructions: 28500205 cycles: 7205375 heartbeat IPC: 3.941 cumulative IPC: 3.955 (Simulation time: 00 hr 01 min 57 sec)
Heartbeat CPU 0 instructions: 29000207 cycles: 7332053 heartbeat IPC: 3.947 cumulative IPC: 3.955 (Simulation time: 00 hr 02 min 00 sec)
Heartbeat CPU 0 instructions: 29500210 cycles: 7458527 heartbeat IPC: 3.953 cumulative IPC: 3.955 (Simulation time: 00 hr 02 min 02 sec)
Heartbeat CPU 0 instructions: 30000212 cycles: 7585200 heartbeat IPC: 3.947 cumulative IPC: 3.955 (Simulation time: 00 hr 02 min 04 sec)
Heartbeat CPU 0 instructions: 30500216 cycles: 7711299 heartbeat IPC: 3.965 cumulative IPC: 3.955 (Simulation time: 00 hr 02 min 06 sec)
Heartbeat CPU 0 instructions: 31000216 cycles: 7837799 heartbeat IPC: 3.953 cumulative IPC: 3.955 (Simulation time: 00 hr 02 min 08 sec)
Heartbeat CPU 0 instructions: 31500217 cycles: 7964289 heartbeat IPC: 3.953 cumulative IPC: 3.955 (Simulation time: 00 hr 02 min 10 sec)
Heartbeat CPU 0 instructions: 32000222 cycles: 8090479 heartbeat IPC: 3.962 cumulative IPC: 3.955 (Simulation time: 00 hr 02 min 12 sec)
Heartbeat CPU 0 instructions: 32500229 cycles: 8216805 heartbeat IPC: 3.958 cumulative IPC: 3.955 (Simulation time: 00 hr 02 min 14 sec)
Heartbeat CPU 0 instructions: 33000235 cycles: 8343210 heartbeat IPC: 3.956 cumulative IPC: 3.955 (Simulation time: 00 hr 02 min 16 sec)
Heartbeat CPU 0 instructions: 33500240 cycles: 8466643 heartbeat IPC: 4.051 cumulative IPC: 3.957 (Simulation time: 00 hr 02 min 18 sec)
Heartbeat CPU 0 instructions: 34000240 cycles: 8593147 heartbeat IPC: 3.952 cumulative IPC: 3.957 (Simulation time: 00 hr 02 min 20 sec)
Heartbeat CPU 0 instructions: 34500241 cycles: 8719169 heartbeat IPC: 3.968 cumulative IPC: 3.957 (Simulation time: 00 hr 02 min 22 sec)
Heartbeat CPU 0 instructions: 35000246 cycles: 8845573 heartbeat IPC: 3.956 cumulative IPC: 3.957 (Simulation time: 00 hr 02 min 24 sec)
Heartbeat CPU 0 instructions: 35500252 cycles: 8972187 heartbeat IPC: 3.949 cumulative IPC: 3.957 (Simulation time: 00 hr 02 min 26 sec)
Heartbeat CPU 0 instructions: 36000257 cycles: 9098798 heartbeat IPC: 3.949 cumulative IPC: 3.957 (Simulation time: 00 hr 02 min 29 sec)
Heartbeat CPU 0 instructions: 36500262 cycles: 9225207 heartbeat IPC: 3.955 cumulative IPC: 3.957 (Simulation time: 00 hr 02 min 31 sec)
Heartbeat CPU 0 instructions: 37000268 cycles: 9351815 heartbeat IPC: 3.949 cumulative IPC: 3.956 (Simulation time: 00 hr 02 min 33 sec)
Heartbeat CPU 0 instructions: 37500272 cycles: 9478222 heartbeat IPC: 3.956 cumulative IPC: 3.956 (Simulation time: 00 hr 02 min 35 sec)
Heartbeat CPU 0 instructions: 38000277 cycles: 9604835 heartbeat IPC: 3.949 cumulative IPC: 3.956 (Simulation time: 00 hr 02 min 37 sec)
Heartbeat CPU 0 instructions: 38500283 cycles: 9731245 heartbeat IPC: 3.955 cumulative IPC: 3.956 (Simulation time: 00 hr 02 min 39 sec)
Heartbeat CPU 0 instructions: 39000288 cycles: 9857645 heartbeat IPC: 3.956 cumulative IPC: 3.956 (Simulation time: 00 hr 02 min 41 sec)
Heartbeat CPU 0 instructions: 39500293 cycles: 9984040 heartbeat IPC: 3.956 cumulative IPC: 3.956 (Simulation time: 00 hr 02 min 43 sec)
Heartbeat CPU 0 instructions: 40000297 cycles: 10109221 heartbeat IPC: 3.994 cumulative IPC: 3.957 (Simulation time: 00 hr 02 min 45 sec)
Heartbeat CPU 0 instructions: 40500300 cycles: 10235505 heartbeat IPC: 3.959 cumulative IPC: 3.957 (Simulation time: 00 hr 02 min 48 sec)
Heartbeat CPU 0 instructions: 41000303 cycles: 10362179 heartbeat IPC: 3.947 cumulative IPC: 3.957 (Simulation time: 00 hr 02 min 50 sec)
Heartbeat CPU 0 instructions: 41500305 cycles: 10488654 heartbeat IPC: 3.953 cumulative IPC: 3.957 (Simulation time: 00 hr 02 min 52 sec)
Heartbeat CPU 0 instructions: 42000308 cycles: 10615329 heartbeat IPC: 3.947 cumulative IPC: 3.957 (Simulation time: 00 hr 02 min 54 sec)
Heartbeat CPU 0 instructions: 42500310 cycles: 10741799 heartbeat IPC: 3.954 cumulative IPC: 3.957 (Simulation time: 00 hr 02 min 56 sec)
Heartbeat CPU 0 instructions: 43000315 cycles: 10868328 heartbeat IPC: 3.952 cumulative IPC: 3.956 (Simulation time: 00 hr 02 min 58 sec)
Heartbeat CPU 0 instructions: 43500319 cycles: 10994842 heartbeat IPC: 3.952 cumulative IPC: 3.956 (Simulation time: 00 hr 03 min 00 sec)
Heartbeat CPU 0 instructions: 44000322 cycles: 11121284 heartbeat IPC: 3.954 cumulative IPC: 3.956 (Simulation time: 00 hr 03 min 02 sec)
Heartbeat CPU 0 instructions: 44500328 cycles: 11247481 heartbeat IPC: 3.962 cumulative IPC: 3.956 (Simulation time: 00 hr 03 min 04 sec)
Heartbeat CPU 0 instructions: 45000335 cycles: 11373812 heartbeat IPC: 3.958 cumulative IPC: 3.956 (Simulation time: 00 hr 03 min 06 sec)
Heartbeat CPU 0 instructions: 45500340 cycles: 11500215 heartbeat IPC: 3.956 cumulative IPC: 3.956 (Simulation time: 00 hr 03 min 08 sec)
Heartbeat CPU 0 instructions: 46000347 cycles: 11623707 heartbeat IPC: 4.049 cumulative IPC: 3.957 (Simulation time: 00 hr 03 min 10 sec)
Heartbeat CPU 0 instructions: 46500351 cycles: 11750208 heartbeat IPC: 3.953 cumulative IPC: 3.957 (Simulation time: 00 hr 03 min 13 sec)
Heartbeat CPU 0 instructions: 47000355 cycles: 11876511 heartbeat IPC: 3.959 cumulative IPC: 3.957 (Simulation time: 00 hr 03 min 15 sec)
Heartbeat CPU 0 instructions: 47500360 cycles: 12002626 heartbeat IPC: 3.965 cumulative IPC: 3.957 (Simulation time: 00 hr 03 min 17 sec)
Heartbeat CPU 0 instructions: 48000365 cycles: 12129237 heartbeat IPC: 3.949 cumulative IPC: 3.957 (Simulation time: 00 hr 03 min 19 sec)
Heartbeat CPU 0 instructions: 48500371 cycles: 12255644 heartbeat IPC: 3.956 cumulative IPC: 3.957 (Simulation time: 00 hr 03 min 21 sec)
Heartbeat CPU 0 instructions: 49000376 cycles: 12382257 heartbeat IPC: 3.949 cumulative IPC: 3.957 (Simulation time: 00 hr 03 min 23 sec)
Heartbeat CPU 0 instructions: 49500381 cycles: 12508663 heartbeat IPC: 3.956 cumulative IPC: 3.957 (Simulation time: 00 hr 03 min 25 sec)
Warmup halting CPU 0 at instruction 50000002 cycle 12635227 for remainder of phase
Warmup finished CPU 0 instructions: 50000002 cycles: 12635227 cumulative IPC: 3.957 (Simulation time: 00 hr 03 min 27 sec)
Warmup complete CPU 0 instructions: 50000002 cycles: 12635227 cumulative IPC: 3.957 (Simulation time: 00 hr 03 min 27 sec)
Heartbeat CPU 0 instructions: 50000386 cycles: 12635279 heartbeat IPC: 3.949 cumulative IPC: 7.385 (Simulation time: 00 hr 03 min 27 sec)
Heartbeat CPU 0 instructions: 50500390 cycles: 12898816 heartbeat IPC: 1.897 cumulative IPC: 1.898 (Simulation time: 00 hr 03 min 31 sec)
Heartbeat CPU 0 instructions: 51000391 cycles: 13160175 heartbeat IPC: 1.913 cumulative IPC: 1.906 (Simulation time: 00 hr 03 min 34 sec)
Heartbeat CPU 0 instructions: 51500392 cycles: 13422692 heartbeat IPC: 1.905 cumulative IPC: 1.905 (Simulation time: 00 hr 03 min 38 sec)
Heartbeat CPU 0 instructions: 52000392 cycles: 13684699 heartbeat IPC: 1.908 cumulative IPC: 1.906 (Simulation time: 00 hr 03 min 41 sec)
Heartbeat CPU 0 instructions: 52500395 cycles: 13947067 heartbeat IPC: 1.906 cumulative IPC: 1.906 (Simulation time: 00 hr 03 min 45 sec)
Heartbeat CPU 0 instructions: 53000399 cycles: 14232502 heartbeat IPC: 1.752 cumulative IPC: 1.878 (Simulation time: 00 hr 03 min 49 sec)
Heartbeat CPU 0 instructions: 53500401 cycles: 14500826 heartbeat IPC: 1.863 cumulative IPC: 1.876 (Simulation time: 00 hr 03 min 53 sec)
Heartbeat CPU 0 instructions: 54000407 cycles: 14767416 heartbeat IPC: 1.876 cumulative IPC: 1.876 (Simulation time: 00 hr 03 min 56 sec)
Heartbeat CPU 0 instructions: 54500408 cycles: 15035049 heartbeat IPC: 1.868 cumulative IPC: 1.875 (Simulation time: 00 hr 04 min 00 sec)
Heartbeat CPU 0 instructions: 55000408 cycles: 15303962 heartbeat IPC: 1.859 cumulative IPC: 1.874 (Simulation time: 00 hr 04 min 04 sec)
Heartbeat CPU 0 instructions: 55500410 cycles: 15576021 heartbeat IPC: 1.838 cumulative IPC: 1.87 (Simulation time: 00 hr 04 min 07 sec)
Heartbeat CPU 0 instructions: 56000413 cycles: 15843167 heartbeat IPC: 1.872 cumulative IPC: 1.87 (Simulation time: 00 hr 04 min 11 sec)
Heartbeat CPU 0 instructions: 56500415 cycles: 16108684 heartbeat IPC: 1.883 cumulative IPC: 1.871 (Simulation time: 00 hr 04 min 15 sec)
Heartbeat CPU 0 instructions: 57000418 cycles: 16378148 heartbeat IPC: 1.856 cumulative IPC: 1.87 (Simulation time: 00 hr 04 min 18 sec)
Heartbeat CPU 0 instructions: 57500419 cycles: 16643709 heartbeat IPC: 1.883 cumulative IPC: 1.871 (Simulation time: 00 hr 04 min 22 sec)
Heartbeat CPU 0 instructions: 58000423 cycles: 16913991 heartbeat IPC: 1.85 cumulative IPC: 1.87 (Simulation time: 00 hr 04 min 25 sec)
Heartbeat CPU 0 instructions: 58500423 cycles: 17179726 heartbeat IPC: 1.882 cumulative IPC: 1.87 (Simulation time: 00 hr 04 min 29 sec)
Heartbeat CPU 0 instructions: 59000424 cycles: 17462929 heartbeat IPC: 1.766 cumulative IPC: 1.864 (Simulation time: 00 hr 04 min 32 sec)
Heartbeat CPU 0 instructions: 59500425 cycles: 17727606 heartbeat IPC: 1.889 cumulative IPC: 1.866 (Simulation time: 00 hr 04 min 36 sec)
Heartbeat CPU 0 instructions: 60000427 cycles: 17998532 heartbeat IPC: 1.846 cumulative IPC: 1.865 (Simulation time: 00 hr 04 min 39 sec)
Heartbeat CPU 0 instructions: 60500430 cycles: 18266564 heartbeat IPC: 1.865 cumulative IPC: 1.865 (Simulation time: 00 hr 04 min 43 sec)
Heartbeat CPU 0 instructions: 61000434 cycles: 18531396 heartbeat IPC: 1.888 cumulative IPC: 1.866 (Simulation time: 00 hr 04 min 46 sec)
Heartbeat CPU 0 instructions: 61500434 cycles: 18798008 heartbeat IPC: 1.875 cumulative IPC: 1.866 (Simulation time: 00 hr 04 min 50 sec)
Heartbeat CPU 0 instructions: 62000434 cycles: 19063950 heartbeat IPC: 1.88 cumulative IPC: 1.867 (Simulation time: 00 hr 04 min 53 sec)
Heartbeat CPU 0 instructions: 62500434 cycles: 19329965 heartbeat IPC: 1.88 cumulative IPC: 1.867 (Simulation time: 00 hr 04 min 57 sec)
Heartbeat CPU 0 instructions: 63000440 cycles: 19601260 heartbeat IPC: 1.843 cumulative IPC: 1.866 (Simulation time: 00 hr 05 min 00 sec)
Heartbeat CPU 0 instructions: 63500440 cycles: 19868832 heartbeat IPC: 1.869 cumulative IPC: 1.866 (Simulation time: 00 hr 05 min 04 sec)
Heartbeat CPU 0 instructions: 64000440 cycles: 20134790 heartbeat IPC: 1.88 cumulative IPC: 1.867 (Simulation time: 00 hr 05 min 08 sec)
Heartbeat CPU 0 instructions: 64500440 cycles: 20400644 heartbeat IPC: 1.881 cumulative IPC: 1.867 (Simulation time: 00 hr 05 min 11 sec)
Heartbeat CPU 0 instructions: 65000440 cycles: 20665184 heartbeat IPC: 1.89 cumulative IPC: 1.868 (Simulation time: 00 hr 05 min 15 sec)
Heartbeat CPU 0 instructions: 65500445 cycles: 20953157 heartbeat IPC: 1.736 cumulative IPC: 1.863 (Simulation time: 00 hr 05 min 18 sec)
Heartbeat CPU 0 instructions: 66000447 cycles: 21221491 heartbeat IPC: 1.863 cumulative IPC: 1.863 (Simulation time: 00 hr 05 min 22 sec)
Heartbeat CPU 0 instructions: 66500453 cycles: 21489736 heartbeat IPC: 1.864 cumulative IPC: 1.864 (Simulation time: 00 hr 05 min 26 sec)
Heartbeat CPU 0 instructions: 67000454 cycles: 21758615 heartbeat IPC: 1.86 cumulative IPC: 1.863 (Simulation time: 00 hr 05 min 30 sec)
Heartbeat CPU 0 instructions: 67500454 cycles: 22026542 heartbeat IPC: 1.866 cumulative IPC: 1.863 (Simulation time: 00 hr 05 min 33 sec)
Heartbeat CPU 0 instructions: 68000456 cycles: 22295741 heartbeat IPC: 1.857 cumulative IPC: 1.863 (Simulation time: 00 hr 05 min 37 sec)
Heartbeat CPU 0 instructions: 68500456 cycles: 22567775 heartbeat IPC: 1.838 cumulative IPC: 1.863 (Simulation time: 00 hr 05 min 41 sec)
Heartbeat CPU 0 instructions: 69000456 cycles: 22834153 heartbeat IPC: 1.877 cumulative IPC: 1.863 (Simulation time: 00 hr 05 min 44 sec)
Heartbeat CPU 0 instructions: 69500460 cycles: 23104212 heartbeat IPC: 1.851 cumulative IPC: 1.863 (Simulation time: 00 hr 05 min 48 sec)
Heartbeat CPU 0 instructions: 70000460 cycles: 23370119 heartbeat IPC: 1.88 cumulative IPC: 1.863 (Simulation time: 00 hr 05 min 51 sec)
Heartbeat CPU 0 instructions: 70500464 cycles: 23640858 heartbeat IPC: 1.847 cumulative IPC: 1.863 (Simulation time: 00 hr 05 min 55 sec)
Heartbeat CPU 0 instructions: 71000464 cycles: 23908842 heartbeat IPC: 1.866 cumulative IPC: 1.863 (Simulation time: 00 hr 05 min 58 sec)
Heartbeat CPU 0 instructions: 71500467 cycles: 24191137 heartbeat IPC: 1.771 cumulative IPC: 1.861 (Simulation time: 00 hr 06 min 02 sec)
Heartbeat CPU 0 instructions: 72000467 cycles: 24459137 heartbeat IPC: 1.866 cumulative IPC: 1.861 (Simulation time: 00 hr 06 min 05 sec)
Heartbeat CPU 0 instructions: 72500471 cycles: 24729128 heartbeat IPC: 1.852 cumulative IPC: 1.86 (Simulation time: 00 hr 06 min 09 sec)
Heartbeat CPU 0 instructions: 73000471 cycles: 24996227 heartbeat IPC: 1.872 cumulative IPC: 1.861 (Simulation time: 00 hr 06 min 13 sec)
Heartbeat CPU 0 instructions: 73500472 cycles: 25263710 heartbeat IPC: 1.869 cumulative IPC: 1.861 (Simulation time: 00 hr 06 min 16 sec)
Heartbeat CPU 0 instructions: 74000475 cycles: 25528921 heartbeat IPC: 1.885 cumulative IPC: 1.861 (Simulation time: 00 hr 06 min 20 sec)
Heartbeat CPU 0 instructions: 74500475 cycles: 25795386 heartbeat IPC: 1.876 cumulative IPC: 1.862 (Simulation time: 00 hr 06 min 23 sec)
Heartbeat CPU 0 instructions: 75000475 cycles: 26061667 heartbeat IPC: 1.878 cumulative IPC: 1.862 (Simulation time: 00 hr 06 min 27 sec)
Heartbeat CPU 0 instructions: 75500475 cycles: 26332784 heartbeat IPC: 1.844 cumulative IPC: 1.862 (Simulation time: 00 hr 06 min 30 sec)
Heartbeat CPU 0 instructions: 76000481 cycles: 26599547 heartbeat IPC: 1.874 cumulative IPC: 1.862 (Simulation time: 00 hr 06 min 34 sec)
Heartbeat CPU 0 instructions: 76500481 cycles: 26863426 heartbeat IPC: 1.895 cumulative IPC: 1.863 (Simulation time: 00 hr 06 min 37 sec)
Heartbeat CPU 0 instructions: 77000481 cycles: 27131220 heartbeat IPC: 1.867 cumulative IPC: 1.863 (Simulation time: 00 hr 06 min 41 sec)
Heartbeat CPU 0 instructions: 77500481 cycles: 27397430 heartbeat IPC: 1.878 cumulative IPC: 1.863 (Simulation time: 00 hr 06 min 45 sec)
Heartbeat CPU 0 instructions: 78000485 cycles: 27664053 heartbeat IPC: 1.875 cumulative IPC: 1.863 (Simulation time: 00 hr 06 min 48 sec)
Heartbeat CPU 0 instructions: 78500486 cycles: 27952648 heartbeat IPC: 1.733 cumulative IPC: 1.861 (Simulation time: 00 hr 06 min 52 sec)
Heartbeat CPU 0 instructions: 79000492 cycles: 28221315 heartbeat IPC: 1.861 cumulative IPC: 1.861 (Simulation time: 00 hr 06 min 56 sec)
Heartbeat CPU 0 instructions: 79500494 cycles: 28489654 heartbeat IPC: 1.863 cumulative IPC: 1.861 (Simulation time: 00 hr 06 min 59 sec)
Heartbeat CPU 0 instructions: 80000500 cycles: 28758747 heartbeat IPC: 1.858 cumulative IPC: 1.861 (Simulation time: 00 hr 07 min 03 sec)
Heartbeat CPU 0 instructions: 80500501 cycles: 29026438 heartbeat IPC: 1.868 cumulative IPC: 1.861 (Simulation time: 00 hr 07 min 07 sec)
Heartbeat CPU 0 instructions: 81000505 cycles: 29299019 heartbeat IPC: 1.834 cumulative IPC: 1.86 (Simulation time: 00 hr 07 min 11 sec)
Heartbeat CPU 0 instructions: 81500505 cycles: 29564962 heartbeat IPC: 1.88 cumulative IPC: 1.861 (Simulation time: 00 hr 07 min 14 sec)
Heartbeat CPU 0 instructions: 82000505 cycles: 29833361 heartbeat IPC: 1.863 cumulative IPC: 1.861 (Simulation time: 00 hr 07 min 18 sec)
Heartbeat CPU 0 instructions: 82500505 cycles: 30101616 heartbeat IPC: 1.864 cumulative IPC: 1.861 (Simulation time: 00 hr 07 min 21 sec)
Heartbeat CPU 0 instructions: 83000505 cycles: 30367355 heartbeat IPC: 1.882 cumulative IPC: 1.861 (Simulation time: 00 hr 07 min 25 sec)
Heartbeat CPU 0 instructions: 83500510 cycles: 30634381 heartbeat IPC: 1.872 cumulative IPC: 1.861 (Simulation time: 00 hr 07 min 28 sec)
Heartbeat CPU 0 instructions: 84000510 cycles: 30900047 heartbeat IPC: 1.882 cumulative IPC: 1.862 (Simulation time: 00 hr 07 min 32 sec)
Heartbeat CPU 0 instructions: 84500510 cycles: 31167545 heartbeat IPC: 1.869 cumulative IPC: 1.862 (Simulation time: 00 hr 07 min 35 sec)
Heartbeat CPU 0 instructions: 85000510 cycles: 31433119 heartbeat IPC: 1.883 cumulative IPC: 1.862 (Simulation time: 00 hr 07 min 39 sec)
Heartbeat CPU 0 instructions: 85500515 cycles: 31699998 heartbeat IPC: 1.874 cumulative IPC: 1.862 (Simulation time: 00 hr 07 min 42 sec)
Heartbeat CPU 0 instructions: 86000515 cycles: 31965958 heartbeat IPC: 1.88 cumulative IPC: 1.862 (Simulation time: 00 hr 07 min 46 sec)
Heartbeat CPU 0 instructions: 86500515 cycles: 32233735 heartbeat IPC: 1.867 cumulative IPC: 1.862 (Simulation time: 00 hr 07 min 49 sec)
Heartbeat CPU 0 instructions: 87000515 cycles: 32500297 heartbeat IPC: 1.876 cumulative IPC: 1.863 (Simulation time: 00 hr 07 min 53 sec)
Heartbeat CPU 0 instructions: 87500520 cycles: 32767046 heartbeat IPC: 1.874 cumulative IPC: 1.863 (Simulation time: 00 hr 07 min 56 sec)
Heartbeat CPU 0 instructions: 88000520 cycles: 33032504 heartbeat IPC: 1.884 cumulative IPC: 1.863 (Simulation time: 00 hr 08 min 00 sec)
Heartbeat CPU 0 instructions: 88500520 cycles: 33298655 heartbeat IPC: 1.879 cumulative IPC: 1.863 (Simulation time: 00 hr 08 min 03 sec)
Heartbeat CPU 0 instructions: 89000520 cycles: 33567465 heartbeat IPC: 1.86 cumulative IPC: 1.863 (Simulation time: 00 hr 08 min 07 sec)
Heartbeat CPU 0 instructions: 89500527 cycles: 33832873 heartbeat IPC: 1.884 cumulative IPC: 1.863 (Simulation time: 00 hr 08 min 10 sec)
Heartbeat CPU 0 instructions: 90000532 cycles: 34098155 heartbeat IPC: 1.885 cumulative IPC: 1.864 (Simulation time: 00 hr 08 min 14 sec)
Heartbeat CPU 0 instructions: 90500532 cycles: 34365754 heartbeat IPC: 1.868 cumulative IPC: 1.864 (Simulation time: 00 hr 08 min 17 sec)
Heartbeat CPU 0 instructions: 91000532 cycles: 34631736 heartbeat IPC: 1.88 cumulative IPC: 1.864 (Simulation time: 00 hr 08 min 21 sec)
Heartbeat CPU 0 instructions: 91500536 cycles: 34898153 heartbeat IPC: 1.877 cumulative IPC: 1.864 (Simulation time: 00 hr 08 min 24 sec)
Heartbeat CPU 0 instructions: 92000537 cycles: 35164593 heartbeat IPC: 1.877 cumulative IPC: 1.864 (Simulation time: 00 hr 08 min 28 sec)
Heartbeat CPU 0 instructions: 92500537 cycles: 35429877 heartbeat IPC: 1.885 cumulative IPC: 1.864 (Simulation time: 00 hr 08 min 31 sec)
Heartbeat CPU 0 instructions: 93000537 cycles: 35697058 heartbeat IPC: 1.871 cumulative IPC: 1.865 (Simulation time: 00 hr 08 min 35 sec)
Heartbeat CPU 0 instructions: 93500537 cycles: 35963389 heartbeat IPC: 1.877 cumulative IPC: 1.865 (Simulation time: 00 hr 08 min 38 sec)
Heartbeat CPU 0 instructions: 94000542 cycles: 36230515 heartbeat IPC: 1.872 cumulative IPC: 1.865 (Simulation time: 00 hr 08 min 42 sec)
Heartbeat CPU 0 instructions: 94500542 cycles: 36498571 heartbeat IPC: 1.865 cumulative IPC: 1.865 (Simulation time: 00 hr 08 min 45 sec)
Heartbeat CPU 0 instructions: 95000542 cycles: 36765034 heartbeat IPC: 1.876 cumulative IPC: 1.865 (Simulation time: 00 hr 08 min 49 sec)
Heartbeat CPU 0 instructions: 95500542 cycles: 37031167 heartbeat IPC: 1.879 cumulative IPC: 1.865 (Simulation time: 00 hr 08 min 52 sec)
Heartbeat CPU 0 instructions: 96000547 cycles: 37297850 heartbeat IPC: 1.875 cumulative IPC: 1.865 (Simulation time: 00 hr 08 min 56 sec)
Heartbeat CPU 0 instructions: 96500547 cycles: 37565649 heartbeat IPC: 1.867 cumulative IPC: 1.865 (Simulation time: 00 hr 08 min 59 sec)
Heartbeat CPU 0 instructions: 97000547 cycles: 37831504 heartbeat IPC: 1.881 cumulative IPC: 1.865 (Simulation time: 00 hr 09 min 03 sec)
Heartbeat CPU 0 instructions: 97500547 cycles: 38098156 heartbeat IPC: 1.875 cumulative IPC: 1.865 (Simulation time: 00 hr 09 min 06 sec)
Heartbeat CPU 0 instructions: 98000549 cycles: 38363008 heartbeat IPC: 1.888 cumulative IPC: 1.866 (Simulation time: 00 hr 09 min 10 sec)
Heartbeat CPU 0 instructions: 98500552 cycles: 38629850 heartbeat IPC: 1.874 cumulative IPC: 1.866 (Simulation time: 00 hr 09 min 13 sec)
Heartbeat CPU 0 instructions: 99000552 cycles: 38896374 heartbeat IPC: 1.876 cumulative IPC: 1.866 (Simulation time: 00 hr 09 min 17 sec)
Heartbeat CPU 0 instructions: 99500552 cycles: 39164031 heartbeat IPC: 1.868 cumulative IPC: 1.866 (Simulation time: 00 hr 09 min 20 sec)
Heartbeat CPU 0 instructions: 100000552 cycles: 39428692 heartbeat IPC: 1.889 cumulative IPC: 1.866 (Simulation time: 00 hr 09 min 24 sec)
Heartbeat CPU 0 instructions: 100500557 cycles: 39694992 heartbeat IPC: 1.878 cumulative IPC: 1.866 (Simulation time: 00 hr 09 min 27 sec)
Heartbeat CPU 0 instructions: 101000557 cycles: 39960501 heartbeat IPC: 1.883 cumulative IPC: 1.866 (Simulation time: 00 hr 09 min 31 sec)
Heartbeat CPU 0 instructions: 101500557 cycles: 40228165 heartbeat IPC: 1.868 cumulative IPC: 1.866 (Simulation time: 00 hr 09 min 34 sec)
Heartbeat CPU 0 instructions: 102000557 cycles: 40495161 heartbeat IPC: 1.873 cumulative IPC: 1.866 (Simulation time: 00 hr 09 min 38 sec)
Heartbeat CPU 0 instructions: 102500562 cycles: 40761108 heartbeat IPC: 1.88 cumulative IPC: 1.867 (Simulation time: 00 hr 09 min 41 sec)
Heartbeat CPU 0 instructions: 103000562 cycles: 41028251 heartbeat IPC: 1.872 cumulative IPC: 1.867 (Simulation time: 00 hr 09 min 45 sec)
Heartbeat CPU 0 instructions: 103500562 cycles: 41294593 heartbeat IPC: 1.877 cumulative IPC: 1.867 (Simulation time: 00 hr 09 min 48 sec)
Heartbeat CPU 0 instructions: 104000562 cycles: 41561805 heartbeat IPC: 1.871 cumulative IPC: 1.867 (Simulation time: 00 hr 09 min 52 sec)
Heartbeat CPU 0 instructions: 104500567 cycles: 41828028 heartbeat IPC: 1.878 cumulative IPC: 1.867 (Simulation time: 00 hr 09 min 55 sec)
Heartbeat CPU 0 instructions: 105000567 cycles: 42094019 heartbeat IPC: 1.88 cumulative IPC: 1.867 (Simulation time: 00 hr 09 min 59 sec)
Heartbeat CPU 0 instructions: 105500567 cycles: 42358661 heartbeat IPC: 1.889 cumulative IPC: 1.867 (Simulation time: 00 hr 10 min 02 sec)
Heartbeat CPU 0 instructions: 106000567 cycles: 42626653 heartbeat IPC: 1.866 cumulative IPC: 1.867 (Simulation time: 00 hr 10 min 06 sec)
Heartbeat CPU 0 instructions: 106500571 cycles: 42894337 heartbeat IPC: 1.868 cumulative IPC: 1.867 (Simulation time: 00 hr 10 min 09 sec)
Heartbeat CPU 0 instructions: 107000572 cycles: 43161713 heartbeat IPC: 1.87 cumulative IPC: 1.867 (Simulation time: 00 hr 10 min 13 sec)
Heartbeat CPU 0 instructions: 107500572 cycles: 43428294 heartbeat IPC: 1.876 cumulative IPC: 1.867 (Simulation time: 00 hr 10 min 17 sec)
Heartbeat CPU 0 instructions: 108000572 cycles: 43694816 heartbeat IPC: 1.876 cumulative IPC: 1.867 (Simulation time: 00 hr 10 min 20 sec)
Heartbeat CPU 0 instructions: 108500572 cycles: 43961648 heartbeat IPC: 1.874 cumulative IPC: 1.867 (Simulation time: 00 hr 10 min 24 sec)
Heartbeat CPU 0 instructions: 109000577 cycles: 44228494 heartbeat IPC: 1.874 cumulative IPC: 1.868 (Simulation time: 00 hr 10 min 27 sec)
Heartbeat CPU 0 instructions: 109500577 cycles: 44494346 heartbeat IPC: 1.881 cumulative IPC: 1.868 (Simulation time: 00 hr 10 min 31 sec)
Heartbeat CPU 0 instructions: 110000577 cycles: 44761557 heartbeat IPC: 1.871 cumulative IPC: 1.868 (Simulation time: 00 hr 10 min 34 sec)
Heartbeat CPU 0 instructions: 110500577 cycles: 45029761 heartbeat IPC: 1.864 cumulative IPC: 1.868 (Simulation time: 00 hr 10 min 38 sec)
Heartbeat CPU 0 instructions: 111000582 cycles: 45294946 heartbeat IPC: 1.885 cumulative IPC: 1.868 (Simulation time: 00 hr 10 min 41 sec)
Heartbeat CPU 0 instructions: 111500582 cycles: 45563339 heartbeat IPC: 1.863 cumulative IPC: 1.868 (Simulation time: 00 hr 10 min 45 sec)
Heartbeat CPU 0 instructions: 112000582 cycles: 45828294 heartbeat IPC: 1.887 cumulative IPC: 1.868 (Simulation time: 00 hr 10 min 48 sec)
Heartbeat CPU 0 instructions: 112500582 cycles: 46095138 heartbeat IPC: 1.874 cumulative IPC: 1.868 (Simulation time: 00 hr 10 min 52 sec)
Heartbeat CPU 0 instructions: 113000583 cycles: 46362306 heartbeat IPC: 1.871 cumulative IPC: 1.868 (Simulation time: 00 hr 10 min 55 sec)
Heartbeat CPU 0 instructions: 113500587 cycles: 46629585 heartbeat IPC: 1.871 cumulative IPC: 1.868 (Simulation time: 00 hr 10 min 59 sec)
Heartbeat CPU 0 instructions: 114000587 cycles: 46894761 heartbeat IPC: 1.886 cumulative IPC: 1.868 (Simulation time: 00 hr 11 min 02 sec)
Heartbeat CPU 0 instructions: 114500587 cycles: 47161215 heartbeat IPC: 1.876 cumulative IPC: 1.868 (Simulation time: 00 hr 11 min 06 sec)
Heartbeat CPU 0 instructions: 115000593 cycles: 47426599 heartbeat IPC: 1.884 cumulative IPC: 1.868 (Simulation time: 00 hr 11 min 09 sec)
Heartbeat CPU 0 instructions: 115500599 cycles: 47695111 heartbeat IPC: 1.862 cumulative IPC: 1.868 (Simulation time: 00 hr 11 min 13 sec)
Heartbeat CPU 0 instructions: 116000599 cycles: 47962437 heartbeat IPC: 1.87 cumulative IPC: 1.868 (Simulation time: 00 hr 11 min 16 sec)
Heartbeat CPU 0 instructions: 116500599 cycles: 48228175 heartbeat IPC: 1.882 cumulative IPC: 1.868 (Simulation time: 00 hr 11 min 20 sec)
Heartbeat CPU 0 instructions: 117000599 cycles: 48496448 heartbeat IPC: 1.864 cumulative IPC: 1.868 (Simulation time: 00 hr 11 min 23 sec)
Heartbeat CPU 0 instructions: 117500603 cycles: 48762819 heartbeat IPC: 1.877 cumulative IPC: 1.868 (Simulation time: 00 hr 11 min 27 sec)
Heartbeat CPU 0 instructions: 118000604 cycles: 49028162 heartbeat IPC: 1.884 cumulative IPC: 1.869 (Simulation time: 00 hr 11 min 30 sec)
Heartbeat CPU 0 instructions: 118500604 cycles: 49293319 heartbeat IPC: 1.886 cumulative IPC: 1.869 (Simulation time: 00 hr 11 min 34 sec)
Heartbeat CPU 0 instructions: 119000604 cycles: 49559565 heartbeat IPC: 1.878 cumulative IPC: 1.869 (Simulation time: 00 hr 11 min 37 sec)
Heartbeat CPU 0 instructions: 119500606 cycles: 49825382 heartbeat IPC: 1.881 cumulative IPC: 1.869 (Simulation time: 00 hr 11 min 41 sec)
Heartbeat CPU 0 instructions: 120000609 cycles: 50093165 heartbeat IPC: 1.867 cumulative IPC: 1.869 (Simulation time: 00 hr 11 min 44 sec)
Heartbeat CPU 0 instructions: 120500609 cycles: 50360415 heartbeat IPC: 1.871 cumulative IPC: 1.869 (Simulation time: 00 hr 11 min 48 sec)
Heartbeat CPU 0 instructions: 121000609 cycles: 50626652 heartbeat IPC: 1.878 cumulative IPC: 1.869 (Simulation time: 00 hr 11 min 51 sec)
Heartbeat CPU 0 instructions: 121500614 cycles: 50891297 heartbeat IPC: 1.889 cumulative IPC: 1.869 (Simulation time: 00 hr 11 min 55 sec)
Heartbeat CPU 0 instructions: 122000614 cycles: 51157924 heartbeat IPC: 1.875 cumulative IPC: 1.869 (Simulation time: 00 hr 11 min 58 sec)
Heartbeat CPU 0 instructions: 122500614 cycles: 51425549 heartbeat IPC: 1.868 cumulative IPC: 1.869 (Simulation time: 00 hr 12 min 02 sec)
Heartbeat CPU 0 instructions: 123000614 cycles: 51691513 heartbeat IPC: 1.88 cumulative IPC: 1.869 (Simulation time: 00 hr 12 min 05 sec)
Heartbeat CPU 0 instructions: 123500615 cycles: 51957713 heartbeat IPC: 1.878 cumulative IPC: 1.869 (Simulation time: 00 hr 12 min 09 sec)
Heartbeat CPU 0 instructions: 124000619 cycles: 52223800 heartbeat IPC: 1.879 cumulative IPC: 1.869 (Simulation time: 00 hr 12 min 12 sec)
Heartbeat CPU 0 instructions: 124500619 cycles: 52490704 heartbeat IPC: 1.873 cumulative IPC: 1.869 (Simulation time: 00 hr 12 min 16 sec)
Heartbeat CPU 0 instructions: 125000621 cycles: 52795974 heartbeat IPC: 1.638 cumulative IPC: 1.868 (Simulation time: 00 hr 12 min 20 sec)
Heartbeat CPU 0 instructions: 125500621 cycles: 53066186 heartbeat IPC: 1.85 cumulative IPC: 1.867 (Simulation time: 00 hr 12 min 23 sec)
Heartbeat CPU 0 instructions: 126000622 cycles: 53338282 heartbeat IPC: 1.838 cumulative IPC: 1.867 (Simulation time: 00 hr 12 min 27 sec)
Heartbeat CPU 0 instructions: 126500626 cycles: 53606456 heartbeat IPC: 1.864 cumulative IPC: 1.867 (Simulation time: 00 hr 12 min 30 sec)
Heartbeat CPU 0 instructions: 127000630 cycles: 53880809 heartbeat IPC: 1.822 cumulative IPC: 1.867 (Simulation time: 00 hr 12 min 34 sec)
Heartbeat CPU 0 instructions: 127500630 cycles: 54150476 heartbeat IPC: 1.854 cumulative IPC: 1.867 (Simulation time: 00 hr 12 min 37 sec)
Heartbeat CPU 0 instructions: 128000635 cycles: 54437617 heartbeat IPC: 1.741 cumulative IPC: 1.866 (Simulation time: 00 hr 12 min 41 sec)
Heartbeat CPU 0 instructions: 128500635 cycles: 54707338 heartbeat IPC: 1.854 cumulative IPC: 1.866 (Simulation time: 00 hr 12 min 45 sec)
Heartbeat CPU 0 instructions: 129000638 cycles: 54980420 heartbeat IPC: 1.831 cumulative IPC: 1.866 (Simulation time: 00 hr 12 min 48 sec)
Heartbeat CPU 0 instructions: 129500638 cycles: 55250167 heartbeat IPC: 1.854 cumulative IPC: 1.866 (Simulation time: 00 hr 12 min 52 sec)
Heartbeat CPU 0 instructions: 130000638 cycles: 55520612 heartbeat IPC: 1.849 cumulative IPC: 1.865 (Simulation time: 00 hr 12 min 55 sec)
Heartbeat CPU 0 instructions: 130500642 cycles: 55790148 heartbeat IPC: 1.855 cumulative IPC: 1.865 (Simulation time: 00 hr 12 min 59 sec)
Heartbeat CPU 0 instructions: 131000642 cycles: 56060348 heartbeat IPC: 1.85 cumulative IPC: 1.865 (Simulation time: 00 hr 13 min 02 sec)
Heartbeat CPU 0 instructions: 131500642 cycles: 56329139 heartbeat IPC: 1.86 cumulative IPC: 1.865 (Simulation time: 00 hr 13 min 06 sec)
Heartbeat CPU 0 instructions: 132000644 cycles: 56604863 heartbeat IPC: 1.813 cumulative IPC: 1.865 (Simulation time: 00 hr 13 min 10 sec)
Heartbeat CPU 0 instructions: 132500648 cycles: 56876195 heartbeat IPC: 1.843 cumulative IPC: 1.865 (Simulation time: 00 hr 13 min 13 sec)
Heartbeat CPU 0 instructions: 133000648 cycles: 57144814 heartbeat IPC: 1.861 cumulative IPC: 1.865 (Simulation time: 00 hr 13 min 17 sec)
Heartbeat CPU 0 instructions: 133500648 cycles: 57414675 heartbeat IPC: 1.853 cumulative IPC: 1.865 (Simulation time: 00 hr 13 min 20 sec)
Heartbeat CPU 0 instructions: 134000648 cycles: 57683038 heartbeat IPC: 1.863 cumulative IPC: 1.865 (Simulation time: 00 hr 13 min 24 sec)
Heartbeat CPU 0 instructions: 134500652 cycles: 57971707 heartbeat IPC: 1.732 cumulative IPC: 1.864 (Simulation time: 00 hr 13 min 28 sec)
Heartbeat CPU 0 instructions: 135000654 cycles: 58243375 heartbeat IPC: 1.84 cumulative IPC: 1.864 (Simulation time: 00 hr 13 min 32 sec)
Heartbeat CPU 0 instructions: 135500660 cycles: 58515178 heartbeat IPC: 1.84 cumulative IPC: 1.864 (Simulation time: 00 hr 13 min 35 sec)
Heartbeat CPU 0 instructions: 136000662 cycles: 58787639 heartbeat IPC: 1.835 cumulative IPC: 1.863 (Simulation time: 00 hr 13 min 39 sec)
Heartbeat CPU 0 instructions: 136500665 cycles: 59060846 heartbeat IPC: 1.83 cumulative IPC: 1.863 (Simulation time: 00 hr 13 min 43 sec)
Heartbeat CPU 0 instructions: 137000670 cycles: 59334298 heartbeat IPC: 1.828 cumulative IPC: 1.863 (Simulation time: 00 hr 13 min 47 sec)
Heartbeat CPU 0 instructions: 137500674 cycles: 59607990 heartbeat IPC: 1.827 cumulative IPC: 1.863 (Simulation time: 00 hr 13 min 50 sec)
Heartbeat CPU 0 instructions: 138000675 cycles: 59880184 heartbeat IPC: 1.837 cumulative IPC: 1.863 (Simulation time: 00 hr 13 min 54 sec)
Heartbeat CPU 0 instructions: 138500678 cycles: 60152878 heartbeat IPC: 1.834 cumulative IPC: 1.862 (Simulation time: 00 hr 13 min 58 sec)
Heartbeat CPU 0 instructions: 139000682 cycles: 60419886 heartbeat IPC: 1.873 cumulative IPC: 1.863 (Simulation time: 00 hr 14 min 01 sec)
Heartbeat CPU 0 instructions: 139500686 cycles: 60694418 heartbeat IPC: 1.821 cumulative IPC: 1.862 (Simulation time: 00 hr 14 min 05 sec)
Heartbeat CPU 0 instructions: 140000686 cycles: 60962461 heartbeat IPC: 1.865 cumulative IPC: 1.862 (Simulation time: 00 hr 14 min 08 sec)
Heartbeat CPU 0 instructions: 140500687 cycles: 61249236 heartbeat IPC: 1.744 cumulative IPC: 1.862 (Simulation time: 00 hr 14 min 12 sec)
Heartbeat CPU 0 instructions: 141000689 cycles: 61520082 heartbeat IPC: 1.846 cumulative IPC: 1.862 (Simulation time: 00 hr 14 min 15 sec)
Heartbeat CPU 0 instructions: 141500692 cycles: 61788664 heartbeat IPC: 1.862 cumulative IPC: 1.862 (Simulation time: 00 hr 14 min 19 sec)
Heartbeat CPU 0 instructions: 142000694 cycles: 62063317 heartbeat IPC: 1.82 cumulative IPC: 1.861 (Simulation time: 00 hr 14 min 23 sec)
Heartbeat CPU 0 instructions: 142500694 cycles: 62335483 heartbeat IPC: 1.837 cumulative IPC: 1.861 (Simulation time: 00 hr 14 min 26 sec)
Heartbeat CPU 0 instructions: 143000700 cycles: 62603537 heartbeat IPC: 1.865 cumulative IPC: 1.861 (Simulation time: 00 hr 14 min 30 sec)
Heartbeat CPU 0 instructions: 143500705 cycles: 62873970 heartbeat IPC: 1.849 cumulative IPC: 1.861 (Simulation time: 00 hr 14 min 33 sec)
Heartbeat CPU 0 instructions: 144000705 cycles: 63141754 heartbeat IPC: 1.867 cumulative IPC: 1.861 (Simulation time: 00 hr 14 min 37 sec)
Heartbeat CPU 0 instructions: 144500706 cycles: 63417627 heartbeat IPC: 1.812 cumulative IPC: 1.861 (Simulation time: 00 hr 14 min 40 sec)
Heartbeat CPU 0 instructions: 145000707 cycles: 63687879 heartbeat IPC: 1.85 cumulative IPC: 1.861 (Simulation time: 00 hr 14 min 44 sec)
Heartbeat CPU 0 instructions: 145500711 cycles: 63958122 heartbeat IPC: 1.85 cumulative IPC: 1.861 (Simulation time: 00 hr 14 min 48 sec)
Heartbeat CPU 0 instructions: 146000711 cycles: 64226684 heartbeat IPC: 1.862 cumulative IPC: 1.861 (Simulation time: 00 hr 14 min 51 sec)
Heartbeat CPU 0 instructions: 146500711 cycles: 64497259 heartbeat IPC: 1.848 cumulative IPC: 1.861 (Simulation time: 00 hr 14 min 55 sec)
Heartbeat CPU 0 instructions: 147000711 cycles: 64766396 heartbeat IPC: 1.858 cumulative IPC: 1.861 (Simulation time: 00 hr 14 min 58 sec)
Heartbeat CPU 0 instructions: 147500717 cycles: 65058070 heartbeat IPC: 1.714 cumulative IPC: 1.86 (Simulation time: 00 hr 15 min 02 sec)
Heartbeat CPU 0 instructions: 148000718 cycles: 65329528 heartbeat IPC: 1.842 cumulative IPC: 1.86 (Simulation time: 00 hr 15 min 06 sec)
Heartbeat CPU 0 instructions: 148500724 cycles: 65601837 heartbeat IPC: 1.836 cumulative IPC: 1.86 (Simulation time: 00 hr 15 min 10 sec)
Heartbeat CPU 0 instructions: 149000726 cycles: 65875261 heartbeat IPC: 1.829 cumulative IPC: 1.86 (Simulation time: 00 hr 15 min 14 sec)
Heartbeat CPU 0 instructions: 149500732 cycles: 66147436 heartbeat IPC: 1.837 cumulative IPC: 1.859 (Simulation time: 00 hr 15 min 17 sec)
Heartbeat CPU 0 instructions: 150000734 cycles: 66423645 heartbeat IPC: 1.81 cumulative IPC: 1.859 (Simulation time: 00 hr 15 min 21 sec)
Heartbeat CPU 0 instructions: 150500734 cycles: 66694546 heartbeat IPC: 1.846 cumulative IPC: 1.859 (Simulation time: 00 hr 15 min 25 sec)
Heartbeat CPU 0 instructions: 151000734 cycles: 66967497 heartbeat IPC: 1.832 cumulative IPC: 1.859 (Simulation time: 00 hr 15 min 28 sec)
Heartbeat CPU 0 instructions: 151500740 cycles: 67235207 heartbeat IPC: 1.868 cumulative IPC: 1.859 (Simulation time: 00 hr 15 min 32 sec)
Heartbeat CPU 0 instructions: 152000745 cycles: 67504594 heartbeat IPC: 1.856 cumulative IPC: 1.859 (Simulation time: 00 hr 15 min 35 sec)
Heartbeat CPU 0 instructions: 152500745 cycles: 67777493 heartbeat IPC: 1.832 cumulative IPC: 1.859 (Simulation time: 00 hr 15 min 39 sec)
Heartbeat CPU 0 instructions: 153000749 cycles: 68045793 heartbeat IPC: 1.864 cumulative IPC: 1.859 (Simulation time: 00 hr 15 min 43 sec)
Heartbeat CPU 0 instructions: 153500749 cycles: 68335369 heartbeat IPC: 1.727 cumulative IPC: 1.858 (Simulation time: 00 hr 15 min 46 sec)
Heartbeat CPU 0 instructions: 154000750 cycles: 68603241 heartbeat IPC: 1.867 cumulative IPC: 1.858 (Simulation time: 00 hr 15 min 50 sec)
Heartbeat CPU 0 instructions: 154500750 cycles: 68878116 heartbeat IPC: 1.819 cumulative IPC: 1.858 (Simulation time: 00 hr 15 min 53 sec)
Heartbeat CPU 0 instructions: 155000750 cycles: 69147257 heartbeat IPC: 1.858 cumulative IPC: 1.858 (Simulation time: 00 hr 15 min 57 sec)
Heartbeat CPU 0 instructions: 155500750 cycles: 69417570 heartbeat IPC: 1.85 cumulative IPC: 1.858 (Simulation time: 00 hr 16 min 00 sec)
Heartbeat CPU 0 instructions: 156000753 cycles: 69685341 heartbeat IPC: 1.867 cumulative IPC: 1.858 (Simulation time: 00 hr 16 min 04 sec)
Heartbeat CPU 0 instructions: 156500754 cycles: 69955665 heartbeat IPC: 1.85 cumulative IPC: 1.858 (Simulation time: 00 hr 16 min 08 sec)
Heartbeat CPU 0 instructions: 157000756 cycles: 70226580 heartbeat IPC: 1.846 cumulative IPC: 1.858 (Simulation time: 00 hr 16 min 11 sec)
Heartbeat CPU 0 instructions: 157500756 cycles: 70499486 heartbeat IPC: 1.832 cumulative IPC: 1.858 (Simulation time: 00 hr 16 min 15 sec)
Heartbeat CPU 0 instructions: 158000760 cycles: 70770697 heartbeat IPC: 1.844 cumulative IPC: 1.858 (Simulation time: 00 hr 16 min 18 sec)
Heartbeat CPU 0 instructions: 158500760 cycles: 71039272 heartbeat IPC: 1.862 cumulative IPC: 1.858 (Simulation time: 00 hr 16 min 22 sec)
Heartbeat CPU 0 instructions: 159000760 cycles: 71307800 heartbeat IPC: 1.862 cumulative IPC: 1.858 (Simulation time: 00 hr 16 min 26 sec)
Heartbeat CPU 0 instructions: 159500760 cycles: 71576936 heartbeat IPC: 1.858 cumulative IPC: 1.858 (Simulation time: 00 hr 16 min 29 sec)
Heartbeat CPU 0 instructions: 160000760 cycles: 71866781 heartbeat IPC: 1.725 cumulative IPC: 1.857 (Simulation time: 00 hr 16 min 33 sec)
Heartbeat CPU 0 instructions: 160500762 cycles: 72138710 heartbeat IPC: 1.839 cumulative IPC: 1.857 (Simulation time: 00 hr 16 min 37 sec)
Heartbeat CPU 0 instructions: 161000768 cycles: 72410116 heartbeat IPC: 1.842 cumulative IPC: 1.857 (Simulation time: 00 hr 16 min 41 sec)
Heartbeat CPU 0 instructions: 161500769 cycles: 72682452 heartbeat IPC: 1.836 cumulative IPC: 1.857 (Simulation time: 00 hr 16 min 44 sec)
Heartbeat CPU 0 instructions: 162000769 cycles: 72955156 heartbeat IPC: 1.833 cumulative IPC: 1.857 (Simulation time: 00 hr 16 min 48 sec)
Heartbeat CPU 0 instructions: 162500771 cycles: 73230585 heartbeat IPC: 1.815 cumulative IPC: 1.857 (Simulation time: 00 hr 16 min 52 sec)
Heartbeat CPU 0 instructions: 163000775 cycles: 73506575 heartbeat IPC: 1.812 cumulative IPC: 1.856 (Simulation time: 00 hr 16 min 56 sec)
Heartbeat CPU 0 instructions: 163500775 cycles: 73775056 heartbeat IPC: 1.862 cumulative IPC: 1.856 (Simulation time: 00 hr 16 min 59 sec)
Heartbeat CPU 0 instructions: 164000775 cycles: 74047902 heartbeat IPC: 1.833 cumulative IPC: 1.856 (Simulation time: 00 hr 17 min 03 sec)
Heartbeat CPU 0 instructions: 164500780 cycles: 74317358 heartbeat IPC: 1.856 cumulative IPC: 1.856 (Simulation time: 00 hr 17 min 06 sec)
Heartbeat CPU 0 instructions: 165000784 cycles: 74591259 heartbeat IPC: 1.825 cumulative IPC: 1.856 (Simulation time: 00 hr 17 min 10 sec)
Heartbeat CPU 0 instructions: 165500784 cycles: 74858427 heartbeat IPC: 1.871 cumulative IPC: 1.856 (Simulation time: 00 hr 17 min 13 sec)
Heartbeat CPU 0 instructions: 166000789 cycles: 75146312 heartbeat IPC: 1.737 cumulative IPC: 1.856 (Simulation time: 00 hr 17 min 17 sec)
Heartbeat CPU 0 instructions: 166500789 cycles: 75417105 heartbeat IPC: 1.846 cumulative IPC: 1.856 (Simulation time: 00 hr 17 min 21 sec)
Heartbeat CPU 0 instructions: 167000792 cycles: 75691056 heartbeat IPC: 1.825 cumulative IPC: 1.856 (Simulation time: 00 hr 17 min 24 sec)
Heartbeat CPU 0 instructions: 167500792 cycles: 75959732 heartbeat IPC: 1.861 cumulative IPC: 1.856 (Simulation time: 00 hr 17 min 28 sec)
Heartbeat CPU 0 instructions: 168000792 cycles: 76230142 heartbeat IPC: 1.849 cumulative IPC: 1.856 (Simulation time: 00 hr 17 min 31 sec)
Heartbeat CPU 0 instructions: 168500796 cycles: 76500764 heartbeat IPC: 1.848 cumulative IPC: 1.855 (Simulation time: 00 hr 17 min 35 sec)
Heartbeat CPU 0 instructions: 169000796 cycles: 76768734 heartbeat IPC: 1.866 cumulative IPC: 1.856 (Simulation time: 00 hr 17 min 39 sec)
Heartbeat CPU 0 instructions: 169500796 cycles: 77037822 heartbeat IPC: 1.858 cumulative IPC: 1.856 (Simulation time: 00 hr 17 min 42 sec)
Heartbeat CPU 0 instructions: 170000798 cycles: 77311201 heartbeat IPC: 1.829 cumulative IPC: 1.855 (Simulation time: 00 hr 17 min 46 sec)
Heartbeat CPU 0 instructions: 170500805 cycles: 77582494 heartbeat IPC: 1.843 cumulative IPC: 1.855 (Simulation time: 00 hr 17 min 49 sec)
Heartbeat CPU 0 instructions: 171000809 cycles: 77851768 heartbeat IPC: 1.857 cumulative IPC: 1.855 (Simulation time: 00 hr 17 min 53 sec)
Heartbeat CPU 0 instructions: 171500809 cycles: 78120658 heartbeat IPC: 1.859 cumulative IPC: 1.855 (Simulation time: 00 hr 17 min 57 sec)
Heartbeat CPU 0 instructions: 172000809 cycles: 78388761 heartbeat IPC: 1.865 cumulative IPC: 1.855 (Simulation time: 00 hr 18 min 00 sec)
Heartbeat CPU 0 instructions: 172500814 cycles: 78673746 heartbeat IPC: 1.754 cumulative IPC: 1.855 (Simulation time: 00 hr 18 min 04 sec)
Heartbeat CPU 0 instructions: 173000817 cycles: 78950193 heartbeat IPC: 1.809 cumulative IPC: 1.855 (Simulation time: 00 hr 18 min 08 sec)
Heartbeat CPU 0 instructions: 173500819 cycles: 79221875 heartbeat IPC: 1.84 cumulative IPC: 1.855 (Simulation time: 00 hr 18 min 12 sec)
Heartbeat CPU 0 instructions: 174000825 cycles: 79495090 heartbeat IPC: 1.83 cumulative IPC: 1.855 (Simulation time: 00 hr 18 min 15 sec)
Heartbeat CPU 0 instructions: 174500827 cycles: 79767831 heartbeat IPC: 1.833 cumulative IPC: 1.855 (Simulation time: 00 hr 18 min 19 sec)
Heartbeat CPU 0 instructions: 175000830 cycles: 80040665 heartbeat IPC: 1.833 cumulative IPC: 1.854 (Simulation time: 00 hr 18 min 23 sec)
Heartbeat CPU 0 instructions: 175500835 cycles: 80316407 heartbeat IPC: 1.813 cumulative IPC: 1.854 (Simulation time: 00 hr 18 min 27 sec)
Heartbeat CPU 0 instructions: 176000836 cycles: 80588031 heartbeat IPC: 1.841 cumulative IPC: 1.854 (Simulation time: 00 hr 18 min 30 sec)
Heartbeat CPU 0 instructions: 176500839 cycles: 80859452 heartbeat IPC: 1.842 cumulative IPC: 1.854 (Simulation time: 00 hr 18 min 34 sec)
Heartbeat CPU 0 instructions: 177000843 cycles: 81128503 heartbeat IPC: 1.858 cumulative IPC: 1.854 (Simulation time: 00 hr 18 min 37 sec)
Heartbeat CPU 0 instructions: 177500847 cycles: 81402498 heartbeat IPC: 1.825 cumulative IPC: 1.854 (Simulation time: 00 hr 18 min 41 sec)
Heartbeat CPU 0 instructions: 178000847 cycles: 81670254 heartbeat IPC: 1.867 cumulative IPC: 1.854 (Simulation time: 00 hr 18 min 45 sec)
Heartbeat CPU 0 instructions: 178500848 cycles: 81952968 heartbeat IPC: 1.769 cumulative IPC: 1.854 (Simulation time: 00 hr 18 min 48 sec)
Heartbeat CPU 0 instructions: 179000850 cycles: 82225640 heartbeat IPC: 1.834 cumulative IPC: 1.854 (Simulation time: 00 hr 18 min 52 sec)
Heartbeat CPU 0 instructions: 179500850 cycles: 82494696 heartbeat IPC: 1.858 cumulative IPC: 1.854 (Simulation time: 00 hr 18 min 55 sec)
Heartbeat CPU 0 instructions: 180000855 cycles: 82766797 heartbeat IPC: 1.838 cumulative IPC: 1.854 (Simulation time: 00 hr 18 min 59 sec)
Heartbeat CPU 0 instructions: 180500855 cycles: 83038224 heartbeat IPC: 1.842 cumulative IPC: 1.854 (Simulation time: 00 hr 19 min 02 sec)
Heartbeat CPU 0 instructions: 181000857 cycles: 83306699 heartbeat IPC: 1.862 cumulative IPC: 1.854 (Simulation time: 00 hr 19 min 06 sec)
Heartbeat CPU 0 instructions: 181500859 cycles: 83577243 heartbeat IPC: 1.848 cumulative IPC: 1.854 (Simulation time: 00 hr 19 min 09 sec)
Heartbeat CPU 0 instructions: 182000859 cycles: 83844977 heartbeat IPC: 1.868 cumulative IPC: 1.854 (Simulation time: 00 hr 19 min 13 sec)
Heartbeat CPU 0 instructions: 182500861 cycles: 84119032 heartbeat IPC: 1.824 cumulative IPC: 1.854 (Simulation time: 00 hr 19 min 17 sec)
Heartbeat CPU 0 instructions: 183000861 cycles: 84386903 heartbeat IPC: 1.867 cumulative IPC: 1.854 (Simulation time: 00 hr 19 min 20 sec)
Heartbeat CPU 0 instructions: 183500865 cycles: 84657385 heartbeat IPC: 1.849 cumulative IPC: 1.854 (Simulation time: 00 hr 19 min 24 sec)
Heartbeat CPU 0 instructions: 184000865 cycles: 84927189 heartbeat IPC: 1.853 cumulative IPC: 1.854 (Simulation time: 00 hr 19 min 27 sec)
Heartbeat CPU 0 instructions: 184500865 cycles: 85198032 heartbeat IPC: 1.846 cumulative IPC: 1.854 (Simulation time: 00 hr 19 min 31 sec)
Heartbeat CPU 0 instructions: 185000865 cycles: 85468006 heartbeat IPC: 1.852 cumulative IPC: 1.854 (Simulation time: 00 hr 19 min 35 sec)
Heartbeat CPU 0 instructions: 185500868 cycles: 85758801 heartbeat IPC: 1.719 cumulative IPC: 1.853 (Simulation time: 00 hr 19 min 39 sec)
Heartbeat CPU 0 instructions: 186000870 cycles: 86030327 heartbeat IPC: 1.841 cumulative IPC: 1.853 (Simulation time: 00 hr 19 min 42 sec)
Heartbeat CPU 0 instructions: 186500876 cycles: 86302623 heartbeat IPC: 1.836 cumulative IPC: 1.853 (Simulation time: 00 hr 19 min 46 sec)
Heartbeat CPU 0 instructions: 187000883 cycles: 86577173 heartbeat IPC: 1.821 cumulative IPC: 1.853 (Simulation time: 00 hr 19 min 50 sec)
Heartbeat CPU 0 instructions: 187500884 cycles: 86848919 heartbeat IPC: 1.84 cumulative IPC: 1.853 (Simulation time: 00 hr 19 min 54 sec)
Heartbeat CPU 0 instructions: 188000889 cycles: 87125049 heartbeat IPC: 1.811 cumulative IPC: 1.853 (Simulation time: 00 hr 19 min 57 sec)
Heartbeat CPU 0 instructions: 188500889 cycles: 87395320 heartbeat IPC: 1.85 cumulative IPC: 1.853 (Simulation time: 00 hr 20 min 01 sec)
Heartbeat CPU 0 instructions: 189000890 cycles: 87663916 heartbeat IPC: 1.862 cumulative IPC: 1.853 (Simulation time: 00 hr 20 min 04 sec)
Heartbeat CPU 0 instructions: 189500895 cycles: 87936572 heartbeat IPC: 1.834 cumulative IPC: 1.853 (Simulation time: 00 hr 20 min 08 sec)
Heartbeat CPU 0 instructions: 190000899 cycles: 88204580 heartbeat IPC: 1.866 cumulative IPC: 1.853 (Simulation time: 00 hr 20 min 12 sec)
Heartbeat CPU 0 instructions: 190500903 cycles: 88478250 heartbeat IPC: 1.827 cumulative IPC: 1.853 (Simulation time: 00 hr 20 min 15 sec)
Heartbeat CPU 0 instructions: 191000903 cycles: 88747938 heartbeat IPC: 1.854 cumulative IPC: 1.853 (Simulation time: 00 hr 20 min 19 sec)
Heartbeat CPU 0 instructions: 191500903 cycles: 89034928 heartbeat IPC: 1.742 cumulative IPC: 1.852 (Simulation time: 00 hr 20 min 22 sec)
Heartbeat CPU 0 instructions: 192000903 cycles: 89304752 heartbeat IPC: 1.853 cumulative IPC: 1.852 (Simulation time: 00 hr 20 min 26 sec)
Heartbeat CPU 0 instructions: 192500904 cycles: 89577863 heartbeat IPC: 1.831 cumulative IPC: 1.852 (Simulation time: 00 hr 20 min 29 sec)
Heartbeat CPU 0 instructions: 193000904 cycles: 89849981 heartbeat IPC: 1.837 cumulative IPC: 1.852 (Simulation time: 00 hr 20 min 33 sec)
Heartbeat CPU 0 instructions: 193500904 cycles: 90119250 heartbeat IPC: 1.857 cumulative IPC: 1.852 (Simulation time: 00 hr 20 min 36 sec)
Heartbeat CPU 0 instructions: 194000908 cycles: 90388548 heartbeat IPC: 1.857 cumulative IPC: 1.852 (Simulation time: 00 hr 20 min 40 sec)
Heartbeat CPU 0 instructions: 194500908 cycles: 90657734 heartbeat IPC: 1.857 cumulative IPC: 1.852 (Simulation time: 00 hr 20 min 43 sec)
Heartbeat CPU 0 instructions: 195000908 cycles: 90926588 heartbeat IPC: 1.86 cumulative IPC: 1.852 (Simulation time: 00 hr 20 min 47 sec)
Heartbeat CPU 0 instructions: 195500910 cycles: 91200543 heartbeat IPC: 1.825 cumulative IPC: 1.852 (Simulation time: 00 hr 20 min 51 sec)
Heartbeat CPU 0 instructions: 196000914 cycles: 91461887 heartbeat IPC: 1.913 cumulative IPC: 1.852 (Simulation time: 00 hr 20 min 54 sec)
Heartbeat CPU 0 instructions: 196500914 cycles: 91709907 heartbeat IPC: 2.016 cumulative IPC: 1.853 (Simulation time: 00 hr 20 min 57 sec)
Heartbeat CPU 0 instructions: 197000914 cycles: 91967358 heartbeat IPC: 1.942 cumulative IPC: 1.853 (Simulation time: 00 hr 21 min 01 sec)
Heartbeat CPU 0 instructions: 197500914 cycles: 92207313 heartbeat IPC: 2.084 cumulative IPC: 1.854 (Simulation time: 00 hr 21 min 04 sec)
Heartbeat CPU 0 instructions: 198000919 cycles: 92452128 heartbeat IPC: 2.042 cumulative IPC: 1.854 (Simulation time: 00 hr 21 min 08 sec)
Heartbeat CPU 0 instructions: 198500925 cycles: 92669278 heartbeat IPC: 2.303 cumulative IPC: 1.855 (Simulation time: 00 hr 21 min 11 sec)
Heartbeat CPU 0 instructions: 199000927 cycles: 92894189 heartbeat IPC: 2.223 cumulative IPC: 1.857 (Simulation time: 00 hr 21 min 14 sec)
Heartbeat CPU 0 instructions: 199500933 cycles: 93117178 heartbeat IPC: 2.242 cumulative IPC: 1.858 (Simulation time: 00 hr 21 min 17 sec)
Heartbeat CPU 0 instructions: 200000934 cycles: 93337798 heartbeat IPC: 2.266 cumulative IPC: 1.859 (Simulation time: 00 hr 21 min 21 sec)
Heartbeat CPU 0 instructions: 200500934 cycles: 93559592 heartbeat IPC: 2.254 cumulative IPC: 1.86 (Simulation time: 00 hr 21 min 24 sec)
Heartbeat CPU 0 instructions: 201000936 cycles: 93790375 heartbeat IPC: 2.167 cumulative IPC: 1.861 (Simulation time: 00 hr 21 min 27 sec)
Heartbeat CPU 0 instructions: 201500936 cycles: 94017555 heartbeat IPC: 2.201 cumulative IPC: 1.862 (Simulation time: 00 hr 21 min 30 sec)
Heartbeat CPU 0 instructions: 202000937 cycles: 94249927 heartbeat IPC: 2.152 cumulative IPC: 1.862 (Simulation time: 00 hr 21 min 34 sec)
Heartbeat CPU 0 instructions: 202500941 cycles: 94478810 heartbeat IPC: 2.185 cumulative IPC: 1.863 (Simulation time: 00 hr 21 min 37 sec)
Heartbeat CPU 0 instructions: 203000945 cycles: 94716481 heartbeat IPC: 2.104 cumulative IPC: 1.864 (Simulation time: 00 hr 21 min 40 sec)
Heartbeat CPU 0 instructions: 203500945 cycles: 94949597 heartbeat IPC: 2.145 cumulative IPC: 1.865 (Simulation time: 00 hr 21 min 43 sec)
Heartbeat CPU 0 instructions: 204000950 cycles: 95201638 heartbeat IPC: 1.984 cumulative IPC: 1.865 (Simulation time: 00 hr 21 min 47 sec)
Heartbeat CPU 0 instructions: 204500955 cycles: 95433275 heartbeat IPC: 2.159 cumulative IPC: 1.866 (Simulation time: 00 hr 21 min 50 sec)
Heartbeat CPU 0 instructions: 205000960 cycles: 95667125 heartbeat IPC: 2.138 cumulative IPC: 1.867 (Simulation time: 00 hr 21 min 53 sec)
Heartbeat CPU 0 instructions: 205500960 cycles: 95894458 heartbeat IPC: 2.199 cumulative IPC: 1.868 (Simulation time: 00 hr 21 min 56 sec)
Heartbeat CPU 0 instructions: 206000960 cycles: 96128261 heartbeat IPC: 2.139 cumulative IPC: 1.868 (Simulation time: 00 hr 21 min 59 sec)
Heartbeat CPU 0 instructions: 206500964 cycles: 96355733 heartbeat IPC: 2.198 cumulative IPC: 1.869 (Simulation time: 00 hr 22 min 02 sec)
Heartbeat CPU 0 instructions: 207000964 cycles: 96581975 heartbeat IPC: 2.21 cumulative IPC: 1.87 (Simulation time: 00 hr 22 min 06 sec)
Heartbeat CPU 0 instructions: 207500964 cycles: 96810440 heartbeat IPC: 2.189 cumulative IPC: 1.871 (Simulation time: 00 hr 22 min 09 sec)
Heartbeat CPU 0 instructions: 208000966 cycles: 97042521 heartbeat IPC: 2.154 cumulative IPC: 1.872 (Simulation time: 00 hr 22 min 12 sec)
Heartbeat CPU 0 instructions: 208500966 cycles: 97268271 heartbeat IPC: 2.215 cumulative IPC: 1.873 (Simulation time: 00 hr 22 min 15 sec)
Heartbeat CPU 0 instructions: 209000970 cycles: 97494453 heartbeat IPC: 2.211 cumulative IPC: 1.874 (Simulation time: 00 hr 22 min 18 sec)
Heartbeat CPU 0 instructions: 209500970 cycles: 97725359 heartbeat IPC: 2.165 cumulative IPC: 1.874 (Simulation time: 00 hr 22 min 21 sec)
Heartbeat CPU 0 instructions: 210000970 cycles: 97955010 heartbeat IPC: 2.177 cumulative IPC: 1.875 (Simulation time: 00 hr 22 min 25 sec)
Heartbeat CPU 0 instructions: 210500970 cycles: 98182669 heartbeat IPC: 2.196 cumulative IPC: 1.876 (Simulation time: 00 hr 22 min 28 sec)
Heartbeat CPU 0 instructions: 211000976 cycles: 98421059 heartbeat IPC: 2.097 cumulative IPC: 1.877 (Simulation time: 00 hr 22 min 31 sec)
Heartbeat CPU 0 instructions: 211500982 cycles: 98637943 heartbeat IPC: 2.305 cumulative IPC: 1.878 (Simulation time: 00 hr 22 min 34 sec)
Heartbeat CPU 0 instructions: 212000984 cycles: 98852834 heartbeat IPC: 2.327 cumulative IPC: 1.879 (Simulation time: 00 hr 22 min 38 sec)
Heartbeat CPU 0 instructions: 212500990 cycles: 99069715 heartbeat IPC: 2.305 cumulative IPC: 1.88 (Simulation time: 00 hr 22 min 41 sec)
Heartbeat CPU 0 instructions: 213000992 cycles: 99287883 heartbeat IPC: 2.292 cumulative IPC: 1.881 (Simulation time: 00 hr 22 min 44 sec)
Heartbeat CPU 0 instructions: 213500998 cycles: 99508872 heartbeat IPC: 2.263 cumulative IPC: 1.882 (Simulation time: 00 hr 22 min 47 sec)
Heartbeat CPU 0 instructions: 214001004 cycles: 99726553 heartbeat IPC: 2.297 cumulative IPC: 1.883 (Simulation time: 00 hr 22 min 50 sec)
Heartbeat CPU 0 instructions: 214501007 cycles: 99949326 heartbeat IPC: 2.244 cumulative IPC: 1.884 (Simulation time: 00 hr 22 min 53 sec)
Heartbeat CPU 0 instructions: 215001014 cycles: 100168399 heartbeat IPC: 2.282 cumulative IPC: 1.885 (Simulation time: 00 hr 22 min 56 sec)
Heartbeat CPU 0 instructions: 215501015 cycles: 100401709 heartbeat IPC: 2.143 cumulative IPC: 1.886 (Simulation time: 00 hr 22 min 59 sec)
Heartbeat CPU 0 instructions: 216001015 cycles: 100636106 heartbeat IPC: 2.133 cumulative IPC: 1.886 (Simulation time: 00 hr 23 min 02 sec)
Heartbeat CPU 0 instructions: 216501017 cycles: 100883002 heartbeat IPC: 2.025 cumulative IPC: 1.887 (Simulation time: 00 hr 23 min 06 sec)
Heartbeat CPU 0 instructions: 217001017 cycles: 101114401 heartbeat IPC: 2.161 cumulative IPC: 1.887 (Simulation time: 00 hr 23 min 09 sec)
Heartbeat CPU 0 instructions: 217501017 cycles: 101328712 heartbeat IPC: 2.333 cumulative IPC: 1.889 (Simulation time: 00 hr 23 min 12 sec)
Heartbeat CPU 0 instructions: 218001023 cycles: 101555545 heartbeat IPC: 2.204 cumulative IPC: 1.889 (Simulation time: 00 hr 23 min 15 sec)
Heartbeat CPU 0 instructions: 218501023 cycles: 101783772 heartbeat IPC: 2.191 cumulative IPC: 1.89 (Simulation time: 00 hr 23 min 18 sec)
Heartbeat CPU 0 instructions: 219001030 cycles: 102011393 heartbeat IPC: 2.197 cumulative IPC: 1.891 (Simulation time: 00 hr 23 min 21 sec)
Heartbeat CPU 0 instructions: 219501034 cycles: 102242822 heartbeat IPC: 2.161 cumulative IPC: 1.892 (Simulation time: 00 hr 23 min 24 sec)
Heartbeat CPU 0 instructions: 220001034 cycles: 102472540 heartbeat IPC: 2.177 cumulative IPC: 1.892 (Simulation time: 00 hr 23 min 27 sec)
Heartbeat CPU 0 instructions: 220501036 cycles: 102705590 heartbeat IPC: 2.145 cumulative IPC: 1.893 (Simulation time: 00 hr 23 min 30 sec)
Heartbeat CPU 0 instructions: 221001036 cycles: 102932057 heartbeat IPC: 2.208 cumulative IPC: 1.894 (Simulation time: 00 hr 23 min 33 sec)
Heartbeat CPU 0 instructions: 221501037 cycles: 103163052 heartbeat IPC: 2.165 cumulative IPC: 1.894 (Simulation time: 00 hr 23 min 36 sec)
Heartbeat CPU 0 instructions: 222001040 cycles: 103385063 heartbeat IPC: 2.252 cumulative IPC: 1.895 (Simulation time: 00 hr 23 min 39 sec)
Heartbeat CPU 0 instructions: 222501040 cycles: 103616606 heartbeat IPC: 2.159 cumulative IPC: 1.896 (Simulation time: 00 hr 23 min 43 sec)
Heartbeat CPU 0 instructions: 223001040 cycles: 103847581 heartbeat IPC: 2.165 cumulative IPC: 1.897 (Simulation time: 00 hr 23 min 46 sec)
Heartbeat CPU 0 instructions: 223501041 cycles: 104091823 heartbeat IPC: 2.047 cumulative IPC: 1.897 (Simulation time: 00 hr 23 min 49 sec)
Heartbeat CPU 0 instructions: 224001047 cycles: 104311917 heartbeat IPC: 2.272 cumulative IPC: 1.898 (Simulation time: 00 hr 23 min 52 sec)
Heartbeat CPU 0 instructions: 224501049 cycles: 104532200 heartbeat IPC: 2.27 cumulative IPC: 1.899 (Simulation time: 00 hr 23 min 55 sec)
Heartbeat CPU 0 instructions: 225001055 cycles: 104754490 heartbeat IPC: 2.249 cumulative IPC: 1.9 (Simulation time: 00 hr 23 min 58 sec)
Heartbeat CPU 0 instructions: 225501057 cycles: 104970613 heartbeat IPC: 2.314 cumulative IPC: 1.901 (Simulation time: 00 hr 24 min 01 sec)
Heartbeat CPU 0 instructions: 226001057 cycles: 105193830 heartbeat IPC: 2.24 cumulative IPC: 1.902 (Simulation time: 00 hr 24 min 04 sec)
Heartbeat CPU 0 instructions: 226501057 cycles: 105421025 heartbeat IPC: 2.201 cumulative IPC: 1.902 (Simulation time: 00 hr 24 min 08 sec)
Heartbeat CPU 0 instructions: 227001058 cycles: 105650738 heartbeat IPC: 2.177 cumulative IPC: 1.903 (Simulation time: 00 hr 24 min 11 sec)
Heartbeat CPU 0 instructions: 227501063 cycles: 105886653 heartbeat IPC: 2.119 cumulative IPC: 1.903 (Simulation time: 00 hr 24 min 14 sec)
Heartbeat CPU 0 instructions: 228001067 cycles: 106116471 heartbeat IPC: 2.176 cumulative IPC: 1.904 (Simulation time: 00 hr 24 min 17 sec)
Heartbeat CPU 0 instructions: 228501071 cycles: 106351050 heartbeat IPC: 2.131 cumulative IPC: 1.905 (Simulation time: 00 hr 24 min 20 sec)
Heartbeat CPU 0 instructions: 229001071 cycles: 106583906 heartbeat IPC: 2.147 cumulative IPC: 1.905 (Simulation time: 00 hr 24 min 23 sec)
Heartbeat CPU 0 instructions: 229501071 cycles: 106824707 heartbeat IPC: 2.076 cumulative IPC: 1.906 (Simulation time: 00 hr 24 min 26 sec)
Heartbeat CPU 0 instructions: 230001072 cycles: 107040432 heartbeat IPC: 2.318 cumulative IPC: 1.907 (Simulation time: 00 hr 24 min 29 sec)
Heartbeat CPU 0 instructions: 230501072 cycles: 107260105 heartbeat IPC: 2.276 cumulative IPC: 1.908 (Simulation time: 00 hr 24 min 32 sec)
Heartbeat CPU 0 instructions: 231001072 cycles: 107477962 heartbeat IPC: 2.295 cumulative IPC: 1.908 (Simulation time: 00 hr 24 min 35 sec)
Heartbeat CPU 0 instructions: 231501072 cycles: 107697539 heartbeat IPC: 2.277 cumulative IPC: 1.909 (Simulation time: 00 hr 24 min 38 sec)
Heartbeat CPU 0 instructions: 232001076 cycles: 107919586 heartbeat IPC: 2.252 cumulative IPC: 1.91 (Simulation time: 00 hr 24 min 41 sec)
Heartbeat CPU 0 instructions: 232501076 cycles: 108147148 heartbeat IPC: 2.197 cumulative IPC: 1.911 (Simulation time: 00 hr 24 min 44 sec)
Heartbeat CPU 0 instructions: 233001076 cycles: 108375383 heartbeat IPC: 2.191 cumulative IPC: 1.911 (Simulation time: 00 hr 24 min 47 sec)
Heartbeat CPU 0 instructions: 233501077 cycles: 108607152 heartbeat IPC: 2.157 cumulative IPC: 1.912 (Simulation time: 00 hr 24 min 50 sec)
Heartbeat CPU 0 instructions: 234001079 cycles: 108838848 heartbeat IPC: 2.158 cumulative IPC: 1.913 (Simulation time: 00 hr 24 min 53 sec)
Heartbeat CPU 0 instructions: 234501082 cycles: 109065735 heartbeat IPC: 2.204 cumulative IPC: 1.913 (Simulation time: 00 hr 24 min 56 sec)
Heartbeat CPU 0 instructions: 235001082 cycles: 109295361 heartbeat IPC: 2.177 cumulative IPC: 1.914 (Simulation time: 00 hr 24 min 59 sec)
Heartbeat CPU 0 instructions: 235501082 cycles: 109523709 heartbeat IPC: 2.19 cumulative IPC: 1.915 (Simulation time: 00 hr 25 min 02 sec)
Heartbeat CPU 0 instructions: 236001082 cycles: 109772243 heartbeat IPC: 2.012 cumulative IPC: 1.915 (Simulation time: 00 hr 25 min 06 sec)
Heartbeat CPU 0 instructions: 236501084 cycles: 109987275 heartbeat IPC: 2.325 cumulative IPC: 1.916 (Simulation time: 00 hr 25 min 09 sec)
Heartbeat CPU 0 instructions: 237001090 cycles: 110202442 heartbeat IPC: 2.324 cumulative IPC: 1.917 (Simulation time: 00 hr 25 min 12 sec)
Heartbeat CPU 0 instructions: 237501092 cycles: 110414749 heartbeat IPC: 2.355 cumulative IPC: 1.918 (Simulation time: 00 hr 25 min 15 sec)
Heartbeat CPU 0 instructions: 238001098 cycles: 110633009 heartbeat IPC: 2.291 cumulative IPC: 1.918 (Simulation time: 00 hr 25 min 18 sec)
Heartbeat CPU 0 instructions: 238501099 cycles: 110850661 heartbeat IPC: 2.297 cumulative IPC: 1.919 (Simulation time: 00 hr 25 min 21 sec)
Heartbeat CPU 0 instructions: 239001100 cycles: 111072023 heartbeat IPC: 2.259 cumulative IPC: 1.92 (Simulation time: 00 hr 25 min 24 sec)
Heartbeat CPU 0 instructions: 239501100 cycles: 111287410 heartbeat IPC: 2.321 cumulative IPC: 1.921 (Simulation time: 00 hr 25 min 27 sec)
Heartbeat CPU 0 instructions: 240001105 cycles: 111510002 heartbeat IPC: 2.246 cumulative IPC: 1.922 (Simulation time: 00 hr 25 min 30 sec)
Heartbeat CPU 0 instructions: 240501109 cycles: 111729059 heartbeat IPC: 2.283 cumulative IPC: 1.922 (Simulation time: 00 hr 25 min 32 sec)
Heartbeat CPU 0 instructions: 241001113 cycles: 111961977 heartbeat IPC: 2.147 cumulative IPC: 1.923 (Simulation time: 00 hr 25 min 35 sec)
Heartbeat CPU 0 instructions: 241501113 cycles: 112187205 heartbeat IPC: 2.22 cumulative IPC: 1.924 (Simulation time: 00 hr 25 min 39 sec)
Heartbeat CPU 0 instructions: 242001118 cycles: 112438294 heartbeat IPC: 1.991 cumulative IPC: 1.924 (Simulation time: 00 hr 25 min 42 sec)
Heartbeat CPU 0 instructions: 242501118 cycles: 112659529 heartbeat IPC: 2.26 cumulative IPC: 1.925 (Simulation time: 00 hr 25 min 45 sec)
Heartbeat CPU 0 instructions: 243001121 cycles: 112878282 heartbeat IPC: 2.286 cumulative IPC: 1.925 (Simulation time: 00 hr 25 min 47 sec)
Heartbeat CPU 0 instructions: 243501121 cycles: 113097179 heartbeat IPC: 2.284 cumulative IPC: 1.926 (Simulation time: 00 hr 25 min 50 sec)
Heartbeat CPU 0 instructions: 244001121 cycles: 113316961 heartbeat IPC: 2.275 cumulative IPC: 1.927 (Simulation time: 00 hr 25 min 53 sec)
Heartbeat CPU 0 instructions: 244501125 cycles: 113549121 heartbeat IPC: 2.154 cumulative IPC: 1.927 (Simulation time: 00 hr 25 min 56 sec)
Heartbeat CPU 0 instructions: 245001125 cycles: 113789881 heartbeat IPC: 2.077 cumulative IPC: 1.928 (Simulation time: 00 hr 25 min 59 sec)
Heartbeat CPU 0 instructions: 245501125 cycles: 114033060 heartbeat IPC: 2.056 cumulative IPC: 1.928 (Simulation time: 00 hr 26 min 02 sec)
Heartbeat CPU 0 instructions: 246001127 cycles: 114269599 heartbeat IPC: 2.114 cumulative IPC: 1.928 (Simulation time: 00 hr 26 min 06 sec)
Heartbeat CPU 0 instructions: 246501127 cycles: 114502710 heartbeat IPC: 2.145 cumulative IPC: 1.929 (Simulation time: 00 hr 26 min 09 sec)
Heartbeat CPU 0 instructions: 247001131 cycles: 114730731 heartbeat IPC: 2.193 cumulative IPC: 1.93 (Simulation time: 00 hr 26 min 12 sec)
Heartbeat CPU 0 instructions: 247501131 cycles: 114957531 heartbeat IPC: 2.205 cumulative IPC: 1.93 (Simulation time: 00 hr 26 min 15 sec)
Heartbeat CPU 0 instructions: 248001131 cycles: 115188797 heartbeat IPC: 2.162 cumulative IPC: 1.931 (Simulation time: 00 hr 26 min 18 sec)
Heartbeat CPU 0 instructions: 248501131 cycles: 115418173 heartbeat IPC: 2.18 cumulative IPC: 1.931 (Simulation time: 00 hr 26 min 21 sec)
Heartbeat CPU 0 instructions: 249001135 cycles: 115661166 heartbeat IPC: 2.058 cumulative IPC: 1.932 (Simulation time: 00 hr 26 min 24 sec)
Heartbeat CPU 0 instructions: 249501141 cycles: 115879541 heartbeat IPC: 2.29 cumulative IPC: 1.932 (Simulation time: 00 hr 26 min 27 sec)
Simulation finished CPU 0 instructions: 200000000 cycles: 103461529 cumulative IPC: 1.933 (Simulation time: 00 hr 26 min 30 sec)
Simulation complete CPU 0 instructions: 200000000 cycles: 103461529 cumulative IPC: 1.933 (Simulation time: 00 hr 26 min 30 sec)

ChampSim completed all CPUs

=== Simulation ===
CPU 0 runs /local-ssd/ben/dpc4-traces/ai-ml/llama2.c-stories110M.2.champsimtrace.gz

Region of Interest Statistics

CPU 0 cumulative IPC: 1.933 instructions: 200000000 cycles: 103461529
CPU 0 Branch Prediction Accuracy: 99.54% MPKI: 0.6592 Average ROB Occupancy at Mispredict: 485.4
Branch type MPKI
BRANCH_DIRECT_JUMP: 0.000105
BRANCH_INDIRECT: 5e-06
BRANCH_CONDITIONAL: 0.6588
BRANCH_DIRECT_CALL: 0.00012
BRANCH_INDIRECT_CALL: 2.5e-05
BRANCH_RETURN: 0.00014

cpu0->cpu0_STLB TOTAL        ACCESS:     110640 HIT:        619 MISS:     110021 MSHR_MERGE:          0
cpu0->cpu0_STLB LOAD         ACCESS:     110640 HIT:        619 MISS:     110021 MSHR_MERGE:          0
cpu0->cpu0_STLB RFO          ACCESS:          0 HIT:          0 MISS:          0 MSHR_MERGE:          0
cpu0->cpu0_STLB PREFETCH     ACCESS:          0 HIT:          0 MISS:          0 MSHR_MERGE:          0
cpu0->cpu0_STLB WRITE        ACCESS:          0 HIT:          0 MISS:          0 MSHR_MERGE:          0
cpu0->cpu0_STLB TRANSLATION  ACCESS:          0 HIT:          0 MISS:          0 MSHR_MERGE:          0
cpu0->cpu0_STLB PREFETCH REQUESTED:          0 ISSUED:          0 USEFUL:          0 USELESS:          0
cpu0->cpu0_STLB AVERAGE MISS LATENCY: 190.5 cycles
cpu0->cpu0_L2C TOTAL        ACCESS:   33197989 HIT:    1424624 MISS:   31773365 MSHR_MERGE:   24744670
cpu0->cpu0_L2C LOAD         ACCESS:    1692631 HIT:     107976 MISS:    1584655 MSHR_MERGE:     806559
cpu0->cpu0_L2C RFO          ACCESS:      16200 HIT:       8281 MISS:       7919 MSHR_MERGE:          0
cpu0->cpu0_L2C PREFETCH     ACCESS:   31453650 HIT:    1289555 MISS:   30164095 MSHR_MERGE:   23938111
cpu0->cpu0_L2C WRITE        ACCESS:      20949 HIT:      18699 MISS:       2250 MSHR_MERGE:          0
cpu0->cpu0_L2C TRANSLATION  ACCESS:      14559 HIT:        113 MISS:      14446 MSHR_MERGE:          0
cpu0->cpu0_L2C PREFETCH REQUESTED:   36005604 ISSUED:   26141399 USEFUL:     980969 USELESS:    3467584
cpu0->cpu0_L2C AVERAGE MISS LATENCY: 151.5 cycles
cpu0->cpu0_L1I TOTAL        ACCESS:   25574640 HIT:   25574480 MISS:        160 MSHR_MERGE:         14
cpu0->cpu0_L1I LOAD         ACCESS:   25574640 HIT:   25574480 MISS:        160 MSHR_MERGE:         14
cpu0->cpu0_L1I RFO          ACCESS:          0 HIT:          0 MISS:          0 MSHR_MERGE:          0
cpu0->cpu0_L1I PREFETCH     ACCESS:          0 HIT:          0 MISS:          0 MSHR_MERGE:          0
cpu0->cpu0_L1I WRITE        ACCESS:          0 HIT:          0 MISS:          0 MSHR_MERGE:          0
cpu0->cpu0_L1I TRANSLATION  ACCESS:          0 HIT:          0 MISS:          0 MSHR_MERGE:          0
cpu0->cpu0_L1I PREFETCH REQUESTED:          0 ISSUED:          0 USEFUL:          0 USELESS:          0
cpu0->cpu0_L1I AVERAGE MISS LATENCY: 157.7 cycles
cpu0->cpu0_L1D TOTAL        ACCESS:   43148494 HIT:   21581089 MISS:   21567405 MSHR_MERGE:   14531867
cpu0->cpu0_L1D LOAD         ACCESS:   36618975 HIT:   21136233 MISS:   15482742 MSHR_MERGE:   13790256
cpu0->cpu0_L1D RFO          ACCESS:          0 HIT:          0 MISS:          0 MSHR_MERGE:          0
cpu0->cpu0_L1D PREFETCH     ACCESS:    6101293 HIT:      47999 MISS:    6053294 MSHR_MERGE:     741039
cpu0->cpu0_L1D WRITE        ACCESS:     207882 HIT:     191074 MISS:      16808 MSHR_MERGE:        570
cpu0->cpu0_L1D TRANSLATION  ACCESS:     220344 HIT:     205783 MISS:      14561 MSHR_MERGE:          2
cpu0->cpu0_L1D PREFETCH REQUESTED:    6976900 ISSUED:    6101286 USEFUL:    5308512 USELESS:       3732
cpu0->cpu0_L1D AVERAGE MISS LATENCY: 71.15 cycles
cpu0->cpu0_ITLB TOTAL        ACCESS:   22568043 HIT:   22568018 MISS:         25 MSHR_MERGE:          4
cpu0->cpu0_ITLB LOAD         ACCESS:   22568043 HIT:   22568018 MISS:         25 MSHR_MERGE:          4
cpu0->cpu0_ITLB RFO          ACCESS:          0 HIT:          0 MISS:          0 MSHR_MERGE:          0
cpu0->cpu0_ITLB PREFETCH     ACCESS:          0 HIT:          0 MISS:          0 MSHR_MERGE:          0
cpu0->cpu0_ITLB WRITE        ACCESS:          0 HIT:          0 MISS:          0 MSHR_MERGE:          0
cpu0->cpu0_ITLB TRANSLATION  ACCESS:          0 HIT:          0 MISS:          0 MSHR_MERGE:          0
cpu0->cpu0_ITLB PREFETCH REQUESTED:          0 ISSUED:          0 USEFUL:          0 USELESS:          0
cpu0->cpu0_ITLB AVERAGE MISS LATENCY: 432.7 cycles
cpu0->cpu0_DTLB TOTAL        ACCESS:   38316653 HIT:   36791487 MISS:    1525166 MSHR_MERGE:    1414547
cpu0->cpu0_DTLB LOAD         ACCESS:   38316653 HIT:   36791487 MISS:    1525166 MSHR_MERGE:    1414547
cpu0->cpu0_DTLB RFO          ACCESS:          0 HIT:          0 MISS:          0 MSHR_MERGE:          0
cpu0->cpu0_DTLB PREFETCH     ACCESS:          0 HIT:          0 MISS:          0 MSHR_MERGE:          0
cpu0->cpu0_DTLB WRITE        ACCESS:          0 HIT:          0 MISS:          0 MSHR_MERGE:          0
cpu0->cpu0_DTLB TRANSLATION  ACCESS:          0 HIT:          0 MISS:          0 MSHR_MERGE:          0
cpu0->cpu0_DTLB PREFETCH REQUESTED:          0 ISSUED:          0 USEFUL:          0 USELESS:          0
cpu0->cpu0_DTLB AVERAGE MISS LATENCY: 195.4 cycles
cpu0->LLC TOTAL        ACCESS:   13791574 HIT:     180039 MISS:   13611535 MSHR_MERGE:    6593301
cpu0->LLC LOAD         ACCESS:     778096 HIT:      14507 MISS:     763589 MSHR_MERGE:      23214
cpu0->LLC RFO          ACCESS:       7919 HIT:       3573 MISS:       4346 MSHR_MERGE:          0
cpu0->LLC PREFETCH     ACCESS:   12978213 HIT:     152892 MISS:   12825321 MSHR_MERGE:    6570087
cpu0->LLC WRITE        ACCESS:      12900 HIT:       9014 MISS:       3886 MSHR_MERGE:          0
cpu0->LLC TRANSLATION  ACCESS:      14446 HIT:         53 MISS:      14393 MSHR_MERGE:          0
cpu0->LLC PREFETCH REQUESTED:    6756998 ISSUED:    6752230 USEFUL:     157480 USELESS:    4659869
cpu0->LLC AVERAGE MISS LATENCY: 238.5 cycles

DRAM Statistics

Channel 0 RQ ROW_BUFFER_HIT:    3270550
  ROW_BUFFER_MISS:    3743711
  AVG DBUS CONGESTED CYCLE: 4.455
Channel 0 WQ ROW_BUFFER_HIT:        449
  ROW_BUFFER_MISS:       4129
  FULL:          0
Channel 0 REFRESHES ISSUED:       8622
