[VMEM] WARNING: physical memory size is smaller than virtual memory size.

*** ChampSim Multicore Out-of-Order Simulator ***
Warmup Instructions: 50000000
Simulation Instructions: 200000000
Number of CPUs: 1
Page size: 4096
Core 0: /local-ssd/ben/dpc4-traces/ai-ml/llama2.c-stories15M.1.champsimtrace.gz
 L1D Berti prefetcher
Off-chip DRAM Size: 64 GiB Channels: 1 Width: 64-bit Data Rate: 4807 MT/s
Heartbeat CPU 0 instructions: 500005 cycles: 127761 heartbeat IPC: 3.914 cumulative IPC: 3.914 (Simulation time: 00 hr 00 min 02 sec)
Heartbeat CPU 0 instructions: 1000008 cycles: 253528 heartbeat IPC: 3.976 cumulative IPC: 3.944 (Simulation time: 00 hr 00 min 04 sec)
Heartbeat CPU 0 instructions: 1500010 cycles: 379485 heartbeat IPC: 3.97 cumulative IPC: 3.953 (Simulation time: 00 hr 00 min 06 sec)
Heartbeat CPU 0 instructions: 2000010 cycles: 505021 heartbeat IPC: 3.983 cumulative IPC: 3.96 (Simulation time: 00 hr 00 min 07 sec)
Heartbeat CPU 0 instructions: 2500011 cycles: 630978 heartbeat IPC: 3.97 cumulative IPC: 3.962 (Simulation time: 00 hr 00 min 09 sec)
Heartbeat CPU 0 instructions: 3000014 cycles: 756740 heartbeat IPC: 3.976 cumulative IPC: 3.964 (Simulation time: 00 hr 00 min 11 sec)
Heartbeat CPU 0 instructions: 3500017 cycles: 882707 heartbeat IPC: 3.969 cumulative IPC: 3.965 (Simulation time: 00 hr 00 min 13 sec)
Heartbeat CPU 0 instructions: 4000019 cycles: 1008476 heartbeat IPC: 3.976 cumulative IPC: 3.966 (Simulation time: 00 hr 00 min 15 sec)
Heartbeat CPU 0 instructions: 4500022 cycles: 1134454 heartbeat IPC: 3.969 cumulative IPC: 3.967 (Simulation time: 00 hr 00 min 17 sec)
Heartbeat CPU 0 instructions: 5000025 cycles: 1259994 heartbeat IPC: 3.983 cumulative IPC: 3.968 (Simulation time: 00 hr 00 min 19 sec)
Heartbeat CPU 0 instructions: 5500031 cycles: 1385955 heartbeat IPC: 3.97 cumulative IPC: 3.968 (Simulation time: 00 hr 00 min 21 sec)
Heartbeat CPU 0 instructions: 6000033 cycles: 1511731 heartbeat IPC: 3.975 cumulative IPC: 3.969 (Simulation time: 00 hr 00 min 23 sec)
Heartbeat CPU 0 instructions: 6500036 cycles: 1637690 heartbeat IPC: 3.97 cumulative IPC: 3.969 (Simulation time: 00 hr 00 min 25 sec)
Heartbeat CPU 0 instructions: 7000039 cycles: 1763667 heartbeat IPC: 3.969 cumulative IPC: 3.969 (Simulation time: 00 hr 00 min 27 sec)
Heartbeat CPU 0 instructions: 7500041 cycles: 1889428 heartbeat IPC: 3.976 cumulative IPC: 3.969 (Simulation time: 00 hr 00 min 29 sec)
Heartbeat CPU 0 instructions: 8000048 cycles: 2015179 heartbeat IPC: 3.976 cumulative IPC: 3.97 (Simulation time: 00 hr 00 min 31 sec)
Heartbeat CPU 0 instructions: 8500051 cycles: 2140916 heartbeat IPC: 3.977 cumulative IPC: 3.97 (Simulation time: 00 hr 00 min 33 sec)
Heartbeat CPU 0 instructions: 9000053 cycles: 2266877 heartbeat IPC: 3.969 cumulative IPC: 3.97 (Simulation time: 00 hr 00 min 35 sec)
Heartbeat CPU 0 instructions: 9500056 cycles: 2392644 heartbeat IPC: 3.976 cumulative IPC: 3.971 (Simulation time: 00 hr 00 min 37 sec)
Heartbeat CPU 0 instructions: 10000058 cycles: 2518611 heartbeat IPC: 3.969 cumulative IPC: 3.97 (Simulation time: 00 hr 00 min 39 sec)
Heartbeat CPU 0 instructions: 10500061 cycles: 2644375 heartbeat IPC: 3.976 cumulative IPC: 3.971 (Simulation time: 00 hr 00 min 41 sec)
Heartbeat CPU 0 instructions: 11000064 cycles: 2770341 heartbeat IPC: 3.969 cumulative IPC: 3.971 (Simulation time: 00 hr 00 min 43 sec)
Heartbeat CPU 0 instructions: 11500071 cycles: 2895873 heartbeat IPC: 3.983 cumulative IPC: 3.971 (Simulation time: 00 hr 00 min 45 sec)
Heartbeat CPU 0 instructions: 12000073 cycles: 3021826 heartbeat IPC: 3.97 cumulative IPC: 3.971 (Simulation time: 00 hr 00 min 47 sec)
Heartbeat CPU 0 instructions: 12500075 cycles: 3147593 heartbeat IPC: 3.976 cumulative IPC: 3.971 (Simulation time: 00 hr 00 min 49 sec)
Heartbeat CPU 0 instructions: 13000078 cycles: 3273561 heartbeat IPC: 3.969 cumulative IPC: 3.971 (Simulation time: 00 hr 00 min 51 sec)
Heartbeat CPU 0 instructions: 13500081 cycles: 3399328 heartbeat IPC: 3.976 cumulative IPC: 3.971 (Simulation time: 00 hr 00 min 53 sec)
Heartbeat CPU 0 instructions: 14000083 cycles: 3525300 heartbeat IPC: 3.969 cumulative IPC: 3.971 (Simulation time: 00 hr 00 min 55 sec)
Heartbeat CPU 0 instructions: 14500086 cycles: 3650839 heartbeat IPC: 3.983 cumulative IPC: 3.972 (Simulation time: 00 hr 00 min 57 sec)
Heartbeat CPU 0 instructions: 15000092 cycles: 3776807 heartbeat IPC: 3.969 cumulative IPC: 3.972 (Simulation time: 00 hr 00 min 59 sec)
Heartbeat CPU 0 instructions: 15500095 cycles: 3902571 heartbeat IPC: 3.976 cumulative IPC: 3.972 (Simulation time: 00 hr 01 min 01 sec)
Heartbeat CPU 0 instructions: 16000097 cycles: 4028535 heartbeat IPC: 3.969 cumulative IPC: 3.972 (Simulation time: 00 hr 01 min 03 sec)
Heartbeat CPU 0 instructions: 16500101 cycles: 4157970 heartbeat IPC: 3.863 cumulative IPC: 3.968 (Simulation time: 00 hr 01 min 05 sec)
Heartbeat CPU 0 instructions: 17000105 cycles: 4284778 heartbeat IPC: 3.943 cumulative IPC: 3.968 (Simulation time: 00 hr 01 min 07 sec)
Heartbeat CPU 0 instructions: 17500106 cycles: 4410752 heartbeat IPC: 3.969 cumulative IPC: 3.968 (Simulation time: 00 hr 01 min 09 sec)
Heartbeat CPU 0 instructions: 18000112 cycles: 4536618 heartbeat IPC: 3.973 cumulative IPC: 3.968 (Simulation time: 00 hr 01 min 11 sec)
Heartbeat CPU 0 instructions: 18500112 cycles: 4662344 heartbeat IPC: 3.977 cumulative IPC: 3.968 (Simulation time: 00 hr 01 min 13 sec)
Heartbeat CPU 0 instructions: 19000117 cycles: 4787020 heartbeat IPC: 4.01 cumulative IPC: 3.969 (Simulation time: 00 hr 01 min 15 sec)
Heartbeat CPU 0 instructions: 19500118 cycles: 4912475 heartbeat IPC: 3.986 cumulative IPC: 3.97 (Simulation time: 00 hr 01 min 17 sec)
Heartbeat CPU 0 instructions: 20000118 cycles: 5037885 heartbeat IPC: 3.987 cumulative IPC: 3.97 (Simulation time: 00 hr 01 min 19 sec)
Heartbeat CPU 0 instructions: 20500122 cycles: 5163109 heartbeat IPC: 3.993 cumulative IPC: 3.97 (Simulation time: 00 hr 01 min 21 sec)
Heartbeat CPU 0 instructions: 21000125 cycles: 5287894 heartbeat IPC: 4.007 cumulative IPC: 3.971 (Simulation time: 00 hr 01 min 23 sec)
Heartbeat CPU 0 instructions: 21500127 cycles: 5413006 heartbeat IPC: 3.996 cumulative IPC: 3.972 (Simulation time: 00 hr 01 min 25 sec)
Heartbeat CPU 0 instructions: 22000131 cycles: 5539060 heartbeat IPC: 3.967 cumulative IPC: 3.972 (Simulation time: 00 hr 01 min 27 sec)
Heartbeat CPU 0 instructions: 22500133 cycles: 5663435 heartbeat IPC: 4.02 cumulative IPC: 3.973 (Simulation time: 00 hr 01 min 29 sec)
Heartbeat CPU 0 instructions: 23000140 cycles: 5789187 heartbeat IPC: 3.976 cumulative IPC: 3.973 (Simulation time: 00 hr 01 min 31 sec)
Heartbeat CPU 0 instructions: 23500143 cycles: 5914478 heartbeat IPC: 3.991 cumulative IPC: 3.973 (Simulation time: 00 hr 01 min 33 sec)
Heartbeat CPU 0 instructions: 24000144 cycles: 6040248 heartbeat IPC: 3.976 cumulative IPC: 3.973 (Simulation time: 00 hr 01 min 35 sec)
Heartbeat CPU 0 instructions: 24500148 cycles: 6164590 heartbeat IPC: 4.021 cumulative IPC: 3.974 (Simulation time: 00 hr 01 min 37 sec)
Heartbeat CPU 0 instructions: 25000148 cycles: 6290268 heartbeat IPC: 3.978 cumulative IPC: 3.974 (Simulation time: 00 hr 01 min 39 sec)
Heartbeat CPU 0 instructions: 25500150 cycles: 6415678 heartbeat IPC: 3.987 cumulative IPC: 3.975 (Simulation time: 00 hr 01 min 42 sec)
Heartbeat CPU 0 instructions: 26000154 cycles: 6540915 heartbeat IPC: 3.992 cumulative IPC: 3.975 (Simulation time: 00 hr 01 min 44 sec)
Heartbeat CPU 0 instructions: 26500154 cycles: 6665122 heartbeat IPC: 4.026 cumulative IPC: 3.976 (Simulation time: 00 hr 01 min 46 sec)
Heartbeat CPU 0 instructions: 27000156 cycles: 6790885 heartbeat IPC: 3.976 cumulative IPC: 3.976 (Simulation time: 00 hr 01 min 48 sec)
Heartbeat CPU 0 instructions: 27500158 cycles: 6916163 heartbeat IPC: 3.991 cumulative IPC: 3.976 (Simulation time: 00 hr 01 min 50 sec)
Heartbeat CPU 0 instructions: 28000160 cycles: 7041714 heartbeat IPC: 3.982 cumulative IPC: 3.976 (Simulation time: 00 hr 01 min 52 sec)
Heartbeat CPU 0 instructions: 28500165 cycles: 7143151 heartbeat IPC: 4.929 cumulative IPC: 3.99 (Simulation time: 00 hr 01 min 53 sec)
Heartbeat CPU 0 instructions: 29000168 cycles: 7243151 heartbeat IPC: 5 cumulative IPC: 4.004 (Simulation time: 00 hr 01 min 55 sec)
Heartbeat CPU 0 instructions: 29500172 cycles: 7343151 heartbeat IPC: 5 cumulative IPC: 4.017 (Simulation time: 00 hr 01 min 56 sec)
Heartbeat CPU 0 instructions: 30000177 cycles: 7443152 heartbeat IPC: 5 cumulative IPC: 4.031 (Simulation time: 00 hr 01 min 57 sec)
Heartbeat CPU 0 instructions: 30500178 cycles: 7543153 heartbeat IPC: 5 cumulative IPC: 4.043 (Simulation time: 00 hr 01 min 59 sec)
Heartbeat CPU 0 instructions: 31000182 cycles: 7643153 heartbeat IPC: 5 cumulative IPC: 4.056 (Simulation time: 00 hr 02 min 00 sec)
Heartbeat CPU 0 instructions: 31500188 cycles: 7743155 heartbeat IPC: 5 cumulative IPC: 4.068 (Simulation time: 00 hr 02 min 02 sec)
Heartbeat CPU 0 instructions: 32000191 cycles: 7843157 heartbeat IPC: 5 cumulative IPC: 4.08 (Simulation time: 00 hr 02 min 03 sec)
Heartbeat CPU 0 instructions: 32500192 cycles: 7943155 heartbeat IPC: 5 cumulative IPC: 4.092 (Simulation time: 00 hr 02 min 05 sec)
Heartbeat CPU 0 instructions: 33000198 cycles: 8043157 heartbeat IPC: 5 cumulative IPC: 4.103 (Simulation time: 00 hr 02 min 06 sec)
Heartbeat CPU 0 instructions: 33500201 cycles: 8143166 heartbeat IPC: 5 cumulative IPC: 4.114 (Simulation time: 00 hr 02 min 08 sec)
Heartbeat CPU 0 instructions: 34000204 cycles: 8243158 heartbeat IPC: 5 cumulative IPC: 4.125 (Simulation time: 00 hr 02 min 09 sec)
Heartbeat CPU 0 instructions: 34500208 cycles: 8343159 heartbeat IPC: 5 cumulative IPC: 4.135 (Simulation time: 00 hr 02 min 10 sec)
Heartbeat CPU 0 instructions: 35000211 cycles: 8443161 heartbeat IPC: 5 cumulative IPC: 4.145 (Simulation time: 00 hr 02 min 12 sec)
Heartbeat CPU 0 instructions: 35500214 cycles: 8543160 heartbeat IPC: 5 cumulative IPC: 4.155 (Simulation time: 00 hr 02 min 13 sec)
Heartbeat CPU 0 instructions: 36000221 cycles: 8643161 heartbeat IPC: 5 cumulative IPC: 4.165 (Simulation time: 00 hr 02 min 15 sec)
Heartbeat CPU 0 instructions: 36500224 cycles: 8743163 heartbeat IPC: 5 cumulative IPC: 4.175 (Simulation time: 00 hr 02 min 16 sec)
Heartbeat CPU 0 instructions: 37000224 cycles: 8843162 heartbeat IPC: 5 cumulative IPC: 4.184 (Simulation time: 00 hr 02 min 18 sec)
Heartbeat CPU 0 instructions: 37500231 cycles: 8943163 heartbeat IPC: 5 cumulative IPC: 4.193 (Simulation time: 00 hr 02 min 19 sec)
Heartbeat CPU 0 instructions: 38000234 cycles: 9043165 heartbeat IPC: 5 cumulative IPC: 4.202 (Simulation time: 00 hr 02 min 21 sec)
Heartbeat CPU 0 instructions: 38500237 cycles: 9143166 heartbeat IPC: 5 cumulative IPC: 4.211 (Simulation time: 00 hr 02 min 22 sec)
Heartbeat CPU 0 instructions: 39000241 cycles: 9243165 heartbeat IPC: 5 cumulative IPC: 4.219 (Simulation time: 00 hr 02 min 23 sec)
Heartbeat CPU 0 instructions: 39500244 cycles: 9343167 heartbeat IPC: 5 cumulative IPC: 4.228 (Simulation time: 00 hr 02 min 25 sec)
Heartbeat CPU 0 instructions: 40000247 cycles: 9443168 heartbeat IPC: 5 cumulative IPC: 4.236 (Simulation time: 00 hr 02 min 26 sec)
Heartbeat CPU 0 instructions: 40500250 cycles: 9543167 heartbeat IPC: 5 cumulative IPC: 4.244 (Simulation time: 00 hr 02 min 28 sec)
Heartbeat CPU 0 instructions: 41000254 cycles: 9643168 heartbeat IPC: 5 cumulative IPC: 4.252 (Simulation time: 00 hr 02 min 29 sec)
Heartbeat CPU 0 instructions: 41500257 cycles: 9743170 heartbeat IPC: 5 cumulative IPC: 4.259 (Simulation time: 00 hr 02 min 31 sec)
Heartbeat CPU 0 instructions: 42000260 cycles: 9843169 heartbeat IPC: 5 cumulative IPC: 4.267 (Simulation time: 00 hr 02 min 32 sec)
Heartbeat CPU 0 instructions: 42500267 cycles: 9943171 heartbeat IPC: 5 cumulative IPC: 4.274 (Simulation time: 00 hr 02 min 34 sec)
Heartbeat CPU 0 instructions: 43000270 cycles: 10043180 heartbeat IPC: 5 cumulative IPC: 4.282 (Simulation time: 00 hr 02 min 35 sec)
Heartbeat CPU 0 instructions: 43500270 cycles: 10143171 heartbeat IPC: 5 cumulative IPC: 4.289 (Simulation time: 00 hr 02 min 36 sec)
Heartbeat CPU 0 instructions: 44000277 cycles: 10243173 heartbeat IPC: 5 cumulative IPC: 4.296 (Simulation time: 00 hr 02 min 38 sec)
Heartbeat CPU 0 instructions: 44500282 cycles: 10343347 heartbeat IPC: 4.991 cumulative IPC: 4.302 (Simulation time: 00 hr 02 min 39 sec)
Heartbeat CPU 0 instructions: 45000289 cycles: 10443350 heartbeat IPC: 5 cumulative IPC: 4.309 (Simulation time: 00 hr 02 min 41 sec)
Heartbeat CPU 0 instructions: 45500289 cycles: 10543349 heartbeat IPC: 5 cumulative IPC: 4.316 (Simulation time: 00 hr 02 min 42 sec)
Heartbeat CPU 0 instructions: 46000292 cycles: 10643349 heartbeat IPC: 5 cumulative IPC: 4.322 (Simulation time: 00 hr 02 min 44 sec)
Heartbeat CPU 0 instructions: 46500294 cycles: 10743350 heartbeat IPC: 5 cumulative IPC: 4.328 (Simulation time: 00 hr 02 min 45 sec)
Heartbeat CPU 0 instructions: 47000294 cycles: 10843351 heartbeat IPC: 5 cumulative IPC: 4.334 (Simulation time: 00 hr 02 min 47 sec)
Heartbeat CPU 0 instructions: 47500298 cycles: 10943352 heartbeat IPC: 5 cumulative IPC: 4.341 (Simulation time: 00 hr 02 min 48 sec)
Heartbeat CPU 0 instructions: 48000302 cycles: 11043353 heartbeat IPC: 5 cumulative IPC: 4.347 (Simulation time: 00 hr 02 min 50 sec)
Heartbeat CPU 0 instructions: 48500306 cycles: 11143353 heartbeat IPC: 5 cumulative IPC: 4.352 (Simulation time: 00 hr 02 min 51 sec)
Heartbeat CPU 0 instructions: 49000308 cycles: 11243354 heartbeat IPC: 5 cumulative IPC: 4.358 (Simulation time: 00 hr 02 min 53 sec)
Heartbeat CPU 0 instructions: 49500308 cycles: 11343353 heartbeat IPC: 5 cumulative IPC: 4.364 (Simulation time: 00 hr 02 min 54 sec)
Warmup halting CPU 0 at instruction 50000006 cycle 11443292 for remainder of phase
Warmup finished CPU 0 instructions: 50000006 cycles: 11443292 cumulative IPC: 4.369 (Simulation time: 00 hr 02 min 55 sec)
Warmup complete CPU 0 instructions: 50000006 cycles: 11443292 cumulative IPC: 4.369 (Simulation time: 00 hr 02 min 55 sec)
Heartbeat CPU 0 instructions: 50000309 cycles: 11443379 heartbeat IPC: 4.999 cumulative IPC: 3.483 (Simulation time: 00 hr 02 min 55 sec)
Heartbeat CPU 0 instructions: 50500310 cycles: 11676447 heartbeat IPC: 2.145 cumulative IPC: 2.146 (Simulation time: 00 hr 02 min 59 sec)
Heartbeat CPU 0 instructions: 51000316 cycles: 11892033 heartbeat IPC: 2.319 cumulative IPC: 2.229 (Simulation time: 00 hr 03 min 01 sec)
Heartbeat CPU 0 instructions: 51500317 cycles: 12114597 heartbeat IPC: 2.247 cumulative IPC: 2.235 (Simulation time: 00 hr 03 min 04 sec)
Heartbeat CPU 0 instructions: 52000317 cycles: 12327892 heartbeat IPC: 2.344 cumulative IPC: 2.261 (Simulation time: 00 hr 03 min 07 sec)
Heartbeat CPU 0 instructions: 52500322 cycles: 12545897 heartbeat IPC: 2.294 cumulative IPC: 2.268 (Simulation time: 00 hr 03 min 10 sec)
Heartbeat CPU 0 instructions: 53000328 cycles: 12753146 heartbeat IPC: 2.413 cumulative IPC: 2.291 (Simulation time: 00 hr 03 min 13 sec)
Heartbeat CPU 0 instructions: 53500328 cycles: 12969797 heartbeat IPC: 2.308 cumulative IPC: 2.293 (Simulation time: 00 hr 03 min 16 sec)
Heartbeat CPU 0 instructions: 54000329 cycles: 13180915 heartbeat IPC: 2.368 cumulative IPC: 2.302 (Simulation time: 00 hr 03 min 19 sec)
Heartbeat CPU 0 instructions: 54500329 cycles: 13399558 heartbeat IPC: 2.287 cumulative IPC: 2.3 (Simulation time: 00 hr 03 min 22 sec)
Heartbeat CPU 0 instructions: 55000335 cycles: 13608160 heartbeat IPC: 2.397 cumulative IPC: 2.31 (Simulation time: 00 hr 03 min 24 sec)
Heartbeat CPU 0 instructions: 55500337 cycles: 13824630 heartbeat IPC: 2.31 cumulative IPC: 2.31 (Simulation time: 00 hr 03 min 27 sec)
Heartbeat CPU 0 instructions: 56000338 cycles: 14040052 heartbeat IPC: 2.321 cumulative IPC: 2.311 (Simulation time: 00 hr 03 min 30 sec)
Heartbeat CPU 0 instructions: 56500339 cycles: 14267200 heartbeat IPC: 2.201 cumulative IPC: 2.302 (Simulation time: 00 hr 03 min 33 sec)
Heartbeat CPU 0 instructions: 57000346 cycles: 14520077 heartbeat IPC: 1.977 cumulative IPC: 2.275 (Simulation time: 00 hr 03 min 36 sec)
Heartbeat CPU 0 instructions: 57500348 cycles: 14759778 heartbeat IPC: 2.086 cumulative IPC: 2.262 (Simulation time: 00 hr 03 min 39 sec)
Heartbeat CPU 0 instructions: 58000352 cycles: 14983178 heartbeat IPC: 2.238 cumulative IPC: 2.26 (Simulation time: 00 hr 03 min 42 sec)
Heartbeat CPU 0 instructions: 58500356 cycles: 15196712 heartbeat IPC: 2.342 cumulative IPC: 2.265 (Simulation time: 00 hr 03 min 45 sec)
Heartbeat CPU 0 instructions: 59000359 cycles: 15413360 heartbeat IPC: 2.308 cumulative IPC: 2.267 (Simulation time: 00 hr 03 min 48 sec)
Heartbeat CPU 0 instructions: 59500362 cycles: 15633697 heartbeat IPC: 2.269 cumulative IPC: 2.267 (Simulation time: 00 hr 03 min 51 sec)
Heartbeat CPU 0 instructions: 60000366 cycles: 15850235 heartbeat IPC: 2.309 cumulative IPC: 2.269 (Simulation time: 00 hr 03 min 53 sec)
Heartbeat CPU 0 instructions: 60500370 cycles: 16070770 heartbeat IPC: 2.267 cumulative IPC: 2.269 (Simulation time: 00 hr 03 min 56 sec)
Heartbeat CPU 0 instructions: 61000374 cycles: 16288231 heartbeat IPC: 2.299 cumulative IPC: 2.27 (Simulation time: 00 hr 03 min 59 sec)
Heartbeat CPU 0 instructions: 61500375 cycles: 16507363 heartbeat IPC: 2.282 cumulative IPC: 2.271 (Simulation time: 00 hr 04 min 02 sec)
Heartbeat CPU 0 instructions: 62000380 cycles: 16728819 heartbeat IPC: 2.258 cumulative IPC: 2.27 (Simulation time: 00 hr 04 min 05 sec)
Heartbeat CPU 0 instructions: 62500384 cycles: 16951919 heartbeat IPC: 2.241 cumulative IPC: 2.269 (Simulation time: 00 hr 04 min 08 sec)
Heartbeat CPU 0 instructions: 63000385 cycles: 17172192 heartbeat IPC: 2.27 cumulative IPC: 2.269 (Simulation time: 00 hr 04 min 11 sec)
Heartbeat CPU 0 instructions: 63500388 cycles: 17389016 heartbeat IPC: 2.306 cumulative IPC: 2.271 (Simulation time: 00 hr 04 min 14 sec)
Heartbeat CPU 0 instructions: 64000394 cycles: 17611801 heartbeat IPC: 2.244 cumulative IPC: 2.27 (Simulation time: 00 hr 04 min 17 sec)
Heartbeat CPU 0 instructions: 64500395 cycles: 17832355 heartbeat IPC: 2.267 cumulative IPC: 2.27 (Simulation time: 00 hr 04 min 20 sec)
Heartbeat CPU 0 instructions: 65000395 cycles: 18052797 heartbeat IPC: 2.268 cumulative IPC: 2.27 (Simulation time: 00 hr 04 min 23 sec)
Heartbeat CPU 0 instructions: 65500401 cycles: 18272358 heartbeat IPC: 2.277 cumulative IPC: 2.27 (Simulation time: 00 hr 04 min 26 sec)
Heartbeat CPU 0 instructions: 66000401 cycles: 18489966 heartbeat IPC: 2.298 cumulative IPC: 2.271 (Simulation time: 00 hr 04 min 29 sec)
Heartbeat CPU 0 instructions: 66500405 cycles: 18711637 heartbeat IPC: 2.256 cumulative IPC: 2.27 (Simulation time: 00 hr 04 min 32 sec)
Heartbeat CPU 0 instructions: 67000409 cycles: 18934902 heartbeat IPC: 2.24 cumulative IPC: 2.269 (Simulation time: 00 hr 04 min 35 sec)
Heartbeat CPU 0 instructions: 67500410 cycles: 19152712 heartbeat IPC: 2.296 cumulative IPC: 2.27 (Simulation time: 00 hr 04 min 38 sec)
Heartbeat CPU 0 instructions: 68000410 cycles: 19375592 heartbeat IPC: 2.243 cumulative IPC: 2.269 (Simulation time: 00 hr 04 min 41 sec)
Heartbeat CPU 0 instructions: 68500411 cycles: 19594803 heartbeat IPC: 2.281 cumulative IPC: 2.27 (Simulation time: 00 hr 04 min 44 sec)
Heartbeat CPU 0 instructions: 69000416 cycles: 19815228 heartbeat IPC: 2.268 cumulative IPC: 2.27 (Simulation time: 00 hr 04 min 47 sec)
Heartbeat CPU 0 instructions: 69500419 cycles: 20036271 heartbeat IPC: 2.262 cumulative IPC: 2.269 (Simulation time: 00 hr 04 min 49 sec)
Heartbeat CPU 0 instructions: 70000424 cycles: 20258668 heartbeat IPC: 2.248 cumulative IPC: 2.269 (Simulation time: 00 hr 04 min 52 sec)
Heartbeat CPU 0 instructions: 70500426 cycles: 20478369 heartbeat IPC: 2.276 cumulative IPC: 2.269 (Simulation time: 00 hr 04 min 55 sec)
Heartbeat CPU 0 instructions: 71000430 cycles: 20700716 heartbeat IPC: 2.249 cumulative IPC: 2.268 (Simulation time: 00 hr 04 min 58 sec)
Heartbeat CPU 0 instructions: 71500434 cycles: 20922363 heartbeat IPC: 2.256 cumulative IPC: 2.268 (Simulation time: 00 hr 05 min 01 sec)
Heartbeat CPU 0 instructions: 72000435 cycles: 21143857 heartbeat IPC: 2.257 cumulative IPC: 2.268 (Simulation time: 00 hr 05 min 04 sec)
Heartbeat CPU 0 instructions: 72500439 cycles: 21370959 heartbeat IPC: 2.202 cumulative IPC: 2.266 (Simulation time: 00 hr 05 min 07 sec)
Heartbeat CPU 0 instructions: 73000445 cycles: 21605252 heartbeat IPC: 2.134 cumulative IPC: 2.263 (Simulation time: 00 hr 05 min 10 sec)
Heartbeat CPU 0 instructions: 73500446 cycles: 21829362 heartbeat IPC: 2.231 cumulative IPC: 2.263 (Simulation time: 00 hr 05 min 13 sec)
Heartbeat CPU 0 instructions: 74000446 cycles: 22050678 heartbeat IPC: 2.259 cumulative IPC: 2.263 (Simulation time: 00 hr 05 min 16 sec)
Heartbeat CPU 0 instructions: 74500448 cycles: 22277398 heartbeat IPC: 2.205 cumulative IPC: 2.261 (Simulation time: 00 hr 05 min 19 sec)
Heartbeat CPU 0 instructions: 75000448 cycles: 22508532 heartbeat IPC: 2.163 cumulative IPC: 2.259 (Simulation time: 00 hr 05 min 22 sec)
Heartbeat CPU 0 instructions: 75500454 cycles: 22722011 heartbeat IPC: 2.342 cumulative IPC: 2.261 (Simulation time: 00 hr 05 min 25 sec)
Heartbeat CPU 0 instructions: 76000458 cycles: 22952379 heartbeat IPC: 2.17 cumulative IPC: 2.259 (Simulation time: 00 hr 05 min 28 sec)
Heartbeat CPU 0 instructions: 76500459 cycles: 23181940 heartbeat IPC: 2.178 cumulative IPC: 2.258 (Simulation time: 00 hr 05 min 31 sec)
Heartbeat CPU 0 instructions: 77000460 cycles: 23428014 heartbeat IPC: 2.032 cumulative IPC: 2.253 (Simulation time: 00 hr 05 min 34 sec)
Heartbeat CPU 0 instructions: 77500461 cycles: 23671680 heartbeat IPC: 2.052 cumulative IPC: 2.249 (Simulation time: 00 hr 05 min 37 sec)
Heartbeat CPU 0 instructions: 78000467 cycles: 23915450 heartbeat IPC: 2.051 cumulative IPC: 2.245 (Simulation time: 00 hr 05 min 40 sec)
Heartbeat CPU 0 instructions: 78500473 cycles: 24153483 heartbeat IPC: 2.101 cumulative IPC: 2.242 (Simulation time: 00 hr 05 min 43 sec)
Heartbeat CPU 0 instructions: 79000473 cycles: 24368100 heartbeat IPC: 2.33 cumulative IPC: 2.244 (Simulation time: 00 hr 05 min 46 sec)
Heartbeat CPU 0 instructions: 79500479 cycles: 24591370 heartbeat IPC: 2.239 cumulative IPC: 2.244 (Simulation time: 00 hr 05 min 49 sec)
Heartbeat CPU 0 instructions: 80000484 cycles: 24809189 heartbeat IPC: 2.296 cumulative IPC: 2.245 (Simulation time: 00 hr 05 min 52 sec)
Heartbeat CPU 0 instructions: 80500485 cycles: 25035065 heartbeat IPC: 2.214 cumulative IPC: 2.244 (Simulation time: 00 hr 05 min 55 sec)
Heartbeat CPU 0 instructions: 81000490 cycles: 25248155 heartbeat IPC: 2.346 cumulative IPC: 2.246 (Simulation time: 00 hr 05 min 58 sec)
Heartbeat CPU 0 instructions: 81500490 cycles: 25472941 heartbeat IPC: 2.224 cumulative IPC: 2.245 (Simulation time: 00 hr 06 min 01 sec)
Heartbeat CPU 0 instructions: 82000491 cycles: 25690295 heartbeat IPC: 2.3 cumulative IPC: 2.246 (Simulation time: 00 hr 06 min 03 sec)
Heartbeat CPU 0 instructions: 82500492 cycles: 25919196 heartbeat IPC: 2.184 cumulative IPC: 2.245 (Simulation time: 00 hr 06 min 06 sec)
Heartbeat CPU 0 instructions: 83000497 cycles: 26146251 heartbeat IPC: 2.202 cumulative IPC: 2.244 (Simulation time: 00 hr 06 min 09 sec)
Heartbeat CPU 0 instructions: 83500500 cycles: 26382057 heartbeat IPC: 2.12 cumulative IPC: 2.243 (Simulation time: 00 hr 06 min 12 sec)
Heartbeat CPU 0 instructions: 84000503 cycles: 26600289 heartbeat IPC: 2.291 cumulative IPC: 2.243 (Simulation time: 00 hr 06 min 15 sec)
Heartbeat CPU 0 instructions: 84500503 cycles: 26829203 heartbeat IPC: 2.184 cumulative IPC: 2.242 (Simulation time: 00 hr 06 min 18 sec)
Heartbeat CPU 0 instructions: 85000505 cycles: 27085315 heartbeat IPC: 1.952 cumulative IPC: 2.238 (Simulation time: 00 hr 06 min 21 sec)
Heartbeat CPU 0 instructions: 85500509 cycles: 27332162 heartbeat IPC: 2.026 cumulative IPC: 2.234 (Simulation time: 00 hr 06 min 24 sec)
Heartbeat CPU 0 instructions: 86000513 cycles: 27560124 heartbeat IPC: 2.193 cumulative IPC: 2.234 (Simulation time: 00 hr 06 min 27 sec)
Heartbeat CPU 0 instructions: 86500515 cycles: 27785586 heartbeat IPC: 2.218 cumulative IPC: 2.233 (Simulation time: 00 hr 06 min 30 sec)
Heartbeat CPU 0 instructions: 87000518 cycles: 28012606 heartbeat IPC: 2.202 cumulative IPC: 2.233 (Simulation time: 00 hr 06 min 33 sec)
Heartbeat CPU 0 instructions: 87500523 cycles: 28240182 heartbeat IPC: 2.197 cumulative IPC: 2.233 (Simulation time: 00 hr 06 min 36 sec)
Heartbeat CPU 0 instructions: 88000527 cycles: 28464865 heartbeat IPC: 2.225 cumulative IPC: 2.232 (Simulation time: 00 hr 06 min 39 sec)
Heartbeat CPU 0 instructions: 88500531 cycles: 28693432 heartbeat IPC: 2.188 cumulative IPC: 2.232 (Simulation time: 00 hr 06 min 42 sec)
Heartbeat CPU 0 instructions: 89000535 cycles: 28917711 heartbeat IPC: 2.229 cumulative IPC: 2.232 (Simulation time: 00 hr 06 min 45 sec)
Heartbeat CPU 0 instructions: 89500535 cycles: 29143569 heartbeat IPC: 2.214 cumulative IPC: 2.232 (Simulation time: 00 hr 06 min 48 sec)
Heartbeat CPU 0 instructions: 90000541 cycles: 29369666 heartbeat IPC: 2.211 cumulative IPC: 2.231 (Simulation time: 00 hr 06 min 51 sec)
Heartbeat CPU 0 instructions: 90500545 cycles: 29596285 heartbeat IPC: 2.206 cumulative IPC: 2.231 (Simulation time: 00 hr 06 min 54 sec)
Heartbeat CPU 0 instructions: 91000549 cycles: 29820977 heartbeat IPC: 2.225 cumulative IPC: 2.231 (Simulation time: 00 hr 06 min 56 sec)
Heartbeat CPU 0 instructions: 91500555 cycles: 30046813 heartbeat IPC: 2.214 cumulative IPC: 2.231 (Simulation time: 00 hr 06 min 59 sec)
Heartbeat CPU 0 instructions: 92000555 cycles: 30270848 heartbeat IPC: 2.232 cumulative IPC: 2.231 (Simulation time: 00 hr 07 min 02 sec)
Heartbeat CPU 0 instructions: 92500559 cycles: 30497141 heartbeat IPC: 2.21 cumulative IPC: 2.231 (Simulation time: 00 hr 07 min 05 sec)
Heartbeat CPU 0 instructions: 93000565 cycles: 30721907 heartbeat IPC: 2.225 cumulative IPC: 2.23 (Simulation time: 00 hr 07 min 08 sec)
Heartbeat CPU 0 instructions: 93500567 cycles: 30951946 heartbeat IPC: 2.174 cumulative IPC: 2.23 (Simulation time: 00 hr 07 min 11 sec)
Heartbeat CPU 0 instructions: 94000569 cycles: 31178112 heartbeat IPC: 2.211 cumulative IPC: 2.23 (Simulation time: 00 hr 07 min 14 sec)
Heartbeat CPU 0 instructions: 94500573 cycles: 31407598 heartbeat IPC: 2.179 cumulative IPC: 2.229 (Simulation time: 00 hr 07 min 17 sec)
Heartbeat CPU 0 instructions: 95000577 cycles: 31639698 heartbeat IPC: 2.154 cumulative IPC: 2.228 (Simulation time: 00 hr 07 min 20 sec)
Heartbeat CPU 0 instructions: 95500581 cycles: 31866090 heartbeat IPC: 2.209 cumulative IPC: 2.228 (Simulation time: 00 hr 07 min 23 sec)
Heartbeat CPU 0 instructions: 96000584 cycles: 32090211 heartbeat IPC: 2.231 cumulative IPC: 2.228 (Simulation time: 00 hr 07 min 26 sec)
Heartbeat CPU 0 instructions: 96500587 cycles: 32317475 heartbeat IPC: 2.2 cumulative IPC: 2.228 (Simulation time: 00 hr 07 min 29 sec)
Heartbeat CPU 0 instructions: 97000591 cycles: 32544461 heartbeat IPC: 2.203 cumulative IPC: 2.227 (Simulation time: 00 hr 07 min 32 sec)
Heartbeat CPU 0 instructions: 97500595 cycles: 32773792 heartbeat IPC: 2.18 cumulative IPC: 2.227 (Simulation time: 00 hr 07 min 35 sec)
Heartbeat CPU 0 instructions: 98000597 cycles: 33004998 heartbeat IPC: 2.163 cumulative IPC: 2.226 (Simulation time: 00 hr 07 min 38 sec)
Heartbeat CPU 0 instructions: 98500601 cycles: 33232282 heartbeat IPC: 2.2 cumulative IPC: 2.226 (Simulation time: 00 hr 07 min 41 sec)
Heartbeat CPU 0 instructions: 99000605 cycles: 33459940 heartbeat IPC: 2.196 cumulative IPC: 2.226 (Simulation time: 00 hr 07 min 44 sec)
Heartbeat CPU 0 instructions: 99500609 cycles: 33685937 heartbeat IPC: 2.212 cumulative IPC: 2.225 (Simulation time: 00 hr 07 min 47 sec)
Heartbeat CPU 0 instructions: 100000610 cycles: 33916888 heartbeat IPC: 2.165 cumulative IPC: 2.225 (Simulation time: 00 hr 07 min 50 sec)
Heartbeat CPU 0 instructions: 100500615 cycles: 34150072 heartbeat IPC: 2.144 cumulative IPC: 2.224 (Simulation time: 00 hr 07 min 53 sec)
Heartbeat CPU 0 instructions: 101000618 cycles: 34385340 heartbeat IPC: 2.125 cumulative IPC: 2.223 (Simulation time: 00 hr 07 min 56 sec)
Heartbeat CPU 0 instructions: 101500625 cycles: 34613292 heartbeat IPC: 2.193 cumulative IPC: 2.223 (Simulation time: 00 hr 07 min 59 sec)
Heartbeat CPU 0 instructions: 102000627 cycles: 34841919 heartbeat IPC: 2.187 cumulative IPC: 2.222 (Simulation time: 00 hr 08 min 02 sec)
Heartbeat CPU 0 instructions: 102500627 cycles: 35068410 heartbeat IPC: 2.208 cumulative IPC: 2.222 (Simulation time: 00 hr 08 min 05 sec)
Heartbeat CPU 0 instructions: 103000631 cycles: 35293129 heartbeat IPC: 2.225 cumulative IPC: 2.222 (Simulation time: 00 hr 08 min 08 sec)
Heartbeat CPU 0 instructions: 103500636 cycles: 35507682 heartbeat IPC: 2.33 cumulative IPC: 2.223 (Simulation time: 00 hr 08 min 11 sec)
Heartbeat CPU 0 instructions: 104000642 cycles: 35737703 heartbeat IPC: 2.174 cumulative IPC: 2.223 (Simulation time: 00 hr 08 min 14 sec)
Heartbeat CPU 0 instructions: 104500642 cycles: 35964053 heartbeat IPC: 2.209 cumulative IPC: 2.223 (Simulation time: 00 hr 08 min 17 sec)
Heartbeat CPU 0 instructions: 105000644 cycles: 36208720 heartbeat IPC: 2.044 cumulative IPC: 2.221 (Simulation time: 00 hr 08 min 20 sec)
Heartbeat CPU 0 instructions: 105500649 cycles: 36454592 heartbeat IPC: 2.034 cumulative IPC: 2.219 (Simulation time: 00 hr 08 min 23 sec)
Heartbeat CPU 0 instructions: 106000650 cycles: 36704939 heartbeat IPC: 1.997 cumulative IPC: 2.217 (Simulation time: 00 hr 08 min 26 sec)
Heartbeat CPU 0 instructions: 106500653 cycles: 36945221 heartbeat IPC: 2.081 cumulative IPC: 2.216 (Simulation time: 00 hr 08 min 29 sec)
Heartbeat CPU 0 instructions: 107000657 cycles: 37162604 heartbeat IPC: 2.3 cumulative IPC: 2.216 (Simulation time: 00 hr 08 min 32 sec)
Heartbeat CPU 0 instructions: 107500657 cycles: 37388911 heartbeat IPC: 2.209 cumulative IPC: 2.216 (Simulation time: 00 hr 08 min 35 sec)
Heartbeat CPU 0 instructions: 108000657 cycles: 37606887 heartbeat IPC: 2.294 cumulative IPC: 2.217 (Simulation time: 00 hr 08 min 38 sec)
Heartbeat CPU 0 instructions: 108500657 cycles: 37830342 heartbeat IPC: 2.238 cumulative IPC: 2.217 (Simulation time: 00 hr 08 min 41 sec)
Heartbeat CPU 0 instructions: 109000658 cycles: 38044520 heartbeat IPC: 2.335 cumulative IPC: 2.218 (Simulation time: 00 hr 08 min 44 sec)
Heartbeat CPU 0 instructions: 109500661 cycles: 38266152 heartbeat IPC: 2.256 cumulative IPC: 2.218 (Simulation time: 00 hr 08 min 47 sec)
Heartbeat CPU 0 instructions: 110000666 cycles: 38486219 heartbeat IPC: 2.272 cumulative IPC: 2.219 (Simulation time: 00 hr 08 min 50 sec)
Heartbeat CPU 0 instructions: 110500666 cycles: 38711524 heartbeat IPC: 2.219 cumulative IPC: 2.219 (Simulation time: 00 hr 08 min 53 sec)
Heartbeat CPU 0 instructions: 111000671 cycles: 38924933 heartbeat IPC: 2.343 cumulative IPC: 2.22 (Simulation time: 00 hr 08 min 56 sec)
Heartbeat CPU 0 instructions: 111500677 cycles: 39150645 heartbeat IPC: 2.215 cumulative IPC: 2.22 (Simulation time: 00 hr 08 min 59 sec)
Heartbeat CPU 0 instructions: 112000678 cycles: 39368664 heartbeat IPC: 2.293 cumulative IPC: 2.22 (Simulation time: 00 hr 09 min 01 sec)
Heartbeat CPU 0 instructions: 112500683 cycles: 39594014 heartbeat IPC: 2.219 cumulative IPC: 2.22 (Simulation time: 00 hr 09 min 04 sec)
Heartbeat CPU 0 instructions: 113000687 cycles: 39848465 heartbeat IPC: 1.965 cumulative IPC: 2.218 (Simulation time: 00 hr 09 min 07 sec)
Heartbeat CPU 0 instructions: 113500688 cycles: 40096549 heartbeat IPC: 2.015 cumulative IPC: 2.216 (Simulation time: 00 hr 09 min 10 sec)
Heartbeat CPU 0 instructions: 114000693 cycles: 40325271 heartbeat IPC: 2.186 cumulative IPC: 2.216 (Simulation time: 00 hr 09 min 13 sec)
Heartbeat CPU 0 instructions: 114500696 cycles: 40546713 heartbeat IPC: 2.258 cumulative IPC: 2.216 (Simulation time: 00 hr 09 min 16 sec)
Heartbeat CPU 0 instructions: 115000701 cycles: 40768425 heartbeat IPC: 2.255 cumulative IPC: 2.217 (Simulation time: 00 hr 09 min 19 sec)
Heartbeat CPU 0 instructions: 115500702 cycles: 40994020 heartbeat IPC: 2.216 cumulative IPC: 2.217 (Simulation time: 00 hr 09 min 22 sec)
Heartbeat CPU 0 instructions: 116000707 cycles: 41213604 heartbeat IPC: 2.277 cumulative IPC: 2.217 (Simulation time: 00 hr 09 min 25 sec)
Heartbeat CPU 0 instructions: 116500711 cycles: 41438323 heartbeat IPC: 2.225 cumulative IPC: 2.217 (Simulation time: 00 hr 09 min 28 sec)
Heartbeat CPU 0 instructions: 117000712 cycles: 41668606 heartbeat IPC: 2.171 cumulative IPC: 2.217 (Simulation time: 00 hr 09 min 31 sec)
Heartbeat CPU 0 instructions: 117500715 cycles: 41898121 heartbeat IPC: 2.179 cumulative IPC: 2.216 (Simulation time: 00 hr 09 min 34 sec)
Heartbeat CPU 0 instructions: 118000721 cycles: 42124718 heartbeat IPC: 2.207 cumulative IPC: 2.216 (Simulation time: 00 hr 09 min 37 sec)
Heartbeat CPU 0 instructions: 118500724 cycles: 42354000 heartbeat IPC: 2.181 cumulative IPC: 2.216 (Simulation time: 00 hr 09 min 40 sec)
Heartbeat CPU 0 instructions: 119000729 cycles: 42580349 heartbeat IPC: 2.209 cumulative IPC: 2.216 (Simulation time: 00 hr 09 min 43 sec)
Heartbeat CPU 0 instructions: 119500733 cycles: 42809559 heartbeat IPC: 2.181 cumulative IPC: 2.216 (Simulation time: 00 hr 09 min 46 sec)
Heartbeat CPU 0 instructions: 120000735 cycles: 43038781 heartbeat IPC: 2.181 cumulative IPC: 2.216 (Simulation time: 00 hr 09 min 49 sec)
Heartbeat CPU 0 instructions: 120500739 cycles: 43269373 heartbeat IPC: 2.168 cumulative IPC: 2.215 (Simulation time: 00 hr 09 min 52 sec)
Heartbeat CPU 0 instructions: 121000743 cycles: 43497440 heartbeat IPC: 2.192 cumulative IPC: 2.215 (Simulation time: 00 hr 09 min 55 sec)
Heartbeat CPU 0 instructions: 121500747 cycles: 43724768 heartbeat IPC: 2.199 cumulative IPC: 2.215 (Simulation time: 00 hr 09 min 58 sec)
Heartbeat CPU 0 instructions: 122000752 cycles: 43954959 heartbeat IPC: 2.172 cumulative IPC: 2.215 (Simulation time: 00 hr 10 min 01 sec)
Heartbeat CPU 0 instructions: 122500753 cycles: 44182811 heartbeat IPC: 2.194 cumulative IPC: 2.214 (Simulation time: 00 hr 10 min 04 sec)
Heartbeat CPU 0 instructions: 123000757 cycles: 44413037 heartbeat IPC: 2.172 cumulative IPC: 2.214 (Simulation time: 00 hr 10 min 07 sec)
Heartbeat CPU 0 instructions: 123500758 cycles: 44641775 heartbeat IPC: 2.186 cumulative IPC: 2.214 (Simulation time: 00 hr 10 min 10 sec)
Heartbeat CPU 0 instructions: 124000765 cycles: 44870354 heartbeat IPC: 2.187 cumulative IPC: 2.214 (Simulation time: 00 hr 10 min 13 sec)
Heartbeat CPU 0 instructions: 124500767 cycles: 45098196 heartbeat IPC: 2.195 cumulative IPC: 2.214 (Simulation time: 00 hr 10 min 16 sec)
Heartbeat CPU 0 instructions: 125000768 cycles: 45326410 heartbeat IPC: 2.191 cumulative IPC: 2.214 (Simulation time: 00 hr 10 min 19 sec)
Heartbeat CPU 0 instructions: 125500768 cycles: 45556160 heartbeat IPC: 2.176 cumulative IPC: 2.213 (Simulation time: 00 hr 10 min 22 sec)
Heartbeat CPU 0 instructions: 126000772 cycles: 45787312 heartbeat IPC: 2.163 cumulative IPC: 2.213 (Simulation time: 00 hr 10 min 25 sec)
Heartbeat CPU 0 instructions: 126500773 cycles: 46014230 heartbeat IPC: 2.203 cumulative IPC: 2.213 (Simulation time: 00 hr 10 min 28 sec)
Heartbeat CPU 0 instructions: 127000778 cycles: 46243042 heartbeat IPC: 2.185 cumulative IPC: 2.213 (Simulation time: 00 hr 10 min 31 sec)
Heartbeat CPU 0 instructions: 127500782 cycles: 46469736 heartbeat IPC: 2.206 cumulative IPC: 2.213 (Simulation time: 00 hr 10 min 34 sec)
Heartbeat CPU 0 instructions: 128000786 cycles: 46699355 heartbeat IPC: 2.178 cumulative IPC: 2.212 (Simulation time: 00 hr 10 min 37 sec)
Heartbeat CPU 0 instructions: 128500791 cycles: 46933714 heartbeat IPC: 2.134 cumulative IPC: 2.212 (Simulation time: 00 hr 10 min 40 sec)
Heartbeat CPU 0 instructions: 129000796 cycles: 47171375 heartbeat IPC: 2.104 cumulative IPC: 2.211 (Simulation time: 00 hr 10 min 43 sec)
Heartbeat CPU 0 instructions: 129500797 cycles: 47395687 heartbeat IPC: 2.229 cumulative IPC: 2.211 (Simulation time: 00 hr 10 min 46 sec)
Heartbeat CPU 0 instructions: 130000800 cycles: 47619101 heartbeat IPC: 2.238 cumulative IPC: 2.211 (Simulation time: 00 hr 10 min 49 sec)
Heartbeat CPU 0 instructions: 130500804 cycles: 47848959 heartbeat IPC: 2.175 cumulative IPC: 2.211 (Simulation time: 00 hr 10 min 52 sec)
Heartbeat CPU 0 instructions: 131000807 cycles: 48084759 heartbeat IPC: 2.12 cumulative IPC: 2.211 (Simulation time: 00 hr 10 min 55 sec)
Heartbeat CPU 0 instructions: 131500813 cycles: 48301406 heartbeat IPC: 2.308 cumulative IPC: 2.211 (Simulation time: 00 hr 10 min 58 sec)
Heartbeat CPU 0 instructions: 132000814 cycles: 48531070 heartbeat IPC: 2.177 cumulative IPC: 2.211 (Simulation time: 00 hr 11 min 01 sec)
Heartbeat CPU 0 instructions: 132500820 cycles: 48760798 heartbeat IPC: 2.177 cumulative IPC: 2.211 (Simulation time: 00 hr 11 min 04 sec)
Heartbeat CPU 0 instructions: 133000823 cycles: 49003419 heartbeat IPC: 2.061 cumulative IPC: 2.21 (Simulation time: 00 hr 11 min 07 sec)
Heartbeat CPU 0 instructions: 133500824 cycles: 49250450 heartbeat IPC: 2.024 cumulative IPC: 2.209 (Simulation time: 00 hr 11 min 10 sec)
Heartbeat CPU 0 instructions: 134000826 cycles: 49505335 heartbeat IPC: 1.962 cumulative IPC: 2.207 (Simulation time: 00 hr 11 min 13 sec)
Heartbeat CPU 0 instructions: 134500829 cycles: 49740121 heartbeat IPC: 2.13 cumulative IPC: 2.206 (Simulation time: 00 hr 11 min 16 sec)
Heartbeat CPU 0 instructions: 135000833 cycles: 49964146 heartbeat IPC: 2.232 cumulative IPC: 2.207 (Simulation time: 00 hr 11 min 19 sec)
Heartbeat CPU 0 instructions: 135500835 cycles: 50179720 heartbeat IPC: 2.319 cumulative IPC: 2.207 (Simulation time: 00 hr 11 min 22 sec)
Heartbeat CPU 0 instructions: 136000835 cycles: 50407642 heartbeat IPC: 2.194 cumulative IPC: 2.207 (Simulation time: 00 hr 11 min 25 sec)
Heartbeat CPU 0 instructions: 136500835 cycles: 50629304 heartbeat IPC: 2.256 cumulative IPC: 2.207 (Simulation time: 00 hr 11 min 28 sec)
Heartbeat CPU 0 instructions: 137000836 cycles: 50844192 heartbeat IPC: 2.327 cumulative IPC: 2.208 (Simulation time: 00 hr 11 min 30 sec)
Heartbeat CPU 0 instructions: 137500838 cycles: 51065939 heartbeat IPC: 2.255 cumulative IPC: 2.208 (Simulation time: 00 hr 11 min 33 sec)
Heartbeat CPU 0 instructions: 138000840 cycles: 51283993 heartbeat IPC: 2.293 cumulative IPC: 2.209 (Simulation time: 00 hr 11 min 36 sec)
Heartbeat CPU 0 instructions: 138500841 cycles: 51509033 heartbeat IPC: 2.222 cumulative IPC: 2.209 (Simulation time: 00 hr 11 min 39 sec)
Heartbeat CPU 0 instructions: 139000847 cycles: 51723063 heartbeat IPC: 2.336 cumulative IPC: 2.21 (Simulation time: 00 hr 11 min 42 sec)
Heartbeat CPU 0 instructions: 139500848 cycles: 51947040 heartbeat IPC: 2.232 cumulative IPC: 2.21 (Simulation time: 00 hr 11 min 45 sec)
Heartbeat CPU 0 instructions: 140000848 cycles: 52165808 heartbeat IPC: 2.286 cumulative IPC: 2.21 (Simulation time: 00 hr 11 min 48 sec)
Heartbeat CPU 0 instructions: 140500852 cycles: 52387596 heartbeat IPC: 2.254 cumulative IPC: 2.21 (Simulation time: 00 hr 11 min 51 sec)
Heartbeat CPU 0 instructions: 141000858 cycles: 52642967 heartbeat IPC: 1.958 cumulative IPC: 2.209 (Simulation time: 00 hr 11 min 54 sec)
Heartbeat CPU 0 instructions: 141500860 cycles: 52893527 heartbeat IPC: 1.996 cumulative IPC: 2.207 (Simulation time: 00 hr 11 min 57 sec)
Heartbeat CPU 0 instructions: 142000862 cycles: 53126551 heartbeat IPC: 2.146 cumulative IPC: 2.207 (Simulation time: 00 hr 12 min 00 sec)
Heartbeat CPU 0 instructions: 142500866 cycles: 53347402 heartbeat IPC: 2.264 cumulative IPC: 2.207 (Simulation time: 00 hr 12 min 03 sec)
Heartbeat CPU 0 instructions: 143000870 cycles: 53572701 heartbeat IPC: 2.219 cumulative IPC: 2.208 (Simulation time: 00 hr 12 min 05 sec)
Heartbeat CPU 0 instructions: 143500874 cycles: 53803054 heartbeat IPC: 2.171 cumulative IPC: 2.207 (Simulation time: 00 hr 12 min 08 sec)
Heartbeat CPU 0 instructions: 144000877 cycles: 54030339 heartbeat IPC: 2.2 cumulative IPC: 2.207 (Simulation time: 00 hr 12 min 11 sec)
Heartbeat CPU 0 instructions: 144500880 cycles: 54260035 heartbeat IPC: 2.177 cumulative IPC: 2.207 (Simulation time: 00 hr 12 min 14 sec)
Heartbeat CPU 0 instructions: 145000884 cycles: 54490289 heartbeat IPC: 2.172 cumulative IPC: 2.207 (Simulation time: 00 hr 12 min 18 sec)
Heartbeat CPU 0 instructions: 145500888 cycles: 54719545 heartbeat IPC: 2.181 cumulative IPC: 2.207 (Simulation time: 00 hr 12 min 21 sec)
Heartbeat CPU 0 instructions: 146000890 cycles: 54950321 heartbeat IPC: 2.167 cumulative IPC: 2.207 (Simulation time: 00 hr 12 min 24 sec)
Heartbeat CPU 0 instructions: 146500894 cycles: 55180903 heartbeat IPC: 2.168 cumulative IPC: 2.206 (Simulation time: 00 hr 12 min 27 sec)
Heartbeat CPU 0 instructions: 147000898 cycles: 55410053 heartbeat IPC: 2.182 cumulative IPC: 2.206 (Simulation time: 00 hr 12 min 30 sec)
Heartbeat CPU 0 instructions: 147500902 cycles: 55639924 heartbeat IPC: 2.175 cumulative IPC: 2.206 (Simulation time: 00 hr 12 min 33 sec)
Heartbeat CPU 0 instructions: 148000906 cycles: 55871870 heartbeat IPC: 2.156 cumulative IPC: 2.206 (Simulation time: 00 hr 12 min 36 sec)
Heartbeat CPU 0 instructions: 148500906 cycles: 56099278 heartbeat IPC: 2.199 cumulative IPC: 2.206 (Simulation time: 00 hr 12 min 39 sec)
Heartbeat CPU 0 instructions: 149000912 cycles: 56328153 heartbeat IPC: 2.185 cumulative IPC: 2.206 (Simulation time: 00 hr 12 min 42 sec)
Heartbeat CPU 0 instructions: 149500916 cycles: 56561600 heartbeat IPC: 2.142 cumulative IPC: 2.205 (Simulation time: 00 hr 12 min 45 sec)
Heartbeat CPU 0 instructions: 150000916 cycles: 56794137 heartbeat IPC: 2.15 cumulative IPC: 2.205 (Simulation time: 00 hr 12 min 48 sec)
Heartbeat CPU 0 instructions: 150500919 cycles: 57024282 heartbeat IPC: 2.173 cumulative IPC: 2.205 (Simulation time: 00 hr 12 min 51 sec)
Heartbeat CPU 0 instructions: 151000919 cycles: 57255180 heartbeat IPC: 2.165 cumulative IPC: 2.205 (Simulation time: 00 hr 12 min 54 sec)
Heartbeat CPU 0 instructions: 151500923 cycles: 57484956 heartbeat IPC: 2.176 cumulative IPC: 2.205 (Simulation time: 00 hr 12 min 57 sec)
Heartbeat CPU 0 instructions: 152000927 cycles: 57714053 heartbeat IPC: 2.182 cumulative IPC: 2.204 (Simulation time: 00 hr 13 min 00 sec)
Heartbeat CPU 0 instructions: 152500931 cycles: 57942432 heartbeat IPC: 2.189 cumulative IPC: 2.204 (Simulation time: 00 hr 13 min 03 sec)
Heartbeat CPU 0 instructions: 153000933 cycles: 58170687 heartbeat IPC: 2.191 cumulative IPC: 2.204 (Simulation time: 00 hr 13 min 06 sec)
Heartbeat CPU 0 instructions: 153500937 cycles: 58403739 heartbeat IPC: 2.145 cumulative IPC: 2.204 (Simulation time: 00 hr 13 min 09 sec)
Heartbeat CPU 0 instructions: 154000938 cycles: 58635201 heartbeat IPC: 2.16 cumulative IPC: 2.204 (Simulation time: 00 hr 13 min 12 sec)
Heartbeat CPU 0 instructions: 154500938 cycles: 58862856 heartbeat IPC: 2.196 cumulative IPC: 2.204 (Simulation time: 00 hr 13 min 15 sec)
Heartbeat CPU 0 instructions: 155000940 cycles: 59095580 heartbeat IPC: 2.148 cumulative IPC: 2.203 (Simulation time: 00 hr 13 min 18 sec)
Heartbeat CPU 0 instructions: 155500944 cycles: 59324868 heartbeat IPC: 2.181 cumulative IPC: 2.203 (Simulation time: 00 hr 13 min 21 sec)
Heartbeat CPU 0 instructions: 156000948 cycles: 59555002 heartbeat IPC: 2.173 cumulative IPC: 2.203 (Simulation time: 00 hr 13 min 24 sec)
Heartbeat CPU 0 instructions: 156500952 cycles: 59784669 heartbeat IPC: 2.177 cumulative IPC: 2.203 (Simulation time: 00 hr 13 min 27 sec)
Heartbeat CPU 0 instructions: 157000952 cycles: 60022800 heartbeat IPC: 2.1 cumulative IPC: 2.203 (Simulation time: 00 hr 13 min 30 sec)
Heartbeat CPU 0 instructions: 157500957 cycles: 60252207 heartbeat IPC: 2.18 cumulative IPC: 2.202 (Simulation time: 00 hr 13 min 33 sec)
Heartbeat CPU 0 instructions: 158000962 cycles: 60470078 heartbeat IPC: 2.295 cumulative IPC: 2.203 (Simulation time: 00 hr 13 min 36 sec)
Heartbeat CPU 0 instructions: 158500965 cycles: 60703368 heartbeat IPC: 2.143 cumulative IPC: 2.203 (Simulation time: 00 hr 13 min 39 sec)
Heartbeat CPU 0 instructions: 159000970 cycles: 60940028 heartbeat IPC: 2.113 cumulative IPC: 2.202 (Simulation time: 00 hr 13 min 42 sec)
Heartbeat CPU 0 instructions: 159500970 cycles: 61172136 heartbeat IPC: 2.154 cumulative IPC: 2.202 (Simulation time: 00 hr 13 min 45 sec)
Heartbeat CPU 0 instructions: 160000976 cycles: 61404164 heartbeat IPC: 2.155 cumulative IPC: 2.202 (Simulation time: 00 hr 13 min 48 sec)
Heartbeat CPU 0 instructions: 160500979 cycles: 61630623 heartbeat IPC: 2.208 cumulative IPC: 2.202 (Simulation time: 00 hr 13 min 51 sec)
Heartbeat CPU 0 instructions: 161000981 cycles: 61871932 heartbeat IPC: 2.072 cumulative IPC: 2.201 (Simulation time: 00 hr 13 min 54 sec)
Heartbeat CPU 0 instructions: 161500986 cycles: 62118119 heartbeat IPC: 2.031 cumulative IPC: 2.2 (Simulation time: 00 hr 13 min 57 sec)
Heartbeat CPU 0 instructions: 162000989 cycles: 62370967 heartbeat IPC: 1.977 cumulative IPC: 2.199 (Simulation time: 00 hr 14 min 00 sec)
Heartbeat CPU 0 instructions: 162500991 cycles: 62610454 heartbeat IPC: 2.088 cumulative IPC: 2.199 (Simulation time: 00 hr 14 min 03 sec)
Heartbeat CPU 0 instructions: 163000996 cycles: 62838893 heartbeat IPC: 2.189 cumulative IPC: 2.199 (Simulation time: 00 hr 14 min 06 sec)
Heartbeat CPU 0 instructions: 163501001 cycles: 63054649 heartbeat IPC: 2.317 cumulative IPC: 2.199 (Simulation time: 00 hr 14 min 09 sec)
Heartbeat CPU 0 instructions: 164001004 cycles: 63277046 heartbeat IPC: 2.248 cumulative IPC: 2.199 (Simulation time: 00 hr 14 min 12 sec)
Heartbeat CPU 0 instructions: 164501004 cycles: 63501362 heartbeat IPC: 2.229 cumulative IPC: 2.199 (Simulation time: 00 hr 14 min 15 sec)
Heartbeat CPU 0 instructions: 165001004 cycles: 63717832 heartbeat IPC: 2.31 cumulative IPC: 2.2 (Simulation time: 00 hr 14 min 18 sec)
Heartbeat CPU 0 instructions: 165501004 cycles: 63935693 heartbeat IPC: 2.295 cumulative IPC: 2.2 (Simulation time: 00 hr 14 min 21 sec)
Heartbeat CPU 0 instructions: 166001010 cycles: 64156232 heartbeat IPC: 2.267 cumulative IPC: 2.201 (Simulation time: 00 hr 14 min 24 sec)
Heartbeat CPU 0 instructions: 166501015 cycles: 64380333 heartbeat IPC: 2.231 cumulative IPC: 2.201 (Simulation time: 00 hr 14 min 27 sec)
Heartbeat CPU 0 instructions: 167001018 cycles: 64596019 heartbeat IPC: 2.318 cumulative IPC: 2.201 (Simulation time: 00 hr 14 min 30 sec)
Heartbeat CPU 0 instructions: 167501021 cycles: 64823054 heartbeat IPC: 2.202 cumulative IPC: 2.201 (Simulation time: 00 hr 14 min 33 sec)
Heartbeat CPU 0 instructions: 168001027 cycles: 65042653 heartbeat IPC: 2.277 cumulative IPC: 2.202 (Simulation time: 00 hr 14 min 36 sec)
Heartbeat CPU 0 instructions: 168501027 cycles: 65259531 heartbeat IPC: 2.305 cumulative IPC: 2.202 (Simulation time: 00 hr 14 min 38 sec)
Heartbeat CPU 0 instructions: 169001029 cycles: 65510593 heartbeat IPC: 1.992 cumulative IPC: 2.201 (Simulation time: 00 hr 14 min 41 sec)
Heartbeat CPU 0 instructions: 169501030 cycles: 65763465 heartbeat IPC: 1.977 cumulative IPC: 2.2 (Simulation time: 00 hr 14 min 45 sec)
Heartbeat CPU 0 instructions: 170001034 cycles: 65998841 heartbeat IPC: 2.124 cumulative IPC: 2.2 (Simulation time: 00 hr 14 min 47 sec)
Heartbeat CPU 0 instructions: 170501040 cycles: 66225159 heartbeat IPC: 2.209 cumulative IPC: 2.2 (Simulation time: 00 hr 14 min 50 sec)
Heartbeat CPU 0 instructions: 171001041 cycles: 66444075 heartbeat IPC: 2.284 cumulative IPC: 2.2 (Simulation time: 00 hr 14 min 53 sec)
Heartbeat CPU 0 instructions: 171501044 cycles: 66679480 heartbeat IPC: 2.124 cumulative IPC: 2.2 (Simulation time: 00 hr 14 min 56 sec)
Heartbeat CPU 0 instructions: 172001048 cycles: 66901500 heartbeat IPC: 2.252 cumulative IPC: 2.2 (Simulation time: 00 hr 14 min 59 sec)
Heartbeat CPU 0 instructions: 172501049 cycles: 67123865 heartbeat IPC: 2.249 cumulative IPC: 2.2 (Simulation time: 00 hr 15 min 02 sec)
Heartbeat CPU 0 instructions: 173001049 cycles: 67353187 heartbeat IPC: 2.18 cumulative IPC: 2.2 (Simulation time: 00 hr 15 min 05 sec)
Heartbeat CPU 0 instructions: 173501050 cycles: 67580067 heartbeat IPC: 2.204 cumulative IPC: 2.2 (Simulation time: 00 hr 15 min 08 sec)
Heartbeat CPU 0 instructions: 174001055 cycles: 67806871 heartbeat IPC: 2.205 cumulative IPC: 2.2 (Simulation time: 00 hr 15 min 11 sec)
Heartbeat CPU 0 instructions: 174501059 cycles: 68033670 heartbeat IPC: 2.205 cumulative IPC: 2.2 (Simulation time: 00 hr 15 min 14 sec)
Heartbeat CPU 0 instructions: 175001063 cycles: 68258597 heartbeat IPC: 2.223 cumulative IPC: 2.2 (Simulation time: 00 hr 15 min 17 sec)
Heartbeat CPU 0 instructions: 175501064 cycles: 68491012 heartbeat IPC: 2.151 cumulative IPC: 2.2 (Simulation time: 00 hr 15 min 20 sec)
Heartbeat CPU 0 instructions: 176001069 cycles: 68719658 heartbeat IPC: 2.187 cumulative IPC: 2.2 (Simulation time: 00 hr 15 min 23 sec)
Heartbeat CPU 0 instructions: 176501073 cycles: 68944130 heartbeat IPC: 2.227 cumulative IPC: 2.2 (Simulation time: 00 hr 15 min 26 sec)
Heartbeat CPU 0 instructions: 177001074 cycles: 69170793 heartbeat IPC: 2.206 cumulative IPC: 2.2 (Simulation time: 00 hr 15 min 29 sec)
Heartbeat CPU 0 instructions: 177501077 cycles: 69399649 heartbeat IPC: 2.185 cumulative IPC: 2.2 (Simulation time: 00 hr 15 min 32 sec)
Heartbeat CPU 0 instructions: 178001083 cycles: 69628424 heartbeat IPC: 2.186 cumulative IPC: 2.2 (Simulation time: 00 hr 15 min 35 sec)
Heartbeat CPU 0 instructions: 178501087 cycles: 69856283 heartbeat IPC: 2.194 cumulative IPC: 2.2 (Simulation time: 00 hr 15 min 38 sec)
Heartbeat CPU 0 instructions: 179001091 cycles: 70091462 heartbeat IPC: 2.126 cumulative IPC: 2.2 (Simulation time: 00 hr 15 min 41 sec)
Heartbeat CPU 0 instructions: 179501098 cycles: 70321709 heartbeat IPC: 2.172 cumulative IPC: 2.199 (Simulation time: 00 hr 15 min 44 sec)
Heartbeat CPU 0 instructions: 180001100 cycles: 70550464 heartbeat IPC: 2.186 cumulative IPC: 2.199 (Simulation time: 00 hr 15 min 47 sec)
Heartbeat CPU 0 instructions: 180501101 cycles: 70783167 heartbeat IPC: 2.149 cumulative IPC: 2.199 (Simulation time: 00 hr 15 min 50 sec)
Heartbeat CPU 0 instructions: 181001105 cycles: 71011846 heartbeat IPC: 2.186 cumulative IPC: 2.199 (Simulation time: 00 hr 15 min 53 sec)
Heartbeat CPU 0 instructions: 181501111 cycles: 71241603 heartbeat IPC: 2.176 cumulative IPC: 2.199 (Simulation time: 00 hr 15 min 56 sec)
Heartbeat CPU 0 instructions: 182001114 cycles: 71470007 heartbeat IPC: 2.189 cumulative IPC: 2.199 (Simulation time: 00 hr 15 min 59 sec)
Heartbeat CPU 0 instructions: 182501115 cycles: 71698282 heartbeat IPC: 2.19 cumulative IPC: 2.199 (Simulation time: 00 hr 16 min 02 sec)
Heartbeat CPU 0 instructions: 183001119 cycles: 71930417 heartbeat IPC: 2.154 cumulative IPC: 2.199 (Simulation time: 00 hr 16 min 05 sec)
Heartbeat CPU 0 instructions: 183501123 cycles: 72155425 heartbeat IPC: 2.222 cumulative IPC: 2.199 (Simulation time: 00 hr 16 min 08 sec)
Heartbeat CPU 0 instructions: 184001127 cycles: 72377830 heartbeat IPC: 2.248 cumulative IPC: 2.199 (Simulation time: 00 hr 16 min 11 sec)
Heartbeat CPU 0 instructions: 184501129 cycles: 72599434 heartbeat IPC: 2.256 cumulative IPC: 2.199 (Simulation time: 00 hr 16 min 14 sec)
Heartbeat CPU 0 instructions: 185001133 cycles: 72838123 heartbeat IPC: 2.095 cumulative IPC: 2.199 (Simulation time: 00 hr 16 min 17 sec)
Heartbeat CPU 0 instructions: 185501137 cycles: 73065782 heartbeat IPC: 2.196 cumulative IPC: 2.199 (Simulation time: 00 hr 16 min 20 sec)
Heartbeat CPU 0 instructions: 186001142 cycles: 73283234 heartbeat IPC: 2.299 cumulative IPC: 2.199 (Simulation time: 00 hr 16 min 23 sec)
Heartbeat CPU 0 instructions: 186501145 cycles: 73516775 heartbeat IPC: 2.141 cumulative IPC: 2.199 (Simulation time: 00 hr 16 min 26 sec)
Heartbeat CPU 0 instructions: 187001149 cycles: 73753378 heartbeat IPC: 2.113 cumulative IPC: 2.199 (Simulation time: 00 hr 16 min 29 sec)
Heartbeat CPU 0 instructions: 187501151 cycles: 73975062 heartbeat IPC: 2.255 cumulative IPC: 2.199 (Simulation time: 00 hr 16 min 32 sec)
Heartbeat CPU 0 instructions: 188001155 cycles: 74206813 heartbeat IPC: 2.158 cumulative IPC: 2.199 (Simulation time: 00 hr 16 min 35 sec)
Heartbeat CPU 0 instructions: 188501157 cycles: 74434100 heartbeat IPC: 2.2 cumulative IPC: 2.199 (Simulation time: 00 hr 16 min 38 sec)
Heartbeat CPU 0 instructions: 189001162 cycles: 74672809 heartbeat IPC: 2.095 cumulative IPC: 2.198 (Simulation time: 00 hr 16 min 41 sec)
Heartbeat CPU 0 instructions: 189501165 cycles: 74918751 heartbeat IPC: 2.033 cumulative IPC: 2.198 (Simulation time: 00 hr 16 min 44 sec)
Heartbeat CPU 0 instructions: 190001167 cycles: 75175663 heartbeat IPC: 1.946 cumulative IPC: 2.197 (Simulation time: 00 hr 16 min 48 sec)
Heartbeat CPU 0 instructions: 190501169 cycles: 75412062 heartbeat IPC: 2.115 cumulative IPC: 2.196 (Simulation time: 00 hr 16 min 51 sec)
Heartbeat CPU 0 instructions: 191001170 cycles: 75643646 heartbeat IPC: 2.159 cumulative IPC: 2.196 (Simulation time: 00 hr 16 min 54 sec)
Heartbeat CPU 0 instructions: 191501171 cycles: 75859425 heartbeat IPC: 2.317 cumulative IPC: 2.197 (Simulation time: 00 hr 16 min 56 sec)
Heartbeat CPU 0 instructions: 192001172 cycles: 76086447 heartbeat IPC: 2.202 cumulative IPC: 2.197 (Simulation time: 00 hr 17 min 00 sec)
Heartbeat CPU 0 instructions: 192501176 cycles: 76310134 heartbeat IPC: 2.235 cumulative IPC: 2.197 (Simulation time: 00 hr 17 min 03 sec)
Heartbeat CPU 0 instructions: 193001177 cycles: 76532540 heartbeat IPC: 2.248 cumulative IPC: 2.197 (Simulation time: 00 hr 17 min 06 sec)
Heartbeat CPU 0 instructions: 193501178 cycles: 76746424 heartbeat IPC: 2.338 cumulative IPC: 2.197 (Simulation time: 00 hr 17 min 08 sec)
Heartbeat CPU 0 instructions: 194001182 cycles: 76971105 heartbeat IPC: 2.225 cumulative IPC: 2.198 (Simulation time: 00 hr 17 min 12 sec)
Heartbeat CPU 0 instructions: 194501185 cycles: 77196804 heartbeat IPC: 2.215 cumulative IPC: 2.198 (Simulation time: 00 hr 17 min 15 sec)
Heartbeat CPU 0 instructions: 195001187 cycles: 77411665 heartbeat IPC: 2.327 cumulative IPC: 2.198 (Simulation time: 00 hr 17 min 17 sec)
Heartbeat CPU 0 instructions: 195501189 cycles: 77637627 heartbeat IPC: 2.213 cumulative IPC: 2.198 (Simulation time: 00 hr 17 min 20 sec)
Heartbeat CPU 0 instructions: 196001190 cycles: 77856896 heartbeat IPC: 2.28 cumulative IPC: 2.198 (Simulation time: 00 hr 17 min 24 sec)
Heartbeat CPU 0 instructions: 196501193 cycles: 78076777 heartbeat IPC: 2.274 cumulative IPC: 2.199 (Simulation time: 00 hr 17 min 27 sec)
Heartbeat CPU 0 instructions: 197001197 cycles: 78306867 heartbeat IPC: 2.173 cumulative IPC: 2.199 (Simulation time: 00 hr 17 min 30 sec)
Heartbeat CPU 0 instructions: 197501201 cycles: 78541601 heartbeat IPC: 2.13 cumulative IPC: 2.198 (Simulation time: 00 hr 17 min 33 sec)
Heartbeat CPU 0 instructions: 198001203 cycles: 78768154 heartbeat IPC: 2.207 cumulative IPC: 2.198 (Simulation time: 00 hr 17 min 36 sec)
Heartbeat CPU 0 instructions: 198501206 cycles: 78991898 heartbeat IPC: 2.235 cumulative IPC: 2.198 (Simulation time: 00 hr 17 min 39 sec)
Heartbeat CPU 0 instructions: 199001211 cycles: 79211428 heartbeat IPC: 2.278 cumulative IPC: 2.199 (Simulation time: 00 hr 17 min 42 sec)
Heartbeat CPU 0 instructions: 199501215 cycles: 79430884 heartbeat IPC: 2.278 cumulative IPC: 2.199 (Simulation time: 00 hr 17 min 45 sec)
Heartbeat CPU 0 instructions: 200001219 cycles: 79652141 heartbeat IPC: 2.26 cumulative IPC: 2.199 (Simulation time: 00 hr 17 min 48 sec)
Heartbeat CPU 0 instructions: 200501219 cycles: 79872722 heartbeat IPC: 2.267 cumulative IPC: 2.199 (Simulation time: 00 hr 17 min 51 sec)
Heartbeat CPU 0 instructions: 201001225 cycles: 80095187 heartbeat IPC: 2.248 cumulative IPC: 2.2 (Simulation time: 00 hr 17 min 53 sec)
Heartbeat CPU 0 instructions: 201501226 cycles: 80315262 heartbeat IPC: 2.272 cumulative IPC: 2.2 (Simulation time: 00 hr 17 min 56 sec)
Heartbeat CPU 0 instructions: 202001226 cycles: 80535367 heartbeat IPC: 2.272 cumulative IPC: 2.2 (Simulation time: 00 hr 17 min 59 sec)
Heartbeat CPU 0 instructions: 202501230 cycles: 80756427 heartbeat IPC: 2.262 cumulative IPC: 2.2 (Simulation time: 00 hr 18 min 02 sec)
Heartbeat CPU 0 instructions: 203001232 cycles: 80976144 heartbeat IPC: 2.276 cumulative IPC: 2.2 (Simulation time: 00 hr 18 min 05 sec)
Heartbeat CPU 0 instructions: 203501236 cycles: 81195856 heartbeat IPC: 2.276 cumulative IPC: 2.201 (Simulation time: 00 hr 18 min 08 sec)
Heartbeat CPU 0 instructions: 204001240 cycles: 81416218 heartbeat IPC: 2.269 cumulative IPC: 2.201 (Simulation time: 00 hr 18 min 11 sec)
Heartbeat CPU 0 instructions: 204501241 cycles: 81639329 heartbeat IPC: 2.241 cumulative IPC: 2.201 (Simulation time: 00 hr 18 min 14 sec)
Heartbeat CPU 0 instructions: 205001248 cycles: 81862133 heartbeat IPC: 2.244 cumulative IPC: 2.201 (Simulation time: 00 hr 18 min 17 sec)
Heartbeat CPU 0 instructions: 205501250 cycles: 82080599 heartbeat IPC: 2.289 cumulative IPC: 2.201 (Simulation time: 00 hr 18 min 20 sec)
Heartbeat CPU 0 instructions: 206001254 cycles: 82300605 heartbeat IPC: 2.273 cumulative IPC: 2.202 (Simulation time: 00 hr 18 min 23 sec)
Heartbeat CPU 0 instructions: 206501258 cycles: 82519027 heartbeat IPC: 2.289 cumulative IPC: 2.202 (Simulation time: 00 hr 18 min 26 sec)
Heartbeat CPU 0 instructions: 207001261 cycles: 82738280 heartbeat IPC: 2.28 cumulative IPC: 2.202 (Simulation time: 00 hr 18 min 29 sec)
Heartbeat CPU 0 instructions: 207501261 cycles: 82957441 heartbeat IPC: 2.281 cumulative IPC: 2.202 (Simulation time: 00 hr 18 min 32 sec)
Heartbeat CPU 0 instructions: 208001261 cycles: 83176385 heartbeat IPC: 2.284 cumulative IPC: 2.203 (Simulation time: 00 hr 18 min 35 sec)
Heartbeat CPU 0 instructions: 208501263 cycles: 83398976 heartbeat IPC: 2.246 cumulative IPC: 2.203 (Simulation time: 00 hr 18 min 38 sec)
Heartbeat CPU 0 instructions: 209001266 cycles: 83618899 heartbeat IPC: 2.274 cumulative IPC: 2.203 (Simulation time: 00 hr 18 min 41 sec)
Heartbeat CPU 0 instructions: 209501266 cycles: 83840184 heartbeat IPC: 2.26 cumulative IPC: 2.203 (Simulation time: 00 hr 18 min 44 sec)
Heartbeat CPU 0 instructions: 210001268 cycles: 84060533 heartbeat IPC: 2.269 cumulative IPC: 2.203 (Simulation time: 00 hr 18 min 47 sec)
Heartbeat CPU 0 instructions: 210501272 cycles: 84279378 heartbeat IPC: 2.285 cumulative IPC: 2.204 (Simulation time: 00 hr 18 min 50 sec)
Heartbeat CPU 0 instructions: 211001276 cycles: 84501123 heartbeat IPC: 2.255 cumulative IPC: 2.204 (Simulation time: 00 hr 18 min 53 sec)
Heartbeat CPU 0 instructions: 211501282 cycles: 84720737 heartbeat IPC: 2.277 cumulative IPC: 2.204 (Simulation time: 00 hr 18 min 56 sec)
Heartbeat CPU 0 instructions: 212001282 cycles: 84940375 heartbeat IPC: 2.276 cumulative IPC: 2.204 (Simulation time: 00 hr 18 min 59 sec)
Heartbeat CPU 0 instructions: 212501286 cycles: 85159929 heartbeat IPC: 2.277 cumulative IPC: 2.204 (Simulation time: 00 hr 19 min 02 sec)
Heartbeat CPU 0 instructions: 213001287 cycles: 85493231 heartbeat IPC: 1.5 cumulative IPC: 2.201 (Simulation time: 00 hr 19 min 06 sec)
Heartbeat CPU 0 instructions: 213501287 cycles: 85840046 heartbeat IPC: 1.442 cumulative IPC: 2.198 (Simulation time: 00 hr 19 min 10 sec)
Heartbeat CPU 0 instructions: 214001293 cycles: 86070945 heartbeat IPC: 2.165 cumulative IPC: 2.198 (Simulation time: 00 hr 19 min 13 sec)
Heartbeat CPU 0 instructions: 214501299 cycles: 86303853 heartbeat IPC: 2.147 cumulative IPC: 2.197 (Simulation time: 00 hr 19 min 16 sec)
Heartbeat CPU 0 instructions: 215001299 cycles: 86543909 heartbeat IPC: 2.083 cumulative IPC: 2.197 (Simulation time: 00 hr 19 min 19 sec)
Heartbeat CPU 0 instructions: 215501302 cycles: 86775412 heartbeat IPC: 2.16 cumulative IPC: 2.197 (Simulation time: 00 hr 19 min 23 sec)
Heartbeat CPU 0 instructions: 216001308 cycles: 87025090 heartbeat IPC: 2.003 cumulative IPC: 2.196 (Simulation time: 00 hr 19 min 26 sec)
Heartbeat CPU 0 instructions: 216501313 cycles: 87262555 heartbeat IPC: 2.106 cumulative IPC: 2.196 (Simulation time: 00 hr 19 min 29 sec)
Heartbeat CPU 0 instructions: 217001318 cycles: 87495698 heartbeat IPC: 2.145 cumulative IPC: 2.196 (Simulation time: 00 hr 19 min 32 sec)
Heartbeat CPU 0 instructions: 217501318 cycles: 87729540 heartbeat IPC: 2.138 cumulative IPC: 2.196 (Simulation time: 00 hr 19 min 35 sec)
Heartbeat CPU 0 instructions: 218001318 cycles: 87973303 heartbeat IPC: 2.051 cumulative IPC: 2.195 (Simulation time: 00 hr 19 min 38 sec)
Heartbeat CPU 0 instructions: 218501323 cycles: 88220255 heartbeat IPC: 2.025 cumulative IPC: 2.195 (Simulation time: 00 hr 19 min 41 sec)
Heartbeat CPU 0 instructions: 219001326 cycles: 88454635 heartbeat IPC: 2.133 cumulative IPC: 2.194 (Simulation time: 00 hr 19 min 44 sec)
Heartbeat CPU 0 instructions: 219501328 cycles: 88688779 heartbeat IPC: 2.135 cumulative IPC: 2.194 (Simulation time: 00 hr 19 min 48 sec)
Heartbeat CPU 0 instructions: 220001328 cycles: 88913285 heartbeat IPC: 2.227 cumulative IPC: 2.194 (Simulation time: 00 hr 19 min 50 sec)
Heartbeat CPU 0 instructions: 220501333 cycles: 89128537 heartbeat IPC: 2.323 cumulative IPC: 2.195 (Simulation time: 00 hr 19 min 53 sec)
Heartbeat CPU 0 instructions: 221001338 cycles: 89355736 heartbeat IPC: 2.201 cumulative IPC: 2.195 (Simulation time: 00 hr 19 min 57 sec)
Heartbeat CPU 0 instructions: 221501338 cycles: 89589373 heartbeat IPC: 2.14 cumulative IPC: 2.195 (Simulation time: 00 hr 20 min 00 sec)
Heartbeat CPU 0 instructions: 222001338 cycles: 89808824 heartbeat IPC: 2.278 cumulative IPC: 2.195 (Simulation time: 00 hr 20 min 02 sec)
Heartbeat CPU 0 instructions: 222501339 cycles: 90032697 heartbeat IPC: 2.233 cumulative IPC: 2.195 (Simulation time: 00 hr 20 min 05 sec)
Heartbeat CPU 0 instructions: 223001341 cycles: 90253421 heartbeat IPC: 2.265 cumulative IPC: 2.195 (Simulation time: 00 hr 20 min 08 sec)
Heartbeat CPU 0 instructions: 223501341 cycles: 90483961 heartbeat IPC: 2.169 cumulative IPC: 2.195 (Simulation time: 00 hr 20 min 11 sec)
Heartbeat CPU 0 instructions: 224001346 cycles: 90703964 heartbeat IPC: 2.273 cumulative IPC: 2.195 (Simulation time: 00 hr 20 min 14 sec)
Heartbeat CPU 0 instructions: 224501351 cycles: 90930121 heartbeat IPC: 2.211 cumulative IPC: 2.195 (Simulation time: 00 hr 20 min 17 sec)
Heartbeat CPU 0 instructions: 225001353 cycles: 91152013 heartbeat IPC: 2.253 cumulative IPC: 2.196 (Simulation time: 00 hr 20 min 20 sec)
Heartbeat CPU 0 instructions: 225501357 cycles: 91373584 heartbeat IPC: 2.257 cumulative IPC: 2.196 (Simulation time: 00 hr 20 min 23 sec)
Heartbeat CPU 0 instructions: 226001359 cycles: 91609478 heartbeat IPC: 2.12 cumulative IPC: 2.195 (Simulation time: 00 hr 20 min 26 sec)
Heartbeat CPU 0 instructions: 226501363 cycles: 91841625 heartbeat IPC: 2.154 cumulative IPC: 2.195 (Simulation time: 00 hr 20 min 29 sec)
Heartbeat CPU 0 instructions: 227001367 cycles: 92067973 heartbeat IPC: 2.209 cumulative IPC: 2.195 (Simulation time: 00 hr 20 min 32 sec)
Heartbeat CPU 0 instructions: 227501371 cycles: 92289827 heartbeat IPC: 2.254 cumulative IPC: 2.196 (Simulation time: 00 hr 20 min 35 sec)
Heartbeat CPU 0 instructions: 228001374 cycles: 92510568 heartbeat IPC: 2.265 cumulative IPC: 2.196 (Simulation time: 00 hr 20 min 38 sec)
Heartbeat CPU 0 instructions: 228501374 cycles: 92732485 heartbeat IPC: 2.253 cumulative IPC: 2.196 (Simulation time: 00 hr 20 min 41 sec)
Heartbeat CPU 0 instructions: 229001374 cycles: 92951153 heartbeat IPC: 2.287 cumulative IPC: 2.196 (Simulation time: 00 hr 20 min 44 sec)
Heartbeat CPU 0 instructions: 229501378 cycles: 93171933 heartbeat IPC: 2.265 cumulative IPC: 2.196 (Simulation time: 00 hr 20 min 47 sec)
Heartbeat CPU 0 instructions: 230001379 cycles: 93395066 heartbeat IPC: 2.241 cumulative IPC: 2.196 (Simulation time: 00 hr 20 min 50 sec)
Heartbeat CPU 0 instructions: 230501384 cycles: 93613289 heartbeat IPC: 2.291 cumulative IPC: 2.197 (Simulation time: 00 hr 20 min 53 sec)
Heartbeat CPU 0 instructions: 231001388 cycles: 93833341 heartbeat IPC: 2.272 cumulative IPC: 2.197 (Simulation time: 00 hr 20 min 56 sec)
Heartbeat CPU 0 instructions: 231501392 cycles: 94053540 heartbeat IPC: 2.271 cumulative IPC: 2.197 (Simulation time: 00 hr 20 min 59 sec)
Heartbeat CPU 0 instructions: 232001396 cycles: 94273714 heartbeat IPC: 2.271 cumulative IPC: 2.197 (Simulation time: 00 hr 21 min 02 sec)
Heartbeat CPU 0 instructions: 232501396 cycles: 94491535 heartbeat IPC: 2.295 cumulative IPC: 2.198 (Simulation time: 00 hr 21 min 05 sec)
Heartbeat CPU 0 instructions: 233001399 cycles: 94714132 heartbeat IPC: 2.246 cumulative IPC: 2.198 (Simulation time: 00 hr 21 min 08 sec)
Heartbeat CPU 0 instructions: 233501399 cycles: 94935648 heartbeat IPC: 2.257 cumulative IPC: 2.198 (Simulation time: 00 hr 21 min 11 sec)
Heartbeat CPU 0 instructions: 234001403 cycles: 95159278 heartbeat IPC: 2.236 cumulative IPC: 2.198 (Simulation time: 00 hr 21 min 14 sec)
Heartbeat CPU 0 instructions: 234501408 cycles: 95378004 heartbeat IPC: 2.286 cumulative IPC: 2.198 (Simulation time: 00 hr 21 min 17 sec)
Heartbeat CPU 0 instructions: 235001409 cycles: 95595298 heartbeat IPC: 2.301 cumulative IPC: 2.198 (Simulation time: 00 hr 21 min 20 sec)
Heartbeat CPU 0 instructions: 235501413 cycles: 95815448 heartbeat IPC: 2.271 cumulative IPC: 2.199 (Simulation time: 00 hr 21 min 23 sec)
Heartbeat CPU 0 instructions: 236001417 cycles: 96035262 heartbeat IPC: 2.275 cumulative IPC: 2.199 (Simulation time: 00 hr 21 min 25 sec)
Heartbeat CPU 0 instructions: 236501421 cycles: 96254004 heartbeat IPC: 2.286 cumulative IPC: 2.199 (Simulation time: 00 hr 21 min 28 sec)
Heartbeat CPU 0 instructions: 237001423 cycles: 96472303 heartbeat IPC: 2.29 cumulative IPC: 2.199 (Simulation time: 00 hr 21 min 31 sec)
Heartbeat CPU 0 instructions: 237501424 cycles: 96693080 heartbeat IPC: 2.265 cumulative IPC: 2.199 (Simulation time: 00 hr 21 min 34 sec)
Heartbeat CPU 0 instructions: 238001424 cycles: 96912092 heartbeat IPC: 2.283 cumulative IPC: 2.2 (Simulation time: 00 hr 21 min 37 sec)
Heartbeat CPU 0 instructions: 238501428 cycles: 97132926 heartbeat IPC: 2.264 cumulative IPC: 2.2 (Simulation time: 00 hr 21 min 40 sec)
Heartbeat CPU 0 instructions: 239001429 cycles: 97355747 heartbeat IPC: 2.244 cumulative IPC: 2.2 (Simulation time: 00 hr 21 min 43 sec)
Heartbeat CPU 0 instructions: 239501434 cycles: 97574215 heartbeat IPC: 2.289 cumulative IPC: 2.2 (Simulation time: 00 hr 21 min 46 sec)
Heartbeat CPU 0 instructions: 240001438 cycles: 97795964 heartbeat IPC: 2.255 cumulative IPC: 2.2 (Simulation time: 00 hr 21 min 49 sec)
Heartbeat CPU 0 instructions: 240501439 cycles: 98018371 heartbeat IPC: 2.248 cumulative IPC: 2.2 (Simulation time: 00 hr 21 min 52 sec)
Heartbeat CPU 0 instructions: 241001439 cycles: 98236358 heartbeat IPC: 2.294 cumulative IPC: 2.201 (Simulation time: 00 hr 21 min 55 sec)
Heartbeat CPU 0 instructions: 241501440 cycles: 98456898 heartbeat IPC: 2.267 cumulative IPC: 2.201 (Simulation time: 00 hr 21 min 58 sec)
Heartbeat CPU 0 instructions: 242001440 cycles: 98863693 heartbeat IPC: 1.229 cumulative IPC: 2.196 (Simulation time: 00 hr 22 min 03 sec)
Heartbeat CPU 0 instructions: 242501442 cycles: 99130552 heartbeat IPC: 1.874 cumulative IPC: 2.195 (Simulation time: 00 hr 22 min 06 sec)
Heartbeat CPU 0 instructions: 243001444 cycles: 99356686 heartbeat IPC: 2.211 cumulative IPC: 2.195 (Simulation time: 00 hr 22 min 09 sec)
Heartbeat CPU 0 instructions: 243501450 cycles: 99577064 heartbeat IPC: 2.269 cumulative IPC: 2.196 (Simulation time: 00 hr 22 min 12 sec)
Heartbeat CPU 0 instructions: 244001450 cycles: 99812821 heartbeat IPC: 2.121 cumulative IPC: 2.195 (Simulation time: 00 hr 22 min 15 sec)
Heartbeat CPU 0 instructions: 244501450 cycles: 100053622 heartbeat IPC: 2.076 cumulative IPC: 2.195 (Simulation time: 00 hr 22 min 18 sec)
Heartbeat CPU 0 instructions: 245001452 cycles: 100304344 heartbeat IPC: 1.994 cumulative IPC: 2.194 (Simulation time: 00 hr 22 min 21 sec)
Heartbeat CPU 0 instructions: 245501457 cycles: 100543660 heartbeat IPC: 2.089 cumulative IPC: 2.194 (Simulation time: 00 hr 22 min 24 sec)
Heartbeat CPU 0 instructions: 246001457 cycles: 100775886 heartbeat IPC: 2.153 cumulative IPC: 2.194 (Simulation time: 00 hr 22 min 27 sec)
Heartbeat CPU 0 instructions: 246501462 cycles: 101013436 heartbeat IPC: 2.105 cumulative IPC: 2.194 (Simulation time: 00 hr 22 min 30 sec)
Heartbeat CPU 0 instructions: 247001465 cycles: 101254256 heartbeat IPC: 2.076 cumulative IPC: 2.194 (Simulation time: 00 hr 22 min 33 sec)
Heartbeat CPU 0 instructions: 247501468 cycles: 101504253 heartbeat IPC: 2 cumulative IPC: 2.193 (Simulation time: 00 hr 22 min 36 sec)
Heartbeat CPU 0 instructions: 248001472 cycles: 101733096 heartbeat IPC: 2.185 cumulative IPC: 2.193 (Simulation time: 00 hr 22 min 39 sec)
Heartbeat CPU 0 instructions: 248501472 cycles: 101970048 heartbeat IPC: 2.11 cumulative IPC: 2.193 (Simulation time: 00 hr 22 min 42 sec)
Heartbeat CPU 0 instructions: 249001477 cycles: 102187986 heartbeat IPC: 2.294 cumulative IPC: 2.193 (Simulation time: 00 hr 22 min 45 sec)
Heartbeat CPU 0 instructions: 249501477 cycles: 102412245 heartbeat IPC: 2.23 cumulative IPC: 2.193 (Simulation time: 00 hr 22 min 48 sec)
Simulation finished CPU 0 instructions: 200000002 cycles: 91187242 cumulative IPC: 2.193 (Simulation time: 00 hr 22 min 51 sec)
Simulation complete CPU 0 instructions: 200000002 cycles: 91187242 cumulative IPC: 2.193 (Simulation time: 00 hr 22 min 51 sec)

ChampSim completed all CPUs

=== Simulation ===
CPU 0 runs /local-ssd/ben/dpc4-traces/ai-ml/llama2.c-stories15M.1.champsimtrace.gz

Region of Interest Statistics

CPU 0 cumulative IPC: 2.193 instructions: 200000002 cycles: 91187242
CPU 0 Branch Prediction Accuracy: 98.74% MPKI: 1.817 Average ROB Occupancy at Mispredict: 255.5
Branch type MPKI
BRANCH_DIRECT_JUMP: 7.5e-05
BRANCH_INDIRECT: 0
BRANCH_CONDITIONAL: 1.817
BRANCH_DIRECT_CALL: 5e-05
BRANCH_INDIRECT_CALL: 0.000345
BRANCH_RETURN: 9e-05

cpu0->cpu0_STLB TOTAL        ACCESS:     107235 HIT:       1422 MISS:     105813 MSHR_MERGE:          0
cpu0->cpu0_STLB LOAD         ACCESS:     107235 HIT:       1422 MISS:     105813 MSHR_MERGE:          0
cpu0->cpu0_STLB RFO          ACCESS:          0 HIT:          0 MISS:          0 MSHR_MERGE:          0
cpu0->cpu0_STLB PREFETCH     ACCESS:          0 HIT:          0 MISS:          0 MSHR_MERGE:          0
cpu0->cpu0_STLB WRITE        ACCESS:          0 HIT:          0 MISS:          0 MSHR_MERGE:          0
cpu0->cpu0_STLB TRANSLATION  ACCESS:          0 HIT:          0 MISS:          0 MSHR_MERGE:          0
cpu0->cpu0_STLB PREFETCH REQUESTED:          0 ISSUED:          0 USEFUL:          0 USELESS:          0
cpu0->cpu0_STLB AVERAGE MISS LATENCY: 44.88 cycles
cpu0->cpu0_L2C TOTAL        ACCESS:   30651490 HIT:    2812018 MISS:   27839472 MSHR_MERGE:   21056632
cpu0->cpu0_L2C LOAD         ACCESS:    1371757 HIT:     237847 MISS:    1133910 MSHR_MERGE:     503122
cpu0->cpu0_L2C RFO          ACCESS:      23683 HIT:       2109 MISS:      21574 MSHR_MERGE:          3
cpu0->cpu0_L2C PREFETCH     ACCESS:   29199248 HIT:    2529785 MISS:   26669463 MSHR_MERGE:   20553507
cpu0->cpu0_L2C WRITE        ACCESS:      42592 HIT:      41887 MISS:        705 MSHR_MERGE:          0
cpu0->cpu0_L2C TRANSLATION  ACCESS:      14210 HIT:        390 MISS:      13820 MSHR_MERGE:          0
cpu0->cpu0_L2C PREFETCH REQUESTED:   30552212 ISSUED:   23798866 USEFUL:    1094731 USELESS:    3347536
cpu0->cpu0_L2C AVERAGE MISS LATENCY: 171 cycles
cpu0->cpu0_L1I TOTAL        ACCESS:   17383781 HIT:   17383730 MISS:         51 MSHR_MERGE:          4
cpu0->cpu0_L1I LOAD         ACCESS:   17383781 HIT:   17383730 MISS:         51 MSHR_MERGE:          4
cpu0->cpu0_L1I RFO          ACCESS:          0 HIT:          0 MISS:          0 MSHR_MERGE:          0
cpu0->cpu0_L1I PREFETCH     ACCESS:          0 HIT:          0 MISS:          0 MSHR_MERGE:          0
cpu0->cpu0_L1I WRITE        ACCESS:          0 HIT:          0 MISS:          0 MSHR_MERGE:          0
cpu0->cpu0_L1I TRANSLATION  ACCESS:          0 HIT:          0 MISS:          0 MSHR_MERGE:          0
cpu0->cpu0_L1I PREFETCH REQUESTED:          0 ISSUED:          0 USEFUL:          0 USELESS:          0
cpu0->cpu0_L1I AVERAGE MISS LATENCY: 170 cycles
cpu0->cpu0_L1D TOTAL        ACCESS:   43243343 HIT:   26852244 MISS:   16391099 MSHR_MERGE:    9581121
cpu0->cpu0_L1D LOAD         ACCESS:   36588394 HIT:   25971906 MISS:   10616488 MSHR_MERGE:    9244778
cpu0->cpu0_L1D RFO          ACCESS:          0 HIT:          0 MISS:          0 MSHR_MERGE:          0
cpu0->cpu0_L1D PREFETCH     ACCESS:    5848775 HIT:     125290 MISS:    5723485 MSHR_MERGE:     323115
cpu0->cpu0_L1D WRITE        ACCESS:     594314 HIT:     557412 MISS:      36902 MSHR_MERGE:      13214
cpu0->cpu0_L1D TRANSLATION  ACCESS:     211860 HIT:     197636 MISS:      14224 MSHR_MERGE:         14
cpu0->cpu0_L1D PREFETCH REQUESTED:    6064682 ISSUED:    5848767 USEFUL:    5394069 USELESS:       6291
cpu0->cpu0_L1D AVERAGE MISS LATENCY: 82.36 cycles
cpu0->cpu0_ITLB TOTAL        ACCESS:   16353737 HIT:   16353734 MISS:          3 MSHR_MERGE:          0
cpu0->cpu0_ITLB LOAD         ACCESS:   16353737 HIT:   16353734 MISS:          3 MSHR_MERGE:          0
cpu0->cpu0_ITLB RFO          ACCESS:          0 HIT:          0 MISS:          0 MSHR_MERGE:          0
cpu0->cpu0_ITLB PREFETCH     ACCESS:          0 HIT:          0 MISS:          0 MSHR_MERGE:          0
cpu0->cpu0_ITLB WRITE        ACCESS:          0 HIT:          0 MISS:          0 MSHR_MERGE:          0
cpu0->cpu0_ITLB TRANSLATION  ACCESS:          0 HIT:          0 MISS:          0 MSHR_MERGE:          0
cpu0->cpu0_ITLB PREFETCH REQUESTED:          0 ISSUED:          0 USEFUL:          0 USELESS:          0
cpu0->cpu0_ITLB AVERAGE MISS LATENCY: 576 cycles
cpu0->cpu0_DTLB TOTAL        ACCESS:   38421233 HIT:   37525796 MISS:     895437 MSHR_MERGE:     788205
cpu0->cpu0_DTLB LOAD         ACCESS:   38421233 HIT:   37525796 MISS:     895437 MSHR_MERGE:     788205
cpu0->cpu0_DTLB RFO          ACCESS:          0 HIT:          0 MISS:          0 MSHR_MERGE:          0
cpu0->cpu0_DTLB PREFETCH     ACCESS:          0 HIT:          0 MISS:          0 MSHR_MERGE:          0
cpu0->cpu0_DTLB WRITE        ACCESS:          0 HIT:          0 MISS:          0 MSHR_MERGE:          0
cpu0->cpu0_DTLB TRANSLATION  ACCESS:          0 HIT:          0 MISS:          0 MSHR_MERGE:          0
cpu0->cpu0_DTLB PREFETCH REQUESTED:          0 ISSUED:          0 USEFUL:          0 USELESS:          0
cpu0->cpu0_DTLB AVERAGE MISS LATENCY: 50.25 cycles
cpu0->LLC TOTAL        ACCESS:   13334019 HIT:     816565 MISS:   12517454 MSHR_MERGE:    5812136
cpu0->LLC LOAD         ACCESS:     630787 HIT:      37757 MISS:     593030 MSHR_MERGE:      55061
cpu0->LLC RFO          ACCESS:      21571 HIT:       6466 MISS:      15105 MSHR_MERGE:          0
cpu0->LLC PREFETCH     ACCESS:   12640460 HIT:     759902 MISS:   11880558 MSHR_MERGE:    5757075
cpu0->LLC WRITE        ACCESS:      27381 HIT:      12376 MISS:      15005 MSHR_MERGE:          0
cpu0->LLC TRANSLATION  ACCESS:      13820 HIT:         64 MISS:      13756 MSHR_MERGE:          0
cpu0->LLC PREFETCH REQUESTED:    6655119 ISSUED:    6524508 USEFUL:     668842 USELESS:    3808282
cpu0->LLC AVERAGE MISS LATENCY: 226.6 cycles

DRAM Statistics

Channel 0 RQ ROW_BUFFER_HIT:    2890996
  ROW_BUFFER_MISS:    3799200
  AVG DBUS CONGESTED CYCLE: 5.318
Channel 0 WQ ROW_BUFFER_HIT:        665
  ROW_BUFFER_MISS:      16872
  FULL:          0
Channel 0 REFRESHES ISSUED:       7598
