[VMEM] WARNING: physical memory size is smaller than virtual memory size.

*** ChampSim Multicore Out-of-Order Simulator ***
Warmup Instructions: 50000000
Simulation Instructions: 200000000
Number of CPUs: 1
Page size: 4096
Core 0: /local-ssd/ben/dpc4-traces/ai-ml/bark.cpp-bark-small.coarse_token_gen.5.champsimtrace.gz
 L1D Berti prefetcher
Off-chip DRAM Size: 64 GiB Channels: 1 Width: 64-bit Data Rate: 4807 MT/s
Heartbeat CPU 0 instructions: 500005 cycles: 165597 heartbeat IPC: 3.019 cumulative IPC: 3.019 (Simulation time: 00 hr 00 min 03 sec)
Heartbeat CPU 0 instructions: 1000009 cycles: 322837 heartbeat IPC: 3.18 cumulative IPC: 3.098 (Simulation time: 00 hr 00 min 06 sec)
Heartbeat CPU 0 instructions: 1500012 cycles: 476808 heartbeat IPC: 3.247 cumulative IPC: 3.146 (Simulation time: 00 hr 00 min 09 sec)
Heartbeat CPU 0 instructions: 2000013 cycles: 653025 heartbeat IPC: 2.837 cumulative IPC: 3.063 (Simulation time: 00 hr 00 min 13 sec)
Heartbeat CPU 0 instructions: 2500013 cycles: 832195 heartbeat IPC: 2.791 cumulative IPC: 3.004 (Simulation time: 00 hr 00 min 16 sec)
Heartbeat CPU 0 instructions: 3000017 cycles: 1007766 heartbeat IPC: 2.848 cumulative IPC: 2.977 (Simulation time: 00 hr 00 min 20 sec)
Heartbeat CPU 0 instructions: 3500017 cycles: 1187261 heartbeat IPC: 2.786 cumulative IPC: 2.948 (Simulation time: 00 hr 00 min 23 sec)
Heartbeat CPU 0 instructions: 4000021 cycles: 1362289 heartbeat IPC: 2.857 cumulative IPC: 2.936 (Simulation time: 00 hr 00 min 27 sec)
Heartbeat CPU 0 instructions: 4500027 cycles: 1519495 heartbeat IPC: 3.181 cumulative IPC: 2.962 (Simulation time: 00 hr 00 min 30 sec)
Heartbeat CPU 0 instructions: 5000031 cycles: 1725991 heartbeat IPC: 2.421 cumulative IPC: 2.897 (Simulation time: 00 hr 00 min 34 sec)
Heartbeat CPU 0 instructions: 5500032 cycles: 1845338 heartbeat IPC: 4.189 cumulative IPC: 2.981 (Simulation time: 00 hr 00 min 36 sec)
Heartbeat CPU 0 instructions: 6000035 cycles: 1952064 heartbeat IPC: 4.685 cumulative IPC: 3.074 (Simulation time: 00 hr 00 min 37 sec)
Heartbeat CPU 0 instructions: 6500040 cycles: 2058761 heartbeat IPC: 4.686 cumulative IPC: 3.157 (Simulation time: 00 hr 00 min 38 sec)
Heartbeat CPU 0 instructions: 7000043 cycles: 2165455 heartbeat IPC: 4.686 cumulative IPC: 3.233 (Simulation time: 00 hr 00 min 39 sec)
Heartbeat CPU 0 instructions: 7500050 cycles: 2272206 heartbeat IPC: 4.684 cumulative IPC: 3.301 (Simulation time: 00 hr 00 min 40 sec)
Heartbeat CPU 0 instructions: 8000050 cycles: 2378943 heartbeat IPC: 4.684 cumulative IPC: 3.363 (Simulation time: 00 hr 00 min 42 sec)
Heartbeat CPU 0 instructions: 8500050 cycles: 2485638 heartbeat IPC: 4.686 cumulative IPC: 3.42 (Simulation time: 00 hr 00 min 43 sec)
Heartbeat CPU 0 instructions: 9000054 cycles: 2592334 heartbeat IPC: 4.686 cumulative IPC: 3.472 (Simulation time: 00 hr 00 min 44 sec)
Heartbeat CPU 0 instructions: 9500055 cycles: 2699070 heartbeat IPC: 4.684 cumulative IPC: 3.52 (Simulation time: 00 hr 00 min 45 sec)
Heartbeat CPU 0 instructions: 10000057 cycles: 2825206 heartbeat IPC: 3.964 cumulative IPC: 3.54 (Simulation time: 00 hr 00 min 47 sec)
Heartbeat CPU 0 instructions: 10500064 cycles: 3048523 heartbeat IPC: 2.239 cumulative IPC: 3.444 (Simulation time: 00 hr 00 min 51 sec)
Heartbeat CPU 0 instructions: 11000064 cycles: 3289662 heartbeat IPC: 2.073 cumulative IPC: 3.344 (Simulation time: 00 hr 00 min 55 sec)
Heartbeat CPU 0 instructions: 11500064 cycles: 3530414 heartbeat IPC: 2.077 cumulative IPC: 3.257 (Simulation time: 00 hr 01 min 00 sec)
Heartbeat CPU 0 instructions: 12000065 cycles: 3771238 heartbeat IPC: 2.076 cumulative IPC: 3.182 (Simulation time: 00 hr 01 min 04 sec)
Heartbeat CPU 0 instructions: 12500069 cycles: 4011899 heartbeat IPC: 2.078 cumulative IPC: 3.116 (Simulation time: 00 hr 01 min 08 sec)
Heartbeat CPU 0 instructions: 13000072 cycles: 4253391 heartbeat IPC: 2.07 cumulative IPC: 3.056 (Simulation time: 00 hr 01 min 12 sec)
Heartbeat CPU 0 instructions: 13500078 cycles: 4511374 heartbeat IPC: 1.938 cumulative IPC: 2.992 (Simulation time: 00 hr 01 min 16 sec)
Heartbeat CPU 0 instructions: 14000081 cycles: 4620251 heartbeat IPC: 4.592 cumulative IPC: 3.03 (Simulation time: 00 hr 01 min 17 sec)
Heartbeat CPU 0 instructions: 14500086 cycles: 4836269 heartbeat IPC: 2.315 cumulative IPC: 2.998 (Simulation time: 00 hr 01 min 21 sec)
Heartbeat CPU 0 instructions: 15000090 cycles: 5002773 heartbeat IPC: 3.003 cumulative IPC: 2.998 (Simulation time: 00 hr 01 min 24 sec)
Heartbeat CPU 0 instructions: 15500096 cycles: 5113826 heartbeat IPC: 4.502 cumulative IPC: 3.031 (Simulation time: 00 hr 01 min 25 sec)
Heartbeat CPU 0 instructions: 16000099 cycles: 5224882 heartbeat IPC: 4.502 cumulative IPC: 3.062 (Simulation time: 00 hr 01 min 27 sec)
Heartbeat CPU 0 instructions: 16500100 cycles: 5335936 heartbeat IPC: 4.502 cumulative IPC: 3.092 (Simulation time: 00 hr 01 min 28 sec)
Heartbeat CPU 0 instructions: 17000102 cycles: 5446988 heartbeat IPC: 4.502 cumulative IPC: 3.121 (Simulation time: 00 hr 01 min 30 sec)
Heartbeat CPU 0 instructions: 17500105 cycles: 5558045 heartbeat IPC: 4.502 cumulative IPC: 3.149 (Simulation time: 00 hr 01 min 31 sec)
Heartbeat CPU 0 instructions: 18000108 cycles: 5669099 heartbeat IPC: 4.502 cumulative IPC: 3.175 (Simulation time: 00 hr 01 min 33 sec)
Heartbeat CPU 0 instructions: 18500111 cycles: 5780151 heartbeat IPC: 4.502 cumulative IPC: 3.201 (Simulation time: 00 hr 01 min 35 sec)
Heartbeat CPU 0 instructions: 19000117 cycles: 5891209 heartbeat IPC: 4.502 cumulative IPC: 3.225 (Simulation time: 00 hr 01 min 36 sec)
Heartbeat CPU 0 instructions: 19500119 cycles: 6002261 heartbeat IPC: 4.502 cumulative IPC: 3.249 (Simulation time: 00 hr 01 min 38 sec)
Heartbeat CPU 0 instructions: 20000122 cycles: 6113312 heartbeat IPC: 4.502 cumulative IPC: 3.272 (Simulation time: 00 hr 01 min 39 sec)
Heartbeat CPU 0 instructions: 20500128 cycles: 6224372 heartbeat IPC: 4.502 cumulative IPC: 3.294 (Simulation time: 00 hr 01 min 41 sec)
Heartbeat CPU 0 instructions: 21000134 cycles: 6335423 heartbeat IPC: 4.502 cumulative IPC: 3.315 (Simulation time: 00 hr 01 min 42 sec)
Heartbeat CPU 0 instructions: 21500141 cycles: 6446479 heartbeat IPC: 4.502 cumulative IPC: 3.335 (Simulation time: 00 hr 01 min 44 sec)
Heartbeat CPU 0 instructions: 22000148 cycles: 6557534 heartbeat IPC: 4.502 cumulative IPC: 3.355 (Simulation time: 00 hr 01 min 45 sec)
Heartbeat CPU 0 instructions: 22500153 cycles: 6668587 heartbeat IPC: 4.502 cumulative IPC: 3.374 (Simulation time: 00 hr 01 min 47 sec)
Heartbeat CPU 0 instructions: 23000156 cycles: 6779642 heartbeat IPC: 4.502 cumulative IPC: 3.393 (Simulation time: 00 hr 01 min 48 sec)
Heartbeat CPU 0 instructions: 23500162 cycles: 6890699 heartbeat IPC: 4.502 cumulative IPC: 3.41 (Simulation time: 00 hr 01 min 50 sec)
Heartbeat CPU 0 instructions: 24000169 cycles: 7007265 heartbeat IPC: 4.289 cumulative IPC: 3.425 (Simulation time: 00 hr 01 min 52 sec)
Heartbeat CPU 0 instructions: 24500171 cycles: 7129726 heartbeat IPC: 4.083 cumulative IPC: 3.436 (Simulation time: 00 hr 01 min 54 sec)
Heartbeat CPU 0 instructions: 25000172 cycles: 7365715 heartbeat IPC: 2.119 cumulative IPC: 3.394 (Simulation time: 00 hr 01 min 58 sec)
Heartbeat CPU 0 instructions: 25500172 cycles: 7594041 heartbeat IPC: 2.19 cumulative IPC: 3.358 (Simulation time: 00 hr 02 min 02 sec)
Heartbeat CPU 0 instructions: 26000175 cycles: 7894423 heartbeat IPC: 1.665 cumulative IPC: 3.293 (Simulation time: 00 hr 02 min 07 sec)
Heartbeat CPU 0 instructions: 26500181 cycles: 8148134 heartbeat IPC: 1.971 cumulative IPC: 3.252 (Simulation time: 00 hr 02 min 12 sec)
Heartbeat CPU 0 instructions: 27000188 cycles: 8328097 heartbeat IPC: 2.778 cumulative IPC: 3.242 (Simulation time: 00 hr 02 min 15 sec)
Heartbeat CPU 0 instructions: 27500191 cycles: 8439160 heartbeat IPC: 4.502 cumulative IPC: 3.259 (Simulation time: 00 hr 02 min 16 sec)
Heartbeat CPU 0 instructions: 28000197 cycles: 8550241 heartbeat IPC: 4.501 cumulative IPC: 3.275 (Simulation time: 00 hr 02 min 18 sec)
Heartbeat CPU 0 instructions: 28500200 cycles: 8661300 heartbeat IPC: 4.502 cumulative IPC: 3.291 (Simulation time: 00 hr 02 min 19 sec)
Heartbeat CPU 0 instructions: 29000206 cycles: 8772361 heartbeat IPC: 4.502 cumulative IPC: 3.306 (Simulation time: 00 hr 02 min 21 sec)
Heartbeat CPU 0 instructions: 29500208 cycles: 8883429 heartbeat IPC: 4.502 cumulative IPC: 3.321 (Simulation time: 00 hr 02 min 23 sec)
Heartbeat CPU 0 instructions: 30000214 cycles: 8994491 heartbeat IPC: 4.502 cumulative IPC: 3.335 (Simulation time: 00 hr 02 min 24 sec)
Heartbeat CPU 0 instructions: 30500217 cycles: 9105564 heartbeat IPC: 4.502 cumulative IPC: 3.35 (Simulation time: 00 hr 02 min 26 sec)
Heartbeat CPU 0 instructions: 31000223 cycles: 9216623 heartbeat IPC: 4.502 cumulative IPC: 3.364 (Simulation time: 00 hr 02 min 27 sec)
Heartbeat CPU 0 instructions: 31500225 cycles: 9327684 heartbeat IPC: 4.502 cumulative IPC: 3.377 (Simulation time: 00 hr 02 min 29 sec)
Heartbeat CPU 0 instructions: 32000231 cycles: 9438787 heartbeat IPC: 4.5 cumulative IPC: 3.39 (Simulation time: 00 hr 02 min 30 sec)
Heartbeat CPU 0 instructions: 32500234 cycles: 9549997 heartbeat IPC: 4.496 cumulative IPC: 3.403 (Simulation time: 00 hr 02 min 32 sec)
Heartbeat CPU 0 instructions: 33000240 cycles: 9661057 heartbeat IPC: 4.502 cumulative IPC: 3.416 (Simulation time: 00 hr 02 min 33 sec)
Heartbeat CPU 0 instructions: 33500243 cycles: 9772120 heartbeat IPC: 4.502 cumulative IPC: 3.428 (Simulation time: 00 hr 02 min 35 sec)
Heartbeat CPU 0 instructions: 34000245 cycles: 9883206 heartbeat IPC: 4.501 cumulative IPC: 3.44 (Simulation time: 00 hr 02 min 36 sec)
Heartbeat CPU 0 instructions: 34500251 cycles: 9994266 heartbeat IPC: 4.502 cumulative IPC: 3.452 (Simulation time: 00 hr 02 min 38 sec)
Heartbeat CPU 0 instructions: 35000255 cycles: 10105336 heartbeat IPC: 4.502 cumulative IPC: 3.464 (Simulation time: 00 hr 02 min 39 sec)
Heartbeat CPU 0 instructions: 35500260 cycles: 10216396 heartbeat IPC: 4.502 cumulative IPC: 3.475 (Simulation time: 00 hr 02 min 41 sec)
Heartbeat CPU 0 instructions: 36000262 cycles: 10331848 heartbeat IPC: 4.331 cumulative IPC: 3.484 (Simulation time: 00 hr 02 min 43 sec)
Heartbeat CPU 0 instructions: 36500267 cycles: 10442479 heartbeat IPC: 4.52 cumulative IPC: 3.495 (Simulation time: 00 hr 02 min 45 sec)
Heartbeat CPU 0 instructions: 37000273 cycles: 10680254 heartbeat IPC: 2.103 cumulative IPC: 3.464 (Simulation time: 00 hr 02 min 49 sec)
Heartbeat CPU 0 instructions: 37500275 cycles: 10920755 heartbeat IPC: 2.079 cumulative IPC: 3.434 (Simulation time: 00 hr 02 min 53 sec)
Heartbeat CPU 0 instructions: 38000278 cycles: 11203998 heartbeat IPC: 1.765 cumulative IPC: 3.392 (Simulation time: 00 hr 02 min 58 sec)
Heartbeat CPU 0 instructions: 38500285 cycles: 11462507 heartbeat IPC: 1.934 cumulative IPC: 3.359 (Simulation time: 00 hr 03 min 03 sec)
Heartbeat CPU 0 instructions: 39000291 cycles: 11653927 heartbeat IPC: 2.612 cumulative IPC: 3.347 (Simulation time: 00 hr 03 min 06 sec)
Heartbeat CPU 0 instructions: 39500293 cycles: 11764999 heartbeat IPC: 4.502 cumulative IPC: 3.357 (Simulation time: 00 hr 03 min 08 sec)
Heartbeat CPU 0 instructions: 40000293 cycles: 11876073 heartbeat IPC: 4.502 cumulative IPC: 3.368 (Simulation time: 00 hr 03 min 09 sec)
Heartbeat CPU 0 instructions: 40500294 cycles: 11987145 heartbeat IPC: 4.502 cumulative IPC: 3.379 (Simulation time: 00 hr 03 min 11 sec)
Heartbeat CPU 0 instructions: 41000297 cycles: 12098211 heartbeat IPC: 4.502 cumulative IPC: 3.389 (Simulation time: 00 hr 03 min 12 sec)
Heartbeat CPU 0 instructions: 41500299 cycles: 12209280 heartbeat IPC: 4.502 cumulative IPC: 3.399 (Simulation time: 00 hr 03 min 14 sec)
Heartbeat CPU 0 instructions: 42000305 cycles: 12320403 heartbeat IPC: 4.5 cumulative IPC: 3.409 (Simulation time: 00 hr 03 min 15 sec)
Heartbeat CPU 0 instructions: 42500308 cycles: 12431413 heartbeat IPC: 4.504 cumulative IPC: 3.419 (Simulation time: 00 hr 03 min 17 sec)
Heartbeat CPU 0 instructions: 43000311 cycles: 12542469 heartbeat IPC: 4.502 cumulative IPC: 3.428 (Simulation time: 00 hr 03 min 18 sec)
Heartbeat CPU 0 instructions: 43500318 cycles: 12653536 heartbeat IPC: 4.502 cumulative IPC: 3.438 (Simulation time: 00 hr 03 min 20 sec)
Heartbeat CPU 0 instructions: 44000319 cycles: 12764592 heartbeat IPC: 4.502 cumulative IPC: 3.447 (Simulation time: 00 hr 03 min 21 sec)
Heartbeat CPU 0 instructions: 44500322 cycles: 12875648 heartbeat IPC: 4.502 cumulative IPC: 3.456 (Simulation time: 00 hr 03 min 23 sec)
Heartbeat CPU 0 instructions: 45000328 cycles: 12986717 heartbeat IPC: 4.502 cumulative IPC: 3.465 (Simulation time: 00 hr 03 min 25 sec)
Heartbeat CPU 0 instructions: 45500331 cycles: 13097777 heartbeat IPC: 4.502 cumulative IPC: 3.474 (Simulation time: 00 hr 03 min 26 sec)
Heartbeat CPU 0 instructions: 46000333 cycles: 13208857 heartbeat IPC: 4.501 cumulative IPC: 3.483 (Simulation time: 00 hr 03 min 28 sec)
Heartbeat CPU 0 instructions: 46500339 cycles: 13319919 heartbeat IPC: 4.502 cumulative IPC: 3.491 (Simulation time: 00 hr 03 min 29 sec)
Heartbeat CPU 0 instructions: 47000342 cycles: 13430996 heartbeat IPC: 4.501 cumulative IPC: 3.499 (Simulation time: 00 hr 03 min 31 sec)
Heartbeat CPU 0 instructions: 47500348 cycles: 13542071 heartbeat IPC: 4.502 cumulative IPC: 3.508 (Simulation time: 00 hr 03 min 32 sec)
Heartbeat CPU 0 instructions: 48000348 cycles: 13656784 heartbeat IPC: 4.359 cumulative IPC: 3.515 (Simulation time: 00 hr 03 min 34 sec)
Heartbeat CPU 0 instructions: 48500354 cycles: 13769342 heartbeat IPC: 4.442 cumulative IPC: 3.522 (Simulation time: 00 hr 03 min 36 sec)
Heartbeat CPU 0 instructions: 49000357 cycles: 13991707 heartbeat IPC: 2.249 cumulative IPC: 3.502 (Simulation time: 00 hr 03 min 40 sec)
Heartbeat CPU 0 instructions: 49500357 cycles: 14230994 heartbeat IPC: 2.09 cumulative IPC: 3.478 (Simulation time: 00 hr 03 min 44 sec)
Warmup halting CPU 0 at instruction 50000004 cycle 14505987 for remainder of phase
Warmup finished CPU 0 instructions: 50000004 cycles: 14505987 cumulative IPC: 3.447 (Simulation time: 00 hr 03 min 49 sec)
Warmup complete CPU 0 instructions: 50000004 cycles: 14505987 cumulative IPC: 3.447 (Simulation time: 00 hr 03 min 49 sec)
Heartbeat CPU 0 instructions: 50000361 cycles: 14506512 heartbeat IPC: 1.815 cumulative IPC: 0.68 (Simulation time: 00 hr 03 min 49 sec)
Heartbeat CPU 0 instructions: 50500362 cycles: 15210697 heartbeat IPC: 0.71 cumulative IPC: 0.71 (Simulation time: 00 hr 03 min 57 sec)
Heartbeat CPU 0 instructions: 51000369 cycles: 15731738 heartbeat IPC: 0.9596 cumulative IPC: 0.8161 (Simulation time: 00 hr 04 min 03 sec)
Heartbeat CPU 0 instructions: 51500371 cycles: 15854241 heartbeat IPC: 4.082 cumulative IPC: 1.113 (Simulation time: 00 hr 04 min 06 sec)
Heartbeat CPU 0 instructions: 52000371 cycles: 15978785 heartbeat IPC: 4.015 cumulative IPC: 1.358 (Simulation time: 00 hr 04 min 08 sec)
Heartbeat CPU 0 instructions: 52500374 cycles: 16104388 heartbeat IPC: 3.981 cumulative IPC: 1.564 (Simulation time: 00 hr 04 min 10 sec)
Heartbeat CPU 0 instructions: 53000376 cycles: 16224500 heartbeat IPC: 4.163 cumulative IPC: 1.746 (Simulation time: 00 hr 04 min 12 sec)
Heartbeat CPU 0 instructions: 53500377 cycles: 16347436 heartbeat IPC: 4.067 cumulative IPC: 1.901 (Simulation time: 00 hr 04 min 15 sec)
Heartbeat CPU 0 instructions: 54000380 cycles: 16478472 heartbeat IPC: 3.816 cumulative IPC: 2.028 (Simulation time: 00 hr 04 min 17 sec)
Heartbeat CPU 0 instructions: 54500380 cycles: 16599691 heartbeat IPC: 4.125 cumulative IPC: 2.149 (Simulation time: 00 hr 04 min 19 sec)
Heartbeat CPU 0 instructions: 55000380 cycles: 16721509 heartbeat IPC: 4.104 cumulative IPC: 2.257 (Simulation time: 00 hr 04 min 22 sec)
Heartbeat CPU 0 instructions: 55500380 cycles: 16842825 heartbeat IPC: 4.121 cumulative IPC: 2.354 (Simulation time: 00 hr 04 min 24 sec)
Heartbeat CPU 0 instructions: 56000383 cycles: 16965515 heartbeat IPC: 4.075 cumulative IPC: 2.44 (Simulation time: 00 hr 04 min 26 sec)
Heartbeat CPU 0 instructions: 56500384 cycles: 17086517 heartbeat IPC: 4.132 cumulative IPC: 2.519 (Simulation time: 00 hr 04 min 28 sec)
Heartbeat CPU 0 instructions: 57000390 cycles: 17215430 heartbeat IPC: 3.879 cumulative IPC: 2.584 (Simulation time: 00 hr 04 min 31 sec)
Heartbeat CPU 0 instructions: 57500391 cycles: 17335716 heartbeat IPC: 4.157 cumulative IPC: 2.651 (Simulation time: 00 hr 04 min 33 sec)
Heartbeat CPU 0 instructions: 58000395 cycles: 17457515 heartbeat IPC: 4.105 cumulative IPC: 2.711 (Simulation time: 00 hr 04 min 35 sec)
Heartbeat CPU 0 instructions: 58500401 cycles: 17577054 heartbeat IPC: 4.183 cumulative IPC: 2.768 (Simulation time: 00 hr 04 min 37 sec)
Heartbeat CPU 0 instructions: 59000404 cycles: 17697316 heartbeat IPC: 4.158 cumulative IPC: 2.82 (Simulation time: 00 hr 04 min 40 sec)
Heartbeat CPU 0 instructions: 59500410 cycles: 17816742 heartbeat IPC: 4.187 cumulative IPC: 2.87 (Simulation time: 00 hr 04 min 42 sec)
Heartbeat CPU 0 instructions: 60000412 cycles: 18000282 heartbeat IPC: 2.724 cumulative IPC: 2.862 (Simulation time: 00 hr 04 min 45 sec)
Heartbeat CPU 0 instructions: 60500416 cycles: 18576146 heartbeat IPC: 0.8683 cumulative IPC: 2.58 (Simulation time: 00 hr 04 min 52 sec)
Heartbeat CPU 0 instructions: 61000423 cycles: 19193574 heartbeat IPC: 0.8098 cumulative IPC: 2.347 (Simulation time: 00 hr 04 min 59 sec)
Heartbeat CPU 0 instructions: 61500428 cycles: 19918136 heartbeat IPC: 0.6901 cumulative IPC: 2.125 (Simulation time: 00 hr 05 min 08 sec)
Heartbeat CPU 0 instructions: 62000433 cycles: 20659741 heartbeat IPC: 0.6742 cumulative IPC: 1.95 (Simulation time: 00 hr 05 min 16 sec)
Heartbeat CPU 0 instructions: 62500433 cycles: 21380798 heartbeat IPC: 0.6934 cumulative IPC: 1.818 (Simulation time: 00 hr 05 min 25 sec)
Heartbeat CPU 0 instructions: 63000439 cycles: 21958650 heartbeat IPC: 0.8653 cumulative IPC: 1.744 (Simulation time: 00 hr 05 min 31 sec)
Heartbeat CPU 0 instructions: 63500440 cycles: 22090024 heartbeat IPC: 3.806 cumulative IPC: 1.78 (Simulation time: 00 hr 05 min 34 sec)
Heartbeat CPU 0 instructions: 64000445 cycles: 22223334 heartbeat IPC: 3.751 cumulative IPC: 1.814 (Simulation time: 00 hr 05 min 36 sec)
Heartbeat CPU 0 instructions: 64500448 cycles: 22354572 heartbeat IPC: 3.81 cumulative IPC: 1.848 (Simulation time: 00 hr 05 min 39 sec)
Heartbeat CPU 0 instructions: 65000451 cycles: 22487759 heartbeat IPC: 3.754 cumulative IPC: 1.879 (Simulation time: 00 hr 05 min 41 sec)
Heartbeat CPU 0 instructions: 65500457 cycles: 22617142 heartbeat IPC: 3.865 cumulative IPC: 1.911 (Simulation time: 00 hr 05 min 44 sec)
Heartbeat CPU 0 instructions: 66000457 cycles: 22756429 heartbeat IPC: 3.59 cumulative IPC: 1.939 (Simulation time: 00 hr 05 min 46 sec)
Heartbeat CPU 0 instructions: 66500463 cycles: 22883243 heartbeat IPC: 3.943 cumulative IPC: 1.97 (Simulation time: 00 hr 05 min 49 sec)
Heartbeat CPU 0 instructions: 67000464 cycles: 23011312 heartbeat IPC: 3.904 cumulative IPC: 1.999 (Simulation time: 00 hr 05 min 51 sec)
Heartbeat CPU 0 instructions: 67500466 cycles: 23137758 heartbeat IPC: 3.954 cumulative IPC: 2.027 (Simulation time: 00 hr 05 min 53 sec)
Heartbeat CPU 0 instructions: 68000472 cycles: 23264995 heartbeat IPC: 3.93 cumulative IPC: 2.055 (Simulation time: 00 hr 05 min 56 sec)
Heartbeat CPU 0 instructions: 68500474 cycles: 23394735 heartbeat IPC: 3.854 cumulative IPC: 2.081 (Simulation time: 00 hr 05 min 58 sec)
Heartbeat CPU 0 instructions: 69000474 cycles: 23535187 heartbeat IPC: 3.56 cumulative IPC: 2.104 (Simulation time: 00 hr 06 min 01 sec)
Heartbeat CPU 0 instructions: 69500475 cycles: 23662607 heartbeat IPC: 3.924 cumulative IPC: 2.13 (Simulation time: 00 hr 06 min 03 sec)
Heartbeat CPU 0 instructions: 70000480 cycles: 23789824 heartbeat IPC: 3.93 cumulative IPC: 2.154 (Simulation time: 00 hr 06 min 05 sec)
Heartbeat CPU 0 instructions: 70500487 cycles: 23917576 heartbeat IPC: 3.914 cumulative IPC: 2.178 (Simulation time: 00 hr 06 min 08 sec)
Heartbeat CPU 0 instructions: 71000494 cycles: 24045763 heartbeat IPC: 3.901 cumulative IPC: 2.201 (Simulation time: 00 hr 06 min 10 sec)
Heartbeat CPU 0 instructions: 71500494 cycles: 24173699 heartbeat IPC: 3.908 cumulative IPC: 2.224 (Simulation time: 00 hr 06 min 13 sec)
Heartbeat CPU 0 instructions: 72000500 cycles: 24340739 heartbeat IPC: 2.993 cumulative IPC: 2.237 (Simulation time: 00 hr 06 min 16 sec)
Heartbeat CPU 0 instructions: 72500504 cycles: 24918419 heartbeat IPC: 0.8655 cumulative IPC: 2.161 (Simulation time: 00 hr 06 min 23 sec)
Heartbeat CPU 0 instructions: 73000504 cycles: 25511357 heartbeat IPC: 0.8433 cumulative IPC: 2.09 (Simulation time: 00 hr 06 min 30 sec)
Heartbeat CPU 0 instructions: 73500506 cycles: 26236540 heartbeat IPC: 0.6895 cumulative IPC: 2.003 (Simulation time: 00 hr 06 min 39 sec)
Heartbeat CPU 0 instructions: 74000510 cycles: 26975960 heartbeat IPC: 0.6762 cumulative IPC: 1.925 (Simulation time: 00 hr 06 min 48 sec)
Heartbeat CPU 0 instructions: 74500511 cycles: 27705525 heartbeat IPC: 0.6853 cumulative IPC: 1.856 (Simulation time: 00 hr 06 min 56 sec)
Heartbeat CPU 0 instructions: 75000513 cycles: 28334551 heartbeat IPC: 0.7949 cumulative IPC: 1.808 (Simulation time: 00 hr 07 min 03 sec)
Heartbeat CPU 0 instructions: 75500514 cycles: 28469305 heartbeat IPC: 3.71 cumulative IPC: 1.826 (Simulation time: 00 hr 07 min 06 sec)
Heartbeat CPU 0 instructions: 76000519 cycles: 28602744 heartbeat IPC: 3.747 cumulative IPC: 1.844 (Simulation time: 00 hr 07 min 08 sec)
Heartbeat CPU 0 instructions: 76500522 cycles: 28732354 heartbeat IPC: 3.858 cumulative IPC: 1.863 (Simulation time: 00 hr 07 min 11 sec)
Heartbeat CPU 0 instructions: 77000524 cycles: 28863071 heartbeat IPC: 3.825 cumulative IPC: 1.881 (Simulation time: 00 hr 07 min 13 sec)
Heartbeat CPU 0 instructions: 77500526 cycles: 28991212 heartbeat IPC: 3.902 cumulative IPC: 1.899 (Simulation time: 00 hr 07 min 16 sec)
Heartbeat CPU 0 instructions: 78000526 cycles: 29130924 heartbeat IPC: 3.579 cumulative IPC: 1.915 (Simulation time: 00 hr 07 min 18 sec)
Heartbeat CPU 0 instructions: 78500528 cycles: 29259959 heartbeat IPC: 3.875 cumulative IPC: 1.932 (Simulation time: 00 hr 07 min 21 sec)
Heartbeat CPU 0 instructions: 79000529 cycles: 29388834 heartbeat IPC: 3.88 cumulative IPC: 1.949 (Simulation time: 00 hr 07 min 23 sec)
Heartbeat CPU 0 instructions: 79500529 cycles: 29516811 heartbeat IPC: 3.907 cumulative IPC: 1.965 (Simulation time: 00 hr 07 min 26 sec)
Heartbeat CPU 0 instructions: 80000532 cycles: 29644779 heartbeat IPC: 3.907 cumulative IPC: 1.982 (Simulation time: 00 hr 07 min 28 sec)
Heartbeat CPU 0 instructions: 80500533 cycles: 29773141 heartbeat IPC: 3.895 cumulative IPC: 1.998 (Simulation time: 00 hr 07 min 30 sec)
Heartbeat CPU 0 instructions: 81000537 cycles: 29912510 heartbeat IPC: 3.588 cumulative IPC: 2.012 (Simulation time: 00 hr 07 min 33 sec)
Heartbeat CPU 0 instructions: 81500540 cycles: 30039665 heartbeat IPC: 3.932 cumulative IPC: 2.028 (Simulation time: 00 hr 07 min 35 sec)
Heartbeat CPU 0 instructions: 82000547 cycles: 30167168 heartbeat IPC: 3.922 cumulative IPC: 2.043 (Simulation time: 00 hr 07 min 38 sec)
Heartbeat CPU 0 instructions: 82500549 cycles: 30294687 heartbeat IPC: 3.921 cumulative IPC: 2.058 (Simulation time: 00 hr 07 min 40 sec)
Heartbeat CPU 0 instructions: 83000555 cycles: 30426483 heartbeat IPC: 3.794 cumulative IPC: 2.073 (Simulation time: 00 hr 07 min 43 sec)
Heartbeat CPU 0 instructions: 83500557 cycles: 30556839 heartbeat IPC: 3.836 cumulative IPC: 2.087 (Simulation time: 00 hr 07 min 45 sec)
Heartbeat CPU 0 instructions: 84000557 cycles: 30691479 heartbeat IPC: 3.714 cumulative IPC: 2.101 (Simulation time: 00 hr 07 min 48 sec)
Heartbeat CPU 0 instructions: 84500564 cycles: 31272315 heartbeat IPC: 0.8608 cumulative IPC: 2.058 (Simulation time: 00 hr 07 min 55 sec)
Heartbeat CPU 0 instructions: 85000566 cycles: 31847887 heartbeat IPC: 0.8687 cumulative IPC: 2.018 (Simulation time: 00 hr 08 min 02 sec)
Heartbeat CPU 0 instructions: 85500568 cycles: 32584700 heartbeat IPC: 0.6786 cumulative IPC: 1.964 (Simulation time: 00 hr 08 min 11 sec)
Heartbeat CPU 0 instructions: 86000575 cycles: 33320138 heartbeat IPC: 0.6799 cumulative IPC: 1.913 (Simulation time: 00 hr 08 min 20 sec)
Heartbeat CPU 0 instructions: 86500579 cycles: 34061947 heartbeat IPC: 0.674 cumulative IPC: 1.866 (Simulation time: 00 hr 08 min 29 sec)
Heartbeat CPU 0 instructions: 87000583 cycles: 34743226 heartbeat IPC: 0.7339 cumulative IPC: 1.828 (Simulation time: 00 hr 08 min 37 sec)
Heartbeat CPU 0 instructions: 87500589 cycles: 34878751 heartbeat IPC: 3.689 cumulative IPC: 1.841 (Simulation time: 00 hr 08 min 40 sec)
Heartbeat CPU 0 instructions: 88000591 cycles: 35008859 heartbeat IPC: 3.843 cumulative IPC: 1.853 (Simulation time: 00 hr 08 min 42 sec)
Heartbeat CPU 0 instructions: 88500593 cycles: 35140449 heartbeat IPC: 3.8 cumulative IPC: 1.866 (Simulation time: 00 hr 08 min 45 sec)
Heartbeat CPU 0 instructions: 89000593 cycles: 35271304 heartbeat IPC: 3.821 cumulative IPC: 1.878 (Simulation time: 00 hr 08 min 47 sec)
Heartbeat CPU 0 instructions: 89500599 cycles: 35401837 heartbeat IPC: 3.83 cumulative IPC: 1.89 (Simulation time: 00 hr 08 min 49 sec)
Heartbeat CPU 0 instructions: 90000602 cycles: 35544413 heartbeat IPC: 3.507 cumulative IPC: 1.901 (Simulation time: 00 hr 08 min 52 sec)
Heartbeat CPU 0 instructions: 90500606 cycles: 35671867 heartbeat IPC: 3.923 cumulative IPC: 1.913 (Simulation time: 00 hr 08 min 54 sec)
Heartbeat CPU 0 instructions: 91000607 cycles: 35798718 heartbeat IPC: 3.942 cumulative IPC: 1.926 (Simulation time: 00 hr 08 min 57 sec)
Heartbeat CPU 0 instructions: 91500613 cycles: 35927692 heartbeat IPC: 3.877 cumulative IPC: 1.937 (Simulation time: 00 hr 08 min 59 sec)
Heartbeat CPU 0 instructions: 92000619 cycles: 36053661 heartbeat IPC: 3.969 cumulative IPC: 1.949 (Simulation time: 00 hr 09 min 02 sec)
Heartbeat CPU 0 instructions: 92500619 cycles: 36181973 heartbeat IPC: 3.897 cumulative IPC: 1.961 (Simulation time: 00 hr 09 min 04 sec)
Heartbeat CPU 0 instructions: 93000620 cycles: 36319979 heartbeat IPC: 3.623 cumulative IPC: 1.971 (Simulation time: 00 hr 09 min 07 sec)
Heartbeat CPU 0 instructions: 93500627 cycles: 36447245 heartbeat IPC: 3.929 cumulative IPC: 1.983 (Simulation time: 00 hr 09 min 09 sec)
Heartbeat CPU 0 instructions: 94000628 cycles: 36574653 heartbeat IPC: 3.924 cumulative IPC: 1.994 (Simulation time: 00 hr 09 min 11 sec)
Heartbeat CPU 0 instructions: 94500629 cycles: 36707211 heartbeat IPC: 3.772 cumulative IPC: 2.004 (Simulation time: 00 hr 09 min 14 sec)
Heartbeat CPU 0 instructions: 95000633 cycles: 36834667 heartbeat IPC: 3.923 cumulative IPC: 2.015 (Simulation time: 00 hr 09 min 16 sec)
Heartbeat CPU 0 instructions: 95500633 cycles: 36961968 heartbeat IPC: 3.928 cumulative IPC: 2.026 (Simulation time: 00 hr 09 min 19 sec)
Heartbeat CPU 0 instructions: 96000639 cycles: 37099548 heartbeat IPC: 3.634 cumulative IPC: 2.036 (Simulation time: 00 hr 09 min 21 sec)
Heartbeat CPU 0 instructions: 96500641 cycles: 37592698 heartbeat IPC: 1.014 cumulative IPC: 2.014 (Simulation time: 00 hr 09 min 28 sec)
Heartbeat CPU 0 instructions: 97000644 cycles: 38166699 heartbeat IPC: 0.8711 cumulative IPC: 1.986 (Simulation time: 00 hr 09 min 35 sec)
Heartbeat CPU 0 instructions: 97500644 cycles: 38890408 heartbeat IPC: 0.6909 cumulative IPC: 1.948 (Simulation time: 00 hr 09 min 44 sec)
Heartbeat CPU 0 instructions: 98000649 cycles: 39628407 heartbeat IPC: 0.6775 cumulative IPC: 1.911 (Simulation time: 00 hr 09 min 53 sec)
Heartbeat CPU 0 instructions: 98500651 cycles: 40379861 heartbeat IPC: 0.6654 cumulative IPC: 1.875 (Simulation time: 00 hr 10 min 02 sec)
Heartbeat CPU 0 instructions: 99000656 cycles: 41044489 heartbeat IPC: 0.7523 cumulative IPC: 1.846 (Simulation time: 00 hr 10 min 10 sec)
Heartbeat CPU 0 instructions: 99500661 cycles: 41249995 heartbeat IPC: 2.433 cumulative IPC: 1.851 (Simulation time: 00 hr 10 min 13 sec)
Heartbeat CPU 0 instructions: 100000663 cycles: 41386799 heartbeat IPC: 3.655 cumulative IPC: 1.86 (Simulation time: 00 hr 10 min 16 sec)
Heartbeat CPU 0 instructions: 100500664 cycles: 41519587 heartbeat IPC: 3.765 cumulative IPC: 1.869 (Simulation time: 00 hr 10 min 18 sec)
Heartbeat CPU 0 instructions: 101000664 cycles: 41651487 heartbeat IPC: 3.791 cumulative IPC: 1.879 (Simulation time: 00 hr 10 min 21 sec)
Heartbeat CPU 0 instructions: 101500665 cycles: 41782443 heartbeat IPC: 3.818 cumulative IPC: 1.888 (Simulation time: 00 hr 10 min 23 sec)
Heartbeat CPU 0 instructions: 102000665 cycles: 41929016 heartbeat IPC: 3.411 cumulative IPC: 1.896 (Simulation time: 00 hr 10 min 26 sec)
Heartbeat CPU 0 instructions: 102500665 cycles: 42055144 heartbeat IPC: 3.964 cumulative IPC: 1.906 (Simulation time: 00 hr 10 min 28 sec)
Heartbeat CPU 0 instructions: 103000666 cycles: 42181151 heartbeat IPC: 3.968 cumulative IPC: 1.915 (Simulation time: 00 hr 10 min 31 sec)
Heartbeat CPU 0 instructions: 103500673 cycles: 42307406 heartbeat IPC: 3.96 cumulative IPC: 1.924 (Simulation time: 00 hr 10 min 33 sec)
Heartbeat CPU 0 instructions: 104000674 cycles: 42434399 heartbeat IPC: 3.937 cumulative IPC: 1.934 (Simulation time: 00 hr 10 min 36 sec)
Heartbeat CPU 0 instructions: 104500680 cycles: 42561656 heartbeat IPC: 3.929 cumulative IPC: 1.943 (Simulation time: 00 hr 10 min 38 sec)
Heartbeat CPU 0 instructions: 105000687 cycles: 42687805 heartbeat IPC: 3.964 cumulative IPC: 1.952 (Simulation time: 00 hr 10 min 40 sec)
Heartbeat CPU 0 instructions: 105500689 cycles: 42832033 heartbeat IPC: 3.467 cumulative IPC: 1.959 (Simulation time: 00 hr 10 min 43 sec)
Heartbeat CPU 0 instructions: 106000691 cycles: 42958366 heartbeat IPC: 3.958 cumulative IPC: 1.968 (Simulation time: 00 hr 10 min 45 sec)
Heartbeat CPU 0 instructions: 106500694 cycles: 43084359 heartbeat IPC: 3.968 cumulative IPC: 1.977 (Simulation time: 00 hr 10 min 48 sec)
Heartbeat CPU 0 instructions: 107000696 cycles: 43210069 heartbeat IPC: 3.977 cumulative IPC: 1.986 (Simulation time: 00 hr 10 min 50 sec)
Heartbeat CPU 0 instructions: 107500702 cycles: 43337909 heartbeat IPC: 3.911 cumulative IPC: 1.994 (Simulation time: 00 hr 10 min 53 sec)
Heartbeat CPU 0 instructions: 108000706 cycles: 43464253 heartbeat IPC: 3.957 cumulative IPC: 2.003 (Simulation time: 00 hr 10 min 55 sec)
Heartbeat CPU 0 instructions: 108500711 cycles: 43970676 heartbeat IPC: 0.9873 cumulative IPC: 1.985 (Simulation time: 00 hr 11 min 02 sec)
Heartbeat CPU 0 instructions: 109000711 cycles: 44560244 heartbeat IPC: 0.8481 cumulative IPC: 1.963 (Simulation time: 00 hr 11 min 09 sec)
Heartbeat CPU 0 instructions: 109500715 cycles: 45230420 heartbeat IPC: 0.7461 cumulative IPC: 1.937 (Simulation time: 00 hr 11 min 17 sec)
Heartbeat CPU 0 instructions: 110000719 cycles: 45942033 heartbeat IPC: 0.7026 cumulative IPC: 1.909 (Simulation time: 00 hr 11 min 26 sec)
Heartbeat CPU 0 instructions: 110500726 cycles: 46705853 heartbeat IPC: 0.6546 cumulative IPC: 1.879 (Simulation time: 00 hr 11 min 36 sec)
Heartbeat CPU 0 instructions: 111000726 cycles: 47362838 heartbeat IPC: 0.7611 cumulative IPC: 1.857 (Simulation time: 00 hr 11 min 43 sec)
Heartbeat CPU 0 instructions: 111500726 cycles: 47624280 heartbeat IPC: 1.912 cumulative IPC: 1.857 (Simulation time: 00 hr 11 min 47 sec)
Heartbeat CPU 0 instructions: 112000728 cycles: 47757315 heartbeat IPC: 3.758 cumulative IPC: 1.865 (Simulation time: 00 hr 11 min 49 sec)
Heartbeat CPU 0 instructions: 112500733 cycles: 47887247 heartbeat IPC: 3.848 cumulative IPC: 1.872 (Simulation time: 00 hr 11 min 52 sec)
Heartbeat CPU 0 instructions: 113000734 cycles: 48016527 heartbeat IPC: 3.868 cumulative IPC: 1.88 (Simulation time: 00 hr 11 min 54 sec)
Heartbeat CPU 0 instructions: 113500740 cycles: 48149739 heartbeat IPC: 3.753 cumulative IPC: 1.887 (Simulation time: 00 hr 11 min 57 sec)
Heartbeat CPU 0 instructions: 114000740 cycles: 48279581 heartbeat IPC: 3.851 cumulative IPC: 1.895 (Simulation time: 00 hr 11 min 59 sec)
Heartbeat CPU 0 instructions: 114500745 cycles: 48427125 heartbeat IPC: 3.389 cumulative IPC: 1.901 (Simulation time: 00 hr 12 min 02 sec)
Heartbeat CPU 0 instructions: 115000750 cycles: 48554051 heartbeat IPC: 3.939 cumulative IPC: 1.909 (Simulation time: 00 hr 12 min 04 sec)
Heartbeat CPU 0 instructions: 115500750 cycles: 48680970 heartbeat IPC: 3.94 cumulative IPC: 1.917 (Simulation time: 00 hr 12 min 07 sec)
Heartbeat CPU 0 instructions: 116000756 cycles: 48807882 heartbeat IPC: 3.94 cumulative IPC: 1.924 (Simulation time: 00 hr 12 min 09 sec)
Heartbeat CPU 0 instructions: 116500761 cycles: 48934404 heartbeat IPC: 3.952 cumulative IPC: 1.932 (Simulation time: 00 hr 12 min 12 sec)
Heartbeat CPU 0 instructions: 117000767 cycles: 49062894 heartbeat IPC: 3.891 cumulative IPC: 1.939 (Simulation time: 00 hr 12 min 14 sec)
Heartbeat CPU 0 instructions: 117500772 cycles: 49204264 heartbeat IPC: 3.537 cumulative IPC: 1.945 (Simulation time: 00 hr 12 min 17 sec)
Heartbeat CPU 0 instructions: 118000773 cycles: 49331881 heartbeat IPC: 3.918 cumulative IPC: 1.953 (Simulation time: 00 hr 12 min 19 sec)
Heartbeat CPU 0 instructions: 118500779 cycles: 49459244 heartbeat IPC: 3.926 cumulative IPC: 1.96 (Simulation time: 00 hr 12 min 22 sec)
Heartbeat CPU 0 instructions: 119000780 cycles: 49591150 heartbeat IPC: 3.791 cumulative IPC: 1.967 (Simulation time: 00 hr 12 min 24 sec)
Heartbeat CPU 0 instructions: 119500781 cycles: 49718821 heartbeat IPC: 3.916 cumulative IPC: 1.974 (Simulation time: 00 hr 12 min 27 sec)
Heartbeat CPU 0 instructions: 120000783 cycles: 49845777 heartbeat IPC: 3.938 cumulative IPC: 1.981 (Simulation time: 00 hr 12 min 29 sec)
Heartbeat CPU 0 instructions: 120500784 cycles: 50272759 heartbeat IPC: 1.171 cumulative IPC: 1.971 (Simulation time: 00 hr 12 min 35 sec)
Heartbeat CPU 0 instructions: 121000786 cycles: 50848503 heartbeat IPC: 0.8684 cumulative IPC: 1.954 (Simulation time: 00 hr 12 min 42 sec)
Heartbeat CPU 0 instructions: 121500789 cycles: 51533711 heartbeat IPC: 0.7297 cumulative IPC: 1.931 (Simulation time: 00 hr 12 min 50 sec)
Heartbeat CPU 0 instructions: 122000789 cycles: 52260629 heartbeat IPC: 0.6878 cumulative IPC: 1.907 (Simulation time: 00 hr 12 min 59 sec)
Heartbeat CPU 0 instructions: 122500791 cycles: 53042296 heartbeat IPC: 0.6397 cumulative IPC: 1.881 (Simulation time: 00 hr 13 min 09 sec)
Heartbeat CPU 0 instructions: 123000796 cycles: 53697938 heartbeat IPC: 0.7626 cumulative IPC: 1.863 (Simulation time: 00 hr 13 min 16 sec)
Heartbeat CPU 0 instructions: 123500803 cycles: 54007681 heartbeat IPC: 1.614 cumulative IPC: 1.861 (Simulation time: 00 hr 13 min 21 sec)
Heartbeat CPU 0 instructions: 124000803 cycles: 54140508 heartbeat IPC: 3.764 cumulative IPC: 1.867 (Simulation time: 00 hr 13 min 23 sec)
Heartbeat CPU 0 instructions: 124500804 cycles: 54271406 heartbeat IPC: 3.82 cumulative IPC: 1.874 (Simulation time: 00 hr 13 min 26 sec)
Heartbeat CPU 0 instructions: 125000807 cycles: 54405802 heartbeat IPC: 3.72 cumulative IPC: 1.88 (Simulation time: 00 hr 13 min 28 sec)
Heartbeat CPU 0 instructions: 125500807 cycles: 54534089 heartbeat IPC: 3.898 cumulative IPC: 1.886 (Simulation time: 00 hr 13 min 31 sec)
Heartbeat CPU 0 instructions: 126000807 cycles: 54664102 heartbeat IPC: 3.846 cumulative IPC: 1.893 (Simulation time: 00 hr 13 min 33 sec)
Heartbeat CPU 0 instructions: 126500813 cycles: 54804639 heartbeat IPC: 3.558 cumulative IPC: 1.898 (Simulation time: 00 hr 13 min 36 sec)
Heartbeat CPU 0 instructions: 127000816 cycles: 54932432 heartbeat IPC: 3.913 cumulative IPC: 1.905 (Simulation time: 00 hr 13 min 38 sec)
Heartbeat CPU 0 instructions: 127500821 cycles: 55061296 heartbeat IPC: 3.88 cumulative IPC: 1.911 (Simulation time: 00 hr 13 min 41 sec)
Heartbeat CPU 0 instructions: 128000827 cycles: 55192018 heartbeat IPC: 3.825 cumulative IPC: 1.917 (Simulation time: 00 hr 13 min 43 sec)
Heartbeat CPU 0 instructions: 128500827 cycles: 55317892 heartbeat IPC: 3.972 cumulative IPC: 1.923 (Simulation time: 00 hr 13 min 46 sec)
Heartbeat CPU 0 instructions: 129000831 cycles: 55445348 heartbeat IPC: 3.923 cumulative IPC: 1.93 (Simulation time: 00 hr 13 min 48 sec)
Heartbeat CPU 0 instructions: 129500831 cycles: 55584098 heartbeat IPC: 3.604 cumulative IPC: 1.935 (Simulation time: 00 hr 13 min 51 sec)
Heartbeat CPU 0 instructions: 130000834 cycles: 55711722 heartbeat IPC: 3.918 cumulative IPC: 1.941 (Simulation time: 00 hr 13 min 53 sec)
Heartbeat CPU 0 instructions: 130500835 cycles: 55839902 heartbeat IPC: 3.901 cumulative IPC: 1.948 (Simulation time: 00 hr 13 min 55 sec)
Heartbeat CPU 0 instructions: 131000842 cycles: 55966851 heartbeat IPC: 3.939 cumulative IPC: 1.954 (Simulation time: 00 hr 13 min 58 sec)
Heartbeat CPU 0 instructions: 131500845 cycles: 56095498 heartbeat IPC: 3.887 cumulative IPC: 1.96 (Simulation time: 00 hr 14 min 00 sec)
Heartbeat CPU 0 instructions: 132000846 cycles: 56221701 heartbeat IPC: 3.962 cumulative IPC: 1.966 (Simulation time: 00 hr 14 min 03 sec)
Heartbeat CPU 0 instructions: 132500851 cycles: 56602827 heartbeat IPC: 1.312 cumulative IPC: 1.96 (Simulation time: 00 hr 14 min 08 sec)
Heartbeat CPU 0 instructions: 133000851 cycles: 57181540 heartbeat IPC: 0.864 cumulative IPC: 1.945 (Simulation time: 00 hr 14 min 15 sec)
Heartbeat CPU 0 instructions: 133500852 cycles: 57834303 heartbeat IPC: 0.766 cumulative IPC: 1.927 (Simulation time: 00 hr 14 min 23 sec)
Heartbeat CPU 0 instructions: 134000852 cycles: 58544927 heartbeat IPC: 0.7036 cumulative IPC: 1.907 (Simulation time: 00 hr 14 min 32 sec)
Heartbeat CPU 0 instructions: 134500858 cycles: 59325717 heartbeat IPC: 0.6404 cumulative IPC: 1.885 (Simulation time: 00 hr 14 min 42 sec)
Heartbeat CPU 0 instructions: 135000861 cycles: 59990835 heartbeat IPC: 0.7518 cumulative IPC: 1.869 (Simulation time: 00 hr 14 min 50 sec)
Heartbeat CPU 0 instructions: 135500861 cycles: 60352790 heartbeat IPC: 1.381 cumulative IPC: 1.865 (Simulation time: 00 hr 14 min 54 sec)
Heartbeat CPU 0 instructions: 136000864 cycles: 60482603 heartbeat IPC: 3.852 cumulative IPC: 1.871 (Simulation time: 00 hr 14 min 57 sec)
Heartbeat CPU 0 instructions: 136500869 cycles: 60615357 heartbeat IPC: 3.766 cumulative IPC: 1.876 (Simulation time: 00 hr 14 min 59 sec)
Heartbeat CPU 0 instructions: 137000876 cycles: 60746702 heartbeat IPC: 3.807 cumulative IPC: 1.881 (Simulation time: 00 hr 15 min 02 sec)
Heartbeat CPU 0 instructions: 137500880 cycles: 60876341 heartbeat IPC: 3.857 cumulative IPC: 1.887 (Simulation time: 00 hr 15 min 04 sec)
Heartbeat CPU 0 instructions: 138000882 cycles: 61007943 heartbeat IPC: 3.799 cumulative IPC: 1.892 (Simulation time: 00 hr 15 min 07 sec)
Heartbeat CPU 0 instructions: 138500888 cycles: 61153138 heartbeat IPC: 3.444 cumulative IPC: 1.897 (Simulation time: 00 hr 15 min 10 sec)
Heartbeat CPU 0 instructions: 139000890 cycles: 61279812 heartbeat IPC: 3.947 cumulative IPC: 1.903 (Simulation time: 00 hr 15 min 12 sec)
Heartbeat CPU 0 instructions: 139500890 cycles: 61406176 heartbeat IPC: 3.957 cumulative IPC: 1.908 (Simulation time: 00 hr 15 min 14 sec)
Heartbeat CPU 0 instructions: 140000892 cycles: 61532982 heartbeat IPC: 3.943 cumulative IPC: 1.914 (Simulation time: 00 hr 15 min 17 sec)
Heartbeat CPU 0 instructions: 140500892 cycles: 61659392 heartbeat IPC: 3.955 cumulative IPC: 1.919 (Simulation time: 00 hr 15 min 19 sec)
Heartbeat CPU 0 instructions: 141000893 cycles: 61787131 heartbeat IPC: 3.914 cumulative IPC: 1.925 (Simulation time: 00 hr 15 min 22 sec)
Heartbeat CPU 0 instructions: 141500897 cycles: 61930841 heartbeat IPC: 3.479 cumulative IPC: 1.929 (Simulation time: 00 hr 15 min 24 sec)
Heartbeat CPU 0 instructions: 142000904 cycles: 62056615 heartbeat IPC: 3.975 cumulative IPC: 1.935 (Simulation time: 00 hr 15 min 27 sec)
Heartbeat CPU 0 instructions: 142500907 cycles: 62184246 heartbeat IPC: 3.918 cumulative IPC: 1.94 (Simulation time: 00 hr 15 min 29 sec)
Heartbeat CPU 0 instructions: 143000907 cycles: 62310684 heartbeat IPC: 3.955 cumulative IPC: 1.945 (Simulation time: 00 hr 15 min 32 sec)
Heartbeat CPU 0 instructions: 143500913 cycles: 62437712 heartbeat IPC: 3.936 cumulative IPC: 1.951 (Simulation time: 00 hr 15 min 34 sec)
Heartbeat CPU 0 instructions: 144000919 cycles: 62564073 heartbeat IPC: 3.957 cumulative IPC: 1.956 (Simulation time: 00 hr 15 min 37 sec)
Heartbeat CPU 0 instructions: 144500919 cycles: 62894909 heartbeat IPC: 1.511 cumulative IPC: 1.953 (Simulation time: 00 hr 15 min 42 sec)
Heartbeat CPU 0 instructions: 145000923 cycles: 63452474 heartbeat IPC: 0.8968 cumulative IPC: 1.941 (Simulation time: 00 hr 15 min 49 sec)
Heartbeat CPU 0 instructions: 145500930 cycles: 64094381 heartbeat IPC: 0.7789 cumulative IPC: 1.926 (Simulation time: 00 hr 15 min 56 sec)
Heartbeat CPU 0 instructions: 146000931 cycles: 64771254 heartbeat IPC: 0.7387 cumulative IPC: 1.91 (Simulation time: 00 hr 16 min 05 sec)
Heartbeat CPU 0 instructions: 146500936 cycles: 65544022 heartbeat IPC: 0.647 cumulative IPC: 1.891 (Simulation time: 00 hr 16 min 14 sec)
Heartbeat CPU 0 instructions: 147000941 cycles: 66219166 heartbeat IPC: 0.7406 cumulative IPC: 1.876 (Simulation time: 00 hr 16 min 22 sec)
Heartbeat CPU 0 instructions: 147500942 cycles: 66628538 heartbeat IPC: 1.221 cumulative IPC: 1.871 (Simulation time: 00 hr 16 min 27 sec)
Heartbeat CPU 0 instructions: 148000946 cycles: 66759617 heartbeat IPC: 3.815 cumulative IPC: 1.875 (Simulation time: 00 hr 16 min 30 sec)
Heartbeat CPU 0 instructions: 148500948 cycles: 66893181 heartbeat IPC: 3.744 cumulative IPC: 1.88 (Simulation time: 00 hr 16 min 33 sec)
Heartbeat CPU 0 instructions: 149000955 cycles: 67021102 heartbeat IPC: 3.909 cumulative IPC: 1.885 (Simulation time: 00 hr 16 min 35 sec)
Heartbeat CPU 0 instructions: 149500955 cycles: 67150426 heartbeat IPC: 3.866 cumulative IPC: 1.89 (Simulation time: 00 hr 16 min 37 sec)
Heartbeat CPU 0 instructions: 150000957 cycles: 67279505 heartbeat IPC: 3.874 cumulative IPC: 1.895 (Simulation time: 00 hr 16 min 40 sec)
Heartbeat CPU 0 instructions: 150500959 cycles: 67421504 heartbeat IPC: 3.521 cumulative IPC: 1.899 (Simulation time: 00 hr 16 min 43 sec)
Heartbeat CPU 0 instructions: 151000960 cycles: 67549567 heartbeat IPC: 3.904 cumulative IPC: 1.904 (Simulation time: 00 hr 16 min 45 sec)
Heartbeat CPU 0 instructions: 151500960 cycles: 67676813 heartbeat IPC: 3.929 cumulative IPC: 1.909 (Simulation time: 00 hr 16 min 47 sec)
Heartbeat CPU 0 instructions: 152000961 cycles: 67804687 heartbeat IPC: 3.91 cumulative IPC: 1.914 (Simulation time: 00 hr 16 min 50 sec)
Heartbeat CPU 0 instructions: 152500965 cycles: 67931731 heartbeat IPC: 3.936 cumulative IPC: 1.919 (Simulation time: 00 hr 16 min 52 sec)
Heartbeat CPU 0 instructions: 153000966 cycles: 68059425 heartbeat IPC: 3.916 cumulative IPC: 1.923 (Simulation time: 00 hr 16 min 55 sec)
Heartbeat CPU 0 instructions: 153500969 cycles: 68198041 heartbeat IPC: 3.607 cumulative IPC: 1.928 (Simulation time: 00 hr 16 min 57 sec)
Heartbeat CPU 0 instructions: 154000969 cycles: 68324625 heartbeat IPC: 3.95 cumulative IPC: 1.932 (Simulation time: 00 hr 17 min 00 sec)
Heartbeat CPU 0 instructions: 154500971 cycles: 68451029 heartbeat IPC: 3.956 cumulative IPC: 1.937 (Simulation time: 00 hr 17 min 02 sec)
Heartbeat CPU 0 instructions: 155000976 cycles: 68578700 heartbeat IPC: 3.916 cumulative IPC: 1.942 (Simulation time: 00 hr 17 min 05 sec)
Heartbeat CPU 0 instructions: 155500980 cycles: 68708221 heartbeat IPC: 3.86 cumulative IPC: 1.946 (Simulation time: 00 hr 17 min 07 sec)
Heartbeat CPU 0 instructions: 156000980 cycles: 68833983 heartbeat IPC: 3.976 cumulative IPC: 1.951 (Simulation time: 00 hr 17 min 10 sec)
Heartbeat CPU 0 instructions: 156500987 cycles: 69119578 heartbeat IPC: 1.751 cumulative IPC: 1.95 (Simulation time: 00 hr 17 min 14 sec)
Heartbeat CPU 0 instructions: 157000992 cycles: 69677738 heartbeat IPC: 0.8958 cumulative IPC: 1.939 (Simulation time: 00 hr 17 min 21 sec)
Heartbeat CPU 0 instructions: 157500998 cycles: 70327325 heartbeat IPC: 0.7697 cumulative IPC: 1.926 (Simulation time: 00 hr 17 min 29 sec)
Heartbeat CPU 0 instructions: 158000999 cycles: 71027084 heartbeat IPC: 0.7145 cumulative IPC: 1.911 (Simulation time: 00 hr 17 min 38 sec)
Heartbeat CPU 0 instructions: 158501000 cycles: 71704725 heartbeat IPC: 0.7379 cumulative IPC: 1.897 (Simulation time: 00 hr 17 min 46 sec)
Heartbeat CPU 0 instructions: 159001004 cycles: 72251224 heartbeat IPC: 0.9149 cumulative IPC: 1.888 (Simulation time: 00 hr 17 min 54 sec)
Heartbeat CPU 0 instructions: 159501008 cycles: 72770703 heartbeat IPC: 0.9625 cumulative IPC: 1.879 (Simulation time: 00 hr 18 min 00 sec)
Heartbeat CPU 0 instructions: 160001015 cycles: 73293107 heartbeat IPC: 0.9571 cumulative IPC: 1.871 (Simulation time: 00 hr 18 min 07 sec)
Heartbeat CPU 0 instructions: 160501018 cycles: 73813186 heartbeat IPC: 0.9614 cumulative IPC: 1.863 (Simulation time: 00 hr 18 min 14 sec)
Heartbeat CPU 0 instructions: 161001022 cycles: 74336603 heartbeat IPC: 0.9553 cumulative IPC: 1.855 (Simulation time: 00 hr 18 min 21 sec)
Heartbeat CPU 0 instructions: 161501024 cycles: 74857247 heartbeat IPC: 0.9604 cumulative IPC: 1.848 (Simulation time: 00 hr 18 min 28 sec)
Heartbeat CPU 0 instructions: 162001027 cycles: 75549751 heartbeat IPC: 0.722 cumulative IPC: 1.835 (Simulation time: 00 hr 18 min 35 sec)
Heartbeat CPU 0 instructions: 162501031 cycles: 75769861 heartbeat IPC: 2.272 cumulative IPC: 1.836 (Simulation time: 00 hr 18 min 37 sec)
Heartbeat CPU 0 instructions: 163001038 cycles: 76283222 heartbeat IPC: 0.974 cumulative IPC: 1.829 (Simulation time: 00 hr 18 min 44 sec)
Heartbeat CPU 0 instructions: 163501038 cycles: 76701266 heartbeat IPC: 1.196 cumulative IPC: 1.825 (Simulation time: 00 hr 18 min 49 sec)
Heartbeat CPU 0 instructions: 164001044 cycles: 76838820 heartbeat IPC: 3.635 cumulative IPC: 1.829 (Simulation time: 00 hr 18 min 52 sec)
Heartbeat CPU 0 instructions: 164501049 cycles: 76973640 heartbeat IPC: 3.709 cumulative IPC: 1.833 (Simulation time: 00 hr 18 min 54 sec)
Heartbeat CPU 0 instructions: 165001051 cycles: 77108421 heartbeat IPC: 3.71 cumulative IPC: 1.837 (Simulation time: 00 hr 18 min 57 sec)
Heartbeat CPU 0 instructions: 165501055 cycles: 77243891 heartbeat IPC: 3.691 cumulative IPC: 1.841 (Simulation time: 00 hr 18 min 59 sec)
Heartbeat CPU 0 instructions: 166001055 cycles: 77379877 heartbeat IPC: 3.677 cumulative IPC: 1.845 (Simulation time: 00 hr 19 min 02 sec)
Heartbeat CPU 0 instructions: 166501056 cycles: 77530644 heartbeat IPC: 3.316 cumulative IPC: 1.848 (Simulation time: 00 hr 19 min 05 sec)
Heartbeat CPU 0 instructions: 167001056 cycles: 77666334 heartbeat IPC: 3.685 cumulative IPC: 1.852 (Simulation time: 00 hr 19 min 07 sec)
Heartbeat CPU 0 instructions: 167501058 cycles: 77796776 heartbeat IPC: 3.833 cumulative IPC: 1.857 (Simulation time: 00 hr 19 min 10 sec)
Heartbeat CPU 0 instructions: 168001062 cycles: 77930110 heartbeat IPC: 3.75 cumulative IPC: 1.861 (Simulation time: 00 hr 19 min 12 sec)
Heartbeat CPU 0 instructions: 168501062 cycles: 78061972 heartbeat IPC: 3.792 cumulative IPC: 1.865 (Simulation time: 00 hr 19 min 15 sec)
Heartbeat CPU 0 instructions: 169001062 cycles: 78193399 heartbeat IPC: 3.804 cumulative IPC: 1.869 (Simulation time: 00 hr 19 min 17 sec)
Heartbeat CPU 0 instructions: 169501067 cycles: 78339749 heartbeat IPC: 3.417 cumulative IPC: 1.872 (Simulation time: 00 hr 19 min 20 sec)
Heartbeat CPU 0 instructions: 170001074 cycles: 78474088 heartbeat IPC: 3.722 cumulative IPC: 1.876 (Simulation time: 00 hr 19 min 22 sec)
Heartbeat CPU 0 instructions: 170501079 cycles: 78606802 heartbeat IPC: 3.768 cumulative IPC: 1.88 (Simulation time: 00 hr 19 min 25 sec)
Heartbeat CPU 0 instructions: 171001082 cycles: 78740966 heartbeat IPC: 3.727 cumulative IPC: 1.884 (Simulation time: 00 hr 19 min 28 sec)
Heartbeat CPU 0 instructions: 171501089 cycles: 78871914 heartbeat IPC: 3.818 cumulative IPC: 1.888 (Simulation time: 00 hr 19 min 30 sec)
Heartbeat CPU 0 instructions: 172001092 cycles: 79004900 heartbeat IPC: 3.76 cumulative IPC: 1.892 (Simulation time: 00 hr 19 min 33 sec)
Heartbeat CPU 0 instructions: 172501095 cycles: 79257618 heartbeat IPC: 1.979 cumulative IPC: 1.892 (Simulation time: 00 hr 19 min 36 sec)
Heartbeat CPU 0 instructions: 173001099 cycles: 79840571 heartbeat IPC: 0.8577 cumulative IPC: 1.883 (Simulation time: 00 hr 19 min 44 sec)
Heartbeat CPU 0 instructions: 173501103 cycles: 80440912 heartbeat IPC: 0.8329 cumulative IPC: 1.873 (Simulation time: 00 hr 19 min 51 sec)
Heartbeat CPU 0 instructions: 174001106 cycles: 81169486 heartbeat IPC: 0.6863 cumulative IPC: 1.86 (Simulation time: 00 hr 20 min 00 sec)
Heartbeat CPU 0 instructions: 174501110 cycles: 81860494 heartbeat IPC: 0.7236 cumulative IPC: 1.848 (Simulation time: 00 hr 20 min 09 sec)
Heartbeat CPU 0 instructions: 175001117 cycles: 82435145 heartbeat IPC: 0.8701 cumulative IPC: 1.84 (Simulation time: 00 hr 20 min 16 sec)
Heartbeat CPU 0 instructions: 175501120 cycles: 82875230 heartbeat IPC: 1.136 cumulative IPC: 1.836 (Simulation time: 00 hr 20 min 22 sec)
Heartbeat CPU 0 instructions: 176001125 cycles: 83009762 heartbeat IPC: 3.717 cumulative IPC: 1.839 (Simulation time: 00 hr 20 min 25 sec)
Heartbeat CPU 0 instructions: 176501131 cycles: 83140649 heartbeat IPC: 3.82 cumulative IPC: 1.843 (Simulation time: 00 hr 20 min 27 sec)
Heartbeat CPU 0 instructions: 177001132 cycles: 83275952 heartbeat IPC: 3.695 cumulative IPC: 1.847 (Simulation time: 00 hr 20 min 30 sec)
Heartbeat CPU 0 instructions: 177501136 cycles: 83407844 heartbeat IPC: 3.791 cumulative IPC: 1.85 (Simulation time: 00 hr 20 min 32 sec)
Heartbeat CPU 0 instructions: 178001142 cycles: 83541616 heartbeat IPC: 3.738 cumulative IPC: 1.854 (Simulation time: 00 hr 20 min 35 sec)
Heartbeat CPU 0 instructions: 178501149 cycles: 83689544 heartbeat IPC: 3.38 cumulative IPC: 1.857 (Simulation time: 00 hr 20 min 37 sec)
Heartbeat CPU 0 instructions: 179001151 cycles: 83819620 heartbeat IPC: 3.844 cumulative IPC: 1.861 (Simulation time: 00 hr 20 min 40 sec)
Heartbeat CPU 0 instructions: 179501151 cycles: 83949257 heartbeat IPC: 3.857 cumulative IPC: 1.865 (Simulation time: 00 hr 20 min 42 sec)
Heartbeat CPU 0 instructions: 180001155 cycles: 84080159 heartbeat IPC: 3.82 cumulative IPC: 1.869 (Simulation time: 00 hr 20 min 45 sec)
Heartbeat CPU 0 instructions: 180501155 cycles: 84209836 heartbeat IPC: 3.856 cumulative IPC: 1.872 (Simulation time: 00 hr 20 min 47 sec)
Heartbeat CPU 0 instructions: 181001157 cycles: 84341739 heartbeat IPC: 3.791 cumulative IPC: 1.876 (Simulation time: 00 hr 20 min 50 sec)
Heartbeat CPU 0 instructions: 181501158 cycles: 84486211 heartbeat IPC: 3.461 cumulative IPC: 1.879 (Simulation time: 00 hr 20 min 52 sec)
Heartbeat CPU 0 instructions: 182001158 cycles: 84616777 heartbeat IPC: 3.829 cumulative IPC: 1.883 (Simulation time: 00 hr 20 min 55 sec)
Heartbeat CPU 0 instructions: 182501159 cycles: 84749927 heartbeat IPC: 3.755 cumulative IPC: 1.886 (Simulation time: 00 hr 20 min 57 sec)
Heartbeat CPU 0 instructions: 183001163 cycles: 84880650 heartbeat IPC: 3.825 cumulative IPC: 1.89 (Simulation time: 00 hr 21 min 00 sec)
Heartbeat CPU 0 instructions: 183501169 cycles: 85014152 heartbeat IPC: 3.745 cumulative IPC: 1.893 (Simulation time: 00 hr 21 min 02 sec)
Heartbeat CPU 0 instructions: 184001171 cycles: 85145164 heartbeat IPC: 3.816 cumulative IPC: 1.897 (Simulation time: 00 hr 21 min 05 sec)
Heartbeat CPU 0 instructions: 184501171 cycles: 85329160 heartbeat IPC: 2.717 cumulative IPC: 1.899 (Simulation time: 00 hr 21 min 08 sec)
Heartbeat CPU 0 instructions: 185001174 cycles: 85894332 heartbeat IPC: 0.8847 cumulative IPC: 1.891 (Simulation time: 00 hr 21 min 15 sec)
Heartbeat CPU 0 instructions: 185501176 cycles: 86447037 heartbeat IPC: 0.9046 cumulative IPC: 1.884 (Simulation time: 00 hr 21 min 22 sec)
Heartbeat CPU 0 instructions: 186001179 cycles: 87188606 heartbeat IPC: 0.6743 cumulative IPC: 1.871 (Simulation time: 00 hr 21 min 30 sec)
Heartbeat CPU 0 instructions: 186501180 cycles: 87901943 heartbeat IPC: 0.7009 cumulative IPC: 1.86 (Simulation time: 00 hr 21 min 39 sec)
Heartbeat CPU 0 instructions: 187001184 cycles: 88491940 heartbeat IPC: 0.8475 cumulative IPC: 1.852 (Simulation time: 00 hr 21 min 47 sec)
Heartbeat CPU 0 instructions: 187501190 cycles: 88985853 heartbeat IPC: 1.012 cumulative IPC: 1.846 (Simulation time: 00 hr 21 min 53 sec)
Heartbeat CPU 0 instructions: 188001191 cycles: 89125188 heartbeat IPC: 3.588 cumulative IPC: 1.849 (Simulation time: 00 hr 21 min 56 sec)
Heartbeat CPU 0 instructions: 188501191 cycles: 89256845 heartbeat IPC: 3.798 cumulative IPC: 1.853 (Simulation time: 00 hr 21 min 58 sec)
Heartbeat CPU 0 instructions: 189001193 cycles: 89390690 heartbeat IPC: 3.736 cumulative IPC: 1.856 (Simulation time: 00 hr 22 min 01 sec)
Heartbeat CPU 0 instructions: 189501193 cycles: 89525699 heartbeat IPC: 3.703 cumulative IPC: 1.86 (Simulation time: 00 hr 22 min 03 sec)
Heartbeat CPU 0 instructions: 190001195 cycles: 89659002 heartbeat IPC: 3.751 cumulative IPC: 1.863 (Simulation time: 00 hr 22 min 05 sec)
Heartbeat CPU 0 instructions: 190501195 cycles: 89805198 heartbeat IPC: 3.42 cumulative IPC: 1.866 (Simulation time: 00 hr 22 min 08 sec)
Heartbeat CPU 0 instructions: 191001198 cycles: 89935386 heartbeat IPC: 3.841 cumulative IPC: 1.869 (Simulation time: 00 hr 22 min 10 sec)
Heartbeat CPU 0 instructions: 191501198 cycles: 90067035 heartbeat IPC: 3.798 cumulative IPC: 1.873 (Simulation time: 00 hr 22 min 13 sec)
Heartbeat CPU 0 instructions: 192001200 cycles: 90197450 heartbeat IPC: 3.834 cumulative IPC: 1.876 (Simulation time: 00 hr 22 min 15 sec)
Heartbeat CPU 0 instructions: 192501201 cycles: 90328941 heartbeat IPC: 3.803 cumulative IPC: 1.879 (Simulation time: 00 hr 22 min 18 sec)
Heartbeat CPU 0 instructions: 193001202 cycles: 90460515 heartbeat IPC: 3.8 cumulative IPC: 1.883 (Simulation time: 00 hr 22 min 20 sec)
Heartbeat CPU 0 instructions: 193501202 cycles: 90602223 heartbeat IPC: 3.528 cumulative IPC: 1.886 (Simulation time: 00 hr 22 min 23 sec)
Heartbeat CPU 0 instructions: 194001205 cycles: 90734698 heartbeat IPC: 3.774 cumulative IPC: 1.889 (Simulation time: 00 hr 22 min 25 sec)
Heartbeat CPU 0 instructions: 194501205 cycles: 90866648 heartbeat IPC: 3.789 cumulative IPC: 1.892 (Simulation time: 00 hr 22 min 27 sec)
Heartbeat CPU 0 instructions: 195001209 cycles: 90999288 heartbeat IPC: 3.77 cumulative IPC: 1.896 (Simulation time: 00 hr 22 min 30 sec)
Heartbeat CPU 0 instructions: 195501212 cycles: 91133373 heartbeat IPC: 3.729 cumulative IPC: 1.899 (Simulation time: 00 hr 22 min 32 sec)
Heartbeat CPU 0 instructions: 196001217 cycles: 91266519 heartbeat IPC: 3.755 cumulative IPC: 1.902 (Simulation time: 00 hr 22 min 35 sec)
Heartbeat CPU 0 instructions: 196501224 cycles: 91407412 heartbeat IPC: 3.549 cumulative IPC: 1.905 (Simulation time: 00 hr 22 min 37 sec)
Heartbeat CPU 0 instructions: 197001227 cycles: 91993598 heartbeat IPC: 0.853 cumulative IPC: 1.897 (Simulation time: 00 hr 22 min 45 sec)
Heartbeat CPU 0 instructions: 197501232 cycles: 92519116 heartbeat IPC: 0.9515 cumulative IPC: 1.891 (Simulation time: 00 hr 22 min 52 sec)
Heartbeat CPU 0 instructions: 198001239 cycles: 93231031 heartbeat IPC: 0.7023 cumulative IPC: 1.88 (Simulation time: 00 hr 23 min 00 sec)
Heartbeat CPU 0 instructions: 198501239 cycles: 93924290 heartbeat IPC: 0.7212 cumulative IPC: 1.87 (Simulation time: 00 hr 23 min 08 sec)
Heartbeat CPU 0 instructions: 199001239 cycles: 94539104 heartbeat IPC: 0.8133 cumulative IPC: 1.862 (Simulation time: 00 hr 23 min 16 sec)
Heartbeat CPU 0 instructions: 199501243 cycles: 95094996 heartbeat IPC: 0.8995 cumulative IPC: 1.855 (Simulation time: 00 hr 23 min 23 sec)
Heartbeat CPU 0 instructions: 200001247 cycles: 95235013 heartbeat IPC: 3.571 cumulative IPC: 1.858 (Simulation time: 00 hr 23 min 25 sec)
Heartbeat CPU 0 instructions: 200501251 cycles: 95366699 heartbeat IPC: 3.797 cumulative IPC: 1.861 (Simulation time: 00 hr 23 min 28 sec)
Heartbeat CPU 0 instructions: 201001252 cycles: 95504838 heartbeat IPC: 3.62 cumulative IPC: 1.864 (Simulation time: 00 hr 23 min 30 sec)
Heartbeat CPU 0 instructions: 201501253 cycles: 95640090 heartbeat IPC: 3.697 cumulative IPC: 1.867 (Simulation time: 00 hr 23 min 32 sec)
Heartbeat CPU 0 instructions: 202001255 cycles: 95770060 heartbeat IPC: 3.847 cumulative IPC: 1.87 (Simulation time: 00 hr 23 min 35 sec)
Heartbeat CPU 0 instructions: 202501258 cycles: 95916692 heartbeat IPC: 3.41 cumulative IPC: 1.873 (Simulation time: 00 hr 23 min 37 sec)
Heartbeat CPU 0 instructions: 203001263 cycles: 96049121 heartbeat IPC: 3.776 cumulative IPC: 1.876 (Simulation time: 00 hr 23 min 40 sec)
Heartbeat CPU 0 instructions: 203501264 cycles: 96182289 heartbeat IPC: 3.755 cumulative IPC: 1.879 (Simulation time: 00 hr 23 min 42 sec)
Heartbeat CPU 0 instructions: 204001265 cycles: 96313257 heartbeat IPC: 3.818 cumulative IPC: 1.882 (Simulation time: 00 hr 23 min 44 sec)
Heartbeat CPU 0 instructions: 204501269 cycles: 96442646 heartbeat IPC: 3.864 cumulative IPC: 1.886 (Simulation time: 00 hr 23 min 47 sec)
Heartbeat CPU 0 instructions: 205001274 cycles: 96574764 heartbeat IPC: 3.785 cumulative IPC: 1.889 (Simulation time: 00 hr 23 min 49 sec)
Heartbeat CPU 0 instructions: 205501277 cycles: 96719512 heartbeat IPC: 3.454 cumulative IPC: 1.891 (Simulation time: 00 hr 23 min 52 sec)
Heartbeat CPU 0 instructions: 206001279 cycles: 96851577 heartbeat IPC: 3.786 cumulative IPC: 1.894 (Simulation time: 00 hr 23 min 54 sec)
Heartbeat CPU 0 instructions: 206501285 cycles: 96984194 heartbeat IPC: 3.77 cumulative IPC: 1.897 (Simulation time: 00 hr 23 min 56 sec)
Heartbeat CPU 0 instructions: 207001288 cycles: 97115742 heartbeat IPC: 3.801 cumulative IPC: 1.901 (Simulation time: 00 hr 23 min 59 sec)
Heartbeat CPU 0 instructions: 207501294 cycles: 97247009 heartbeat IPC: 3.809 cumulative IPC: 1.904 (Simulation time: 00 hr 24 min 01 sec)
Heartbeat CPU 0 instructions: 208001299 cycles: 97382895 heartbeat IPC: 3.68 cumulative IPC: 1.906 (Simulation time: 00 hr 24 min 04 sec)
Heartbeat CPU 0 instructions: 208501303 cycles: 97512137 heartbeat IPC: 3.869 cumulative IPC: 1.91 (Simulation time: 00 hr 24 min 06 sec)
Heartbeat CPU 0 instructions: 209001304 cycles: 98018004 heartbeat IPC: 0.9884 cumulative IPC: 1.904 (Simulation time: 00 hr 24 min 13 sec)
Heartbeat CPU 0 instructions: 209501304 cycles: 98541571 heartbeat IPC: 0.955 cumulative IPC: 1.898 (Simulation time: 00 hr 24 min 19 sec)
Heartbeat CPU 0 instructions: 210001306 cycles: 99253489 heartbeat IPC: 0.7023 cumulative IPC: 1.888 (Simulation time: 00 hr 24 min 27 sec)
Heartbeat CPU 0 instructions: 210501306 cycles: 99966159 heartbeat IPC: 0.7016 cumulative IPC: 1.878 (Simulation time: 00 hr 24 min 35 sec)
Heartbeat CPU 0 instructions: 211001310 cycles: 100598236 heartbeat IPC: 0.791 cumulative IPC: 1.87 (Simulation time: 00 hr 24 min 43 sec)
Heartbeat CPU 0 instructions: 211501315 cycles: 101124197 heartbeat IPC: 0.9507 cumulative IPC: 1.865 (Simulation time: 00 hr 24 min 49 sec)
Heartbeat CPU 0 instructions: 212001316 cycles: 101336051 heartbeat IPC: 2.36 cumulative IPC: 1.866 (Simulation time: 00 hr 24 min 53 sec)
Heartbeat CPU 0 instructions: 212501321 cycles: 101470012 heartbeat IPC: 3.732 cumulative IPC: 1.869 (Simulation time: 00 hr 24 min 55 sec)
Heartbeat CPU 0 instructions: 213001328 cycles: 101606463 heartbeat IPC: 3.664 cumulative IPC: 1.871 (Simulation time: 00 hr 24 min 57 sec)
Heartbeat CPU 0 instructions: 213501329 cycles: 101737801 heartbeat IPC: 3.807 cumulative IPC: 1.874 (Simulation time: 00 hr 25 min 00 sec)
Heartbeat CPU 0 instructions: 214001332 cycles: 101872709 heartbeat IPC: 3.706 cumulative IPC: 1.877 (Simulation time: 00 hr 25 min 02 sec)
Heartbeat CPU 0 instructions: 214501334 cycles: 102003975 heartbeat IPC: 3.809 cumulative IPC: 1.88 (Simulation time: 00 hr 25 min 04 sec)
Heartbeat CPU 0 instructions: 215001339 cycles: 102148985 heartbeat IPC: 3.448 cumulative IPC: 1.883 (Simulation time: 00 hr 25 min 07 sec)
Heartbeat CPU 0 instructions: 215501346 cycles: 102282411 heartbeat IPC: 3.747 cumulative IPC: 1.885 (Simulation time: 00 hr 25 min 09 sec)
Heartbeat CPU 0 instructions: 216001350 cycles: 102413367 heartbeat IPC: 3.818 cumulative IPC: 1.888 (Simulation time: 00 hr 25 min 11 sec)
Heartbeat CPU 0 instructions: 216501353 cycles: 102543584 heartbeat IPC: 3.84 cumulative IPC: 1.891 (Simulation time: 00 hr 25 min 14 sec)
Heartbeat CPU 0 instructions: 217001360 cycles: 102676611 heartbeat IPC: 3.759 cumulative IPC: 1.894 (Simulation time: 00 hr 25 min 16 sec)
Heartbeat CPU 0 instructions: 217501364 cycles: 102806585 heartbeat IPC: 3.847 cumulative IPC: 1.897 (Simulation time: 00 hr 25 min 18 sec)
Heartbeat CPU 0 instructions: 218001364 cycles: 102953351 heartbeat IPC: 3.407 cumulative IPC: 1.899 (Simulation time: 00 hr 25 min 21 sec)
Heartbeat CPU 0 instructions: 218501366 cycles: 103084291 heartbeat IPC: 3.819 cumulative IPC: 1.902 (Simulation time: 00 hr 25 min 23 sec)
Heartbeat CPU 0 instructions: 219001369 cycles: 103215325 heartbeat IPC: 3.816 cumulative IPC: 1.905 (Simulation time: 00 hr 25 min 26 sec)
Heartbeat CPU 0 instructions: 219501374 cycles: 103346777 heartbeat IPC: 3.804 cumulative IPC: 1.908 (Simulation time: 00 hr 25 min 28 sec)
Heartbeat CPU 0 instructions: 220001381 cycles: 103481040 heartbeat IPC: 3.724 cumulative IPC: 1.911 (Simulation time: 00 hr 25 min 30 sec)
Heartbeat CPU 0 instructions: 220501387 cycles: 103611315 heartbeat IPC: 3.838 cumulative IPC: 1.913 (Simulation time: 00 hr 25 min 33 sec)
Heartbeat CPU 0 instructions: 221001391 cycles: 104055269 heartbeat IPC: 1.126 cumulative IPC: 1.91 (Simulation time: 00 hr 25 min 39 sec)
Heartbeat CPU 0 instructions: 221501393 cycles: 104580823 heartbeat IPC: 0.9514 cumulative IPC: 1.904 (Simulation time: 00 hr 25 min 45 sec)
Heartbeat CPU 0 instructions: 222001400 cycles: 105261502 heartbeat IPC: 0.7346 cumulative IPC: 1.895 (Simulation time: 00 hr 25 min 52 sec)
Heartbeat CPU 0 instructions: 222501400 cycles: 105984579 heartbeat IPC: 0.6915 cumulative IPC: 1.886 (Simulation time: 00 hr 26 min 01 sec)
Heartbeat CPU 0 instructions: 223001404 cycles: 106652410 heartbeat IPC: 0.7487 cumulative IPC: 1.877 (Simulation time: 00 hr 26 min 09 sec)
Heartbeat CPU 0 instructions: 223501404 cycles: 107182521 heartbeat IPC: 0.9432 cumulative IPC: 1.872 (Simulation time: 00 hr 26 min 15 sec)
Heartbeat CPU 0 instructions: 224001408 cycles: 107456887 heartbeat IPC: 1.822 cumulative IPC: 1.872 (Simulation time: 00 hr 26 min 19 sec)
Heartbeat CPU 0 instructions: 224501414 cycles: 107592806 heartbeat IPC: 3.679 cumulative IPC: 1.875 (Simulation time: 00 hr 26 min 21 sec)
Heartbeat CPU 0 instructions: 225001415 cycles: 107724769 heartbeat IPC: 3.789 cumulative IPC: 1.877 (Simulation time: 00 hr 26 min 23 sec)
Heartbeat CPU 0 instructions: 225501418 cycles: 107858661 heartbeat IPC: 3.734 cumulative IPC: 1.88 (Simulation time: 00 hr 26 min 26 sec)
Heartbeat CPU 0 instructions: 226001419 cycles: 107989257 heartbeat IPC: 3.829 cumulative IPC: 1.883 (Simulation time: 00 hr 26 min 28 sec)
Heartbeat CPU 0 instructions: 226501419 cycles: 108123483 heartbeat IPC: 3.725 cumulative IPC: 1.885 (Simulation time: 00 hr 26 min 30 sec)
Heartbeat CPU 0 instructions: 227001419 cycles: 108270489 heartbeat IPC: 3.401 cumulative IPC: 1.888 (Simulation time: 00 hr 26 min 33 sec)
Heartbeat CPU 0 instructions: 227501422 cycles: 108401120 heartbeat IPC: 3.828 cumulative IPC: 1.89 (Simulation time: 00 hr 26 min 35 sec)
Heartbeat CPU 0 instructions: 228001425 cycles: 108532757 heartbeat IPC: 3.798 cumulative IPC: 1.893 (Simulation time: 00 hr 26 min 37 sec)
Heartbeat CPU 0 instructions: 228501425 cycles: 108665484 heartbeat IPC: 3.767 cumulative IPC: 1.896 (Simulation time: 00 hr 26 min 40 sec)
Heartbeat CPU 0 instructions: 229001430 cycles: 108794861 heartbeat IPC: 3.865 cumulative IPC: 1.898 (Simulation time: 00 hr 26 min 42 sec)
Heartbeat CPU 0 instructions: 229501432 cycles: 108924104 heartbeat IPC: 3.869 cumulative IPC: 1.901 (Simulation time: 00 hr 26 min 44 sec)
Heartbeat CPU 0 instructions: 230001434 cycles: 109070435 heartbeat IPC: 3.417 cumulative IPC: 1.903 (Simulation time: 00 hr 26 min 47 sec)
Heartbeat CPU 0 instructions: 230501441 cycles: 109202780 heartbeat IPC: 3.778 cumulative IPC: 1.906 (Simulation time: 00 hr 26 min 49 sec)
Heartbeat CPU 0 instructions: 231001448 cycles: 109333711 heartbeat IPC: 3.819 cumulative IPC: 1.909 (Simulation time: 00 hr 26 min 51 sec)
Heartbeat CPU 0 instructions: 231501448 cycles: 109464898 heartbeat IPC: 3.811 cumulative IPC: 1.911 (Simulation time: 00 hr 26 min 53 sec)
Heartbeat CPU 0 instructions: 232001453 cycles: 109600747 heartbeat IPC: 3.681 cumulative IPC: 1.914 (Simulation time: 00 hr 26 min 56 sec)
Heartbeat CPU 0 instructions: 232501455 cycles: 109732159 heartbeat IPC: 3.805 cumulative IPC: 1.917 (Simulation time: 00 hr 26 min 58 sec)
Heartbeat CPU 0 instructions: 233001456 cycles: 110099160 heartbeat IPC: 1.362 cumulative IPC: 1.914 (Simulation time: 00 hr 27 min 03 sec)
Heartbeat CPU 0 instructions: 233501457 cycles: 110647138 heartbeat IPC: 0.9124 cumulative IPC: 1.909 (Simulation time: 00 hr 27 min 09 sec)
Heartbeat CPU 0 instructions: 234001463 cycles: 111299559 heartbeat IPC: 0.7664 cumulative IPC: 1.901 (Simulation time: 00 hr 27 min 17 sec)
Heartbeat CPU 0 instructions: 234501463 cycles: 112012393 heartbeat IPC: 0.7014 cumulative IPC: 1.892 (Simulation time: 00 hr 27 min 25 sec)
Heartbeat CPU 0 instructions: 235001468 cycles: 112704210 heartbeat IPC: 0.7227 cumulative IPC: 1.884 (Simulation time: 00 hr 27 min 33 sec)
Heartbeat CPU 0 instructions: 235501468 cycles: 113242924 heartbeat IPC: 0.9281 cumulative IPC: 1.879 (Simulation time: 00 hr 27 min 39 sec)
Heartbeat CPU 0 instructions: 236001474 cycles: 113575263 heartbeat IPC: 1.505 cumulative IPC: 1.877 (Simulation time: 00 hr 27 min 43 sec)
Heartbeat CPU 0 instructions: 236501477 cycles: 113707770 heartbeat IPC: 3.773 cumulative IPC: 1.88 (Simulation time: 00 hr 27 min 46 sec)
Heartbeat CPU 0 instructions: 237001483 cycles: 113840635 heartbeat IPC: 3.763 cumulative IPC: 1.883 (Simulation time: 00 hr 27 min 48 sec)
Heartbeat CPU 0 instructions: 237501486 cycles: 113973448 heartbeat IPC: 3.765 cumulative IPC: 1.885 (Simulation time: 00 hr 27 min 50 sec)
Heartbeat CPU 0 instructions: 238001487 cycles: 114107714 heartbeat IPC: 3.724 cumulative IPC: 1.888 (Simulation time: 00 hr 27 min 52 sec)
Heartbeat CPU 0 instructions: 238501487 cycles: 114241859 heartbeat IPC: 3.727 cumulative IPC: 1.89 (Simulation time: 00 hr 27 min 55 sec)
Heartbeat CPU 0 instructions: 239001487 cycles: 114387713 heartbeat IPC: 3.428 cumulative IPC: 1.892 (Simulation time: 00 hr 27 min 57 sec)
Heartbeat CPU 0 instructions: 239501491 cycles: 114519281 heartbeat IPC: 3.8 cumulative IPC: 1.895 (Simulation time: 00 hr 27 min 59 sec)
Heartbeat CPU 0 instructions: 240001493 cycles: 114651470 heartbeat IPC: 3.782 cumulative IPC: 1.897 (Simulation time: 00 hr 28 min 02 sec)
Heartbeat CPU 0 instructions: 240501497 cycles: 114780788 heartbeat IPC: 3.866 cumulative IPC: 1.9 (Simulation time: 00 hr 28 min 04 sec)
Heartbeat CPU 0 instructions: 241001499 cycles: 114913386 heartbeat IPC: 3.771 cumulative IPC: 1.902 (Simulation time: 00 hr 28 min 06 sec)
Heartbeat CPU 0 instructions: 241501502 cycles: 115043373 heartbeat IPC: 3.847 cumulative IPC: 1.905 (Simulation time: 00 hr 28 min 08 sec)
Heartbeat CPU 0 instructions: 242001504 cycles: 115189811 heartbeat IPC: 3.414 cumulative IPC: 1.907 (Simulation time: 00 hr 28 min 11 sec)
Heartbeat CPU 0 instructions: 242501508 cycles: 115321575 heartbeat IPC: 3.795 cumulative IPC: 1.909 (Simulation time: 00 hr 28 min 13 sec)
Heartbeat CPU 0 instructions: 243001508 cycles: 115452685 heartbeat IPC: 3.814 cumulative IPC: 1.912 (Simulation time: 00 hr 28 min 15 sec)
Heartbeat CPU 0 instructions: 243501508 cycles: 115585342 heartbeat IPC: 3.769 cumulative IPC: 1.914 (Simulation time: 00 hr 28 min 17 sec)
Heartbeat CPU 0 instructions: 244001508 cycles: 115720031 heartbeat IPC: 3.712 cumulative IPC: 1.917 (Simulation time: 00 hr 28 min 20 sec)
Heartbeat CPU 0 instructions: 244501515 cycles: 115849837 heartbeat IPC: 3.852 cumulative IPC: 1.919 (Simulation time: 00 hr 28 min 22 sec)
Heartbeat CPU 0 instructions: 245001517 cycles: 116139073 heartbeat IPC: 1.729 cumulative IPC: 1.919 (Simulation time: 00 hr 28 min 26 sec)
Heartbeat CPU 0 instructions: 245501520 cycles: 116678052 heartbeat IPC: 0.9277 cumulative IPC: 1.913 (Simulation time: 00 hr 28 min 32 sec)
Heartbeat CPU 0 instructions: 246001526 cycles: 117300836 heartbeat IPC: 0.8029 cumulative IPC: 1.907 (Simulation time: 00 hr 28 min 39 sec)
Heartbeat CPU 0 instructions: 246501530 cycles: 118049810 heartbeat IPC: 0.6676 cumulative IPC: 1.898 (Simulation time: 00 hr 28 min 47 sec)
Heartbeat CPU 0 instructions: 247001532 cycles: 118732628 heartbeat IPC: 0.7323 cumulative IPC: 1.89 (Simulation time: 00 hr 28 min 55 sec)
Heartbeat CPU 0 instructions: 247501533 cycles: 119294797 heartbeat IPC: 0.8894 cumulative IPC: 1.885 (Simulation time: 00 hr 29 min 01 sec)
Heartbeat CPU 0 instructions: 248001536 cycles: 119682285 heartbeat IPC: 1.29 cumulative IPC: 1.883 (Simulation time: 00 hr 29 min 06 sec)
Heartbeat CPU 0 instructions: 248501540 cycles: 119813809 heartbeat IPC: 3.802 cumulative IPC: 1.885 (Simulation time: 00 hr 29 min 08 sec)
Heartbeat CPU 0 instructions: 249001541 cycles: 119945726 heartbeat IPC: 3.79 cumulative IPC: 1.887 (Simulation time: 00 hr 29 min 11 sec)
Heartbeat CPU 0 instructions: 249501541 cycles: 120079420 heartbeat IPC: 3.74 cumulative IPC: 1.89 (Simulation time: 00 hr 29 min 13 sec)
Simulation finished CPU 0 instructions: 200000001 cycles: 105709142 cumulative IPC: 1.892 (Simulation time: 00 hr 29 min 15 sec)
Simulation complete CPU 0 instructions: 200000001 cycles: 105709142 cumulative IPC: 1.892 (Simulation time: 00 hr 29 min 15 sec)

ChampSim completed all CPUs

=== Simulation ===
CPU 0 runs /local-ssd/ben/dpc4-traces/ai-ml/bark.cpp-bark-small.coarse_token_gen.5.champsimtrace.gz

Region of Interest Statistics

CPU 0 cumulative IPC: 1.892 instructions: 200000001 cycles: 105709142
CPU 0 Branch Prediction Accuracy: 99.65% MPKI: 0.8343 Average ROB Occupancy at Mispredict: 290.8
Branch type MPKI
BRANCH_DIRECT_JUMP: 5e-06
BRANCH_INDIRECT: 0.002835
BRANCH_CONDITIONAL: 0.8311
BRANCH_DIRECT_CALL: 0
BRANCH_INDIRECT_CALL: 2e-05
BRANCH_RETURN: 0.000395

cpu0->cpu0_STLB TOTAL        ACCESS:    4191483 HIT:    4112439 MISS:      79044 MSHR_MERGE:          0
cpu0->cpu0_STLB LOAD         ACCESS:    4191483 HIT:    4112439 MISS:      79044 MSHR_MERGE:          0
cpu0->cpu0_STLB RFO          ACCESS:          0 HIT:          0 MISS:          0 MSHR_MERGE:          0
cpu0->cpu0_STLB PREFETCH     ACCESS:          0 HIT:          0 MISS:          0 MSHR_MERGE:          0
cpu0->cpu0_STLB WRITE        ACCESS:          0 HIT:          0 MISS:          0 MSHR_MERGE:          0
cpu0->cpu0_STLB TRANSLATION  ACCESS:          0 HIT:          0 MISS:          0 MSHR_MERGE:          0
cpu0->cpu0_STLB PREFETCH REQUESTED:          0 ISSUED:          0 USEFUL:          0 USELESS:          0
cpu0->cpu0_STLB AVERAGE MISS LATENCY: 162.6 cycles
cpu0->cpu0_L2C TOTAL        ACCESS:   30210490 HIT:   13294248 MISS:   16916242 MSHR_MERGE:   11567368
cpu0->cpu0_L2C LOAD         ACCESS:    7849637 HIT:    5736410 MISS:    2113227 MSHR_MERGE:    1013741
cpu0->cpu0_L2C RFO          ACCESS:     378404 HIT:      16986 MISS:     361418 MSHR_MERGE:         72
cpu0->cpu0_L2C PREFETCH     ACCESS:   21569029 HIT:    7140357 MISS:   14428672 MSHR_MERGE:   10553555
cpu0->cpu0_L2C WRITE        ACCESS:     401970 HIT:     399751 MISS:       2219 MSHR_MERGE:          0
cpu0->cpu0_L2C TRANSLATION  ACCESS:      11450 HIT:        744 MISS:      10706 MSHR_MERGE:          0
cpu0->cpu0_L2C PREFETCH REQUESTED:   24966587 ISSUED:   19107543 USEFUL:    1891795 USELESS:    1339158
cpu0->cpu0_L2C AVERAGE MISS LATENCY: 198.6 cycles
cpu0->cpu0_L1I TOTAL        ACCESS:   24959266 HIT:   24958711 MISS:        555 MSHR_MERGE:        456
cpu0->cpu0_L1I LOAD         ACCESS:   24959266 HIT:   24958711 MISS:        555 MSHR_MERGE:        456
cpu0->cpu0_L1I RFO          ACCESS:          0 HIT:          0 MISS:          0 MSHR_MERGE:          0
cpu0->cpu0_L1I PREFETCH     ACCESS:          0 HIT:          0 MISS:          0 MSHR_MERGE:          0
cpu0->cpu0_L1I WRITE        ACCESS:          0 HIT:          0 MISS:          0 MSHR_MERGE:          0
cpu0->cpu0_L1I TRANSLATION  ACCESS:          0 HIT:          0 MISS:          0 MSHR_MERGE:          0
cpu0->cpu0_L1I PREFETCH REQUESTED:          0 ISSUED:          0 USEFUL:          0 USELESS:          0
cpu0->cpu0_L1I AVERAGE MISS LATENCY: 276.9 cycles
cpu0->cpu0_L1D TOTAL        ACCESS:   48187774 HIT:   26530640 MISS:   21657134 MSHR_MERGE:   10955072
cpu0->cpu0_L1D LOAD         ACCESS:   29225285 HIT:   18301223 MISS:   10924062 MSHR_MERGE:    3074524
cpu0->cpu0_L1D RFO          ACCESS:          0 HIT:          0 MISS:          0 MSHR_MERGE:          0
cpu0->cpu0_L1D PREFETCH     ACCESS:    5151651 HIT:    1357646 MISS:    3794005 MSHR_MERGE:    1332516
cpu0->cpu0_L1D WRITE        ACCESS:   13654470 HIT:    6729327 MISS:    6925143 MSHR_MERGE:    6545558
cpu0->cpu0_L1D TRANSLATION  ACCESS:     156368 HIT:     142444 MISS:      13924 MSHR_MERGE:       2474
cpu0->cpu0_L1D PREFETCH REQUESTED:    6255975 ISSUED:    5151651 USEFUL:    2325389 USELESS:     136095
cpu0->cpu0_L1D AVERAGE MISS LATENCY: 75.08 cycles
cpu0->cpu0_ITLB TOTAL        ACCESS:   23054481 HIT:   23054335 MISS:        146 MSHR_MERGE:         75
cpu0->cpu0_ITLB LOAD         ACCESS:   23054481 HIT:   23054335 MISS:        146 MSHR_MERGE:         75
cpu0->cpu0_ITLB RFO          ACCESS:          0 HIT:          0 MISS:          0 MSHR_MERGE:          0
cpu0->cpu0_ITLB PREFETCH     ACCESS:          0 HIT:          0 MISS:          0 MSHR_MERGE:          0
cpu0->cpu0_ITLB WRITE        ACCESS:          0 HIT:          0 MISS:          0 MSHR_MERGE:          0
cpu0->cpu0_ITLB TRANSLATION  ACCESS:          0 HIT:          0 MISS:          0 MSHR_MERGE:          0
cpu0->cpu0_ITLB PREFETCH REQUESTED:          0 ISSUED:          0 USEFUL:          0 USELESS:          0
cpu0->cpu0_ITLB AVERAGE MISS LATENCY: 196.6 cycles
cpu0->cpu0_DTLB TOTAL        ACCESS:   44999242 HIT:   38955894 MISS:    6043348 MSHR_MERGE:    1851936
cpu0->cpu0_DTLB LOAD         ACCESS:   44999242 HIT:   38955894 MISS:    6043348 MSHR_MERGE:    1851936
cpu0->cpu0_DTLB RFO          ACCESS:          0 HIT:          0 MISS:          0 MSHR_MERGE:          0
cpu0->cpu0_DTLB PREFETCH     ACCESS:          0 HIT:          0 MISS:          0 MSHR_MERGE:          0
cpu0->cpu0_DTLB WRITE        ACCESS:          0 HIT:          0 MISS:          0 MSHR_MERGE:          0
cpu0->cpu0_DTLB TRANSLATION  ACCESS:          0 HIT:          0 MISS:          0 MSHR_MERGE:          0
cpu0->cpu0_DTLB PREFETCH REQUESTED:          0 ISSUED:          0 USEFUL:          0 USELESS:          0
cpu0->cpu0_DTLB AVERAGE MISS LATENCY: 8.092 cycles
cpu0->LLC TOTAL        ACCESS:   10625933 HIT:    1347458 MISS:    9278475 MSHR_MERGE:    3849387
cpu0->LLC LOAD         ACCESS:    1099486 HIT:     130400 MISS:     969086 MSHR_MERGE:     143929
cpu0->LLC RFO          ACCESS:     361346 HIT:       2683 MISS:     358663 MSHR_MERGE:         12
cpu0->LLC PREFETCH     ACCESS:    8790718 HIT:    1040155 MISS:    7750563 MSHR_MERGE:    3705446
cpu0->LLC WRITE        ACCESS:     363677 HIT:     174161 MISS:     189516 MSHR_MERGE:          0
cpu0->LLC TRANSLATION  ACCESS:      10706 HIT:         59 MISS:      10647 MSHR_MERGE:          0
cpu0->LLC PREFETCH REQUESTED:    5923636 ISSUED:    4915601 USEFUL:     678322 USELESS:    2468157
cpu0->LLC AVERAGE MISS LATENCY: 227.4 cycles

DRAM Statistics

Channel 0 RQ ROW_BUFFER_HIT:    1912873
  ROW_BUFFER_MISS:    3324677
  AVG DBUS CONGESTED CYCLE: 6.16
Channel 0 WQ ROW_BUFFER_HIT:      21223
  ROW_BUFFER_MISS:     335868
  FULL:      12855
Channel 0 REFRESHES ISSUED:       8809
