[VMEM] WARNING: physical memory size is smaller than virtual memory size.

*** ChampSim Multicore Out-of-Order Simulator ***
Warmup Instructions: 50000000
Simulation Instructions: 200000000
Number of CPUs: 1
Page size: 4096
Core 0: /local-ssd/ben/dpc4-traces/ai-ml/stable-diffusion.cpp-v2-1_768-nonema-pruned.1.champsimtrace.gz
 L1D Berti prefetcher
Off-chip DRAM Size: 64 GiB Channels: 1 Width: 64-bit Data Rate: 4807 MT/s
Heartbeat CPU 0 instructions: 500003 cycles: 304832 heartbeat IPC: 1.64 cumulative IPC: 1.64 (Simulation time: 00 hr 00 min 06 sec)
Heartbeat CPU 0 instructions: 1000007 cycles: 604190 heartbeat IPC: 1.67 cumulative IPC: 1.655 (Simulation time: 00 hr 00 min 12 sec)
Heartbeat CPU 0 instructions: 1500009 cycles: 900779 heartbeat IPC: 1.686 cumulative IPC: 1.665 (Simulation time: 00 hr 00 min 18 sec)
Heartbeat CPU 0 instructions: 2000011 cycles: 1199853 heartbeat IPC: 1.672 cumulative IPC: 1.667 (Simulation time: 00 hr 00 min 24 sec)
Heartbeat CPU 0 instructions: 2500011 cycles: 1499169 heartbeat IPC: 1.67 cumulative IPC: 1.668 (Simulation time: 00 hr 00 min 30 sec)
Heartbeat CPU 0 instructions: 3000011 cycles: 1795023 heartbeat IPC: 1.69 cumulative IPC: 1.671 (Simulation time: 00 hr 00 min 36 sec)
Heartbeat CPU 0 instructions: 3500015 cycles: 2094583 heartbeat IPC: 1.669 cumulative IPC: 1.671 (Simulation time: 00 hr 00 min 42 sec)
Heartbeat CPU 0 instructions: 4000016 cycles: 2390586 heartbeat IPC: 1.689 cumulative IPC: 1.673 (Simulation time: 00 hr 00 min 48 sec)
Heartbeat CPU 0 instructions: 4500016 cycles: 2690295 heartbeat IPC: 1.668 cumulative IPC: 1.673 (Simulation time: 00 hr 00 min 54 sec)
Heartbeat CPU 0 instructions: 5000020 cycles: 2989292 heartbeat IPC: 1.672 cumulative IPC: 1.673 (Simulation time: 00 hr 01 min 00 sec)
Heartbeat CPU 0 instructions: 5500020 cycles: 3289314 heartbeat IPC: 1.667 cumulative IPC: 1.672 (Simulation time: 00 hr 01 min 06 sec)
Heartbeat CPU 0 instructions: 6000020 cycles: 3585913 heartbeat IPC: 1.686 cumulative IPC: 1.673 (Simulation time: 00 hr 01 min 12 sec)
Heartbeat CPU 0 instructions: 6500026 cycles: 3866419 heartbeat IPC: 1.783 cumulative IPC: 1.681 (Simulation time: 00 hr 01 min 17 sec)
Heartbeat CPU 0 instructions: 7000028 cycles: 4143532 heartbeat IPC: 1.804 cumulative IPC: 1.689 (Simulation time: 00 hr 01 min 23 sec)
Heartbeat CPU 0 instructions: 7500033 cycles: 4420975 heartbeat IPC: 1.802 cumulative IPC: 1.696 (Simulation time: 00 hr 01 min 29 sec)
Heartbeat CPU 0 instructions: 8000037 cycles: 4698310 heartbeat IPC: 1.803 cumulative IPC: 1.703 (Simulation time: 00 hr 01 min 35 sec)
Heartbeat CPU 0 instructions: 8500039 cycles: 4975389 heartbeat IPC: 1.805 cumulative IPC: 1.708 (Simulation time: 00 hr 01 min 40 sec)
Heartbeat CPU 0 instructions: 9000039 cycles: 5252685 heartbeat IPC: 1.803 cumulative IPC: 1.713 (Simulation time: 00 hr 01 min 46 sec)
Heartbeat CPU 0 instructions: 9500042 cycles: 5529740 heartbeat IPC: 1.805 cumulative IPC: 1.718 (Simulation time: 00 hr 01 min 52 sec)
Heartbeat CPU 0 instructions: 10000042 cycles: 5807190 heartbeat IPC: 1.802 cumulative IPC: 1.722 (Simulation time: 00 hr 01 min 57 sec)
Heartbeat CPU 0 instructions: 10500042 cycles: 6084480 heartbeat IPC: 1.803 cumulative IPC: 1.726 (Simulation time: 00 hr 02 min 03 sec)
Heartbeat CPU 0 instructions: 11000047 cycles: 6365174 heartbeat IPC: 1.781 cumulative IPC: 1.728 (Simulation time: 00 hr 02 min 09 sec)
Heartbeat CPU 0 instructions: 11500054 cycles: 6642443 heartbeat IPC: 1.803 cumulative IPC: 1.731 (Simulation time: 00 hr 02 min 15 sec)
Heartbeat CPU 0 instructions: 12000057 cycles: 6919854 heartbeat IPC: 1.802 cumulative IPC: 1.734 (Simulation time: 00 hr 02 min 20 sec)
Heartbeat CPU 0 instructions: 12500063 cycles: 7197395 heartbeat IPC: 1.802 cumulative IPC: 1.737 (Simulation time: 00 hr 02 min 26 sec)
Heartbeat CPU 0 instructions: 13000066 cycles: 7474305 heartbeat IPC: 1.806 cumulative IPC: 1.739 (Simulation time: 00 hr 02 min 32 sec)
Heartbeat CPU 0 instructions: 13500066 cycles: 7751759 heartbeat IPC: 1.802 cumulative IPC: 1.742 (Simulation time: 00 hr 02 min 37 sec)
Heartbeat CPU 0 instructions: 14000071 cycles: 8028973 heartbeat IPC: 1.804 cumulative IPC: 1.744 (Simulation time: 00 hr 02 min 43 sec)
Heartbeat CPU 0 instructions: 14500074 cycles: 8305948 heartbeat IPC: 1.805 cumulative IPC: 1.746 (Simulation time: 00 hr 02 min 49 sec)
Heartbeat CPU 0 instructions: 15000078 cycles: 8583412 heartbeat IPC: 1.802 cumulative IPC: 1.748 (Simulation time: 00 hr 02 min 55 sec)
Heartbeat CPU 0 instructions: 15500079 cycles: 8860611 heartbeat IPC: 1.804 cumulative IPC: 1.749 (Simulation time: 00 hr 03 min 00 sec)
Heartbeat CPU 0 instructions: 16000080 cycles: 9137806 heartbeat IPC: 1.804 cumulative IPC: 1.751 (Simulation time: 00 hr 03 min 06 sec)
Heartbeat CPU 0 instructions: 16500080 cycles: 9414961 heartbeat IPC: 1.804 cumulative IPC: 1.753 (Simulation time: 00 hr 03 min 12 sec)
Heartbeat CPU 0 instructions: 17000080 cycles: 9695351 heartbeat IPC: 1.783 cumulative IPC: 1.753 (Simulation time: 00 hr 03 min 18 sec)
Heartbeat CPU 0 instructions: 17500080 cycles: 9972290 heartbeat IPC: 1.805 cumulative IPC: 1.755 (Simulation time: 00 hr 03 min 23 sec)
Heartbeat CPU 0 instructions: 18000080 cycles: 10249653 heartbeat IPC: 1.803 cumulative IPC: 1.756 (Simulation time: 00 hr 03 min 29 sec)
Heartbeat CPU 0 instructions: 18500080 cycles: 10527324 heartbeat IPC: 1.801 cumulative IPC: 1.757 (Simulation time: 00 hr 03 min 34 sec)
Heartbeat CPU 0 instructions: 19000083 cycles: 10804515 heartbeat IPC: 1.804 cumulative IPC: 1.759 (Simulation time: 00 hr 03 min 40 sec)
Heartbeat CPU 0 instructions: 19500089 cycles: 11081511 heartbeat IPC: 1.805 cumulative IPC: 1.76 (Simulation time: 00 hr 03 min 45 sec)
Heartbeat CPU 0 instructions: 20000091 cycles: 11358796 heartbeat IPC: 1.803 cumulative IPC: 1.761 (Simulation time: 00 hr 03 min 51 sec)
Heartbeat CPU 0 instructions: 20500092 cycles: 11636151 heartbeat IPC: 1.803 cumulative IPC: 1.762 (Simulation time: 00 hr 03 min 57 sec)
Heartbeat CPU 0 instructions: 21000092 cycles: 11913189 heartbeat IPC: 1.805 cumulative IPC: 1.763 (Simulation time: 00 hr 04 min 02 sec)
Heartbeat CPU 0 instructions: 21500095 cycles: 12190725 heartbeat IPC: 1.802 cumulative IPC: 1.764 (Simulation time: 00 hr 04 min 08 sec)
Heartbeat CPU 0 instructions: 22000096 cycles: 12467789 heartbeat IPC: 1.805 cumulative IPC: 1.765 (Simulation time: 00 hr 04 min 13 sec)
Heartbeat CPU 0 instructions: 22500097 cycles: 12745003 heartbeat IPC: 1.804 cumulative IPC: 1.765 (Simulation time: 00 hr 04 min 19 sec)
Heartbeat CPU 0 instructions: 23000098 cycles: 13025293 heartbeat IPC: 1.784 cumulative IPC: 1.766 (Simulation time: 00 hr 04 min 24 sec)
Heartbeat CPU 0 instructions: 23500099 cycles: 13302592 heartbeat IPC: 1.803 cumulative IPC: 1.767 (Simulation time: 00 hr 04 min 30 sec)
Heartbeat CPU 0 instructions: 24000101 cycles: 13579860 heartbeat IPC: 1.803 cumulative IPC: 1.767 (Simulation time: 00 hr 04 min 36 sec)
Heartbeat CPU 0 instructions: 24500101 cycles: 13857287 heartbeat IPC: 1.802 cumulative IPC: 1.768 (Simulation time: 00 hr 04 min 41 sec)
Heartbeat CPU 0 instructions: 25000105 cycles: 14134709 heartbeat IPC: 1.802 cumulative IPC: 1.769 (Simulation time: 00 hr 04 min 47 sec)
Heartbeat CPU 0 instructions: 25500107 cycles: 14411866 heartbeat IPC: 1.804 cumulative IPC: 1.769 (Simulation time: 00 hr 04 min 52 sec)
Heartbeat CPU 0 instructions: 26000111 cycles: 14688905 heartbeat IPC: 1.805 cumulative IPC: 1.77 (Simulation time: 00 hr 04 min 58 sec)
Heartbeat CPU 0 instructions: 26500116 cycles: 14966122 heartbeat IPC: 1.804 cumulative IPC: 1.771 (Simulation time: 00 hr 05 min 03 sec)
Heartbeat CPU 0 instructions: 27000118 cycles: 15243433 heartbeat IPC: 1.803 cumulative IPC: 1.771 (Simulation time: 00 hr 05 min 09 sec)
Heartbeat CPU 0 instructions: 27500118 cycles: 15520620 heartbeat IPC: 1.804 cumulative IPC: 1.772 (Simulation time: 00 hr 05 min 14 sec)
Heartbeat CPU 0 instructions: 28000119 cycles: 15798091 heartbeat IPC: 1.802 cumulative IPC: 1.772 (Simulation time: 00 hr 05 min 20 sec)
Heartbeat CPU 0 instructions: 28500120 cycles: 16075147 heartbeat IPC: 1.805 cumulative IPC: 1.773 (Simulation time: 00 hr 05 min 25 sec)
Heartbeat CPU 0 instructions: 29000123 cycles: 16353202 heartbeat IPC: 1.798 cumulative IPC: 1.773 (Simulation time: 00 hr 05 min 31 sec)
Heartbeat CPU 0 instructions: 29500127 cycles: 16633161 heartbeat IPC: 1.786 cumulative IPC: 1.774 (Simulation time: 00 hr 05 min 37 sec)
Heartbeat CPU 0 instructions: 30000127 cycles: 16910597 heartbeat IPC: 1.802 cumulative IPC: 1.774 (Simulation time: 00 hr 05 min 42 sec)
Heartbeat CPU 0 instructions: 30500132 cycles: 17187671 heartbeat IPC: 1.805 cumulative IPC: 1.775 (Simulation time: 00 hr 05 min 48 sec)
Heartbeat CPU 0 instructions: 31000132 cycles: 17465271 heartbeat IPC: 1.801 cumulative IPC: 1.775 (Simulation time: 00 hr 05 min 53 sec)
Heartbeat CPU 0 instructions: 31500134 cycles: 17742553 heartbeat IPC: 1.803 cumulative IPC: 1.775 (Simulation time: 00 hr 05 min 59 sec)
Heartbeat CPU 0 instructions: 32000141 cycles: 18019993 heartbeat IPC: 1.802 cumulative IPC: 1.776 (Simulation time: 00 hr 06 min 05 sec)
Heartbeat CPU 0 instructions: 32500141 cycles: 18297010 heartbeat IPC: 1.805 cumulative IPC: 1.776 (Simulation time: 00 hr 06 min 10 sec)
Heartbeat CPU 0 instructions: 33000141 cycles: 18574125 heartbeat IPC: 1.804 cumulative IPC: 1.777 (Simulation time: 00 hr 06 min 16 sec)
Heartbeat CPU 0 instructions: 33500142 cycles: 18851492 heartbeat IPC: 1.803 cumulative IPC: 1.777 (Simulation time: 00 hr 06 min 22 sec)
Heartbeat CPU 0 instructions: 34000142 cycles: 19128613 heartbeat IPC: 1.804 cumulative IPC: 1.777 (Simulation time: 00 hr 06 min 27 sec)
Heartbeat CPU 0 instructions: 34500148 cycles: 19405908 heartbeat IPC: 1.803 cumulative IPC: 1.778 (Simulation time: 00 hr 06 min 33 sec)
Heartbeat CPU 0 instructions: 35000150 cycles: 19683028 heartbeat IPC: 1.804 cumulative IPC: 1.778 (Simulation time: 00 hr 06 min 39 sec)
Heartbeat CPU 0 instructions: 35500155 cycles: 19963611 heartbeat IPC: 1.782 cumulative IPC: 1.778 (Simulation time: 00 hr 06 min 45 sec)
Heartbeat CPU 0 instructions: 36000156 cycles: 20241043 heartbeat IPC: 1.802 cumulative IPC: 1.779 (Simulation time: 00 hr 06 min 50 sec)
Heartbeat CPU 0 instructions: 36500162 cycles: 20518375 heartbeat IPC: 1.803 cumulative IPC: 1.779 (Simulation time: 00 hr 06 min 56 sec)
Heartbeat CPU 0 instructions: 37000162 cycles: 20795888 heartbeat IPC: 1.802 cumulative IPC: 1.779 (Simulation time: 00 hr 07 min 02 sec)
Heartbeat CPU 0 instructions: 37500167 cycles: 21073002 heartbeat IPC: 1.804 cumulative IPC: 1.78 (Simulation time: 00 hr 07 min 07 sec)
Heartbeat CPU 0 instructions: 38000174 cycles: 21350361 heartbeat IPC: 1.803 cumulative IPC: 1.78 (Simulation time: 00 hr 07 min 13 sec)
Heartbeat CPU 0 instructions: 38500178 cycles: 21627586 heartbeat IPC: 1.804 cumulative IPC: 1.78 (Simulation time: 00 hr 07 min 19 sec)
Heartbeat CPU 0 instructions: 39000181 cycles: 21904866 heartbeat IPC: 1.803 cumulative IPC: 1.78 (Simulation time: 00 hr 07 min 24 sec)
Heartbeat CPU 0 instructions: 39500186 cycles: 22181826 heartbeat IPC: 1.805 cumulative IPC: 1.781 (Simulation time: 00 hr 07 min 30 sec)
Heartbeat CPU 0 instructions: 40000193 cycles: 22459040 heartbeat IPC: 1.804 cumulative IPC: 1.781 (Simulation time: 00 hr 07 min 36 sec)
Heartbeat CPU 0 instructions: 40500198 cycles: 22736303 heartbeat IPC: 1.803 cumulative IPC: 1.781 (Simulation time: 00 hr 07 min 41 sec)
Heartbeat CPU 0 instructions: 41000200 cycles: 23013503 heartbeat IPC: 1.804 cumulative IPC: 1.782 (Simulation time: 00 hr 07 min 47 sec)
Heartbeat CPU 0 instructions: 41500203 cycles: 23294033 heartbeat IPC: 1.782 cumulative IPC: 1.782 (Simulation time: 00 hr 07 min 53 sec)
Heartbeat CPU 0 instructions: 42000205 cycles: 23571398 heartbeat IPC: 1.803 cumulative IPC: 1.782 (Simulation time: 00 hr 07 min 58 sec)
Heartbeat CPU 0 instructions: 42500206 cycles: 23848483 heartbeat IPC: 1.805 cumulative IPC: 1.782 (Simulation time: 00 hr 08 min 04 sec)
Heartbeat CPU 0 instructions: 43000209 cycles: 24125927 heartbeat IPC: 1.802 cumulative IPC: 1.782 (Simulation time: 00 hr 08 min 10 sec)
Heartbeat CPU 0 instructions: 43500209 cycles: 24403187 heartbeat IPC: 1.803 cumulative IPC: 1.783 (Simulation time: 00 hr 08 min 15 sec)
Heartbeat CPU 0 instructions: 44000216 cycles: 24680519 heartbeat IPC: 1.803 cumulative IPC: 1.783 (Simulation time: 00 hr 08 min 21 sec)
Heartbeat CPU 0 instructions: 44500219 cycles: 24957661 heartbeat IPC: 1.804 cumulative IPC: 1.783 (Simulation time: 00 hr 08 min 27 sec)
Heartbeat CPU 0 instructions: 45000222 cycles: 25234811 heartbeat IPC: 1.804 cumulative IPC: 1.783 (Simulation time: 00 hr 08 min 32 sec)
Heartbeat CPU 0 instructions: 45500227 cycles: 25512062 heartbeat IPC: 1.803 cumulative IPC: 1.783 (Simulation time: 00 hr 08 min 38 sec)
Heartbeat CPU 0 instructions: 46000231 cycles: 25789269 heartbeat IPC: 1.804 cumulative IPC: 1.784 (Simulation time: 00 hr 08 min 44 sec)
Heartbeat CPU 0 instructions: 46500236 cycles: 26066755 heartbeat IPC: 1.802 cumulative IPC: 1.784 (Simulation time: 00 hr 08 min 50 sec)
Heartbeat CPU 0 instructions: 47000236 cycles: 26343729 heartbeat IPC: 1.805 cumulative IPC: 1.784 (Simulation time: 00 hr 08 min 55 sec)
Heartbeat CPU 0 instructions: 47500240 cycles: 26624113 heartbeat IPC: 1.783 cumulative IPC: 1.784 (Simulation time: 00 hr 09 min 01 sec)
Heartbeat CPU 0 instructions: 48000241 cycles: 26901481 heartbeat IPC: 1.803 cumulative IPC: 1.784 (Simulation time: 00 hr 09 min 07 sec)
Heartbeat CPU 0 instructions: 48500248 cycles: 27178646 heartbeat IPC: 1.804 cumulative IPC: 1.784 (Simulation time: 00 hr 09 min 12 sec)
Heartbeat CPU 0 instructions: 49000250 cycles: 27456130 heartbeat IPC: 1.802 cumulative IPC: 1.785 (Simulation time: 00 hr 09 min 18 sec)
Heartbeat CPU 0 instructions: 49500250 cycles: 27733527 heartbeat IPC: 1.802 cumulative IPC: 1.785 (Simulation time: 00 hr 09 min 24 sec)
Warmup halting CPU 0 at instruction 50000001 cycle 28010612 for remainder of phase
Warmup finished CPU 0 instructions: 50000001 cycles: 28010612 cumulative IPC: 1.785 (Simulation time: 00 hr 09 min 29 sec)
Warmup complete CPU 0 instructions: 50000001 cycles: 28010612 cumulative IPC: 1.785 (Simulation time: 00 hr 09 min 29 sec)
Heartbeat CPU 0 instructions: 50000255 cycles: 28010796 heartbeat IPC: 1.803 cumulative IPC: 1.38 (Simulation time: 00 hr 09 min 29 sec)
Heartbeat CPU 0 instructions: 50500256 cycles: 28382374 heartbeat IPC: 1.346 cumulative IPC: 1.346 (Simulation time: 00 hr 09 min 35 sec)
Heartbeat CPU 0 instructions: 51000260 cycles: 28764413 heartbeat IPC: 1.309 cumulative IPC: 1.327 (Simulation time: 00 hr 09 min 40 sec)
Heartbeat CPU 0 instructions: 51500261 cycles: 29136058 heartbeat IPC: 1.345 cumulative IPC: 1.333 (Simulation time: 00 hr 09 min 46 sec)
Heartbeat CPU 0 instructions: 52000262 cycles: 29515694 heartbeat IPC: 1.317 cumulative IPC: 1.329 (Simulation time: 00 hr 09 min 51 sec)
Heartbeat CPU 0 instructions: 52500264 cycles: 29885140 heartbeat IPC: 1.353 cumulative IPC: 1.334 (Simulation time: 00 hr 09 min 57 sec)
Heartbeat CPU 0 instructions: 53000266 cycles: 30256197 heartbeat IPC: 1.348 cumulative IPC: 1.336 (Simulation time: 00 hr 10 min 02 sec)
Heartbeat CPU 0 instructions: 53500272 cycles: 30641423 heartbeat IPC: 1.298 cumulative IPC: 1.33 (Simulation time: 00 hr 10 min 08 sec)
Heartbeat CPU 0 instructions: 54000277 cycles: 30991224 heartbeat IPC: 1.429 cumulative IPC: 1.342 (Simulation time: 00 hr 10 min 13 sec)
Heartbeat CPU 0 instructions: 54500283 cycles: 31338782 heartbeat IPC: 1.439 cumulative IPC: 1.352 (Simulation time: 00 hr 10 min 18 sec)
Heartbeat CPU 0 instructions: 55000284 cycles: 31674345 heartbeat IPC: 1.49 cumulative IPC: 1.365 (Simulation time: 00 hr 10 min 23 sec)
Heartbeat CPU 0 instructions: 55500288 cycles: 32011158 heartbeat IPC: 1.485 cumulative IPC: 1.375 (Simulation time: 00 hr 10 min 28 sec)
Heartbeat CPU 0 instructions: 56000289 cycles: 32341957 heartbeat IPC: 1.511 cumulative IPC: 1.385 (Simulation time: 00 hr 10 min 33 sec)
Heartbeat CPU 0 instructions: 56500294 cycles: 32716884 heartbeat IPC: 1.334 cumulative IPC: 1.381 (Simulation time: 00 hr 10 min 39 sec)
Heartbeat CPU 0 instructions: 57000301 cycles: 33089157 heartbeat IPC: 1.343 cumulative IPC: 1.378 (Simulation time: 00 hr 10 min 44 sec)
Heartbeat CPU 0 instructions: 57500303 cycles: 33470724 heartbeat IPC: 1.31 cumulative IPC: 1.374 (Simulation time: 00 hr 10 min 50 sec)
Heartbeat CPU 0 instructions: 58000309 cycles: 33845801 heartbeat IPC: 1.333 cumulative IPC: 1.371 (Simulation time: 00 hr 10 min 55 sec)
Heartbeat CPU 0 instructions: 58500311 cycles: 34219687 heartbeat IPC: 1.337 cumulative IPC: 1.369 (Simulation time: 00 hr 11 min 00 sec)
Heartbeat CPU 0 instructions: 59000314 cycles: 34592541 heartbeat IPC: 1.341 cumulative IPC: 1.367 (Simulation time: 00 hr 11 min 06 sec)
Heartbeat CPU 0 instructions: 59500315 cycles: 34952776 heartbeat IPC: 1.388 cumulative IPC: 1.368 (Simulation time: 00 hr 11 min 11 sec)
Heartbeat CPU 0 instructions: 60000319 cycles: 35323020 heartbeat IPC: 1.35 cumulative IPC: 1.368 (Simulation time: 00 hr 11 min 17 sec)
Heartbeat CPU 0 instructions: 60500322 cycles: 35668571 heartbeat IPC: 1.447 cumulative IPC: 1.371 (Simulation time: 00 hr 11 min 22 sec)
Heartbeat CPU 0 instructions: 61000324 cycles: 36007713 heartbeat IPC: 1.474 cumulative IPC: 1.376 (Simulation time: 00 hr 11 min 27 sec)
Heartbeat CPU 0 instructions: 61500327 cycles: 36342241 heartbeat IPC: 1.495 cumulative IPC: 1.38 (Simulation time: 00 hr 11 min 32 sec)
Heartbeat CPU 0 instructions: 62000331 cycles: 36678150 heartbeat IPC: 1.489 cumulative IPC: 1.385 (Simulation time: 00 hr 11 min 37 sec)
Heartbeat CPU 0 instructions: 62500332 cycles: 37033245 heartbeat IPC: 1.408 cumulative IPC: 1.385 (Simulation time: 00 hr 11 min 42 sec)
Heartbeat CPU 0 instructions: 63000336 cycles: 37418438 heartbeat IPC: 1.298 cumulative IPC: 1.382 (Simulation time: 00 hr 11 min 48 sec)
Heartbeat CPU 0 instructions: 63500336 cycles: 37800163 heartbeat IPC: 1.31 cumulative IPC: 1.379 (Simulation time: 00 hr 11 min 53 sec)
Heartbeat CPU 0 instructions: 64000337 cycles: 38171343 heartbeat IPC: 1.347 cumulative IPC: 1.378 (Simulation time: 00 hr 11 min 59 sec)
Heartbeat CPU 0 instructions: 64500337 cycles: 38550206 heartbeat IPC: 1.32 cumulative IPC: 1.376 (Simulation time: 00 hr 12 min 04 sec)
Heartbeat CPU 0 instructions: 65000340 cycles: 38915323 heartbeat IPC: 1.369 cumulative IPC: 1.376 (Simulation time: 00 hr 12 min 10 sec)
Heartbeat CPU 0 instructions: 65500344 cycles: 39285532 heartbeat IPC: 1.351 cumulative IPC: 1.375 (Simulation time: 00 hr 12 min 15 sec)
Heartbeat CPU 0 instructions: 66000344 cycles: 39653725 heartbeat IPC: 1.358 cumulative IPC: 1.374 (Simulation time: 00 hr 12 min 20 sec)
Heartbeat CPU 0 instructions: 66500347 cycles: 40007274 heartbeat IPC: 1.414 cumulative IPC: 1.375 (Simulation time: 00 hr 12 min 26 sec)
Heartbeat CPU 0 instructions: 67000348 cycles: 40344412 heartbeat IPC: 1.483 cumulative IPC: 1.378 (Simulation time: 00 hr 12 min 31 sec)
Heartbeat CPU 0 instructions: 67500349 cycles: 40682362 heartbeat IPC: 1.48 cumulative IPC: 1.381 (Simulation time: 00 hr 12 min 36 sec)
Heartbeat CPU 0 instructions: 68000356 cycles: 41014520 heartbeat IPC: 1.505 cumulative IPC: 1.384 (Simulation time: 00 hr 12 min 41 sec)
Heartbeat CPU 0 instructions: 68500359 cycles: 41368588 heartbeat IPC: 1.412 cumulative IPC: 1.385 (Simulation time: 00 hr 12 min 46 sec)
Heartbeat CPU 0 instructions: 69000359 cycles: 41751716 heartbeat IPC: 1.305 cumulative IPC: 1.383 (Simulation time: 00 hr 12 min 52 sec)
Heartbeat CPU 0 instructions: 69500363 cycles: 42122909 heartbeat IPC: 1.347 cumulative IPC: 1.382 (Simulation time: 00 hr 12 min 57 sec)
Heartbeat CPU 0 instructions: 70000368 cycles: 42504285 heartbeat IPC: 1.311 cumulative IPC: 1.38 (Simulation time: 00 hr 13 min 03 sec)
Heartbeat CPU 0 instructions: 70500370 cycles: 42874393 heartbeat IPC: 1.351 cumulative IPC: 1.379 (Simulation time: 00 hr 13 min 08 sec)
Heartbeat CPU 0 instructions: 71000374 cycles: 43249446 heartbeat IPC: 1.333 cumulative IPC: 1.378 (Simulation time: 00 hr 13 min 13 sec)
Heartbeat CPU 0 instructions: 71500375 cycles: 43609604 heartbeat IPC: 1.388 cumulative IPC: 1.378 (Simulation time: 00 hr 13 min 19 sec)
Heartbeat CPU 0 instructions: 72000379 cycles: 43989039 heartbeat IPC: 1.318 cumulative IPC: 1.377 (Simulation time: 00 hr 13 min 24 sec)
Heartbeat CPU 0 instructions: 72500382 cycles: 44339565 heartbeat IPC: 1.426 cumulative IPC: 1.378 (Simulation time: 00 hr 13 min 29 sec)
Heartbeat CPU 0 instructions: 73000386 cycles: 44682469 heartbeat IPC: 1.458 cumulative IPC: 1.38 (Simulation time: 00 hr 13 min 35 sec)
Heartbeat CPU 0 instructions: 73500389 cycles: 45019293 heartbeat IPC: 1.484 cumulative IPC: 1.382 (Simulation time: 00 hr 13 min 40 sec)
Heartbeat CPU 0 instructions: 74000391 cycles: 45353483 heartbeat IPC: 1.496 cumulative IPC: 1.384 (Simulation time: 00 hr 13 min 45 sec)
Heartbeat CPU 0 instructions: 74500395 cycles: 45697210 heartbeat IPC: 1.455 cumulative IPC: 1.385 (Simulation time: 00 hr 13 min 50 sec)
Heartbeat CPU 0 instructions: 75000402 cycles: 46071362 heartbeat IPC: 1.336 cumulative IPC: 1.384 (Simulation time: 00 hr 13 min 55 sec)
Heartbeat CPU 0 instructions: 75500406 cycles: 46452727 heartbeat IPC: 1.311 cumulative IPC: 1.383 (Simulation time: 00 hr 14 min 01 sec)
Heartbeat CPU 0 instructions: 76000408 cycles: 46824753 heartbeat IPC: 1.344 cumulative IPC: 1.382 (Simulation time: 00 hr 14 min 06 sec)
Heartbeat CPU 0 instructions: 76500411 cycles: 47203382 heartbeat IPC: 1.321 cumulative IPC: 1.381 (Simulation time: 00 hr 14 min 12 sec)
Heartbeat CPU 0 instructions: 77000412 cycles: 47572042 heartbeat IPC: 1.356 cumulative IPC: 1.38 (Simulation time: 00 hr 14 min 17 sec)
Heartbeat CPU 0 instructions: 77500413 cycles: 47941715 heartbeat IPC: 1.353 cumulative IPC: 1.38 (Simulation time: 00 hr 14 min 23 sec)
Heartbeat CPU 0 instructions: 78000413 cycles: 48317753 heartbeat IPC: 1.33 cumulative IPC: 1.379 (Simulation time: 00 hr 14 min 28 sec)
Heartbeat CPU 0 instructions: 78500415 cycles: 48675590 heartbeat IPC: 1.397 cumulative IPC: 1.379 (Simulation time: 00 hr 14 min 33 sec)
Heartbeat CPU 0 instructions: 79000419 cycles: 49021771 heartbeat IPC: 1.444 cumulative IPC: 1.38 (Simulation time: 00 hr 14 min 38 sec)
Heartbeat CPU 0 instructions: 79500421 cycles: 49356642 heartbeat IPC: 1.493 cumulative IPC: 1.382 (Simulation time: 00 hr 14 min 43 sec)
Heartbeat CPU 0 instructions: 80000425 cycles: 49694749 heartbeat IPC: 1.479 cumulative IPC: 1.384 (Simulation time: 00 hr 14 min 49 sec)
Heartbeat CPU 0 instructions: 80500429 cycles: 50028821 heartbeat IPC: 1.497 cumulative IPC: 1.385 (Simulation time: 00 hr 14 min 54 sec)
Heartbeat CPU 0 instructions: 81000430 cycles: 50408076 heartbeat IPC: 1.318 cumulative IPC: 1.384 (Simulation time: 00 hr 14 min 59 sec)
Heartbeat CPU 0 instructions: 81500437 cycles: 50779761 heartbeat IPC: 1.345 cumulative IPC: 1.383 (Simulation time: 00 hr 15 min 05 sec)
Heartbeat CPU 0 instructions: 82000437 cycles: 51161102 heartbeat IPC: 1.311 cumulative IPC: 1.382 (Simulation time: 00 hr 15 min 10 sec)
Heartbeat CPU 0 instructions: 82500438 cycles: 51531526 heartbeat IPC: 1.35 cumulative IPC: 1.382 (Simulation time: 00 hr 15 min 16 sec)
Heartbeat CPU 0 instructions: 83000442 cycles: 51909805 heartbeat IPC: 1.322 cumulative IPC: 1.381 (Simulation time: 00 hr 15 min 21 sec)
Heartbeat CPU 0 instructions: 83500446 cycles: 52274043 heartbeat IPC: 1.373 cumulative IPC: 1.381 (Simulation time: 00 hr 15 min 26 sec)
Heartbeat CPU 0 instructions: 84000448 cycles: 52757236 heartbeat IPC: 1.035 cumulative IPC: 1.374 (Simulation time: 00 hr 15 min 33 sec)
Heartbeat CPU 0 instructions: 84500450 cycles: 53386374 heartbeat IPC: 0.7947 cumulative IPC: 1.36 (Simulation time: 00 hr 15 min 41 sec)
Heartbeat CPU 0 instructions: 85000450 cycles: 53510464 heartbeat IPC: 4.029 cumulative IPC: 1.373 (Simulation time: 00 hr 15 min 43 sec)
Heartbeat CPU 0 instructions: 85500451 cycles: 53634849 heartbeat IPC: 4.02 cumulative IPC: 1.385 (Simulation time: 00 hr 15 min 45 sec)
Heartbeat CPU 0 instructions: 86000452 cycles: 53761620 heartbeat IPC: 3.944 cumulative IPC: 1.398 (Simulation time: 00 hr 15 min 47 sec)
Heartbeat CPU 0 instructions: 86500453 cycles: 53884713 heartbeat IPC: 4.062 cumulative IPC: 1.411 (Simulation time: 00 hr 15 min 49 sec)
Heartbeat CPU 0 instructions: 87000456 cycles: 54009039 heartbeat IPC: 4.022 cumulative IPC: 1.423 (Simulation time: 00 hr 15 min 51 sec)
Heartbeat CPU 0 instructions: 87500461 cycles: 54135076 heartbeat IPC: 3.967 cumulative IPC: 1.435 (Simulation time: 00 hr 15 min 53 sec)
Heartbeat CPU 0 instructions: 88000462 cycles: 54259680 heartbeat IPC: 4.013 cumulative IPC: 1.448 (Simulation time: 00 hr 15 min 55 sec)
Heartbeat CPU 0 instructions: 88500463 cycles: 54387602 heartbeat IPC: 3.909 cumulative IPC: 1.46 (Simulation time: 00 hr 15 min 57 sec)
Heartbeat CPU 0 instructions: 89000469 cycles: 54511480 heartbeat IPC: 4.036 cumulative IPC: 1.472 (Simulation time: 00 hr 15 min 59 sec)
Heartbeat CPU 0 instructions: 89500475 cycles: 54635490 heartbeat IPC: 4.032 cumulative IPC: 1.484 (Simulation time: 00 hr 16 min 01 sec)
Heartbeat CPU 0 instructions: 90000479 cycles: 54763203 heartbeat IPC: 3.915 cumulative IPC: 1.495 (Simulation time: 00 hr 16 min 03 sec)
Heartbeat CPU 0 instructions: 90500485 cycles: 54886508 heartbeat IPC: 4.055 cumulative IPC: 1.507 (Simulation time: 00 hr 16 min 05 sec)
Heartbeat CPU 0 instructions: 91000489 cycles: 55010175 heartbeat IPC: 4.043 cumulative IPC: 1.519 (Simulation time: 00 hr 16 min 07 sec)
Heartbeat CPU 0 instructions: 91500489 cycles: 55137660 heartbeat IPC: 3.922 cumulative IPC: 1.53 (Simulation time: 00 hr 16 min 09 sec)
Heartbeat CPU 0 instructions: 92000491 cycles: 55260392 heartbeat IPC: 4.074 cumulative IPC: 1.541 (Simulation time: 00 hr 16 min 11 sec)
Heartbeat CPU 0 instructions: 92500492 cycles: 55383603 heartbeat IPC: 4.058 cumulative IPC: 1.553 (Simulation time: 00 hr 16 min 13 sec)
Heartbeat CPU 0 instructions: 93000495 cycles: 55510988 heartbeat IPC: 3.925 cumulative IPC: 1.564 (Simulation time: 00 hr 16 min 15 sec)
Heartbeat CPU 0 instructions: 93500498 cycles: 55633730 heartbeat IPC: 4.074 cumulative IPC: 1.575 (Simulation time: 00 hr 16 min 17 sec)
Heartbeat CPU 0 instructions: 94000499 cycles: 55760490 heartbeat IPC: 3.944 cumulative IPC: 1.586 (Simulation time: 00 hr 16 min 19 sec)
Heartbeat CPU 0 instructions: 94500505 cycles: 55884061 heartbeat IPC: 4.046 cumulative IPC: 1.597 (Simulation time: 00 hr 16 min 21 sec)
Heartbeat CPU 0 instructions: 95000509 cycles: 56007690 heartbeat IPC: 4.044 cumulative IPC: 1.607 (Simulation time: 00 hr 16 min 23 sec)
Heartbeat CPU 0 instructions: 95500514 cycles: 56134700 heartbeat IPC: 3.937 cumulative IPC: 1.618 (Simulation time: 00 hr 16 min 25 sec)
Heartbeat CPU 0 instructions: 96000514 cycles: 56257725 heartbeat IPC: 4.064 cumulative IPC: 1.629 (Simulation time: 00 hr 16 min 27 sec)
Heartbeat CPU 0 instructions: 96500519 cycles: 56381714 heartbeat IPC: 4.033 cumulative IPC: 1.639 (Simulation time: 00 hr 16 min 29 sec)
Heartbeat CPU 0 instructions: 97000523 cycles: 56508714 heartbeat IPC: 3.937 cumulative IPC: 1.649 (Simulation time: 00 hr 16 min 31 sec)
Heartbeat CPU 0 instructions: 97500528 cycles: 56633003 heartbeat IPC: 4.023 cumulative IPC: 1.66 (Simulation time: 00 hr 16 min 33 sec)
Heartbeat CPU 0 instructions: 98000535 cycles: 56756692 heartbeat IPC: 4.042 cumulative IPC: 1.67 (Simulation time: 00 hr 16 min 35 sec)
Heartbeat CPU 0 instructions: 98500541 cycles: 56884053 heartbeat IPC: 3.926 cumulative IPC: 1.68 (Simulation time: 00 hr 16 min 37 sec)
Heartbeat CPU 0 instructions: 99000545 cycles: 57007065 heartbeat IPC: 4.065 cumulative IPC: 1.69 (Simulation time: 00 hr 16 min 39 sec)
Heartbeat CPU 0 instructions: 99500548 cycles: 57130826 heartbeat IPC: 4.04 cumulative IPC: 1.7 (Simulation time: 00 hr 16 min 41 sec)
Heartbeat CPU 0 instructions: 100000548 cycles: 57255578 heartbeat IPC: 4.008 cumulative IPC: 1.71 (Simulation time: 00 hr 16 min 43 sec)
Heartbeat CPU 0 instructions: 100500555 cycles: 57378001 heartbeat IPC: 4.084 cumulative IPC: 1.72 (Simulation time: 00 hr 16 min 45 sec)
Heartbeat CPU 0 instructions: 101000559 cycles: 57504437 heartbeat IPC: 3.955 cumulative IPC: 1.729 (Simulation time: 00 hr 16 min 47 sec)
Heartbeat CPU 0 instructions: 101500564 cycles: 57627452 heartbeat IPC: 4.065 cumulative IPC: 1.739 (Simulation time: 00 hr 16 min 49 sec)
Heartbeat CPU 0 instructions: 102000568 cycles: 57750638 heartbeat IPC: 4.059 cumulative IPC: 1.749 (Simulation time: 00 hr 16 min 51 sec)
Heartbeat CPU 0 instructions: 102500569 cycles: 57876946 heartbeat IPC: 3.959 cumulative IPC: 1.758 (Simulation time: 00 hr 16 min 53 sec)
Heartbeat CPU 0 instructions: 103000570 cycles: 57999849 heartbeat IPC: 4.068 cumulative IPC: 1.767 (Simulation time: 00 hr 16 min 55 sec)
Heartbeat CPU 0 instructions: 103500570 cycles: 58122398 heartbeat IPC: 4.08 cumulative IPC: 1.777 (Simulation time: 00 hr 16 min 57 sec)
Heartbeat CPU 0 instructions: 104000574 cycles: 58250881 heartbeat IPC: 3.892 cumulative IPC: 1.786 (Simulation time: 00 hr 16 min 59 sec)
Heartbeat CPU 0 instructions: 104500576 cycles: 58373524 heartbeat IPC: 4.077 cumulative IPC: 1.795 (Simulation time: 00 hr 17 min 01 sec)
Heartbeat CPU 0 instructions: 105000580 cycles: 58496450 heartbeat IPC: 4.068 cumulative IPC: 1.804 (Simulation time: 00 hr 17 min 03 sec)
Heartbeat CPU 0 instructions: 105500584 cycles: 58622779 heartbeat IPC: 3.958 cumulative IPC: 1.813 (Simulation time: 00 hr 17 min 05 sec)
Heartbeat CPU 0 instructions: 106000585 cycles: 58745555 heartbeat IPC: 4.072 cumulative IPC: 1.822 (Simulation time: 00 hr 17 min 07 sec)
Heartbeat CPU 0 instructions: 106500589 cycles: 58872062 heartbeat IPC: 3.952 cumulative IPC: 1.831 (Simulation time: 00 hr 17 min 09 sec)
Heartbeat CPU 0 instructions: 107000590 cycles: 58995290 heartbeat IPC: 4.058 cumulative IPC: 1.84 (Simulation time: 00 hr 17 min 11 sec)
Heartbeat CPU 0 instructions: 107500591 cycles: 59117987 heartbeat IPC: 4.075 cumulative IPC: 1.848 (Simulation time: 00 hr 17 min 13 sec)
Heartbeat CPU 0 instructions: 108000595 cycles: 59244364 heartbeat IPC: 3.956 cumulative IPC: 1.857 (Simulation time: 00 hr 17 min 15 sec)
Heartbeat CPU 0 instructions: 108500595 cycles: 59366718 heartbeat IPC: 4.087 cumulative IPC: 1.866 (Simulation time: 00 hr 17 min 17 sec)
Heartbeat CPU 0 instructions: 109000600 cycles: 59490319 heartbeat IPC: 4.045 cumulative IPC: 1.874 (Simulation time: 00 hr 17 min 19 sec)
Heartbeat CPU 0 instructions: 109500604 cycles: 59617519 heartbeat IPC: 3.931 cumulative IPC: 1.883 (Simulation time: 00 hr 17 min 21 sec)
Heartbeat CPU 0 instructions: 110000605 cycles: 59741333 heartbeat IPC: 4.038 cumulative IPC: 1.891 (Simulation time: 00 hr 17 min 23 sec)
Heartbeat CPU 0 instructions: 110500608 cycles: 59864689 heartbeat IPC: 4.053 cumulative IPC: 1.899 (Simulation time: 00 hr 17 min 25 sec)
Heartbeat CPU 0 instructions: 111000614 cycles: 59991496 heartbeat IPC: 3.943 cumulative IPC: 1.907 (Simulation time: 00 hr 17 min 27 sec)
Heartbeat CPU 0 instructions: 111500618 cycles: 60114460 heartbeat IPC: 4.066 cumulative IPC: 1.916 (Simulation time: 00 hr 17 min 29 sec)
Heartbeat CPU 0 instructions: 112000623 cycles: 60244027 heartbeat IPC: 3.859 cumulative IPC: 1.923 (Simulation time: 00 hr 17 min 31 sec)
Heartbeat CPU 0 instructions: 112500626 cycles: 60469177 heartbeat IPC: 2.221 cumulative IPC: 1.926 (Simulation time: 00 hr 17 min 34 sec)
Heartbeat CPU 0 instructions: 113000626 cycles: 60800988 heartbeat IPC: 1.507 cumulative IPC: 1.921 (Simulation time: 00 hr 17 min 37 sec)
Heartbeat CPU 0 instructions: 113500626 cycles: 61132779 heartbeat IPC: 1.507 cumulative IPC: 1.917 (Simulation time: 00 hr 17 min 41 sec)
Heartbeat CPU 0 instructions: 114000633 cycles: 61464632 heartbeat IPC: 1.507 cumulative IPC: 1.913 (Simulation time: 00 hr 17 min 44 sec)
Heartbeat CPU 0 instructions: 114500634 cycles: 61796479 heartbeat IPC: 1.507 cumulative IPC: 1.909 (Simulation time: 00 hr 17 min 48 sec)
Heartbeat CPU 0 instructions: 115000639 cycles: 62128206 heartbeat IPC: 1.507 cumulative IPC: 1.905 (Simulation time: 00 hr 17 min 52 sec)
Heartbeat CPU 0 instructions: 115500640 cycles: 62460205 heartbeat IPC: 1.506 cumulative IPC: 1.901 (Simulation time: 00 hr 17 min 55 sec)
Heartbeat CPU 0 instructions: 116000643 cycles: 62792004 heartbeat IPC: 1.507 cumulative IPC: 1.898 (Simulation time: 00 hr 17 min 59 sec)
Heartbeat CPU 0 instructions: 116500643 cycles: 63123790 heartbeat IPC: 1.507 cumulative IPC: 1.894 (Simulation time: 00 hr 18 min 02 sec)
Heartbeat CPU 0 instructions: 117000644 cycles: 63455741 heartbeat IPC: 1.506 cumulative IPC: 1.89 (Simulation time: 00 hr 18 min 06 sec)
Heartbeat CPU 0 instructions: 117500644 cycles: 63787486 heartbeat IPC: 1.507 cumulative IPC: 1.887 (Simulation time: 00 hr 18 min 09 sec)
Heartbeat CPU 0 instructions: 118000650 cycles: 64119354 heartbeat IPC: 1.507 cumulative IPC: 1.883 (Simulation time: 00 hr 18 min 13 sec)
Heartbeat CPU 0 instructions: 118500651 cycles: 64451161 heartbeat IPC: 1.507 cumulative IPC: 1.88 (Simulation time: 00 hr 18 min 16 sec)
Heartbeat CPU 0 instructions: 119000654 cycles: 64782976 heartbeat IPC: 1.507 cumulative IPC: 1.876 (Simulation time: 00 hr 18 min 20 sec)
Heartbeat CPU 0 instructions: 119500658 cycles: 65005686 heartbeat IPC: 2.245 cumulative IPC: 1.879 (Simulation time: 00 hr 18 min 22 sec)
Heartbeat CPU 0 instructions: 120000662 cycles: 65109290 heartbeat IPC: 4.826 cumulative IPC: 1.887 (Simulation time: 00 hr 18 min 24 sec)
Heartbeat CPU 0 instructions: 120500666 cycles: 65212839 heartbeat IPC: 4.829 cumulative IPC: 1.895 (Simulation time: 00 hr 18 min 26 sec)
Heartbeat CPU 0 instructions: 121000670 cycles: 65316395 heartbeat IPC: 4.828 cumulative IPC: 1.903 (Simulation time: 00 hr 18 min 27 sec)
Heartbeat CPU 0 instructions: 121500676 cycles: 65419986 heartbeat IPC: 4.827 cumulative IPC: 1.911 (Simulation time: 00 hr 18 min 29 sec)
Heartbeat CPU 0 instructions: 122000677 cycles: 65528549 heartbeat IPC: 4.606 cumulative IPC: 1.919 (Simulation time: 00 hr 18 min 31 sec)
Heartbeat CPU 0 instructions: 122500681 cycles: 65632170 heartbeat IPC: 4.825 cumulative IPC: 1.927 (Simulation time: 00 hr 18 min 32 sec)
Heartbeat CPU 0 instructions: 123000685 cycles: 65735703 heartbeat IPC: 4.829 cumulative IPC: 1.935 (Simulation time: 00 hr 18 min 34 sec)
Heartbeat CPU 0 instructions: 123500685 cycles: 65839285 heartbeat IPC: 4.827 cumulative IPC: 1.943 (Simulation time: 00 hr 18 min 36 sec)
Heartbeat CPU 0 instructions: 124000687 cycles: 65946400 heartbeat IPC: 4.668 cumulative IPC: 1.951 (Simulation time: 00 hr 18 min 38 sec)
Heartbeat CPU 0 instructions: 124500693 cycles: 66050043 heartbeat IPC: 4.824 cumulative IPC: 1.959 (Simulation time: 00 hr 18 min 39 sec)
Heartbeat CPU 0 instructions: 125000700 cycles: 66153814 heartbeat IPC: 4.818 cumulative IPC: 1.966 (Simulation time: 00 hr 18 min 41 sec)
Heartbeat CPU 0 instructions: 125500707 cycles: 66257395 heartbeat IPC: 4.827 cumulative IPC: 1.974 (Simulation time: 00 hr 18 min 43 sec)
Heartbeat CPU 0 instructions: 126000713 cycles: 66360939 heartbeat IPC: 4.829 cumulative IPC: 1.982 (Simulation time: 00 hr 18 min 44 sec)
Heartbeat CPU 0 instructions: 126500714 cycles: 66469181 heartbeat IPC: 4.619 cumulative IPC: 1.989 (Simulation time: 00 hr 18 min 46 sec)
Heartbeat CPU 0 instructions: 127000718 cycles: 66572764 heartbeat IPC: 4.827 cumulative IPC: 1.997 (Simulation time: 00 hr 18 min 48 sec)
Heartbeat CPU 0 instructions: 127500722 cycles: 66676319 heartbeat IPC: 4.828 cumulative IPC: 2.004 (Simulation time: 00 hr 18 min 49 sec)
Heartbeat CPU 0 instructions: 128000724 cycles: 66779903 heartbeat IPC: 4.827 cumulative IPC: 2.012 (Simulation time: 00 hr 18 min 51 sec)
Heartbeat CPU 0 instructions: 128500725 cycles: 66883530 heartbeat IPC: 4.825 cumulative IPC: 2.019 (Simulation time: 00 hr 18 min 53 sec)
Heartbeat CPU 0 instructions: 129000725 cycles: 66991613 heartbeat IPC: 4.626 cumulative IPC: 2.027 (Simulation time: 00 hr 18 min 54 sec)
Heartbeat CPU 0 instructions: 129500725 cycles: 67095173 heartbeat IPC: 4.828 cumulative IPC: 2.034 (Simulation time: 00 hr 18 min 56 sec)
Heartbeat CPU 0 instructions: 130000725 cycles: 67198755 heartbeat IPC: 4.827 cumulative IPC: 2.041 (Simulation time: 00 hr 18 min 58 sec)
Heartbeat CPU 0 instructions: 130500727 cycles: 67302328 heartbeat IPC: 4.828 cumulative IPC: 2.049 (Simulation time: 00 hr 18 min 59 sec)
Heartbeat CPU 0 instructions: 131000733 cycles: 67410020 heartbeat IPC: 4.643 cumulative IPC: 2.056 (Simulation time: 00 hr 19 min 01 sec)
Heartbeat CPU 0 instructions: 131500736 cycles: 67513588 heartbeat IPC: 4.828 cumulative IPC: 2.063 (Simulation time: 00 hr 19 min 03 sec)
Heartbeat CPU 0 instructions: 132000740 cycles: 67617173 heartbeat IPC: 4.827 cumulative IPC: 2.07 (Simulation time: 00 hr 19 min 04 sec)
Heartbeat CPU 0 instructions: 132500744 cycles: 67720919 heartbeat IPC: 4.82 cumulative IPC: 2.078 (Simulation time: 00 hr 19 min 06 sec)
Heartbeat CPU 0 instructions: 133000750 cycles: 67824536 heartbeat IPC: 4.826 cumulative IPC: 2.085 (Simulation time: 00 hr 19 min 08 sec)
Heartbeat CPU 0 instructions: 133500754 cycles: 67931938 heartbeat IPC: 4.655 cumulative IPC: 2.092 (Simulation time: 00 hr 19 min 10 sec)
Heartbeat CPU 0 instructions: 134000758 cycles: 68035523 heartbeat IPC: 4.827 cumulative IPC: 2.099 (Simulation time: 00 hr 19 min 11 sec)
Heartbeat CPU 0 instructions: 134500763 cycles: 68139117 heartbeat IPC: 4.827 cumulative IPC: 2.106 (Simulation time: 00 hr 19 min 13 sec)
Heartbeat CPU 0 instructions: 135000763 cycles: 68242752 heartbeat IPC: 4.825 cumulative IPC: 2.113 (Simulation time: 00 hr 19 min 14 sec)
Heartbeat CPU 0 instructions: 135500767 cycles: 68347312 heartbeat IPC: 4.782 cumulative IPC: 2.12 (Simulation time: 00 hr 19 min 16 sec)
Heartbeat CPU 0 instructions: 136000768 cycles: 68452755 heartbeat IPC: 4.742 cumulative IPC: 2.127 (Simulation time: 00 hr 19 min 18 sec)
Heartbeat CPU 0 instructions: 136500769 cycles: 68556331 heartbeat IPC: 4.827 cumulative IPC: 2.133 (Simulation time: 00 hr 19 min 20 sec)
Heartbeat CPU 0 instructions: 137000773 cycles: 68659907 heartbeat IPC: 4.827 cumulative IPC: 2.14 (Simulation time: 00 hr 19 min 21 sec)
Heartbeat CPU 0 instructions: 137500774 cycles: 68763579 heartbeat IPC: 4.823 cumulative IPC: 2.147 (Simulation time: 00 hr 19 min 23 sec)
Heartbeat CPU 0 instructions: 138000778 cycles: 68870379 heartbeat IPC: 4.682 cumulative IPC: 2.154 (Simulation time: 00 hr 19 min 25 sec)
Heartbeat CPU 0 instructions: 138500779 cycles: 68974004 heartbeat IPC: 4.825 cumulative IPC: 2.16 (Simulation time: 00 hr 19 min 26 sec)
Heartbeat CPU 0 instructions: 139000786 cycles: 69077592 heartbeat IPC: 4.827 cumulative IPC: 2.167 (Simulation time: 00 hr 19 min 28 sec)
Heartbeat CPU 0 instructions: 139500786 cycles: 69181244 heartbeat IPC: 4.824 cumulative IPC: 2.174 (Simulation time: 00 hr 19 min 30 sec)
Heartbeat CPU 0 instructions: 140000788 cycles: 69284868 heartbeat IPC: 4.825 cumulative IPC: 2.181 (Simulation time: 00 hr 19 min 31 sec)
Heartbeat CPU 0 instructions: 140500789 cycles: 69392645 heartbeat IPC: 4.639 cumulative IPC: 2.187 (Simulation time: 00 hr 19 min 33 sec)
Heartbeat CPU 0 instructions: 141000790 cycles: 69496391 heartbeat IPC: 4.819 cumulative IPC: 2.194 (Simulation time: 00 hr 19 min 35 sec)
Heartbeat CPU 0 instructions: 141500791 cycles: 69600429 heartbeat IPC: 4.806 cumulative IPC: 2.2 (Simulation time: 00 hr 19 min 36 sec)
Heartbeat CPU 0 instructions: 142000797 cycles: 69704600 heartbeat IPC: 4.8 cumulative IPC: 2.207 (Simulation time: 00 hr 19 min 38 sec)
Heartbeat CPU 0 instructions: 142500799 cycles: 69812196 heartbeat IPC: 4.647 cumulative IPC: 2.213 (Simulation time: 00 hr 19 min 40 sec)
Heartbeat CPU 0 instructions: 143000800 cycles: 69915786 heartbeat IPC: 4.827 cumulative IPC: 2.219 (Simulation time: 00 hr 19 min 41 sec)
Heartbeat CPU 0 instructions: 143500804 cycles: 70019601 heartbeat IPC: 4.816 cumulative IPC: 2.226 (Simulation time: 00 hr 19 min 43 sec)
Heartbeat CPU 0 instructions: 144000810 cycles: 70123165 heartbeat IPC: 4.828 cumulative IPC: 2.232 (Simulation time: 00 hr 19 min 45 sec)
Heartbeat CPU 0 instructions: 144500812 cycles: 70226748 heartbeat IPC: 4.827 cumulative IPC: 2.238 (Simulation time: 00 hr 19 min 46 sec)
Heartbeat CPU 0 instructions: 145000818 cycles: 70334330 heartbeat IPC: 4.648 cumulative IPC: 2.245 (Simulation time: 00 hr 19 min 48 sec)
Heartbeat CPU 0 instructions: 145500819 cycles: 70437989 heartbeat IPC: 4.824 cumulative IPC: 2.251 (Simulation time: 00 hr 19 min 50 sec)
Heartbeat CPU 0 instructions: 146000823 cycles: 70541854 heartbeat IPC: 4.814 cumulative IPC: 2.257 (Simulation time: 00 hr 19 min 51 sec)
Heartbeat CPU 0 instructions: 146500823 cycles: 70645617 heartbeat IPC: 4.819 cumulative IPC: 2.263 (Simulation time: 00 hr 19 min 53 sec)
Heartbeat CPU 0 instructions: 147000823 cycles: 70749241 heartbeat IPC: 4.825 cumulative IPC: 2.27 (Simulation time: 00 hr 19 min 55 sec)
Heartbeat CPU 0 instructions: 147500829 cycles: 70856578 heartbeat IPC: 4.658 cumulative IPC: 2.276 (Simulation time: 00 hr 19 min 56 sec)
Heartbeat CPU 0 instructions: 148000835 cycles: 70960260 heartbeat IPC: 4.822 cumulative IPC: 2.282 (Simulation time: 00 hr 19 min 58 sec)
Heartbeat CPU 0 instructions: 148500842 cycles: 71064023 heartbeat IPC: 4.819 cumulative IPC: 2.288 (Simulation time: 00 hr 20 min 00 sec)
Heartbeat CPU 0 instructions: 149000846 cycles: 71167591 heartbeat IPC: 4.828 cumulative IPC: 2.294 (Simulation time: 00 hr 20 min 01 sec)
Heartbeat CPU 0 instructions: 149500846 cycles: 71275763 heartbeat IPC: 4.622 cumulative IPC: 2.3 (Simulation time: 00 hr 20 min 03 sec)
Heartbeat CPU 0 instructions: 150000848 cycles: 71379451 heartbeat IPC: 4.822 cumulative IPC: 2.306 (Simulation time: 00 hr 20 min 05 sec)
Heartbeat CPU 0 instructions: 150500852 cycles: 71483184 heartbeat IPC: 4.82 cumulative IPC: 2.312 (Simulation time: 00 hr 20 min 06 sec)
Heartbeat CPU 0 instructions: 151000853 cycles: 71587065 heartbeat IPC: 4.813 cumulative IPC: 2.318 (Simulation time: 00 hr 20 min 08 sec)
Heartbeat CPU 0 instructions: 151500854 cycles: 71690795 heartbeat IPC: 4.82 cumulative IPC: 2.324 (Simulation time: 00 hr 20 min 10 sec)
Heartbeat CPU 0 instructions: 152000861 cycles: 71798017 heartbeat IPC: 4.663 cumulative IPC: 2.329 (Simulation time: 00 hr 20 min 11 sec)
Heartbeat CPU 0 instructions: 152500867 cycles: 71901896 heartbeat IPC: 4.813 cumulative IPC: 2.335 (Simulation time: 00 hr 20 min 13 sec)
Heartbeat CPU 0 instructions: 153000871 cycles: 72005686 heartbeat IPC: 4.817 cumulative IPC: 2.341 (Simulation time: 00 hr 20 min 15 sec)
Heartbeat CPU 0 instructions: 153500871 cycles: 72109452 heartbeat IPC: 4.819 cumulative IPC: 2.347 (Simulation time: 00 hr 20 min 16 sec)
Heartbeat CPU 0 instructions: 154000871 cycles: 72215152 heartbeat IPC: 4.73 cumulative IPC: 2.353 (Simulation time: 00 hr 20 min 18 sec)
Heartbeat CPU 0 instructions: 154500871 cycles: 72320063 heartbeat IPC: 4.766 cumulative IPC: 2.358 (Simulation time: 00 hr 20 min 20 sec)
Heartbeat CPU 0 instructions: 155000878 cycles: 72423799 heartbeat IPC: 4.82 cumulative IPC: 2.364 (Simulation time: 00 hr 20 min 21 sec)
Heartbeat CPU 0 instructions: 155500882 cycles: 72527527 heartbeat IPC: 4.82 cumulative IPC: 2.37 (Simulation time: 00 hr 20 min 23 sec)
Heartbeat CPU 0 instructions: 156000886 cycles: 72631582 heartbeat IPC: 4.805 cumulative IPC: 2.376 (Simulation time: 00 hr 20 min 25 sec)
Heartbeat CPU 0 instructions: 156500892 cycles: 72739362 heartbeat IPC: 4.639 cumulative IPC: 2.381 (Simulation time: 00 hr 20 min 26 sec)
Heartbeat CPU 0 instructions: 157000896 cycles: 72843213 heartbeat IPC: 4.815 cumulative IPC: 2.387 (Simulation time: 00 hr 20 min 28 sec)
Heartbeat CPU 0 instructions: 157500900 cycles: 72947180 heartbeat IPC: 4.809 cumulative IPC: 2.392 (Simulation time: 00 hr 20 min 30 sec)
Heartbeat CPU 0 instructions: 158000907 cycles: 73051465 heartbeat IPC: 4.795 cumulative IPC: 2.398 (Simulation time: 00 hr 20 min 31 sec)
Heartbeat CPU 0 instructions: 158500913 cycles: 73155438 heartbeat IPC: 4.809 cumulative IPC: 2.403 (Simulation time: 00 hr 20 min 33 sec)
Heartbeat CPU 0 instructions: 159000917 cycles: 73263332 heartbeat IPC: 4.634 cumulative IPC: 2.409 (Simulation time: 00 hr 20 min 35 sec)
Heartbeat CPU 0 instructions: 159500917 cycles: 73368139 heartbeat IPC: 4.771 cumulative IPC: 2.414 (Simulation time: 00 hr 20 min 36 sec)
Heartbeat CPU 0 instructions: 160000919 cycles: 73472190 heartbeat IPC: 4.805 cumulative IPC: 2.42 (Simulation time: 00 hr 20 min 38 sec)
Heartbeat CPU 0 instructions: 160500923 cycles: 73575997 heartbeat IPC: 4.817 cumulative IPC: 2.425 (Simulation time: 00 hr 20 min 40 sec)
Heartbeat CPU 0 instructions: 161000924 cycles: 73682334 heartbeat IPC: 4.702 cumulative IPC: 2.43 (Simulation time: 00 hr 20 min 42 sec)
Heartbeat CPU 0 instructions: 161500928 cycles: 73787986 heartbeat IPC: 4.733 cumulative IPC: 2.436 (Simulation time: 00 hr 20 min 43 sec)
Heartbeat CPU 0 instructions: 162000929 cycles: 73891579 heartbeat IPC: 4.827 cumulative IPC: 2.441 (Simulation time: 00 hr 20 min 45 sec)
Heartbeat CPU 0 instructions: 162500930 cycles: 73995314 heartbeat IPC: 4.82 cumulative IPC: 2.446 (Simulation time: 00 hr 20 min 47 sec)
Heartbeat CPU 0 instructions: 163000936 cycles: 74099387 heartbeat IPC: 4.804 cumulative IPC: 2.452 (Simulation time: 00 hr 20 min 48 sec)
Heartbeat CPU 0 instructions: 163500943 cycles: 74206648 heartbeat IPC: 4.662 cumulative IPC: 2.457 (Simulation time: 00 hr 20 min 50 sec)
Heartbeat CPU 0 instructions: 164000947 cycles: 74310446 heartbeat IPC: 4.817 cumulative IPC: 2.462 (Simulation time: 00 hr 20 min 52 sec)
Heartbeat CPU 0 instructions: 164500948 cycles: 74414388 heartbeat IPC: 4.81 cumulative IPC: 2.467 (Simulation time: 00 hr 20 min 53 sec)
Heartbeat CPU 0 instructions: 165000949 cycles: 74518281 heartbeat IPC: 4.813 cumulative IPC: 2.473 (Simulation time: 00 hr 20 min 55 sec)
Heartbeat CPU 0 instructions: 165500953 cycles: 74622009 heartbeat IPC: 4.82 cumulative IPC: 2.478 (Simulation time: 00 hr 20 min 57 sec)
Heartbeat CPU 0 instructions: 166000957 cycles: 75450385 heartbeat IPC: 0.6036 cumulative IPC: 2.445 (Simulation time: 00 hr 21 min 07 sec)
Heartbeat CPU 0 instructions: 166500958 cycles: 75906749 heartbeat IPC: 1.096 cumulative IPC: 2.432 (Simulation time: 00 hr 21 min 13 sec)
Heartbeat CPU 0 instructions: 167000961 cycles: 76385547 heartbeat IPC: 1.044 cumulative IPC: 2.419 (Simulation time: 00 hr 21 min 20 sec)
Heartbeat CPU 0 instructions: 167500963 cycles: 76838039 heartbeat IPC: 1.105 cumulative IPC: 2.406 (Simulation time: 00 hr 21 min 26 sec)
Heartbeat CPU 0 instructions: 168000965 cycles: 77281510 heartbeat IPC: 1.127 cumulative IPC: 2.395 (Simulation time: 00 hr 21 min 32 sec)
Heartbeat CPU 0 instructions: 168500970 cycles: 77692118 heartbeat IPC: 1.218 cumulative IPC: 2.385 (Simulation time: 00 hr 21 min 37 sec)
Heartbeat CPU 0 instructions: 169000970 cycles: 78101504 heartbeat IPC: 1.221 cumulative IPC: 2.376 (Simulation time: 00 hr 21 min 43 sec)
Heartbeat CPU 0 instructions: 169500977 cycles: 78494600 heartbeat IPC: 1.272 cumulative IPC: 2.367 (Simulation time: 00 hr 21 min 48 sec)
Heartbeat CPU 0 instructions: 170000982 cycles: 78901136 heartbeat IPC: 1.23 cumulative IPC: 2.358 (Simulation time: 00 hr 21 min 54 sec)
Heartbeat CPU 0 instructions: 170500986 cycles: 79307792 heartbeat IPC: 1.23 cumulative IPC: 2.349 (Simulation time: 00 hr 21 min 59 sec)
Heartbeat CPU 0 instructions: 171000987 cycles: 79699179 heartbeat IPC: 1.278 cumulative IPC: 2.341 (Simulation time: 00 hr 22 min 04 sec)
Heartbeat CPU 0 instructions: 171500994 cycles: 80105706 heartbeat IPC: 1.23 cumulative IPC: 2.332 (Simulation time: 00 hr 22 min 09 sec)
Heartbeat CPU 0 instructions: 172000998 cycles: 80503739 heartbeat IPC: 1.256 cumulative IPC: 2.324 (Simulation time: 00 hr 22 min 15 sec)
Heartbeat CPU 0 instructions: 172501002 cycles: 80883152 heartbeat IPC: 1.318 cumulative IPC: 2.317 (Simulation time: 00 hr 22 min 20 sec)
Heartbeat CPU 0 instructions: 173001002 cycles: 81252484 heartbeat IPC: 1.354 cumulative IPC: 2.31 (Simulation time: 00 hr 22 min 25 sec)
Heartbeat CPU 0 instructions: 173501007 cycles: 81631798 heartbeat IPC: 1.318 cumulative IPC: 2.303 (Simulation time: 00 hr 22 min 30 sec)
Heartbeat CPU 0 instructions: 174001011 cycles: 82001501 heartbeat IPC: 1.352 cumulative IPC: 2.297 (Simulation time: 00 hr 22 min 35 sec)
Heartbeat CPU 0 instructions: 174501012 cycles: 82383039 heartbeat IPC: 1.31 cumulative IPC: 2.29 (Simulation time: 00 hr 22 min 40 sec)
Heartbeat CPU 0 instructions: 175001016 cycles: 82759395 heartbeat IPC: 1.329 cumulative IPC: 2.283 (Simulation time: 00 hr 22 min 45 sec)
Heartbeat CPU 0 instructions: 175501020 cycles: 83135667 heartbeat IPC: 1.329 cumulative IPC: 2.277 (Simulation time: 00 hr 22 min 50 sec)
Heartbeat CPU 0 instructions: 176001026 cycles: 83517895 heartbeat IPC: 1.308 cumulative IPC: 2.27 (Simulation time: 00 hr 22 min 56 sec)
Heartbeat CPU 0 instructions: 176501026 cycles: 83887821 heartbeat IPC: 1.352 cumulative IPC: 2.264 (Simulation time: 00 hr 23 min 01 sec)
Heartbeat CPU 0 instructions: 177001028 cycles: 84268180 heartbeat IPC: 1.315 cumulative IPC: 2.257 (Simulation time: 00 hr 23 min 06 sec)
Heartbeat CPU 0 instructions: 177501029 cycles: 84639190 heartbeat IPC: 1.348 cumulative IPC: 2.252 (Simulation time: 00 hr 23 min 11 sec)
Heartbeat CPU 0 instructions: 178001033 cycles: 85023989 heartbeat IPC: 1.299 cumulative IPC: 2.245 (Simulation time: 00 hr 23 min 16 sec)
Heartbeat CPU 0 instructions: 178501040 cycles: 85403766 heartbeat IPC: 1.317 cumulative IPC: 2.239 (Simulation time: 00 hr 23 min 21 sec)
Heartbeat CPU 0 instructions: 179001044 cycles: 85783081 heartbeat IPC: 1.318 cumulative IPC: 2.233 (Simulation time: 00 hr 23 min 26 sec)
Heartbeat CPU 0 instructions: 179501045 cycles: 86153810 heartbeat IPC: 1.349 cumulative IPC: 2.227 (Simulation time: 00 hr 23 min 31 sec)
Heartbeat CPU 0 instructions: 180001047 cycles: 86534290 heartbeat IPC: 1.314 cumulative IPC: 2.221 (Simulation time: 00 hr 23 min 36 sec)
Heartbeat CPU 0 instructions: 180501053 cycles: 86915776 heartbeat IPC: 1.311 cumulative IPC: 2.215 (Simulation time: 00 hr 23 min 41 sec)
Heartbeat CPU 0 instructions: 181001058 cycles: 87287600 heartbeat IPC: 1.345 cumulative IPC: 2.21 (Simulation time: 00 hr 23 min 46 sec)
Heartbeat CPU 0 instructions: 181501064 cycles: 87669704 heartbeat IPC: 1.309 cumulative IPC: 2.204 (Simulation time: 00 hr 23 min 51 sec)
Heartbeat CPU 0 instructions: 182001065 cycles: 88041221 heartbeat IPC: 1.346 cumulative IPC: 2.199 (Simulation time: 00 hr 23 min 56 sec)
Heartbeat CPU 0 instructions: 182501070 cycles: 88422478 heartbeat IPC: 1.311 cumulative IPC: 2.193 (Simulation time: 00 hr 24 min 01 sec)
Heartbeat CPU 0 instructions: 183001077 cycles: 88794811 heartbeat IPC: 1.343 cumulative IPC: 2.188 (Simulation time: 00 hr 24 min 06 sec)
Heartbeat CPU 0 instructions: 183501079 cycles: 89174860 heartbeat IPC: 1.316 cumulative IPC: 2.183 (Simulation time: 00 hr 24 min 11 sec)
Heartbeat CPU 0 instructions: 184001082 cycles: 89545789 heartbeat IPC: 1.348 cumulative IPC: 2.178 (Simulation time: 00 hr 24 min 16 sec)
Heartbeat CPU 0 instructions: 184501086 cycles: 89936933 heartbeat IPC: 1.278 cumulative IPC: 2.172 (Simulation time: 00 hr 24 min 21 sec)
Heartbeat CPU 0 instructions: 185001088 cycles: 90307633 heartbeat IPC: 1.349 cumulative IPC: 2.167 (Simulation time: 00 hr 24 min 26 sec)
Heartbeat CPU 0 instructions: 185501091 cycles: 90685987 heartbeat IPC: 1.322 cumulative IPC: 2.162 (Simulation time: 00 hr 24 min 31 sec)
Heartbeat CPU 0 instructions: 186001091 cycles: 91065831 heartbeat IPC: 1.316 cumulative IPC: 2.157 (Simulation time: 00 hr 24 min 36 sec)
Heartbeat CPU 0 instructions: 186501096 cycles: 91437407 heartbeat IPC: 1.346 cumulative IPC: 2.152 (Simulation time: 00 hr 24 min 40 sec)
Heartbeat CPU 0 instructions: 187001100 cycles: 91818533 heartbeat IPC: 1.312 cumulative IPC: 2.147 (Simulation time: 00 hr 24 min 45 sec)
Heartbeat CPU 0 instructions: 187501106 cycles: 92189905 heartbeat IPC: 1.346 cumulative IPC: 2.142 (Simulation time: 00 hr 24 min 50 sec)
Heartbeat CPU 0 instructions: 188001107 cycles: 92571939 heartbeat IPC: 1.309 cumulative IPC: 2.138 (Simulation time: 00 hr 24 min 55 sec)
Heartbeat CPU 0 instructions: 188501108 cycles: 92943509 heartbeat IPC: 1.346 cumulative IPC: 2.133 (Simulation time: 00 hr 25 min 00 sec)
Heartbeat CPU 0 instructions: 189001112 cycles: 93324738 heartbeat IPC: 1.312 cumulative IPC: 2.128 (Simulation time: 00 hr 25 min 05 sec)
Heartbeat CPU 0 instructions: 189501113 cycles: 93695467 heartbeat IPC: 1.349 cumulative IPC: 2.124 (Simulation time: 00 hr 25 min 10 sec)
Heartbeat CPU 0 instructions: 190001113 cycles: 94074698 heartbeat IPC: 1.318 cumulative IPC: 2.119 (Simulation time: 00 hr 25 min 15 sec)
Heartbeat CPU 0 instructions: 190501115 cycles: 94463385 heartbeat IPC: 1.286 cumulative IPC: 2.114 (Simulation time: 00 hr 25 min 20 sec)
Heartbeat CPU 0 instructions: 191001116 cycles: 94836148 heartbeat IPC: 1.341 cumulative IPC: 2.11 (Simulation time: 00 hr 25 min 25 sec)
Heartbeat CPU 0 instructions: 191501121 cycles: 95214710 heartbeat IPC: 1.321 cumulative IPC: 2.106 (Simulation time: 00 hr 25 min 30 sec)
Heartbeat CPU 0 instructions: 192001122 cycles: 95585335 heartbeat IPC: 1.349 cumulative IPC: 2.101 (Simulation time: 00 hr 25 min 34 sec)
Heartbeat CPU 0 instructions: 192501123 cycles: 95965148 heartbeat IPC: 1.316 cumulative IPC: 2.097 (Simulation time: 00 hr 25 min 39 sec)
Heartbeat CPU 0 instructions: 193001124 cycles: 96336886 heartbeat IPC: 1.345 cumulative IPC: 2.093 (Simulation time: 00 hr 25 min 44 sec)
Heartbeat CPU 0 instructions: 193501124 cycles: 96717743 heartbeat IPC: 1.313 cumulative IPC: 2.089 (Simulation time: 00 hr 25 min 49 sec)
Heartbeat CPU 0 instructions: 194001125 cycles: 97088227 heartbeat IPC: 1.35 cumulative IPC: 2.085 (Simulation time: 00 hr 25 min 54 sec)
Heartbeat CPU 0 instructions: 194501126 cycles: 97468101 heartbeat IPC: 1.316 cumulative IPC: 2.08 (Simulation time: 00 hr 25 min 59 sec)
Heartbeat CPU 0 instructions: 195001127 cycles: 97838068 heartbeat IPC: 1.351 cumulative IPC: 2.077 (Simulation time: 00 hr 26 min 04 sec)
Heartbeat CPU 0 instructions: 195501127 cycles: 98217940 heartbeat IPC: 1.316 cumulative IPC: 2.072 (Simulation time: 00 hr 26 min 09 sec)
Heartbeat CPU 0 instructions: 196001127 cycles: 98596960 heartbeat IPC: 1.319 cumulative IPC: 2.068 (Simulation time: 00 hr 26 min 13 sec)
Heartbeat CPU 0 instructions: 196501134 cycles: 98979404 heartbeat IPC: 1.307 cumulative IPC: 2.064 (Simulation time: 00 hr 26 min 18 sec)
Heartbeat CPU 0 instructions: 197001134 cycles: 99359160 heartbeat IPC: 1.317 cumulative IPC: 2.06 (Simulation time: 00 hr 26 min 23 sec)
Heartbeat CPU 0 instructions: 197501135 cycles: 99728723 heartbeat IPC: 1.353 cumulative IPC: 2.057 (Simulation time: 00 hr 26 min 28 sec)
Heartbeat CPU 0 instructions: 198001139 cycles: 100110016 heartbeat IPC: 1.311 cumulative IPC: 2.053 (Simulation time: 00 hr 26 min 33 sec)
Heartbeat CPU 0 instructions: 198501140 cycles: 100481680 heartbeat IPC: 1.345 cumulative IPC: 2.049 (Simulation time: 00 hr 26 min 38 sec)
Heartbeat CPU 0 instructions: 199001140 cycles: 100862989 heartbeat IPC: 1.311 cumulative IPC: 2.045 (Simulation time: 00 hr 26 min 42 sec)
Heartbeat CPU 0 instructions: 199501141 cycles: 101235022 heartbeat IPC: 1.344 cumulative IPC: 2.042 (Simulation time: 00 hr 26 min 47 sec)
Heartbeat CPU 0 instructions: 200001143 cycles: 101616819 heartbeat IPC: 1.31 cumulative IPC: 2.038 (Simulation time: 00 hr 26 min 52 sec)
Heartbeat CPU 0 instructions: 200501147 cycles: 101991484 heartbeat IPC: 1.335 cumulative IPC: 2.034 (Simulation time: 00 hr 26 min 57 sec)
Heartbeat CPU 0 instructions: 201001148 cycles: 102370249 heartbeat IPC: 1.32 cumulative IPC: 2.031 (Simulation time: 00 hr 27 min 02 sec)
Heartbeat CPU 0 instructions: 201501148 cycles: 102752016 heartbeat IPC: 1.31 cumulative IPC: 2.027 (Simulation time: 00 hr 27 min 06 sec)
Heartbeat CPU 0 instructions: 202001151 cycles: 103123270 heartbeat IPC: 1.347 cumulative IPC: 2.024 (Simulation time: 00 hr 27 min 11 sec)
Heartbeat CPU 0 instructions: 202501152 cycles: 103515283 heartbeat IPC: 1.275 cumulative IPC: 2.02 (Simulation time: 00 hr 27 min 16 sec)
Heartbeat CPU 0 instructions: 203001152 cycles: 103884756 heartbeat IPC: 1.353 cumulative IPC: 2.017 (Simulation time: 00 hr 27 min 21 sec)
Heartbeat CPU 0 instructions: 203501152 cycles: 104264329 heartbeat IPC: 1.317 cumulative IPC: 2.013 (Simulation time: 00 hr 27 min 25 sec)
Heartbeat CPU 0 instructions: 204001153 cycles: 104634362 heartbeat IPC: 1.351 cumulative IPC: 2.01 (Simulation time: 00 hr 27 min 30 sec)
Heartbeat CPU 0 instructions: 204501154 cycles: 105014859 heartbeat IPC: 1.314 cumulative IPC: 2.006 (Simulation time: 00 hr 27 min 35 sec)
Heartbeat CPU 0 instructions: 205001156 cycles: 105387085 heartbeat IPC: 1.343 cumulative IPC: 2.003 (Simulation time: 00 hr 27 min 40 sec)
Heartbeat CPU 0 instructions: 205501160 cycles: 105769004 heartbeat IPC: 1.309 cumulative IPC: 2 (Simulation time: 00 hr 27 min 44 sec)
Heartbeat CPU 0 instructions: 206001161 cycles: 106149178 heartbeat IPC: 1.315 cumulative IPC: 1.996 (Simulation time: 00 hr 27 min 49 sec)
Heartbeat CPU 0 instructions: 206501161 cycles: 106522218 heartbeat IPC: 1.34 cumulative IPC: 1.993 (Simulation time: 00 hr 27 min 54 sec)
Heartbeat CPU 0 instructions: 207001166 cycles: 106903462 heartbeat IPC: 1.312 cumulative IPC: 1.99 (Simulation time: 00 hr 27 min 59 sec)
Heartbeat CPU 0 instructions: 207501167 cycles: 107275370 heartbeat IPC: 1.344 cumulative IPC: 1.987 (Simulation time: 00 hr 28 min 03 sec)
Heartbeat CPU 0 instructions: 208001173 cycles: 107657216 heartbeat IPC: 1.309 cumulative IPC: 1.984 (Simulation time: 00 hr 28 min 08 sec)
Heartbeat CPU 0 instructions: 208501174 cycles: 108029283 heartbeat IPC: 1.344 cumulative IPC: 1.981 (Simulation time: 00 hr 28 min 13 sec)
Heartbeat CPU 0 instructions: 209001174 cycles: 108418809 heartbeat IPC: 1.284 cumulative IPC: 1.977 (Simulation time: 00 hr 28 min 17 sec)
Heartbeat CPU 0 instructions: 209501179 cycles: 108787929 heartbeat IPC: 1.355 cumulative IPC: 1.975 (Simulation time: 00 hr 28 min 22 sec)
Heartbeat CPU 0 instructions: 210001183 cycles: 109167529 heartbeat IPC: 1.317 cumulative IPC: 1.972 (Simulation time: 00 hr 28 min 27 sec)
Heartbeat CPU 0 instructions: 210501184 cycles: 109538153 heartbeat IPC: 1.349 cumulative IPC: 1.969 (Simulation time: 00 hr 28 min 31 sec)
Heartbeat CPU 0 instructions: 211001184 cycles: 109919422 heartbeat IPC: 1.311 cumulative IPC: 1.966 (Simulation time: 00 hr 28 min 36 sec)
Heartbeat CPU 0 instructions: 211501191 cycles: 110300609 heartbeat IPC: 1.312 cumulative IPC: 1.963 (Simulation time: 00 hr 28 min 41 sec)
Heartbeat CPU 0 instructions: 212001191 cycles: 110671217 heartbeat IPC: 1.349 cumulative IPC: 1.96 (Simulation time: 00 hr 28 min 45 sec)
Heartbeat CPU 0 instructions: 212501195 cycles: 111052467 heartbeat IPC: 1.311 cumulative IPC: 1.957 (Simulation time: 00 hr 28 min 50 sec)
Heartbeat CPU 0 instructions: 213001195 cycles: 111422813 heartbeat IPC: 1.35 cumulative IPC: 1.954 (Simulation time: 00 hr 28 min 55 sec)
Heartbeat CPU 0 instructions: 213501195 cycles: 111803057 heartbeat IPC: 1.315 cumulative IPC: 1.951 (Simulation time: 00 hr 28 min 59 sec)
Heartbeat CPU 0 instructions: 214001195 cycles: 112173668 heartbeat IPC: 1.349 cumulative IPC: 1.949 (Simulation time: 00 hr 29 min 04 sec)
Heartbeat CPU 0 instructions: 214501200 cycles: 112553194 heartbeat IPC: 1.317 cumulative IPC: 1.946 (Simulation time: 00 hr 29 min 09 sec)
Heartbeat CPU 0 instructions: 215001206 cycles: 112934584 heartbeat IPC: 1.311 cumulative IPC: 1.943 (Simulation time: 00 hr 29 min 13 sec)
Heartbeat CPU 0 instructions: 215501210 cycles: 113312726 heartbeat IPC: 1.322 cumulative IPC: 1.94 (Simulation time: 00 hr 29 min 18 sec)
Heartbeat CPU 0 instructions: 216001212 cycles: 113688091 heartbeat IPC: 1.332 cumulative IPC: 1.938 (Simulation time: 00 hr 29 min 23 sec)
Heartbeat CPU 0 instructions: 216501215 cycles: 114062303 heartbeat IPC: 1.336 cumulative IPC: 1.935 (Simulation time: 00 hr 29 min 27 sec)
Heartbeat CPU 0 instructions: 217001220 cycles: 114444101 heartbeat IPC: 1.31 cumulative IPC: 1.932 (Simulation time: 00 hr 29 min 32 sec)
Heartbeat CPU 0 instructions: 217501225 cycles: 114815322 heartbeat IPC: 1.347 cumulative IPC: 1.93 (Simulation time: 00 hr 29 min 37 sec)
Heartbeat CPU 0 instructions: 218001229 cycles: 115197100 heartbeat IPC: 1.31 cumulative IPC: 1.927 (Simulation time: 00 hr 29 min 41 sec)
Heartbeat CPU 0 instructions: 218501230 cycles: 115568604 heartbeat IPC: 1.346 cumulative IPC: 1.924 (Simulation time: 00 hr 29 min 46 sec)
Heartbeat CPU 0 instructions: 219001234 cycles: 115950502 heartbeat IPC: 1.309 cumulative IPC: 1.922 (Simulation time: 00 hr 29 min 51 sec)
Heartbeat CPU 0 instructions: 219501235 cycles: 116321702 heartbeat IPC: 1.347 cumulative IPC: 1.919 (Simulation time: 00 hr 29 min 55 sec)
Heartbeat CPU 0 instructions: 220001237 cycles: 116702597 heartbeat IPC: 1.313 cumulative IPC: 1.917 (Simulation time: 00 hr 30 min 00 sec)
Heartbeat CPU 0 instructions: 220501242 cycles: 117073537 heartbeat IPC: 1.348 cumulative IPC: 1.914 (Simulation time: 00 hr 30 min 04 sec)
Heartbeat CPU 0 instructions: 221001242 cycles: 117462988 heartbeat IPC: 1.284 cumulative IPC: 1.912 (Simulation time: 00 hr 30 min 09 sec)
Heartbeat CPU 0 instructions: 221501246 cycles: 117843488 heartbeat IPC: 1.314 cumulative IPC: 1.909 (Simulation time: 00 hr 30 min 14 sec)
Heartbeat CPU 0 instructions: 222001253 cycles: 118212641 heartbeat IPC: 1.354 cumulative IPC: 1.907 (Simulation time: 00 hr 30 min 18 sec)
Heartbeat CPU 0 instructions: 222501257 cycles: 118592217 heartbeat IPC: 1.317 cumulative IPC: 1.904 (Simulation time: 00 hr 30 min 23 sec)
Heartbeat CPU 0 instructions: 223001259 cycles: 118962549 heartbeat IPC: 1.35 cumulative IPC: 1.902 (Simulation time: 00 hr 30 min 28 sec)
Heartbeat CPU 0 instructions: 223501262 cycles: 119344334 heartbeat IPC: 1.31 cumulative IPC: 1.9 (Simulation time: 00 hr 30 min 32 sec)
Heartbeat CPU 0 instructions: 224001264 cycles: 119715977 heartbeat IPC: 1.345 cumulative IPC: 1.897 (Simulation time: 00 hr 30 min 37 sec)
Heartbeat CPU 0 instructions: 224501264 cycles: 120096948 heartbeat IPC: 1.312 cumulative IPC: 1.895 (Simulation time: 00 hr 30 min 42 sec)
Heartbeat CPU 0 instructions: 225001264 cycles: 120468291 heartbeat IPC: 1.346 cumulative IPC: 1.893 (Simulation time: 00 hr 30 min 46 sec)
Heartbeat CPU 0 instructions: 225501267 cycles: 120848948 heartbeat IPC: 1.314 cumulative IPC: 1.89 (Simulation time: 00 hr 30 min 51 sec)
Heartbeat CPU 0 instructions: 226001271 cycles: 121222188 heartbeat IPC: 1.34 cumulative IPC: 1.888 (Simulation time: 00 hr 30 min 55 sec)
Heartbeat CPU 0 instructions: 226501271 cycles: 121600556 heartbeat IPC: 1.321 cumulative IPC: 1.886 (Simulation time: 00 hr 31 min 00 sec)
Heartbeat CPU 0 instructions: 227001272 cycles: 121992529 heartbeat IPC: 1.276 cumulative IPC: 1.883 (Simulation time: 00 hr 31 min 05 sec)
Heartbeat CPU 0 instructions: 227501272 cycles: 122362790 heartbeat IPC: 1.35 cumulative IPC: 1.881 (Simulation time: 00 hr 31 min 09 sec)
Heartbeat CPU 0 instructions: 228001272 cycles: 122741724 heartbeat IPC: 1.319 cumulative IPC: 1.879 (Simulation time: 00 hr 31 min 14 sec)
Heartbeat CPU 0 instructions: 228501276 cycles: 123112740 heartbeat IPC: 1.348 cumulative IPC: 1.877 (Simulation time: 00 hr 31 min 19 sec)
Heartbeat CPU 0 instructions: 229001276 cycles: 123493392 heartbeat IPC: 1.314 cumulative IPC: 1.875 (Simulation time: 00 hr 31 min 23 sec)
Heartbeat CPU 0 instructions: 229501277 cycles: 123865095 heartbeat IPC: 1.345 cumulative IPC: 1.873 (Simulation time: 00 hr 31 min 28 sec)
Heartbeat CPU 0 instructions: 230001281 cycles: 124246905 heartbeat IPC: 1.31 cumulative IPC: 1.87 (Simulation time: 00 hr 31 min 33 sec)
Heartbeat CPU 0 instructions: 230501281 cycles: 124617452 heartbeat IPC: 1.349 cumulative IPC: 1.868 (Simulation time: 00 hr 31 min 37 sec)
Heartbeat CPU 0 instructions: 231001284 cycles: 124998600 heartbeat IPC: 1.312 cumulative IPC: 1.866 (Simulation time: 00 hr 31 min 42 sec)
Heartbeat CPU 0 instructions: 231501284 cycles: 125375941 heartbeat IPC: 1.325 cumulative IPC: 1.864 (Simulation time: 00 hr 31 min 46 sec)
Heartbeat CPU 0 instructions: 232001284 cycles: 125748967 heartbeat IPC: 1.34 cumulative IPC: 1.862 (Simulation time: 00 hr 31 min 51 sec)
Heartbeat CPU 0 instructions: 232501289 cycles: 126129329 heartbeat IPC: 1.315 cumulative IPC: 1.86 (Simulation time: 00 hr 31 min 56 sec)
Heartbeat CPU 0 instructions: 233001290 cycles: 126508128 heartbeat IPC: 1.32 cumulative IPC: 1.858 (Simulation time: 00 hr 32 min 00 sec)
Heartbeat CPU 0 instructions: 233501290 cycles: 126887275 heartbeat IPC: 1.319 cumulative IPC: 1.856 (Simulation time: 00 hr 32 min 05 sec)
Heartbeat CPU 0 instructions: 234001291 cycles: 127256847 heartbeat IPC: 1.353 cumulative IPC: 1.854 (Simulation time: 00 hr 32 min 10 sec)
Heartbeat CPU 0 instructions: 234501293 cycles: 127636013 heartbeat IPC: 1.319 cumulative IPC: 1.852 (Simulation time: 00 hr 32 min 14 sec)
Heartbeat CPU 0 instructions: 235001295 cycles: 128005983 heartbeat IPC: 1.351 cumulative IPC: 1.85 (Simulation time: 00 hr 32 min 19 sec)
Heartbeat CPU 0 instructions: 235501295 cycles: 128386550 heartbeat IPC: 1.314 cumulative IPC: 1.848 (Simulation time: 00 hr 32 min 24 sec)
Heartbeat CPU 0 instructions: 236001296 cycles: 128758012 heartbeat IPC: 1.346 cumulative IPC: 1.846 (Simulation time: 00 hr 32 min 28 sec)
Heartbeat CPU 0 instructions: 236501296 cycles: 129140072 heartbeat IPC: 1.309 cumulative IPC: 1.844 (Simulation time: 00 hr 32 min 33 sec)
Heartbeat CPU 0 instructions: 237001301 cycles: 129520418 heartbeat IPC: 1.315 cumulative IPC: 1.842 (Simulation time: 00 hr 32 min 37 sec)
Heartbeat CPU 0 instructions: 237501304 cycles: 129890526 heartbeat IPC: 1.351 cumulative IPC: 1.84 (Simulation time: 00 hr 32 min 42 sec)
Heartbeat CPU 0 instructions: 238001311 cycles: 130272763 heartbeat IPC: 1.308 cumulative IPC: 1.838 (Simulation time: 00 hr 32 min 47 sec)
Heartbeat CPU 0 instructions: 238501314 cycles: 130642808 heartbeat IPC: 1.351 cumulative IPC: 1.837 (Simulation time: 00 hr 32 min 51 sec)
Heartbeat CPU 0 instructions: 239001316 cycles: 131024073 heartbeat IPC: 1.311 cumulative IPC: 1.835 (Simulation time: 00 hr 32 min 56 sec)
Heartbeat CPU 0 instructions: 239501318 cycles: 131402503 heartbeat IPC: 1.321 cumulative IPC: 1.833 (Simulation time: 00 hr 33 min 01 sec)
Heartbeat CPU 0 instructions: 240001321 cycles: 131782197 heartbeat IPC: 1.317 cumulative IPC: 1.831 (Simulation time: 00 hr 33 min 05 sec)
Heartbeat CPU 0 instructions: 240501324 cycles: 132151439 heartbeat IPC: 1.354 cumulative IPC: 1.829 (Simulation time: 00 hr 33 min 10 sec)
Heartbeat CPU 0 instructions: 241001328 cycles: 132531713 heartbeat IPC: 1.315 cumulative IPC: 1.827 (Simulation time: 00 hr 33 min 14 sec)
Heartbeat CPU 0 instructions: 241501328 cycles: 132905694 heartbeat IPC: 1.337 cumulative IPC: 1.826 (Simulation time: 00 hr 33 min 19 sec)
Heartbeat CPU 0 instructions: 242001333 cycles: 133284036 heartbeat IPC: 1.322 cumulative IPC: 1.824 (Simulation time: 00 hr 33 min 24 sec)
Heartbeat CPU 0 instructions: 242501339 cycles: 133666324 heartbeat IPC: 1.308 cumulative IPC: 1.822 (Simulation time: 00 hr 33 min 28 sec)
Heartbeat CPU 0 instructions: 243001339 cycles: 134037906 heartbeat IPC: 1.346 cumulative IPC: 1.82 (Simulation time: 00 hr 33 min 33 sec)
Heartbeat CPU 0 instructions: 243501345 cycles: 134419330 heartbeat IPC: 1.311 cumulative IPC: 1.818 (Simulation time: 00 hr 33 min 38 sec)
Heartbeat CPU 0 instructions: 244001347 cycles: 134791885 heartbeat IPC: 1.342 cumulative IPC: 1.817 (Simulation time: 00 hr 33 min 42 sec)
Heartbeat CPU 0 instructions: 244501347 cycles: 135171509 heartbeat IPC: 1.317 cumulative IPC: 1.815 (Simulation time: 00 hr 33 min 47 sec)
Heartbeat CPU 0 instructions: 245001348 cycles: 135541847 heartbeat IPC: 1.35 cumulative IPC: 1.813 (Simulation time: 00 hr 33 min 51 sec)
Heartbeat CPU 0 instructions: 245501349 cycles: 135933367 heartbeat IPC: 1.277 cumulative IPC: 1.811 (Simulation time: 00 hr 33 min 56 sec)
Heartbeat CPU 0 instructions: 246001349 cycles: 136302527 heartbeat IPC: 1.354 cumulative IPC: 1.81 (Simulation time: 00 hr 34 min 01 sec)
Heartbeat CPU 0 instructions: 246501353 cycles: 136681630 heartbeat IPC: 1.319 cumulative IPC: 1.808 (Simulation time: 00 hr 34 min 05 sec)
Heartbeat CPU 0 instructions: 247001353 cycles: 137059916 heartbeat IPC: 1.322 cumulative IPC: 1.807 (Simulation time: 00 hr 34 min 10 sec)
Heartbeat CPU 0 instructions: 247501353 cycles: 137431232 heartbeat IPC: 1.347 cumulative IPC: 1.805 (Simulation time: 00 hr 34 min 15 sec)
Heartbeat CPU 0 instructions: 248001356 cycles: 137812312 heartbeat IPC: 1.312 cumulative IPC: 1.803 (Simulation time: 00 hr 34 min 19 sec)
Heartbeat CPU 0 instructions: 248501357 cycles: 138183413 heartbeat IPC: 1.347 cumulative IPC: 1.802 (Simulation time: 00 hr 34 min 24 sec)
Heartbeat CPU 0 instructions: 249001360 cycles: 138563720 heartbeat IPC: 1.315 cumulative IPC: 1.8 (Simulation time: 00 hr 34 min 29 sec)
Heartbeat CPU 0 instructions: 249501360 cycles: 138934979 heartbeat IPC: 1.347 cumulative IPC: 1.799 (Simulation time: 00 hr 34 min 33 sec)
Simulation finished CPU 0 instructions: 200000003 cycles: 111303166 cumulative IPC: 1.797 (Simulation time: 00 hr 34 min 38 sec)
Simulation complete CPU 0 instructions: 200000003 cycles: 111303166 cumulative IPC: 1.797 (Simulation time: 00 hr 34 min 38 sec)

ChampSim completed all CPUs

=== Simulation ===
CPU 0 runs /local-ssd/ben/dpc4-traces/ai-ml/stable-diffusion.cpp-v2-1_768-nonema-pruned.1.champsimtrace.gz

Region of Interest Statistics

CPU 0 cumulative IPC: 1.797 instructions: 200000003 cycles: 111303166
CPU 0 Branch Prediction Accuracy: 97.48% MPKI: 2.438 Average ROB Occupancy at Mispredict: 305.6
Branch type MPKI
BRANCH_DIRECT_JUMP: 8e-05
BRANCH_INDIRECT: 5.5e-05
BRANCH_CONDITIONAL: 2.437
BRANCH_DIRECT_CALL: 0.000135
BRANCH_INDIRECT_CALL: 4.5e-05
BRANCH_RETURN: 0.00015

cpu0->cpu0_STLB TOTAL        ACCESS:      97670 HIT:      70158 MISS:      27512 MSHR_MERGE:          0
cpu0->cpu0_STLB LOAD         ACCESS:      97670 HIT:      70158 MISS:      27512 MSHR_MERGE:          0
cpu0->cpu0_STLB RFO          ACCESS:          0 HIT:          0 MISS:          0 MSHR_MERGE:          0
cpu0->cpu0_STLB PREFETCH     ACCESS:          0 HIT:          0 MISS:          0 MSHR_MERGE:          0
cpu0->cpu0_STLB WRITE        ACCESS:          0 HIT:          0 MISS:          0 MSHR_MERGE:          0
cpu0->cpu0_STLB TRANSLATION  ACCESS:          0 HIT:          0 MISS:          0 MSHR_MERGE:          0
cpu0->cpu0_STLB PREFETCH REQUESTED:          0 ISSUED:          0 USEFUL:          0 USELESS:          0
cpu0->cpu0_STLB AVERAGE MISS LATENCY: 76.09 cycles
cpu0->cpu0_L2C TOTAL        ACCESS:   60007273 HIT:   55529476 MISS:    4477797 MSHR_MERGE:    2255448
cpu0->cpu0_L2C LOAD         ACCESS:   29472481 HIT:   27609720 MISS:    1862761 MSHR_MERGE:    1247035
cpu0->cpu0_L2C RFO          ACCESS:     138234 HIT:      27917 MISS:     110317 MSHR_MERGE:          0
cpu0->cpu0_L2C PREFETCH     ACCESS:   30170739 HIT:   27670037 MISS:    2500702 MSHR_MERGE:    1008413
cpu0->cpu0_L2C WRITE        ACCESS:     219982 HIT:     219954 MISS:         28 MSHR_MERGE:          0
cpu0->cpu0_L2C TRANSLATION  ACCESS:       5837 HIT:       1848 MISS:       3989 MSHR_MERGE:          0
cpu0->cpu0_L2C PREFETCH REQUESTED:   61296557 ISSUED:   25524944 USEFUL:    1419098 USELESS:       4708
cpu0->cpu0_L2C AVERAGE MISS LATENCY: 143.7 cycles
cpu0->cpu0_L1I TOTAL        ACCESS:   21383163 HIT:   21383008 MISS:        155 MSHR_MERGE:         16
cpu0->cpu0_L1I LOAD         ACCESS:   21383163 HIT:   21383008 MISS:        155 MSHR_MERGE:         16
cpu0->cpu0_L1I RFO          ACCESS:          0 HIT:          0 MISS:          0 MSHR_MERGE:          0
cpu0->cpu0_L1I PREFETCH     ACCESS:          0 HIT:          0 MISS:          0 MSHR_MERGE:          0
cpu0->cpu0_L1I WRITE        ACCESS:          0 HIT:          0 MISS:          0 MSHR_MERGE:          0
cpu0->cpu0_L1I TRANSLATION  ACCESS:          0 HIT:          0 MISS:          0 MSHR_MERGE:          0
cpu0->cpu0_L1I PREFETCH REQUESTED:          0 ISSUED:          0 USEFUL:          0 USELESS:          0
cpu0->cpu0_L1I AVERAGE MISS LATENCY: 179.7 cycles
cpu0->cpu0_L1D TOTAL        ACCESS:  101652035 HIT:   62970117 MISS:   38681918 MSHR_MERGE:    4418858
cpu0->cpu0_L1D LOAD         ACCESS:   78076527 HIT:   46456453 MISS:   31620074 MSHR_MERGE:    2147731
cpu0->cpu0_L1D RFO          ACCESS:          0 HIT:          0 MISS:          0 MSHR_MERGE:          0
cpu0->cpu0_L1D PREFETCH     ACCESS:   17052671 HIT:   10236525 MISS:    6816146 MSHR_MERGE:    2170344
cpu0->cpu0_L1D WRITE        ACCESS:    6467958 HIT:    6228228 MISS:     239730 MSHR_MERGE:     100652
cpu0->cpu0_L1D TRANSLATION  ACCESS:      54879 HIT:      48911 MISS:       5968 MSHR_MERGE:        131
cpu0->cpu0_L1D PREFETCH REQUESTED:   34053263 ISSUED:   17052669 USEFUL:    4525505 USELESS:     120291
cpu0->cpu0_L1D AVERAGE MISS LATENCY: 17.71 cycles
cpu0->cpu0_ITLB TOTAL        ACCESS:   14546339 HIT:   14546314 MISS:         25 MSHR_MERGE:          8
cpu0->cpu0_ITLB LOAD         ACCESS:   14546339 HIT:   14546314 MISS:         25 MSHR_MERGE:          8
cpu0->cpu0_ITLB RFO          ACCESS:          0 HIT:          0 MISS:          0 MSHR_MERGE:          0
cpu0->cpu0_ITLB PREFETCH     ACCESS:          0 HIT:          0 MISS:          0 MSHR_MERGE:          0
cpu0->cpu0_ITLB WRITE        ACCESS:          0 HIT:          0 MISS:          0 MSHR_MERGE:          0
cpu0->cpu0_ITLB TRANSLATION  ACCESS:          0 HIT:          0 MISS:          0 MSHR_MERGE:          0
cpu0->cpu0_ITLB PREFETCH REQUESTED:          0 ISSUED:          0 USEFUL:          0 USELESS:          0
cpu0->cpu0_ITLB AVERAGE MISS LATENCY: 425.9 cycles
cpu0->cpu0_DTLB TOTAL        ACCESS:   86081394 HIT:   85732564 MISS:     348830 MSHR_MERGE:     251177
cpu0->cpu0_DTLB LOAD         ACCESS:   86081394 HIT:   85732564 MISS:     348830 MSHR_MERGE:     251177
cpu0->cpu0_DTLB RFO          ACCESS:          0 HIT:          0 MISS:          0 MSHR_MERGE:          0
cpu0->cpu0_DTLB PREFETCH     ACCESS:          0 HIT:          0 MISS:          0 MSHR_MERGE:          0
cpu0->cpu0_DTLB WRITE        ACCESS:          0 HIT:          0 MISS:          0 MSHR_MERGE:          0
cpu0->cpu0_DTLB TRANSLATION  ACCESS:          0 HIT:          0 MISS:          0 MSHR_MERGE:          0
cpu0->cpu0_DTLB PREFETCH REQUESTED:          0 ISSUED:          0 USEFUL:          0 USELESS:          0
cpu0->cpu0_DTLB AVERAGE MISS LATENCY: 26.65 cycles
cpu0->LLC TOTAL        ACCESS:    4382800 HIT:     753749 MISS:    3629051 MSHR_MERGE:    1680032
cpu0->LLC LOAD         ACCESS:     615726 HIT:     122875 MISS:     492851 MSHR_MERGE:     291473
cpu0->LLC RFO          ACCESS:     110317 HIT:      27296 MISS:      83021 MSHR_MERGE:          0
cpu0->LLC PREFETCH     ACCESS:    3523572 HIT:     545580 MISS:    2977992 MSHR_MERGE:    1388559
cpu0->LLC WRITE        ACCESS:     129196 HIT:      57998 MISS:      71198 MSHR_MERGE:          0
cpu0->LLC TRANSLATION  ACCESS:       3989 HIT:          0 MISS:       3989 MSHR_MERGE:          0
cpu0->LLC PREFETCH REQUESTED:    2065572 ISSUED:    2031283 USEFUL:     319066 USELESS:    1051128
cpu0->LLC AVERAGE MISS LATENCY: 178.2 cycles

DRAM Statistics

Channel 0 RQ ROW_BUFFER_HIT:     801669
  ROW_BUFFER_MISS:    1076021
  AVG DBUS CONGESTED CYCLE: 5.159
Channel 0 WQ ROW_BUFFER_HIT:       7428
  ROW_BUFFER_MISS:      55064
  FULL:       6288
Channel 0 REFRESHES ISSUED:       9274
