[VMEM] WARNING: physical memory size is smaller than virtual memory size.

*** ChampSim Multicore Out-of-Order Simulator ***
Warmup Instructions: 50000000
Simulation Instructions: 200000000
Number of CPUs: 1
Page size: 4096
Core 0: /local-ssd/ben/dpc4-traces/gtraces_v2/charlie_0004.champsim.gz
 L1D Berti prefetcher
Off-chip DRAM Size: 64 GiB Channels: 1 Width: 64-bit Data Rate: 4807 MT/s
[BTB] WARNING: target of return is a lower address than the corresponding call. This is usually a problem with your trace.
[BTB] WARNING: target of return is a lower address than the corresponding call. This is usually a problem with your trace.
[BTB] WARNING: target of return is a lower address than the corresponding call. This is usually a problem with your trace.
[BTB] WARNING: target of return is a lower address than the corresponding call. This is usually a problem with your trace.
[BTB] WARNING: target of return is a lower address than the corresponding call. This is usually a problem with your trace.
[BTB] WARNING: target of return is a lower address than the corresponding call. This is usually a problem with your trace.
[BTB] WARNING: target of return is a lower address than the corresponding call. This is usually a problem with your trace.
[BTB] WARNING: target of return is a lower address than the corresponding call. This is usually a problem with your trace.
[BTB] WARNING: target of return is a lower address than the corresponding call. This is usually a problem with your trace.
[BTB] WARNING: target of return is a lower address than the corresponding call. This is usually a problem with your trace.
Heartbeat CPU 0 instructions: 500004 cycles: 215977 heartbeat IPC: 2.315 cumulative IPC: 2.315 (Simulation time: 00 hr 00 min 03 sec)
Heartbeat CPU 0 instructions: 1000009 cycles: 327009 heartbeat IPC: 4.503 cumulative IPC: 3.058 (Simulation time: 00 hr 00 min 05 sec)
Heartbeat CPU 0 instructions: 1500016 cycles: 500238 heartbeat IPC: 2.886 cumulative IPC: 2.999 (Simulation time: 00 hr 00 min 07 sec)
Heartbeat CPU 0 instructions: 2000021 cycles: 618224 heartbeat IPC: 4.238 cumulative IPC: 3.235 (Simulation time: 00 hr 00 min 09 sec)
Heartbeat CPU 0 instructions: 2500024 cycles: 724770 heartbeat IPC: 4.693 cumulative IPC: 3.449 (Simulation time: 00 hr 00 min 11 sec)
Heartbeat CPU 0 instructions: 3000031 cycles: 835228 heartbeat IPC: 4.527 cumulative IPC: 3.592 (Simulation time: 00 hr 00 min 13 sec)
Heartbeat CPU 0 instructions: 3500033 cycles: 941737 heartbeat IPC: 4.694 cumulative IPC: 3.717 (Simulation time: 00 hr 00 min 14 sec)
Heartbeat CPU 0 instructions: 4000040 cycles: 1051374 heartbeat IPC: 4.561 cumulative IPC: 3.805 (Simulation time: 00 hr 00 min 16 sec)
Heartbeat CPU 0 instructions: 4500041 cycles: 1155804 heartbeat IPC: 4.788 cumulative IPC: 3.893 (Simulation time: 00 hr 00 min 18 sec)
Heartbeat CPU 0 instructions: 5000047 cycles: 1260729 heartbeat IPC: 4.765 cumulative IPC: 3.966 (Simulation time: 00 hr 00 min 19 sec)
Heartbeat CPU 0 instructions: 5500049 cycles: 1366963 heartbeat IPC: 4.707 cumulative IPC: 4.024 (Simulation time: 00 hr 00 min 21 sec)
Heartbeat CPU 0 instructions: 6000050 cycles: 1472526 heartbeat IPC: 4.737 cumulative IPC: 4.075 (Simulation time: 00 hr 00 min 23 sec)
Heartbeat CPU 0 instructions: 6500051 cycles: 1575569 heartbeat IPC: 4.852 cumulative IPC: 4.126 (Simulation time: 00 hr 00 min 24 sec)
Heartbeat CPU 0 instructions: 7000053 cycles: 1681208 heartbeat IPC: 4.733 cumulative IPC: 4.164 (Simulation time: 00 hr 00 min 26 sec)
Heartbeat CPU 0 instructions: 7500055 cycles: 1837045 heartbeat IPC: 3.208 cumulative IPC: 4.083 (Simulation time: 00 hr 00 min 28 sec)
Heartbeat CPU 0 instructions: 8000057 cycles: 1955783 heartbeat IPC: 4.211 cumulative IPC: 4.09 (Simulation time: 00 hr 00 min 30 sec)
Heartbeat CPU 0 instructions: 8500061 cycles: 2065721 heartbeat IPC: 4.548 cumulative IPC: 4.115 (Simulation time: 00 hr 00 min 32 sec)
Heartbeat CPU 0 instructions: 9000061 cycles: 2179400 heartbeat IPC: 4.398 cumulative IPC: 4.13 (Simulation time: 00 hr 00 min 34 sec)
Heartbeat CPU 0 instructions: 9500067 cycles: 2371272 heartbeat IPC: 2.606 cumulative IPC: 4.006 (Simulation time: 00 hr 00 min 37 sec)
Heartbeat CPU 0 instructions: 10000069 cycles: 2486160 heartbeat IPC: 4.352 cumulative IPC: 4.022 (Simulation time: 00 hr 00 min 38 sec)
Heartbeat CPU 0 instructions: 10500072 cycles: 2599343 heartbeat IPC: 4.418 cumulative IPC: 4.04 (Simulation time: 00 hr 00 min 40 sec)
Heartbeat CPU 0 instructions: 11000072 cycles: 2714077 heartbeat IPC: 4.358 cumulative IPC: 4.053 (Simulation time: 00 hr 00 min 42 sec)
Heartbeat CPU 0 instructions: 11500073 cycles: 2823538 heartbeat IPC: 4.568 cumulative IPC: 4.073 (Simulation time: 00 hr 00 min 44 sec)
Heartbeat CPU 0 instructions: 12000078 cycles: 2942528 heartbeat IPC: 4.202 cumulative IPC: 4.078 (Simulation time: 00 hr 00 min 46 sec)
Heartbeat CPU 0 instructions: 12500084 cycles: 3054502 heartbeat IPC: 4.465 cumulative IPC: 4.092 (Simulation time: 00 hr 00 min 48 sec)
Heartbeat CPU 0 instructions: 13000088 cycles: 3167904 heartbeat IPC: 4.409 cumulative IPC: 4.104 (Simulation time: 00 hr 00 min 49 sec)
Heartbeat CPU 0 instructions: 13500092 cycles: 3278291 heartbeat IPC: 4.53 cumulative IPC: 4.118 (Simulation time: 00 hr 00 min 51 sec)
Heartbeat CPU 0 instructions: 14000096 cycles: 3387846 heartbeat IPC: 4.564 cumulative IPC: 4.132 (Simulation time: 00 hr 00 min 53 sec)
Heartbeat CPU 0 instructions: 14500101 cycles: 3494693 heartbeat IPC: 4.68 cumulative IPC: 4.149 (Simulation time: 00 hr 00 min 55 sec)
Heartbeat CPU 0 instructions: 15000104 cycles: 3613131 heartbeat IPC: 4.222 cumulative IPC: 4.152 (Simulation time: 00 hr 00 min 56 sec)
Heartbeat CPU 0 instructions: 15500111 cycles: 3722277 heartbeat IPC: 4.581 cumulative IPC: 4.164 (Simulation time: 00 hr 00 min 58 sec)
Heartbeat CPU 0 instructions: 16000116 cycles: 3831835 heartbeat IPC: 4.564 cumulative IPC: 4.176 (Simulation time: 00 hr 01 min 00 sec)
Heartbeat CPU 0 instructions: 16500123 cycles: 3941228 heartbeat IPC: 4.571 cumulative IPC: 4.187 (Simulation time: 00 hr 01 min 02 sec)
Heartbeat CPU 0 instructions: 17000123 cycles: 4080930 heartbeat IPC: 3.579 cumulative IPC: 4.166 (Simulation time: 00 hr 01 min 04 sec)
Heartbeat CPU 0 instructions: 17500124 cycles: 4274049 heartbeat IPC: 2.589 cumulative IPC: 4.095 (Simulation time: 00 hr 01 min 07 sec)
Heartbeat CPU 0 instructions: 18000130 cycles: 4487176 heartbeat IPC: 2.346 cumulative IPC: 4.011 (Simulation time: 00 hr 01 min 10 sec)
Heartbeat CPU 0 instructions: 18500134 cycles: 4595368 heartbeat IPC: 4.621 cumulative IPC: 4.026 (Simulation time: 00 hr 01 min 12 sec)
Heartbeat CPU 0 instructions: 19000138 cycles: 4705795 heartbeat IPC: 4.528 cumulative IPC: 4.038 (Simulation time: 00 hr 01 min 14 sec)
Heartbeat CPU 0 instructions: 19500142 cycles: 4808128 heartbeat IPC: 4.886 cumulative IPC: 4.056 (Simulation time: 00 hr 01 min 15 sec)
Heartbeat CPU 0 instructions: 20000147 cycles: 4912855 heartbeat IPC: 4.774 cumulative IPC: 4.071 (Simulation time: 00 hr 01 min 17 sec)
Heartbeat CPU 0 instructions: 20500154 cycles: 5022271 heartbeat IPC: 4.57 cumulative IPC: 4.082 (Simulation time: 00 hr 01 min 19 sec)
Heartbeat CPU 0 instructions: 21000156 cycles: 5128368 heartbeat IPC: 4.713 cumulative IPC: 4.095 (Simulation time: 00 hr 01 min 20 sec)
Heartbeat CPU 0 instructions: 21500163 cycles: 5240024 heartbeat IPC: 4.478 cumulative IPC: 4.103 (Simulation time: 00 hr 01 min 22 sec)
Heartbeat CPU 0 instructions: 22000169 cycles: 5343753 heartbeat IPC: 4.82 cumulative IPC: 4.117 (Simulation time: 00 hr 01 min 24 sec)
Heartbeat CPU 0 instructions: 22500176 cycles: 5447856 heartbeat IPC: 4.803 cumulative IPC: 4.13 (Simulation time: 00 hr 01 min 26 sec)
Heartbeat CPU 0 instructions: 23000179 cycles: 5554115 heartbeat IPC: 4.706 cumulative IPC: 4.141 (Simulation time: 00 hr 01 min 27 sec)
Heartbeat CPU 0 instructions: 23500186 cycles: 5657078 heartbeat IPC: 4.856 cumulative IPC: 4.154 (Simulation time: 00 hr 01 min 29 sec)
Heartbeat CPU 0 instructions: 24000192 cycles: 5760557 heartbeat IPC: 4.832 cumulative IPC: 4.166 (Simulation time: 00 hr 01 min 31 sec)
Heartbeat CPU 0 instructions: 24500192 cycles: 5864344 heartbeat IPC: 4.818 cumulative IPC: 4.178 (Simulation time: 00 hr 01 min 32 sec)
Heartbeat CPU 0 instructions: 25000194 cycles: 5966634 heartbeat IPC: 4.888 cumulative IPC: 4.19 (Simulation time: 00 hr 01 min 34 sec)
Heartbeat CPU 0 instructions: 25500199 cycles: 6070709 heartbeat IPC: 4.804 cumulative IPC: 4.201 (Simulation time: 00 hr 01 min 35 sec)
Heartbeat CPU 0 instructions: 26000206 cycles: 6177373 heartbeat IPC: 4.688 cumulative IPC: 4.209 (Simulation time: 00 hr 01 min 37 sec)
Heartbeat CPU 0 instructions: 26500210 cycles: 6281731 heartbeat IPC: 4.791 cumulative IPC: 4.219 (Simulation time: 00 hr 01 min 39 sec)
Heartbeat CPU 0 instructions: 27000216 cycles: 6386940 heartbeat IPC: 4.753 cumulative IPC: 4.227 (Simulation time: 00 hr 01 min 40 sec)
Heartbeat CPU 0 instructions: 27500220 cycles: 6490625 heartbeat IPC: 4.822 cumulative IPC: 4.237 (Simulation time: 00 hr 01 min 42 sec)
Heartbeat CPU 0 instructions: 28000222 cycles: 6595086 heartbeat IPC: 4.786 cumulative IPC: 4.246 (Simulation time: 00 hr 01 min 44 sec)
Heartbeat CPU 0 instructions: 28500222 cycles: 6699597 heartbeat IPC: 4.784 cumulative IPC: 4.254 (Simulation time: 00 hr 01 min 45 sec)
Heartbeat CPU 0 instructions: 29000226 cycles: 6802570 heartbeat IPC: 4.856 cumulative IPC: 4.263 (Simulation time: 00 hr 01 min 47 sec)
Heartbeat CPU 0 instructions: 29500233 cycles: 6906237 heartbeat IPC: 4.823 cumulative IPC: 4.272 (Simulation time: 00 hr 01 min 49 sec)
Heartbeat CPU 0 instructions: 30000240 cycles: 7010209 heartbeat IPC: 4.809 cumulative IPC: 4.28 (Simulation time: 00 hr 01 min 50 sec)
Heartbeat CPU 0 instructions: 30500246 cycles: 7113388 heartbeat IPC: 4.846 cumulative IPC: 4.288 (Simulation time: 00 hr 01 min 52 sec)
Heartbeat CPU 0 instructions: 31000247 cycles: 7215696 heartbeat IPC: 4.887 cumulative IPC: 4.296 (Simulation time: 00 hr 01 min 53 sec)
Heartbeat CPU 0 instructions: 31500250 cycles: 7332189 heartbeat IPC: 4.292 cumulative IPC: 4.296 (Simulation time: 00 hr 01 min 55 sec)
Heartbeat CPU 0 instructions: 32000256 cycles: 7435940 heartbeat IPC: 4.819 cumulative IPC: 4.303 (Simulation time: 00 hr 01 min 57 sec)
Heartbeat CPU 0 instructions: 32500262 cycles: 7539629 heartbeat IPC: 4.822 cumulative IPC: 4.311 (Simulation time: 00 hr 01 min 59 sec)
Heartbeat CPU 0 instructions: 33000262 cycles: 7642326 heartbeat IPC: 4.869 cumulative IPC: 4.318 (Simulation time: 00 hr 02 min 00 sec)
Heartbeat CPU 0 instructions: 33500264 cycles: 7746272 heartbeat IPC: 4.81 cumulative IPC: 4.325 (Simulation time: 00 hr 02 min 02 sec)
Heartbeat CPU 0 instructions: 34000271 cycles: 7849280 heartbeat IPC: 4.854 cumulative IPC: 4.332 (Simulation time: 00 hr 02 min 04 sec)
Heartbeat CPU 0 instructions: 34500276 cycles: 7951772 heartbeat IPC: 4.878 cumulative IPC: 4.339 (Simulation time: 00 hr 02 min 05 sec)
Heartbeat CPU 0 instructions: 35000278 cycles: 8056205 heartbeat IPC: 4.788 cumulative IPC: 4.345 (Simulation time: 00 hr 02 min 07 sec)
Heartbeat CPU 0 instructions: 35500279 cycles: 8158852 heartbeat IPC: 4.871 cumulative IPC: 4.351 (Simulation time: 00 hr 02 min 08 sec)
Heartbeat CPU 0 instructions: 36000286 cycles: 8262094 heartbeat IPC: 4.843 cumulative IPC: 4.357 (Simulation time: 00 hr 02 min 10 sec)
Heartbeat CPU 0 instructions: 36500286 cycles: 8366263 heartbeat IPC: 4.8 cumulative IPC: 4.363 (Simulation time: 00 hr 02 min 12 sec)
Heartbeat CPU 0 instructions: 37000290 cycles: 8469687 heartbeat IPC: 4.835 cumulative IPC: 4.369 (Simulation time: 00 hr 02 min 13 sec)
Heartbeat CPU 0 instructions: 37500296 cycles: 8573276 heartbeat IPC: 4.827 cumulative IPC: 4.374 (Simulation time: 00 hr 02 min 15 sec)
Heartbeat CPU 0 instructions: 38000300 cycles: 8679296 heartbeat IPC: 4.716 cumulative IPC: 4.378 (Simulation time: 00 hr 02 min 17 sec)
Heartbeat CPU 0 instructions: 38500306 cycles: 8781683 heartbeat IPC: 4.883 cumulative IPC: 4.384 (Simulation time: 00 hr 02 min 18 sec)
Heartbeat CPU 0 instructions: 39000308 cycles: 8884636 heartbeat IPC: 4.857 cumulative IPC: 4.39 (Simulation time: 00 hr 02 min 20 sec)
Heartbeat CPU 0 instructions: 39500314 cycles: 8989385 heartbeat IPC: 4.773 cumulative IPC: 4.394 (Simulation time: 00 hr 02 min 21 sec)
Heartbeat CPU 0 instructions: 40000317 cycles: 9097472 heartbeat IPC: 4.626 cumulative IPC: 4.397 (Simulation time: 00 hr 02 min 23 sec)
Heartbeat CPU 0 instructions: 40500324 cycles: 9202224 heartbeat IPC: 4.773 cumulative IPC: 4.401 (Simulation time: 00 hr 02 min 25 sec)
Heartbeat CPU 0 instructions: 41000326 cycles: 9305791 heartbeat IPC: 4.828 cumulative IPC: 4.406 (Simulation time: 00 hr 02 min 27 sec)
Heartbeat CPU 0 instructions: 41500331 cycles: 9420093 heartbeat IPC: 4.374 cumulative IPC: 4.406 (Simulation time: 00 hr 02 min 28 sec)
Heartbeat CPU 0 instructions: 42000337 cycles: 9524988 heartbeat IPC: 4.767 cumulative IPC: 4.409 (Simulation time: 00 hr 02 min 30 sec)
Heartbeat CPU 0 instructions: 42500341 cycles: 9628183 heartbeat IPC: 4.845 cumulative IPC: 4.414 (Simulation time: 00 hr 02 min 32 sec)
Heartbeat CPU 0 instructions: 43000346 cycles: 9731896 heartbeat IPC: 4.821 cumulative IPC: 4.418 (Simulation time: 00 hr 02 min 33 sec)
Heartbeat CPU 0 instructions: 43500353 cycles: 9836893 heartbeat IPC: 4.762 cumulative IPC: 4.422 (Simulation time: 00 hr 02 min 35 sec)
Heartbeat CPU 0 instructions: 44000359 cycles: 9941129 heartbeat IPC: 4.797 cumulative IPC: 4.426 (Simulation time: 00 hr 02 min 37 sec)
Heartbeat CPU 0 instructions: 44500362 cycles: 10044821 heartbeat IPC: 4.822 cumulative IPC: 4.43 (Simulation time: 00 hr 02 min 38 sec)
Heartbeat CPU 0 instructions: 45000363 cycles: 10150630 heartbeat IPC: 4.726 cumulative IPC: 4.433 (Simulation time: 00 hr 02 min 40 sec)
Heartbeat CPU 0 instructions: 45500368 cycles: 10253970 heartbeat IPC: 4.838 cumulative IPC: 4.437 (Simulation time: 00 hr 02 min 42 sec)
Heartbeat CPU 0 instructions: 46000371 cycles: 10360065 heartbeat IPC: 4.713 cumulative IPC: 4.44 (Simulation time: 00 hr 02 min 43 sec)
Heartbeat CPU 0 instructions: 46500373 cycles: 10462079 heartbeat IPC: 4.901 cumulative IPC: 4.445 (Simulation time: 00 hr 02 min 45 sec)
Heartbeat CPU 0 instructions: 47000376 cycles: 10565337 heartbeat IPC: 4.842 cumulative IPC: 4.449 (Simulation time: 00 hr 02 min 47 sec)
Heartbeat CPU 0 instructions: 47500378 cycles: 10668318 heartbeat IPC: 4.855 cumulative IPC: 4.452 (Simulation time: 00 hr 02 min 48 sec)
Heartbeat CPU 0 instructions: 48000379 cycles: 10834116 heartbeat IPC: 3.016 cumulative IPC: 4.43 (Simulation time: 00 hr 02 min 51 sec)
Heartbeat CPU 0 instructions: 48500379 cycles: 10974084 heartbeat IPC: 3.572 cumulative IPC: 4.42 (Simulation time: 00 hr 02 min 53 sec)
Heartbeat CPU 0 instructions: 49000384 cycles: 11111521 heartbeat IPC: 3.638 cumulative IPC: 4.41 (Simulation time: 00 hr 02 min 55 sec)
Heartbeat CPU 0 instructions: 49500384 cycles: 11270942 heartbeat IPC: 3.136 cumulative IPC: 4.392 (Simulation time: 00 hr 02 min 57 sec)
Warmup halting CPU 0 at instruction 50000000 cycle 11435221 for remainder of phase
Warmup finished CPU 0 instructions: 50000000 cycles: 11435221 cumulative IPC: 4.372 (Simulation time: 00 hr 03 min 00 sec)
Warmup complete CPU 0 instructions: 50000000 cycles: 11435221 cumulative IPC: 4.372 (Simulation time: 00 hr 03 min 00 sec)
Heartbeat CPU 0 instructions: 50000389 cycles: 11435272 heartbeat IPC: 3.043 cumulative IPC: 7.627 (Simulation time: 00 hr 03 min 00 sec)
Heartbeat CPU 0 instructions: 50500389 cycles: 12316414 heartbeat IPC: 0.5674 cumulative IPC: 0.5679 (Simulation time: 00 hr 03 min 07 sec)
Heartbeat CPU 0 instructions: 51000389 cycles: 13415458 heartbeat IPC: 0.4549 cumulative IPC: 0.5052 (Simulation time: 00 hr 03 min 15 sec)
Heartbeat CPU 0 instructions: 51500389 cycles: 14423154 heartbeat IPC: 0.4962 cumulative IPC: 0.5021 (Simulation time: 00 hr 03 min 22 sec)
Heartbeat CPU 0 instructions: 52000395 cycles: 14788281 heartbeat IPC: 1.369 cumulative IPC: 0.5966 (Simulation time: 00 hr 03 min 26 sec)
Heartbeat CPU 0 instructions: 52500399 cycles: 18507309 heartbeat IPC: 0.1344 cumulative IPC: 0.3536 (Simulation time: 00 hr 03 min 49 sec)
Heartbeat CPU 0 instructions: 53000399 cycles: 21257280 heartbeat IPC: 0.1818 cumulative IPC: 0.3055 (Simulation time: 00 hr 04 min 07 sec)
Heartbeat CPU 0 instructions: 53500400 cycles: 23498210 heartbeat IPC: 0.2231 cumulative IPC: 0.2902 (Simulation time: 00 hr 04 min 22 sec)
Heartbeat CPU 0 instructions: 54000401 cycles: 24621502 heartbeat IPC: 0.4451 cumulative IPC: 0.3034 (Simulation time: 00 hr 04 min 30 sec)
Heartbeat CPU 0 instructions: 54500405 cycles: 25786696 heartbeat IPC: 0.4291 cumulative IPC: 0.3136 (Simulation time: 00 hr 04 min 38 sec)
Heartbeat CPU 0 instructions: 55000406 cycles: 26775821 heartbeat IPC: 0.5055 cumulative IPC: 0.326 (Simulation time: 00 hr 04 min 46 sec)
Heartbeat CPU 0 instructions: 55500409 cycles: 27730173 heartbeat IPC: 0.5239 cumulative IPC: 0.3376 (Simulation time: 00 hr 04 min 54 sec)
Heartbeat CPU 0 instructions: 56000409 cycles: 28397695 heartbeat IPC: 0.749 cumulative IPC: 0.3537 (Simulation time: 00 hr 04 min 59 sec)
Heartbeat CPU 0 instructions: 56500411 cycles: 29390079 heartbeat IPC: 0.5038 cumulative IPC: 0.362 (Simulation time: 00 hr 05 min 06 sec)
Heartbeat CPU 0 instructions: 57000414 cycles: 30408710 heartbeat IPC: 0.4909 cumulative IPC: 0.369 (Simulation time: 00 hr 05 min 14 sec)
Heartbeat CPU 0 instructions: 57500414 cycles: 31271899 heartbeat IPC: 0.5792 cumulative IPC: 0.3781 (Simulation time: 00 hr 05 min 21 sec)
Heartbeat CPU 0 instructions: 58000414 cycles: 32242719 heartbeat IPC: 0.515 cumulative IPC: 0.3845 (Simulation time: 00 hr 05 min 28 sec)
Heartbeat CPU 0 instructions: 58500416 cycles: 33473120 heartbeat IPC: 0.4064 cumulative IPC: 0.3857 (Simulation time: 00 hr 05 min 37 sec)
Heartbeat CPU 0 instructions: 59000418 cycles: 33941434 heartbeat IPC: 1.068 cumulative IPC: 0.3999 (Simulation time: 00 hr 05 min 41 sec)
Heartbeat CPU 0 instructions: 59500422 cycles: 34703933 heartbeat IPC: 0.6557 cumulative IPC: 0.4083 (Simulation time: 00 hr 05 min 46 sec)
Heartbeat CPU 0 instructions: 60000422 cycles: 35638906 heartbeat IPC: 0.5348 cumulative IPC: 0.4132 (Simulation time: 00 hr 05 min 53 sec)
Heartbeat CPU 0 instructions: 60500422 cycles: 37012953 heartbeat IPC: 0.3639 cumulative IPC: 0.4105 (Simulation time: 00 hr 06 min 02 sec)
Heartbeat CPU 0 instructions: 61000422 cycles: 37386085 heartbeat IPC: 1.34 cumulative IPC: 0.4239 (Simulation time: 00 hr 06 min 05 sec)
Heartbeat CPU 0 instructions: 61500425 cycles: 38764233 heartbeat IPC: 0.3628 cumulative IPC: 0.4208 (Simulation time: 00 hr 06 min 15 sec)
Heartbeat CPU 0 instructions: 62000429 cycles: 40148654 heartbeat IPC: 0.3612 cumulative IPC: 0.4179 (Simulation time: 00 hr 06 min 25 sec)
Heartbeat CPU 0 instructions: 62500433 cycles: 41583899 heartbeat IPC: 0.3484 cumulative IPC: 0.4146 (Simulation time: 00 hr 06 min 35 sec)
Heartbeat CPU 0 instructions: 63000435 cycles: 41904429 heartbeat IPC: 1.56 cumulative IPC: 0.4267 (Simulation time: 00 hr 06 min 38 sec)
Heartbeat CPU 0 instructions: 63500435 cycles: 43040328 heartbeat IPC: 0.4402 cumulative IPC: 0.4272 (Simulation time: 00 hr 06 min 47 sec)
Heartbeat CPU 0 instructions: 64000436 cycles: 44251573 heartbeat IPC: 0.4128 cumulative IPC: 0.4266 (Simulation time: 00 hr 06 min 57 sec)
Heartbeat CPU 0 instructions: 64500436 cycles: 45128763 heartbeat IPC: 0.57 cumulative IPC: 0.4304 (Simulation time: 00 hr 07 min 06 sec)
Heartbeat CPU 0 instructions: 65000438 cycles: 46004242 heartbeat IPC: 0.5711 cumulative IPC: 0.4339 (Simulation time: 00 hr 07 min 13 sec)
Heartbeat CPU 0 instructions: 65500440 cycles: 46814170 heartbeat IPC: 0.6173 cumulative IPC: 0.4381 (Simulation time: 00 hr 07 min 20 sec)
Heartbeat CPU 0 instructions: 66000443 cycles: 48678331 heartbeat IPC: 0.2682 cumulative IPC: 0.4296 (Simulation time: 00 hr 07 min 31 sec)
Heartbeat CPU 0 instructions: 66500446 cycles: 49680924 heartbeat IPC: 0.4987 cumulative IPC: 0.4314 (Simulation time: 00 hr 07 min 38 sec)
Heartbeat CPU 0 instructions: 67000449 cycles: 50047342 heartbeat IPC: 1.365 cumulative IPC: 0.4403 (Simulation time: 00 hr 07 min 42 sec)
Heartbeat CPU 0 instructions: 67500451 cycles: 50320253 heartbeat IPC: 1.832 cumulative IPC: 0.4501 (Simulation time: 00 hr 07 min 45 sec)
Heartbeat CPU 0 instructions: 68000453 cycles: 50621874 heartbeat IPC: 1.658 cumulative IPC: 0.4594 (Simulation time: 00 hr 07 min 48 sec)
Heartbeat CPU 0 instructions: 68500453 cycles: 50885969 heartbeat IPC: 1.893 cumulative IPC: 0.469 (Simulation time: 00 hr 07 min 52 sec)
Heartbeat CPU 0 instructions: 69000453 cycles: 51153913 heartbeat IPC: 1.866 cumulative IPC: 0.4784 (Simulation time: 00 hr 07 min 55 sec)
Heartbeat CPU 0 instructions: 69500453 cycles: 51436510 heartbeat IPC: 1.769 cumulative IPC: 0.4875 (Simulation time: 00 hr 07 min 58 sec)
Heartbeat CPU 0 instructions: 70000458 cycles: 51716137 heartbeat IPC: 1.788 cumulative IPC: 0.4965 (Simulation time: 00 hr 08 min 01 sec)
Heartbeat CPU 0 instructions: 70500463 cycles: 52002786 heartbeat IPC: 1.744 cumulative IPC: 0.5053 (Simulation time: 00 hr 08 min 04 sec)
Heartbeat CPU 0 instructions: 71000467 cycles: 52261325 heartbeat IPC: 1.934 cumulative IPC: 0.5144 (Simulation time: 00 hr 08 min 07 sec)
Heartbeat CPU 0 instructions: 71500470 cycles: 52539301 heartbeat IPC: 1.799 cumulative IPC: 0.5231 (Simulation time: 00 hr 08 min 11 sec)
Heartbeat CPU 0 instructions: 72000475 cycles: 52806819 heartbeat IPC: 1.869 cumulative IPC: 0.5318 (Simulation time: 00 hr 08 min 14 sec)
Heartbeat CPU 0 instructions: 72500475 cycles: 53086633 heartbeat IPC: 1.787 cumulative IPC: 0.5402 (Simulation time: 00 hr 08 min 17 sec)
Heartbeat CPU 0 instructions: 73000477 cycles: 53367753 heartbeat IPC: 1.779 cumulative IPC: 0.5485 (Simulation time: 00 hr 08 min 20 sec)
Heartbeat CPU 0 instructions: 73500477 cycles: 53635910 heartbeat IPC: 1.865 cumulative IPC: 0.5569 (Simulation time: 00 hr 08 min 23 sec)
Heartbeat CPU 0 instructions: 74000479 cycles: 53894948 heartbeat IPC: 1.93 cumulative IPC: 0.5653 (Simulation time: 00 hr 08 min 27 sec)
Heartbeat CPU 0 instructions: 74500481 cycles: 54169136 heartbeat IPC: 1.824 cumulative IPC: 0.5733 (Simulation time: 00 hr 08 min 30 sec)
Heartbeat CPU 0 instructions: 75000481 cycles: 54429657 heartbeat IPC: 1.919 cumulative IPC: 0.5815 (Simulation time: 00 hr 08 min 33 sec)
Heartbeat CPU 0 instructions: 75500488 cycles: 54689802 heartbeat IPC: 1.922 cumulative IPC: 0.5895 (Simulation time: 00 hr 08 min 36 sec)
Heartbeat CPU 0 instructions: 76000492 cycles: 54960855 heartbeat IPC: 1.845 cumulative IPC: 0.5974 (Simulation time: 00 hr 08 min 39 sec)
Heartbeat CPU 0 instructions: 76500494 cycles: 55263952 heartbeat IPC: 1.65 cumulative IPC: 0.6046 (Simulation time: 00 hr 08 min 43 sec)
Heartbeat CPU 0 instructions: 77000500 cycles: 55445940 heartbeat IPC: 2.747 cumulative IPC: 0.6135 (Simulation time: 00 hr 08 min 45 sec)
Heartbeat CPU 0 instructions: 77500503 cycles: 56421842 heartbeat IPC: 0.5123 cumulative IPC: 0.6113 (Simulation time: 00 hr 08 min 52 sec)
Heartbeat CPU 0 instructions: 78000503 cycles: 56693313 heartbeat IPC: 1.842 cumulative IPC: 0.6187 (Simulation time: 00 hr 08 min 55 sec)
Heartbeat CPU 0 instructions: 78500503 cycles: 56933969 heartbeat IPC: 2.078 cumulative IPC: 0.6264 (Simulation time: 00 hr 08 min 58 sec)
Heartbeat CPU 0 instructions: 79000503 cycles: 57174001 heartbeat IPC: 2.083 cumulative IPC: 0.634 (Simulation time: 00 hr 09 min 00 sec)
Heartbeat CPU 0 instructions: 79500508 cycles: 57387808 heartbeat IPC: 2.339 cumulative IPC: 0.642 (Simulation time: 00 hr 09 min 03 sec)
Heartbeat CPU 0 instructions: 80000510 cycles: 57619876 heartbeat IPC: 2.155 cumulative IPC: 0.6496 (Simulation time: 00 hr 09 min 05 sec)
Heartbeat CPU 0 instructions: 80500511 cycles: 57852916 heartbeat IPC: 2.146 cumulative IPC: 0.6571 (Simulation time: 00 hr 09 min 08 sec)
Heartbeat CPU 0 instructions: 81000517 cycles: 58082874 heartbeat IPC: 2.174 cumulative IPC: 0.6646 (Simulation time: 00 hr 09 min 11 sec)
Heartbeat CPU 0 instructions: 81500522 cycles: 58298006 heartbeat IPC: 2.324 cumulative IPC: 0.6722 (Simulation time: 00 hr 09 min 13 sec)
Heartbeat CPU 0 instructions: 82000522 cycles: 58521841 heartbeat IPC: 2.234 cumulative IPC: 0.6796 (Simulation time: 00 hr 09 min 15 sec)
Heartbeat CPU 0 instructions: 82500522 cycles: 58741509 heartbeat IPC: 2.276 cumulative IPC: 0.687 (Simulation time: 00 hr 09 min 18 sec)
Heartbeat CPU 0 instructions: 83000523 cycles: 58988390 heartbeat IPC: 2.025 cumulative IPC: 0.694 (Simulation time: 00 hr 09 min 21 sec)
Heartbeat CPU 0 instructions: 83500525 cycles: 59222732 heartbeat IPC: 2.134 cumulative IPC: 0.701 (Simulation time: 00 hr 09 min 23 sec)
Heartbeat CPU 0 instructions: 84000528 cycles: 59444114 heartbeat IPC: 2.259 cumulative IPC: 0.7082 (Simulation time: 00 hr 09 min 26 sec)
Heartbeat CPU 0 instructions: 84500533 cycles: 59693111 heartbeat IPC: 2.008 cumulative IPC: 0.7149 (Simulation time: 00 hr 09 min 28 sec)
Heartbeat CPU 0 instructions: 85000534 cycles: 59997699 heartbeat IPC: 1.642 cumulative IPC: 0.7207 (Simulation time: 00 hr 09 min 31 sec)
Heartbeat CPU 0 instructions: 85500534 cycles: 60207936 heartbeat IPC: 2.378 cumulative IPC: 0.7279 (Simulation time: 00 hr 09 min 34 sec)
Heartbeat CPU 0 instructions: 86000534 cycles: 60420210 heartbeat IPC: 2.355 cumulative IPC: 0.7349 (Simulation time: 00 hr 09 min 36 sec)
Heartbeat CPU 0 instructions: 86500534 cycles: 60634324 heartbeat IPC: 2.335 cumulative IPC: 0.7419 (Simulation time: 00 hr 09 min 39 sec)
Heartbeat CPU 0 instructions: 87000534 cycles: 60833757 heartbeat IPC: 2.507 cumulative IPC: 0.749 (Simulation time: 00 hr 09 min 41 sec)
Heartbeat CPU 0 instructions: 87500539 cycles: 61057441 heartbeat IPC: 2.235 cumulative IPC: 0.7557 (Simulation time: 00 hr 09 min 44 sec)
Heartbeat CPU 0 instructions: 88000539 cycles: 61256210 heartbeat IPC: 2.515 cumulative IPC: 0.7627 (Simulation time: 00 hr 09 min 46 sec)
Heartbeat CPU 0 instructions: 88500542 cycles: 61455007 heartbeat IPC: 2.515 cumulative IPC: 0.7697 (Simulation time: 00 hr 09 min 48 sec)
Heartbeat CPU 0 instructions: 89000547 cycles: 61656756 heartbeat IPC: 2.478 cumulative IPC: 0.7766 (Simulation time: 00 hr 09 min 51 sec)
Heartbeat CPU 0 instructions: 89500553 cycles: 61875563 heartbeat IPC: 2.285 cumulative IPC: 0.7831 (Simulation time: 00 hr 09 min 53 sec)
Heartbeat CPU 0 instructions: 90000554 cycles: 62078177 heartbeat IPC: 2.468 cumulative IPC: 0.7899 (Simulation time: 00 hr 09 min 56 sec)
Heartbeat CPU 0 instructions: 90500560 cycles: 62293732 heartbeat IPC: 2.32 cumulative IPC: 0.7963 (Simulation time: 00 hr 09 min 58 sec)
Heartbeat CPU 0 instructions: 91000562 cycles: 62499189 heartbeat IPC: 2.434 cumulative IPC: 0.8029 (Simulation time: 00 hr 10 min 01 sec)
Heartbeat CPU 0 instructions: 91500563 cycles: 62726407 heartbeat IPC: 2.201 cumulative IPC: 0.8091 (Simulation time: 00 hr 10 min 03 sec)
Heartbeat CPU 0 instructions: 92000567 cycles: 62920924 heartbeat IPC: 2.57 cumulative IPC: 0.8158 (Simulation time: 00 hr 10 min 06 sec)
Heartbeat CPU 0 instructions: 92500570 cycles: 63135923 heartbeat IPC: 2.326 cumulative IPC: 0.8221 (Simulation time: 00 hr 10 min 08 sec)
Heartbeat CPU 0 instructions: 93000572 cycles: 63369551 heartbeat IPC: 2.14 cumulative IPC: 0.828 (Simulation time: 00 hr 10 min 11 sec)
Heartbeat CPU 0 instructions: 93500578 cycles: 63561605 heartbeat IPC: 2.603 cumulative IPC: 0.8345 (Simulation time: 00 hr 10 min 13 sec)
Heartbeat CPU 0 instructions: 94000584 cycles: 63762165 heartbeat IPC: 2.493 cumulative IPC: 0.8409 (Simulation time: 00 hr 10 min 16 sec)
Heartbeat CPU 0 instructions: 94500585 cycles: 63980982 heartbeat IPC: 2.285 cumulative IPC: 0.8469 (Simulation time: 00 hr 10 min 18 sec)
Heartbeat CPU 0 instructions: 95000586 cycles: 64668198 heartbeat IPC: 0.7276 cumulative IPC: 0.8454 (Simulation time: 00 hr 10 min 23 sec)
Heartbeat CPU 0 instructions: 95500591 cycles: 64877888 heartbeat IPC: 2.384 cumulative IPC: 0.8514 (Simulation time: 00 hr 10 min 26 sec)
Heartbeat CPU 0 instructions: 96000596 cycles: 65101952 heartbeat IPC: 2.232 cumulative IPC: 0.8572 (Simulation time: 00 hr 10 min 28 sec)
Heartbeat CPU 0 instructions: 96500596 cycles: 65350893 heartbeat IPC: 2.009 cumulative IPC: 0.8625 (Simulation time: 00 hr 10 min 31 sec)
Heartbeat CPU 0 instructions: 97000603 cycles: 65564913 heartbeat IPC: 2.336 cumulative IPC: 0.8683 (Simulation time: 00 hr 10 min 33 sec)
Heartbeat CPU 0 instructions: 97500609 cycles: 65777585 heartbeat IPC: 2.351 cumulative IPC: 0.8741 (Simulation time: 00 hr 10 min 36 sec)
Heartbeat CPU 0 instructions: 98000613 cycles: 65989496 heartbeat IPC: 2.359 cumulative IPC: 0.8799 (Simulation time: 00 hr 10 min 38 sec)
Heartbeat CPU 0 instructions: 98500617 cycles: 66191184 heartbeat IPC: 2.479 cumulative IPC: 0.8858 (Simulation time: 00 hr 10 min 41 sec)
Heartbeat CPU 0 instructions: 99000624 cycles: 66404215 heartbeat IPC: 2.347 cumulative IPC: 0.8914 (Simulation time: 00 hr 10 min 43 sec)
Heartbeat CPU 0 instructions: 99500631 cycles: 66628126 heartbeat IPC: 2.233 cumulative IPC: 0.8969 (Simulation time: 00 hr 10 min 46 sec)
Heartbeat CPU 0 instructions: 100000631 cycles: 66836714 heartbeat IPC: 2.397 cumulative IPC: 0.9025 (Simulation time: 00 hr 10 min 48 sec)
Heartbeat CPU 0 instructions: 100500631 cycles: 67048064 heartbeat IPC: 2.366 cumulative IPC: 0.9081 (Simulation time: 00 hr 10 min 51 sec)
Heartbeat CPU 0 instructions: 101000632 cycles: 67247714 heartbeat IPC: 2.504 cumulative IPC: 0.9138 (Simulation time: 00 hr 10 min 53 sec)
Heartbeat CPU 0 instructions: 101500632 cycles: 67456691 heartbeat IPC: 2.393 cumulative IPC: 0.9193 (Simulation time: 00 hr 10 min 55 sec)
Heartbeat CPU 0 instructions: 102000639 cycles: 67657094 heartbeat IPC: 2.495 cumulative IPC: 0.9249 (Simulation time: 00 hr 10 min 58 sec)
Heartbeat CPU 0 instructions: 102500639 cycles: 67870338 heartbeat IPC: 2.345 cumulative IPC: 0.9303 (Simulation time: 00 hr 11 min 00 sec)
Heartbeat CPU 0 instructions: 103000645 cycles: 68071603 heartbeat IPC: 2.484 cumulative IPC: 0.9358 (Simulation time: 00 hr 11 min 03 sec)
Heartbeat CPU 0 instructions: 103500649 cycles: 68278402 heartbeat IPC: 2.418 cumulative IPC: 0.9412 (Simulation time: 00 hr 11 min 05 sec)
Heartbeat CPU 0 instructions: 104000649 cycles: 68481977 heartbeat IPC: 2.456 cumulative IPC: 0.9466 (Simulation time: 00 hr 11 min 07 sec)
Heartbeat CPU 0 instructions: 104500656 cycles: 69895384 heartbeat IPC: 0.3538 cumulative IPC: 0.9323 (Simulation time: 00 hr 11 min 17 sec)
Heartbeat CPU 0 instructions: 105000658 cycles: 71022018 heartbeat IPC: 0.4438 cumulative IPC: 0.923 (Simulation time: 00 hr 11 min 24 sec)
Heartbeat CPU 0 instructions: 105500658 cycles: 71766366 heartbeat IPC: 0.6717 cumulative IPC: 0.9199 (Simulation time: 00 hr 11 min 30 sec)
Heartbeat CPU 0 instructions: 106000659 cycles: 71963197 heartbeat IPC: 2.54 cumulative IPC: 0.9252 (Simulation time: 00 hr 11 min 32 sec)
Heartbeat CPU 0 instructions: 106500666 cycles: 72320939 heartbeat IPC: 1.398 cumulative IPC: 0.928 (Simulation time: 00 hr 11 min 36 sec)
Heartbeat CPU 0 instructions: 107000666 cycles: 73471675 heartbeat IPC: 0.4345 cumulative IPC: 0.9188 (Simulation time: 00 hr 11 min 44 sec)
Heartbeat CPU 0 instructions: 107500670 cycles: 73812773 heartbeat IPC: 1.466 cumulative IPC: 0.9218 (Simulation time: 00 hr 11 min 48 sec)
Heartbeat CPU 0 instructions: 108000670 cycles: 74159305 heartbeat IPC: 1.443 cumulative IPC: 0.9247 (Simulation time: 00 hr 11 min 53 sec)
Heartbeat CPU 0 instructions: 108500677 cycles: 74642500 heartbeat IPC: 1.035 cumulative IPC: 0.9255 (Simulation time: 00 hr 11 min 58 sec)
Heartbeat CPU 0 instructions: 109000680 cycles: 75877906 heartbeat IPC: 0.4047 cumulative IPC: 0.9156 (Simulation time: 00 hr 12 min 07 sec)
Heartbeat CPU 0 instructions: 109500682 cycles: 76222870 heartbeat IPC: 1.449 cumulative IPC: 0.9184 (Simulation time: 00 hr 12 min 10 sec)
Heartbeat CPU 0 instructions: 110000685 cycles: 76657011 heartbeat IPC: 1.152 cumulative IPC: 0.9199 (Simulation time: 00 hr 12 min 15 sec)
Heartbeat CPU 0 instructions: 110500686 cycles: 76872174 heartbeat IPC: 2.324 cumulative IPC: 0.9246 (Simulation time: 00 hr 12 min 17 sec)
Heartbeat CPU 0 instructions: 111000688 cycles: 77308625 heartbeat IPC: 1.146 cumulative IPC: 0.926 (Simulation time: 00 hr 12 min 21 sec)
Heartbeat CPU 0 instructions: 111500690 cycles: 78051630 heartbeat IPC: 0.6729 cumulative IPC: 0.9232 (Simulation time: 00 hr 12 min 26 sec)
Heartbeat CPU 0 instructions: 112000690 cycles: 79647528 heartbeat IPC: 0.3133 cumulative IPC: 0.9089 (Simulation time: 00 hr 12 min 37 sec)
Heartbeat CPU 0 instructions: 112500695 cycles: 80843009 heartbeat IPC: 0.4182 cumulative IPC: 0.9005 (Simulation time: 00 hr 12 min 46 sec)
Heartbeat CPU 0 instructions: 113000696 cycles: 81457345 heartbeat IPC: 0.8139 cumulative IPC: 0.8997 (Simulation time: 00 hr 12 min 52 sec)
Heartbeat CPU 0 instructions: 113500696 cycles: 81755531 heartbeat IPC: 1.677 cumulative IPC: 0.903 (Simulation time: 00 hr 12 min 55 sec)
Heartbeat CPU 0 instructions: 114000697 cycles: 82007976 heartbeat IPC: 1.981 cumulative IPC: 0.9069 (Simulation time: 00 hr 12 min 57 sec)
Heartbeat CPU 0 instructions: 114500698 cycles: 82245383 heartbeat IPC: 2.106 cumulative IPC: 0.9109 (Simulation time: 00 hr 13 min 00 sec)
Heartbeat CPU 0 instructions: 115000699 cycles: 82535511 heartbeat IPC: 1.723 cumulative IPC: 0.9142 (Simulation time: 00 hr 13 min 03 sec)
Heartbeat CPU 0 instructions: 115500702 cycles: 82772441 heartbeat IPC: 2.11 cumulative IPC: 0.9182 (Simulation time: 00 hr 13 min 06 sec)
Heartbeat CPU 0 instructions: 116000708 cycles: 83033908 heartbeat IPC: 1.912 cumulative IPC: 0.9218 (Simulation time: 00 hr 13 min 08 sec)
Heartbeat CPU 0 instructions: 116500710 cycles: 83301513 heartbeat IPC: 1.868 cumulative IPC: 0.9253 (Simulation time: 00 hr 13 min 11 sec)
Heartbeat CPU 0 instructions: 117000710 cycles: 83564430 heartbeat IPC: 1.902 cumulative IPC: 0.9289 (Simulation time: 00 hr 13 min 14 sec)
Heartbeat CPU 0 instructions: 117500716 cycles: 83838573 heartbeat IPC: 1.824 cumulative IPC: 0.9323 (Simulation time: 00 hr 13 min 17 sec)
Heartbeat CPU 0 instructions: 118000719 cycles: 84059528 heartbeat IPC: 2.263 cumulative IPC: 0.9363 (Simulation time: 00 hr 13 min 20 sec)
Heartbeat CPU 0 instructions: 118500721 cycles: 84400336 heartbeat IPC: 1.467 cumulative IPC: 0.9388 (Simulation time: 00 hr 13 min 24 sec)
Heartbeat CPU 0 instructions: 119000721 cycles: 85424986 heartbeat IPC: 0.488 cumulative IPC: 0.9326 (Simulation time: 00 hr 13 min 32 sec)
Heartbeat CPU 0 instructions: 119500724 cycles: 85735594 heartbeat IPC: 1.61 cumulative IPC: 0.9354 (Simulation time: 00 hr 13 min 35 sec)
Heartbeat CPU 0 instructions: 120000730 cycles: 86017386 heartbeat IPC: 1.774 cumulative IPC: 0.9386 (Simulation time: 00 hr 13 min 38 sec)
Heartbeat CPU 0 instructions: 120500730 cycles: 86289331 heartbeat IPC: 1.839 cumulative IPC: 0.9418 (Simulation time: 00 hr 13 min 41 sec)
Heartbeat CPU 0 instructions: 121000730 cycles: 86576595 heartbeat IPC: 1.741 cumulative IPC: 0.9449 (Simulation time: 00 hr 13 min 44 sec)
Heartbeat CPU 0 instructions: 121500731 cycles: 86853169 heartbeat IPC: 1.808 cumulative IPC: 0.9481 (Simulation time: 00 hr 13 min 47 sec)
Heartbeat CPU 0 instructions: 122000733 cycles: 87829950 heartbeat IPC: 0.5119 cumulative IPC: 0.9425 (Simulation time: 00 hr 13 min 54 sec)
Heartbeat CPU 0 instructions: 122500735 cycles: 88407867 heartbeat IPC: 0.8652 cumulative IPC: 0.9419 (Simulation time: 00 hr 13 min 59 sec)
Heartbeat CPU 0 instructions: 123000736 cycles: 88939890 heartbeat IPC: 0.9398 cumulative IPC: 0.9419 (Simulation time: 00 hr 14 min 04 sec)
Heartbeat CPU 0 instructions: 123500738 cycles: 89646091 heartbeat IPC: 0.708 cumulative IPC: 0.9398 (Simulation time: 00 hr 14 min 10 sec)
Heartbeat CPU 0 instructions: 124000740 cycles: 90084641 heartbeat IPC: 1.14 cumulative IPC: 0.9409 (Simulation time: 00 hr 14 min 15 sec)
Heartbeat CPU 0 instructions: 124500746 cycles: 90564510 heartbeat IPC: 1.042 cumulative IPC: 0.9415 (Simulation time: 00 hr 14 min 19 sec)
Heartbeat CPU 0 instructions: 125000748 cycles: 90924052 heartbeat IPC: 1.391 cumulative IPC: 0.9435 (Simulation time: 00 hr 14 min 22 sec)
Heartbeat CPU 0 instructions: 125500752 cycles: 91180029 heartbeat IPC: 1.953 cumulative IPC: 0.9468 (Simulation time: 00 hr 14 min 25 sec)
Heartbeat CPU 0 instructions: 126000752 cycles: 91428483 heartbeat IPC: 2.012 cumulative IPC: 0.9501 (Simulation time: 00 hr 14 min 28 sec)
Heartbeat CPU 0 instructions: 126500753 cycles: 91691419 heartbeat IPC: 1.902 cumulative IPC: 0.9532 (Simulation time: 00 hr 14 min 31 sec)
Heartbeat CPU 0 instructions: 127000757 cycles: 91953010 heartbeat IPC: 1.911 cumulative IPC: 0.9563 (Simulation time: 00 hr 14 min 34 sec)
Heartbeat CPU 0 instructions: 127500760 cycles: 92216520 heartbeat IPC: 1.897 cumulative IPC: 0.9594 (Simulation time: 00 hr 14 min 36 sec)
Heartbeat CPU 0 instructions: 128000762 cycles: 92497060 heartbeat IPC: 1.782 cumulative IPC: 0.9622 (Simulation time: 00 hr 14 min 39 sec)
Heartbeat CPU 0 instructions: 128500766 cycles: 92757061 heartbeat IPC: 1.923 cumulative IPC: 0.9653 (Simulation time: 00 hr 14 min 42 sec)
Heartbeat CPU 0 instructions: 129000767 cycles: 93293243 heartbeat IPC: 0.9325 cumulative IPC: 0.9651 (Simulation time: 00 hr 14 min 47 sec)
Heartbeat CPU 0 instructions: 129500774 cycles: 93535998 heartbeat IPC: 2.06 cumulative IPC: 0.9683 (Simulation time: 00 hr 14 min 50 sec)
Heartbeat CPU 0 instructions: 130000780 cycles: 93883786 heartbeat IPC: 1.438 cumulative IPC: 0.9703 (Simulation time: 00 hr 14 min 54 sec)
Heartbeat CPU 0 instructions: 130500782 cycles: 94203870 heartbeat IPC: 1.562 cumulative IPC: 0.9726 (Simulation time: 00 hr 14 min 57 sec)
Heartbeat CPU 0 instructions: 131000782 cycles: 94493865 heartbeat IPC: 1.724 cumulative IPC: 0.9752 (Simulation time: 00 hr 15 min 00 sec)
Heartbeat CPU 0 instructions: 131500782 cycles: 94762808 heartbeat IPC: 1.859 cumulative IPC: 0.9781 (Simulation time: 00 hr 15 min 03 sec)
Heartbeat CPU 0 instructions: 132000783 cycles: 95029019 heartbeat IPC: 1.878 cumulative IPC: 0.9809 (Simulation time: 00 hr 15 min 06 sec)
Heartbeat CPU 0 instructions: 132500790 cycles: 95304371 heartbeat IPC: 1.816 cumulative IPC: 0.9837 (Simulation time: 00 hr 15 min 09 sec)
Heartbeat CPU 0 instructions: 133000790 cycles: 95579002 heartbeat IPC: 1.821 cumulative IPC: 0.9864 (Simulation time: 00 hr 15 min 12 sec)
Heartbeat CPU 0 instructions: 133500792 cycles: 96136472 heartbeat IPC: 0.8969 cumulative IPC: 0.9858 (Simulation time: 00 hr 15 min 18 sec)
Heartbeat CPU 0 instructions: 134000794 cycles: 96856125 heartbeat IPC: 0.6948 cumulative IPC: 0.9834 (Simulation time: 00 hr 15 min 24 sec)
Heartbeat CPU 0 instructions: 134500794 cycles: 97061585 heartbeat IPC: 2.434 cumulative IPC: 0.9869 (Simulation time: 00 hr 15 min 26 sec)
Heartbeat CPU 0 instructions: 135000797 cycles: 97262297 heartbeat IPC: 2.491 cumulative IPC: 0.9904 (Simulation time: 00 hr 15 min 29 sec)
Heartbeat CPU 0 instructions: 135500797 cycles: 97558271 heartbeat IPC: 1.689 cumulative IPC: 0.9928 (Simulation time: 00 hr 15 min 33 sec)
Heartbeat CPU 0 instructions: 136000804 cycles: 97887316 heartbeat IPC: 1.52 cumulative IPC: 0.9948 (Simulation time: 00 hr 15 min 37 sec)
Heartbeat CPU 0 instructions: 136500805 cycles: 98186414 heartbeat IPC: 1.672 cumulative IPC: 0.9971 (Simulation time: 00 hr 15 min 41 sec)
Heartbeat CPU 0 instructions: 137000811 cycles: 99273487 heartbeat IPC: 0.46 cumulative IPC: 0.9905 (Simulation time: 00 hr 15 min 49 sec)
Heartbeat CPU 0 instructions: 137500812 cycles: 100489228 heartbeat IPC: 0.4113 cumulative IPC: 0.9826 (Simulation time: 00 hr 15 min 58 sec)
Heartbeat CPU 0 instructions: 138000813 cycles: 101511754 heartbeat IPC: 0.489 cumulative IPC: 0.977 (Simulation time: 00 hr 16 min 06 sec)
Heartbeat CPU 0 instructions: 138500813 cycles: 102581368 heartbeat IPC: 0.4675 cumulative IPC: 0.971 (Simulation time: 00 hr 16 min 14 sec)
Heartbeat CPU 0 instructions: 139000816 cycles: 103576580 heartbeat IPC: 0.5024 cumulative IPC: 0.9659 (Simulation time: 00 hr 16 min 21 sec)
Heartbeat CPU 0 instructions: 139500819 cycles: 104047368 heartbeat IPC: 1.062 cumulative IPC: 0.9664 (Simulation time: 00 hr 16 min 25 sec)
Heartbeat CPU 0 instructions: 140000819 cycles: 104662403 heartbeat IPC: 0.813 cumulative IPC: 0.9654 (Simulation time: 00 hr 16 min 30 sec)
Heartbeat CPU 0 instructions: 140500822 cycles: 105153846 heartbeat IPC: 1.017 cumulative IPC: 0.9657 (Simulation time: 00 hr 16 min 34 sec)
Heartbeat CPU 0 instructions: 141000824 cycles: 105644528 heartbeat IPC: 1.019 cumulative IPC: 0.9659 (Simulation time: 00 hr 16 min 38 sec)
Heartbeat CPU 0 instructions: 141500826 cycles: 106100356 heartbeat IPC: 1.097 cumulative IPC: 0.9666 (Simulation time: 00 hr 16 min 42 sec)
Heartbeat CPU 0 instructions: 142000830 cycles: 106487734 heartbeat IPC: 1.291 cumulative IPC: 0.9679 (Simulation time: 00 hr 16 min 46 sec)
Heartbeat CPU 0 instructions: 142500830 cycles: 106922912 heartbeat IPC: 1.149 cumulative IPC: 0.9687 (Simulation time: 00 hr 16 min 50 sec)
Heartbeat CPU 0 instructions: 143000836 cycles: 107315881 heartbeat IPC: 1.272 cumulative IPC: 0.97 (Simulation time: 00 hr 16 min 53 sec)
Heartbeat CPU 0 instructions: 143500840 cycles: 107820914 heartbeat IPC: 0.99 cumulative IPC: 0.9701 (Simulation time: 00 hr 16 min 58 sec)
Heartbeat CPU 0 instructions: 144000841 cycles: 108332142 heartbeat IPC: 0.978 cumulative IPC: 0.9701 (Simulation time: 00 hr 17 min 02 sec)
Heartbeat CPU 0 instructions: 144500848 cycles: 108818478 heartbeat IPC: 1.028 cumulative IPC: 0.9704 (Simulation time: 00 hr 17 min 06 sec)
Heartbeat CPU 0 instructions: 145000848 cycles: 109271104 heartbeat IPC: 1.105 cumulative IPC: 0.971 (Simulation time: 00 hr 17 min 10 sec)
Heartbeat CPU 0 instructions: 145500848 cycles: 109895679 heartbeat IPC: 0.8005 cumulative IPC: 0.9699 (Simulation time: 00 hr 17 min 15 sec)
Heartbeat CPU 0 instructions: 146000849 cycles: 110513215 heartbeat IPC: 0.8097 cumulative IPC: 0.9689 (Simulation time: 00 hr 17 min 21 sec)
Heartbeat CPU 0 instructions: 146500850 cycles: 110944605 heartbeat IPC: 1.159 cumulative IPC: 0.9698 (Simulation time: 00 hr 17 min 24 sec)
Heartbeat CPU 0 instructions: 147000851 cycles: 111407862 heartbeat IPC: 1.079 cumulative IPC: 0.9703 (Simulation time: 00 hr 17 min 28 sec)
Heartbeat CPU 0 instructions: 147500851 cycles: 111891418 heartbeat IPC: 1.034 cumulative IPC: 0.9706 (Simulation time: 00 hr 17 min 32 sec)
Heartbeat CPU 0 instructions: 148000853 cycles: 112349435 heartbeat IPC: 1.092 cumulative IPC: 0.9711 (Simulation time: 00 hr 17 min 36 sec)
Heartbeat CPU 0 instructions: 148500853 cycles: 112829056 heartbeat IPC: 1.042 cumulative IPC: 0.9715 (Simulation time: 00 hr 17 min 41 sec)
Heartbeat CPU 0 instructions: 149000855 cycles: 113395683 heartbeat IPC: 0.8824 cumulative IPC: 0.971 (Simulation time: 00 hr 17 min 45 sec)
Heartbeat CPU 0 instructions: 149500855 cycles: 114010717 heartbeat IPC: 0.813 cumulative IPC: 0.97 (Simulation time: 00 hr 17 min 50 sec)
Heartbeat CPU 0 instructions: 150000859 cycles: 114503583 heartbeat IPC: 1.014 cumulative IPC: 0.9702 (Simulation time: 00 hr 17 min 55 sec)
Heartbeat CPU 0 instructions: 150500859 cycles: 115005423 heartbeat IPC: 0.9963 cumulative IPC: 0.9704 (Simulation time: 00 hr 17 min 59 sec)
Heartbeat CPU 0 instructions: 151000859 cycles: 115801960 heartbeat IPC: 0.6277 cumulative IPC: 0.9677 (Simulation time: 00 hr 18 min 05 sec)
Heartbeat CPU 0 instructions: 151500860 cycles: 117341589 heartbeat IPC: 0.3248 cumulative IPC: 0.9584 (Simulation time: 00 hr 18 min 16 sec)
Heartbeat CPU 0 instructions: 152000860 cycles: 117808203 heartbeat IPC: 1.072 cumulative IPC: 0.9589 (Simulation time: 00 hr 18 min 21 sec)
Heartbeat CPU 0 instructions: 152500862 cycles: 118070402 heartbeat IPC: 1.907 cumulative IPC: 0.9612 (Simulation time: 00 hr 18 min 25 sec)
Heartbeat CPU 0 instructions: 153000862 cycles: 118413305 heartbeat IPC: 1.458 cumulative IPC: 0.9628 (Simulation time: 00 hr 18 min 29 sec)
Heartbeat CPU 0 instructions: 153500862 cycles: 118798357 heartbeat IPC: 1.299 cumulative IPC: 0.964 (Simulation time: 00 hr 18 min 32 sec)
Heartbeat CPU 0 instructions: 154000864 cycles: 119050833 heartbeat IPC: 1.98 cumulative IPC: 0.9664 (Simulation time: 00 hr 18 min 35 sec)
Heartbeat CPU 0 instructions: 154500865 cycles: 119304125 heartbeat IPC: 1.974 cumulative IPC: 0.9688 (Simulation time: 00 hr 18 min 38 sec)
Heartbeat CPU 0 instructions: 155000868 cycles: 119537365 heartbeat IPC: 2.144 cumulative IPC: 0.9713 (Simulation time: 00 hr 18 min 41 sec)
Heartbeat CPU 0 instructions: 155500870 cycles: 119821710 heartbeat IPC: 1.758 cumulative IPC: 0.9734 (Simulation time: 00 hr 18 min 44 sec)
Heartbeat CPU 0 instructions: 156000875 cycles: 120069891 heartbeat IPC: 2.015 cumulative IPC: 0.9758 (Simulation time: 00 hr 18 min 46 sec)
Heartbeat CPU 0 instructions: 156500875 cycles: 120337158 heartbeat IPC: 1.871 cumulative IPC: 0.978 (Simulation time: 00 hr 18 min 49 sec)
Heartbeat CPU 0 instructions: 157000879 cycles: 120618445 heartbeat IPC: 1.778 cumulative IPC: 0.98 (Simulation time: 00 hr 18 min 52 sec)
Heartbeat CPU 0 instructions: 157500882 cycles: 120885492 heartbeat IPC: 1.872 cumulative IPC: 0.9822 (Simulation time: 00 hr 18 min 55 sec)
Heartbeat CPU 0 instructions: 158000883 cycles: 121106943 heartbeat IPC: 2.258 cumulative IPC: 0.9848 (Simulation time: 00 hr 18 min 58 sec)
Heartbeat CPU 0 instructions: 158500885 cycles: 121701287 heartbeat IPC: 0.8413 cumulative IPC: 0.984 (Simulation time: 00 hr 19 min 03 sec)
Heartbeat CPU 0 instructions: 159000886 cycles: 122316732 heartbeat IPC: 0.8124 cumulative IPC: 0.983 (Simulation time: 00 hr 19 min 09 sec)
Heartbeat CPU 0 instructions: 159500889 cycles: 123444225 heartbeat IPC: 0.4435 cumulative IPC: 0.9776 (Simulation time: 00 hr 19 min 17 sec)
Heartbeat CPU 0 instructions: 160000892 cycles: 123827736 heartbeat IPC: 1.304 cumulative IPC: 0.9787 (Simulation time: 00 hr 19 min 22 sec)
Heartbeat CPU 0 instructions: 160500893 cycles: 124092009 heartbeat IPC: 1.892 cumulative IPC: 0.9809 (Simulation time: 00 hr 19 min 25 sec)
Heartbeat CPU 0 instructions: 161000893 cycles: 124330756 heartbeat IPC: 2.094 cumulative IPC: 0.9832 (Simulation time: 00 hr 19 min 28 sec)
Heartbeat CPU 0 instructions: 161500895 cycles: 124599232 heartbeat IPC: 1.862 cumulative IPC: 0.9853 (Simulation time: 00 hr 19 min 31 sec)
Heartbeat CPU 0 instructions: 162000898 cycles: 124800470 heartbeat IPC: 2.485 cumulative IPC: 0.988 (Simulation time: 00 hr 19 min 33 sec)
Heartbeat CPU 0 instructions: 162500905 cycles: 124967183 heartbeat IPC: 2.999 cumulative IPC: 0.9909 (Simulation time: 00 hr 19 min 35 sec)
Heartbeat CPU 0 instructions: 163000905 cycles: 125263849 heartbeat IPC: 1.685 cumulative IPC: 0.9927 (Simulation time: 00 hr 19 min 39 sec)
Heartbeat CPU 0 instructions: 163500907 cycles: 126009706 heartbeat IPC: 0.6704 cumulative IPC: 0.9906 (Simulation time: 00 hr 19 min 44 sec)
Heartbeat CPU 0 instructions: 164000908 cycles: 127203782 heartbeat IPC: 0.4187 cumulative IPC: 0.9847 (Simulation time: 00 hr 19 min 53 sec)
Heartbeat CPU 0 instructions: 164500915 cycles: 128101920 heartbeat IPC: 0.5567 cumulative IPC: 0.9814 (Simulation time: 00 hr 20 min 00 sec)
Heartbeat CPU 0 instructions: 165000915 cycles: 129439216 heartbeat IPC: 0.3739 cumulative IPC: 0.9746 (Simulation time: 00 hr 20 min 10 sec)
Heartbeat CPU 0 instructions: 165500915 cycles: 130468215 heartbeat IPC: 0.4859 cumulative IPC: 0.9703 (Simulation time: 00 hr 20 min 18 sec)
Heartbeat CPU 0 instructions: 166000921 cycles: 130844390 heartbeat IPC: 1.329 cumulative IPC: 0.9715 (Simulation time: 00 hr 20 min 21 sec)
Heartbeat CPU 0 instructions: 166500922 cycles: 131168196 heartbeat IPC: 1.544 cumulative IPC: 0.973 (Simulation time: 00 hr 20 min 24 sec)
Heartbeat CPU 0 instructions: 167000926 cycles: 131364455 heartbeat IPC: 2.548 cumulative IPC: 0.9756 (Simulation time: 00 hr 20 min 26 sec)
Heartbeat CPU 0 instructions: 167500933 cycles: 132575538 heartbeat IPC: 0.4129 cumulative IPC: 0.97 (Simulation time: 00 hr 20 min 36 sec)
Heartbeat CPU 0 instructions: 168000933 cycles: 133927836 heartbeat IPC: 0.3697 cumulative IPC: 0.9633 (Simulation time: 00 hr 20 min 47 sec)
Heartbeat CPU 0 instructions: 168500933 cycles: 134354063 heartbeat IPC: 1.173 cumulative IPC: 0.9641 (Simulation time: 00 hr 20 min 51 sec)
Heartbeat CPU 0 instructions: 169000933 cycles: 134771453 heartbeat IPC: 1.198 cumulative IPC: 0.9648 (Simulation time: 00 hr 20 min 55 sec)
Heartbeat CPU 0 instructions: 169500939 cycles: 135427735 heartbeat IPC: 0.7619 cumulative IPC: 0.9638 (Simulation time: 00 hr 21 min 01 sec)
Heartbeat CPU 0 instructions: 170000942 cycles: 135864657 heartbeat IPC: 1.144 cumulative IPC: 0.9644 (Simulation time: 00 hr 21 min 05 sec)
Heartbeat CPU 0 instructions: 170500943 cycles: 136286141 heartbeat IPC: 1.186 cumulative IPC: 0.9652 (Simulation time: 00 hr 21 min 09 sec)
Heartbeat CPU 0 instructions: 171000944 cycles: 136718704 heartbeat IPC: 1.156 cumulative IPC: 0.9658 (Simulation time: 00 hr 21 min 14 sec)
Heartbeat CPU 0 instructions: 171500946 cycles: 137144828 heartbeat IPC: 1.173 cumulative IPC: 0.9665 (Simulation time: 00 hr 21 min 19 sec)
Heartbeat CPU 0 instructions: 172000946 cycles: 137626678 heartbeat IPC: 1.038 cumulative IPC: 0.9668 (Simulation time: 00 hr 21 min 23 sec)
Heartbeat CPU 0 instructions: 172500946 cycles: 138059841 heartbeat IPC: 1.154 cumulative IPC: 0.9674 (Simulation time: 00 hr 21 min 28 sec)
Heartbeat CPU 0 instructions: 173000947 cycles: 138512876 heartbeat IPC: 1.104 cumulative IPC: 0.9679 (Simulation time: 00 hr 21 min 33 sec)
Heartbeat CPU 0 instructions: 173500948 cycles: 139583069 heartbeat IPC: 0.4672 cumulative IPC: 0.9637 (Simulation time: 00 hr 21 min 43 sec)
Heartbeat CPU 0 instructions: 174000952 cycles: 140237405 heartbeat IPC: 0.7641 cumulative IPC: 0.9627 (Simulation time: 00 hr 21 min 48 sec)
Heartbeat CPU 0 instructions: 174500954 cycles: 140637079 heartbeat IPC: 1.251 cumulative IPC: 0.9636 (Simulation time: 00 hr 21 min 51 sec)
Heartbeat CPU 0 instructions: 175000961 cycles: 140987413 heartbeat IPC: 1.427 cumulative IPC: 0.9649 (Simulation time: 00 hr 21 min 55 sec)
Heartbeat CPU 0 instructions: 175500967 cycles: 141347432 heartbeat IPC: 1.389 cumulative IPC: 0.966 (Simulation time: 00 hr 21 min 59 sec)
Heartbeat CPU 0 instructions: 176000970 cycles: 142570101 heartbeat IPC: 0.4089 cumulative IPC: 0.9609 (Simulation time: 00 hr 22 min 08 sec)
Heartbeat CPU 0 instructions: 176500970 cycles: 143152455 heartbeat IPC: 0.8586 cumulative IPC: 0.9604 (Simulation time: 00 hr 22 min 14 sec)
Heartbeat CPU 0 instructions: 177000973 cycles: 143571079 heartbeat IPC: 1.194 cumulative IPC: 0.9611 (Simulation time: 00 hr 22 min 17 sec)
Heartbeat CPU 0 instructions: 177500973 cycles: 144316151 heartbeat IPC: 0.6711 cumulative IPC: 0.9595 (Simulation time: 00 hr 22 min 23 sec)
Heartbeat CPU 0 instructions: 178000978 cycles: 144868095 heartbeat IPC: 0.9059 cumulative IPC: 0.9593 (Simulation time: 00 hr 22 min 28 sec)
Heartbeat CPU 0 instructions: 178500982 cycles: 145441273 heartbeat IPC: 0.8723 cumulative IPC: 0.9589 (Simulation time: 00 hr 22 min 32 sec)
Heartbeat CPU 0 instructions: 179000982 cycles: 146999539 heartbeat IPC: 0.3209 cumulative IPC: 0.9516 (Simulation time: 00 hr 22 min 43 sec)
Heartbeat CPU 0 instructions: 179500983 cycles: 149042510 heartbeat IPC: 0.2447 cumulative IPC: 0.9411 (Simulation time: 00 hr 22 min 58 sec)
Heartbeat CPU 0 instructions: 180000988 cycles: 149741707 heartbeat IPC: 0.7151 cumulative IPC: 0.9399 (Simulation time: 00 hr 23 min 04 sec)
Heartbeat CPU 0 instructions: 180500989 cycles: 150361716 heartbeat IPC: 0.8064 cumulative IPC: 0.9394 (Simulation time: 00 hr 23 min 10 sec)
Heartbeat CPU 0 instructions: 181000995 cycles: 151012384 heartbeat IPC: 0.7685 cumulative IPC: 0.9386 (Simulation time: 00 hr 23 min 16 sec)
Heartbeat CPU 0 instructions: 181500998 cycles: 151617599 heartbeat IPC: 0.8262 cumulative IPC: 0.9381 (Simulation time: 00 hr 23 min 22 sec)
Heartbeat CPU 0 instructions: 182000998 cycles: 152267532 heartbeat IPC: 0.7693 cumulative IPC: 0.9373 (Simulation time: 00 hr 23 min 28 sec)
Heartbeat CPU 0 instructions: 182501001 cycles: 152920485 heartbeat IPC: 0.7658 cumulative IPC: 0.9365 (Simulation time: 00 hr 23 min 35 sec)
Heartbeat CPU 0 instructions: 183001006 cycles: 153569280 heartbeat IPC: 0.7707 cumulative IPC: 0.9357 (Simulation time: 00 hr 23 min 41 sec)
Heartbeat CPU 0 instructions: 183501009 cycles: 154199859 heartbeat IPC: 0.7929 cumulative IPC: 0.9351 (Simulation time: 00 hr 23 min 47 sec)
Heartbeat CPU 0 instructions: 184001010 cycles: 154842605 heartbeat IPC: 0.7779 cumulative IPC: 0.9344 (Simulation time: 00 hr 23 min 53 sec)
Heartbeat CPU 0 instructions: 184501012 cycles: 155444734 heartbeat IPC: 0.8304 cumulative IPC: 0.934 (Simulation time: 00 hr 24 min 00 sec)
Heartbeat CPU 0 instructions: 185001017 cycles: 156278743 heartbeat IPC: 0.5995 cumulative IPC: 0.932 (Simulation time: 00 hr 24 min 08 sec)
Heartbeat CPU 0 instructions: 185501018 cycles: 156863958 heartbeat IPC: 0.8544 cumulative IPC: 0.9317 (Simulation time: 00 hr 24 min 13 sec)
Heartbeat CPU 0 instructions: 186001023 cycles: 157357823 heartbeat IPC: 1.012 cumulative IPC: 0.932 (Simulation time: 00 hr 24 min 17 sec)
Heartbeat CPU 0 instructions: 186501026 cycles: 157806669 heartbeat IPC: 1.114 cumulative IPC: 0.9326 (Simulation time: 00 hr 24 min 21 sec)
Heartbeat CPU 0 instructions: 187001026 cycles: 158242061 heartbeat IPC: 1.148 cumulative IPC: 0.9332 (Simulation time: 00 hr 24 min 25 sec)
Heartbeat CPU 0 instructions: 187501029 cycles: 158674693 heartbeat IPC: 1.156 cumulative IPC: 0.9339 (Simulation time: 00 hr 24 min 29 sec)
Heartbeat CPU 0 instructions: 188001035 cycles: 159128408 heartbeat IPC: 1.102 cumulative IPC: 0.9344 (Simulation time: 00 hr 24 min 34 sec)
Heartbeat CPU 0 instructions: 188501039 cycles: 159544244 heartbeat IPC: 1.202 cumulative IPC: 0.9351 (Simulation time: 00 hr 24 min 38 sec)
Heartbeat CPU 0 instructions: 189001045 cycles: 159972022 heartbeat IPC: 1.169 cumulative IPC: 0.9358 (Simulation time: 00 hr 24 min 42 sec)
Heartbeat CPU 0 instructions: 189501045 cycles: 160984963 heartbeat IPC: 0.4936 cumulative IPC: 0.9328 (Simulation time: 00 hr 24 min 49 sec)
Heartbeat CPU 0 instructions: 190001047 cycles: 161610426 heartbeat IPC: 0.7994 cumulative IPC: 0.9323 (Simulation time: 00 hr 24 min 54 sec)
Heartbeat CPU 0 instructions: 190501047 cycles: 162198209 heartbeat IPC: 0.8507 cumulative IPC: 0.9319 (Simulation time: 00 hr 24 min 59 sec)
Heartbeat CPU 0 instructions: 191001048 cycles: 162712969 heartbeat IPC: 0.9713 cumulative IPC: 0.9321 (Simulation time: 00 hr 25 min 03 sec)
Heartbeat CPU 0 instructions: 191501048 cycles: 163218762 heartbeat IPC: 0.9885 cumulative IPC: 0.9323 (Simulation time: 00 hr 25 min 08 sec)
Heartbeat CPU 0 instructions: 192001049 cycles: 163804001 heartbeat IPC: 0.8544 cumulative IPC: 0.932 (Simulation time: 00 hr 25 min 13 sec)
Heartbeat CPU 0 instructions: 192501055 cycles: 164373147 heartbeat IPC: 0.8785 cumulative IPC: 0.9318 (Simulation time: 00 hr 25 min 18 sec)
Heartbeat CPU 0 instructions: 193001055 cycles: 164933644 heartbeat IPC: 0.8921 cumulative IPC: 0.9316 (Simulation time: 00 hr 25 min 22 sec)
Heartbeat CPU 0 instructions: 193501060 cycles: 165934412 heartbeat IPC: 0.4996 cumulative IPC: 0.9288 (Simulation time: 00 hr 25 min 29 sec)
Heartbeat CPU 0 instructions: 194001060 cycles: 166982381 heartbeat IPC: 0.4771 cumulative IPC: 0.9258 (Simulation time: 00 hr 25 min 36 sec)
Heartbeat CPU 0 instructions: 194501066 cycles: 167280772 heartbeat IPC: 1.676 cumulative IPC: 0.9272 (Simulation time: 00 hr 25 min 39 sec)
Heartbeat CPU 0 instructions: 195001066 cycles: 167556859 heartbeat IPC: 1.811 cumulative IPC: 0.9288 (Simulation time: 00 hr 25 min 42 sec)
Heartbeat CPU 0 instructions: 195501067 cycles: 167854139 heartbeat IPC: 1.682 cumulative IPC: 0.9302 (Simulation time: 00 hr 25 min 45 sec)
Heartbeat CPU 0 instructions: 196001067 cycles: 168615819 heartbeat IPC: 0.6564 cumulative IPC: 0.9289 (Simulation time: 00 hr 25 min 51 sec)
Heartbeat CPU 0 instructions: 196501067 cycles: 168903029 heartbeat IPC: 1.741 cumulative IPC: 0.9304 (Simulation time: 00 hr 25 min 54 sec)
Heartbeat CPU 0 instructions: 197001068 cycles: 169181735 heartbeat IPC: 1.794 cumulative IPC: 0.9319 (Simulation time: 00 hr 25 min 57 sec)
Heartbeat CPU 0 instructions: 197501073 cycles: 169464828 heartbeat IPC: 1.766 cumulative IPC: 0.9334 (Simulation time: 00 hr 26 min 00 sec)
Heartbeat CPU 0 instructions: 198001079 cycles: 169744770 heartbeat IPC: 1.786 cumulative IPC: 0.9349 (Simulation time: 00 hr 26 min 03 sec)
Heartbeat CPU 0 instructions: 198501079 cycles: 170037561 heartbeat IPC: 1.708 cumulative IPC: 0.9363 (Simulation time: 00 hr 26 min 06 sec)
Heartbeat CPU 0 instructions: 199001085 cycles: 170325064 heartbeat IPC: 1.739 cumulative IPC: 0.9378 (Simulation time: 00 hr 26 min 09 sec)
Heartbeat CPU 0 instructions: 199501089 cycles: 170607400 heartbeat IPC: 1.771 cumulative IPC: 0.9392 (Simulation time: 00 hr 26 min 12 sec)
Heartbeat CPU 0 instructions: 200001090 cycles: 170881797 heartbeat IPC: 1.822 cumulative IPC: 0.9408 (Simulation time: 00 hr 26 min 15 sec)
Heartbeat CPU 0 instructions: 200501091 cycles: 171153213 heartbeat IPC: 1.842 cumulative IPC: 0.9423 (Simulation time: 00 hr 26 min 18 sec)
Heartbeat CPU 0 instructions: 201001093 cycles: 171424480 heartbeat IPC: 1.843 cumulative IPC: 0.9438 (Simulation time: 00 hr 26 min 20 sec)
Heartbeat CPU 0 instructions: 201501093 cycles: 171705725 heartbeat IPC: 1.778 cumulative IPC: 0.9453 (Simulation time: 00 hr 26 min 23 sec)
Heartbeat CPU 0 instructions: 202001096 cycles: 171980842 heartbeat IPC: 1.817 cumulative IPC: 0.9468 (Simulation time: 00 hr 26 min 26 sec)
Heartbeat CPU 0 instructions: 202501102 cycles: 172262471 heartbeat IPC: 1.775 cumulative IPC: 0.9482 (Simulation time: 00 hr 26 min 29 sec)
Heartbeat CPU 0 instructions: 203001102 cycles: 172527583 heartbeat IPC: 1.886 cumulative IPC: 0.9498 (Simulation time: 00 hr 26 min 32 sec)
Heartbeat CPU 0 instructions: 203501103 cycles: 172810157 heartbeat IPC: 1.769 cumulative IPC: 0.9512 (Simulation time: 00 hr 26 min 35 sec)
Heartbeat CPU 0 instructions: 204001103 cycles: 173075196 heartbeat IPC: 1.887 cumulative IPC: 0.9527 (Simulation time: 00 hr 26 min 38 sec)
Heartbeat CPU 0 instructions: 204501108 cycles: 173338365 heartbeat IPC: 1.9 cumulative IPC: 0.9543 (Simulation time: 00 hr 26 min 40 sec)
Heartbeat CPU 0 instructions: 205001108 cycles: 174618267 heartbeat IPC: 0.3907 cumulative IPC: 0.9499 (Simulation time: 00 hr 26 min 48 sec)
Heartbeat CPU 0 instructions: 205501113 cycles: 175316753 heartbeat IPC: 0.7158 cumulative IPC: 0.9489 (Simulation time: 00 hr 26 min 53 sec)
Heartbeat CPU 0 instructions: 206001113 cycles: 175728831 heartbeat IPC: 1.213 cumulative IPC: 0.9495 (Simulation time: 00 hr 26 min 56 sec)
Heartbeat CPU 0 instructions: 206501119 cycles: 176886549 heartbeat IPC: 0.4319 cumulative IPC: 0.9459 (Simulation time: 00 hr 27 min 03 sec)
Heartbeat CPU 0 instructions: 207001121 cycles: 177412457 heartbeat IPC: 0.9507 cumulative IPC: 0.9459 (Simulation time: 00 hr 27 min 07 sec)
Heartbeat CPU 0 instructions: 207501122 cycles: 177734094 heartbeat IPC: 1.555 cumulative IPC: 0.9471 (Simulation time: 00 hr 27 min 10 sec)
Heartbeat CPU 0 instructions: 208001124 cycles: 178012622 heartbeat IPC: 1.795 cumulative IPC: 0.9485 (Simulation time: 00 hr 27 min 13 sec)
Heartbeat CPU 0 instructions: 208501124 cycles: 178335964 heartbeat IPC: 1.546 cumulative IPC: 0.9497 (Simulation time: 00 hr 27 min 16 sec)
Heartbeat CPU 0 instructions: 209001129 cycles: 178612147 heartbeat IPC: 1.81 cumulative IPC: 0.9511 (Simulation time: 00 hr 27 min 19 sec)
Heartbeat CPU 0 instructions: 209501136 cycles: 178883906 heartbeat IPC: 1.84 cumulative IPC: 0.9525 (Simulation time: 00 hr 27 min 21 sec)
Heartbeat CPU 0 instructions: 210001138 cycles: 179153187 heartbeat IPC: 1.857 cumulative IPC: 0.954 (Simulation time: 00 hr 27 min 24 sec)
Heartbeat CPU 0 instructions: 210501138 cycles: 179432545 heartbeat IPC: 1.79 cumulative IPC: 0.9554 (Simulation time: 00 hr 27 min 27 sec)
Heartbeat CPU 0 instructions: 211001144 cycles: 179731726 heartbeat IPC: 1.671 cumulative IPC: 0.9567 (Simulation time: 00 hr 27 min 30 sec)
Heartbeat CPU 0 instructions: 211501151 cycles: 180009581 heartbeat IPC: 1.8 cumulative IPC: 0.958 (Simulation time: 00 hr 27 min 33 sec)
Heartbeat CPU 0 instructions: 212001155 cycles: 180278654 heartbeat IPC: 1.858 cumulative IPC: 0.9595 (Simulation time: 00 hr 27 min 35 sec)
Heartbeat CPU 0 instructions: 212501155 cycles: 180552486 heartbeat IPC: 1.826 cumulative IPC: 0.9609 (Simulation time: 00 hr 27 min 38 sec)
Heartbeat CPU 0 instructions: 213001155 cycles: 180818845 heartbeat IPC: 1.877 cumulative IPC: 0.9623 (Simulation time: 00 hr 27 min 41 sec)
Heartbeat CPU 0 instructions: 213501155 cycles: 181100318 heartbeat IPC: 1.776 cumulative IPC: 0.9637 (Simulation time: 00 hr 27 min 44 sec)
Heartbeat CPU 0 instructions: 214001160 cycles: 181366119 heartbeat IPC: 1.881 cumulative IPC: 0.9651 (Simulation time: 00 hr 27 min 47 sec)
Heartbeat CPU 0 instructions: 214501161 cycles: 181647525 heartbeat IPC: 1.777 cumulative IPC: 0.9664 (Simulation time: 00 hr 27 min 49 sec)
Heartbeat CPU 0 instructions: 215001166 cycles: 181936231 heartbeat IPC: 1.732 cumulative IPC: 0.9677 (Simulation time: 00 hr 27 min 52 sec)
Heartbeat CPU 0 instructions: 215501173 cycles: 182227378 heartbeat IPC: 1.717 cumulative IPC: 0.969 (Simulation time: 00 hr 27 min 55 sec)
Heartbeat CPU 0 instructions: 216001178 cycles: 182500261 heartbeat IPC: 1.832 cumulative IPC: 0.9704 (Simulation time: 00 hr 27 min 58 sec)
Heartbeat CPU 0 instructions: 216501178 cycles: 182779362 heartbeat IPC: 1.791 cumulative IPC: 0.9717 (Simulation time: 00 hr 28 min 01 sec)
Heartbeat CPU 0 instructions: 217001178 cycles: 183053342 heartbeat IPC: 1.825 cumulative IPC: 0.9731 (Simulation time: 00 hr 28 min 04 sec)
Heartbeat CPU 0 instructions: 217501185 cycles: 183320601 heartbeat IPC: 1.871 cumulative IPC: 0.9745 (Simulation time: 00 hr 28 min 06 sec)
Heartbeat CPU 0 instructions: 218001185 cycles: 183592150 heartbeat IPC: 1.841 cumulative IPC: 0.9759 (Simulation time: 00 hr 28 min 09 sec)
Heartbeat CPU 0 instructions: 218501188 cycles: 184659373 heartbeat IPC: 0.4685 cumulative IPC: 0.9727 (Simulation time: 00 hr 28 min 16 sec)
Heartbeat CPU 0 instructions: 219001190 cycles: 185911015 heartbeat IPC: 0.3995 cumulative IPC: 0.9686 (Simulation time: 00 hr 28 min 23 sec)
Heartbeat CPU 0 instructions: 219501192 cycles: 186362701 heartbeat IPC: 1.107 cumulative IPC: 0.969 (Simulation time: 00 hr 28 min 27 sec)
Heartbeat CPU 0 instructions: 220001198 cycles: 186653692 heartbeat IPC: 1.718 cumulative IPC: 0.9702 (Simulation time: 00 hr 28 min 30 sec)
Heartbeat CPU 0 instructions: 220501201 cycles: 186933272 heartbeat IPC: 1.788 cumulative IPC: 0.9715 (Simulation time: 00 hr 28 min 33 sec)
Heartbeat CPU 0 instructions: 221001206 cycles: 187212246 heartbeat IPC: 1.792 cumulative IPC: 0.9728 (Simulation time: 00 hr 28 min 36 sec)
Heartbeat CPU 0 instructions: 221501212 cycles: 187485030 heartbeat IPC: 1.833 cumulative IPC: 0.9742 (Simulation time: 00 hr 28 min 38 sec)
Heartbeat CPU 0 instructions: 222001215 cycles: 187757523 heartbeat IPC: 1.835 cumulative IPC: 0.9755 (Simulation time: 00 hr 28 min 41 sec)
Heartbeat CPU 0 instructions: 222501215 cycles: 188032503 heartbeat IPC: 1.818 cumulative IPC: 0.9768 (Simulation time: 00 hr 28 min 44 sec)
Heartbeat CPU 0 instructions: 223001219 cycles: 188319645 heartbeat IPC: 1.741 cumulative IPC: 0.978 (Simulation time: 00 hr 28 min 47 sec)
Heartbeat CPU 0 instructions: 223501219 cycles: 188587411 heartbeat IPC: 1.867 cumulative IPC: 0.9794 (Simulation time: 00 hr 28 min 49 sec)
Heartbeat CPU 0 instructions: 224001222 cycles: 188857480 heartbeat IPC: 1.851 cumulative IPC: 0.9807 (Simulation time: 00 hr 28 min 52 sec)
Heartbeat CPU 0 instructions: 224501223 cycles: 189133645 heartbeat IPC: 1.811 cumulative IPC: 0.982 (Simulation time: 00 hr 28 min 55 sec)
Heartbeat CPU 0 instructions: 225001224 cycles: 189414162 heartbeat IPC: 1.782 cumulative IPC: 0.9833 (Simulation time: 00 hr 28 min 58 sec)
Heartbeat CPU 0 instructions: 225501224 cycles: 189689861 heartbeat IPC: 1.814 cumulative IPC: 0.9846 (Simulation time: 00 hr 29 min 01 sec)
Heartbeat CPU 0 instructions: 226001224 cycles: 189973138 heartbeat IPC: 1.765 cumulative IPC: 0.9858 (Simulation time: 00 hr 29 min 03 sec)
Heartbeat CPU 0 instructions: 226501226 cycles: 190249996 heartbeat IPC: 1.806 cumulative IPC: 0.9871 (Simulation time: 00 hr 29 min 06 sec)
Heartbeat CPU 0 instructions: 227001230 cycles: 190520561 heartbeat IPC: 1.848 cumulative IPC: 0.9884 (Simulation time: 00 hr 29 min 09 sec)
Heartbeat CPU 0 instructions: 227501232 cycles: 190807491 heartbeat IPC: 1.743 cumulative IPC: 0.9896 (Simulation time: 00 hr 29 min 12 sec)
Heartbeat CPU 0 instructions: 228001237 cycles: 191082293 heartbeat IPC: 1.82 cumulative IPC: 0.9908 (Simulation time: 00 hr 29 min 15 sec)
Heartbeat CPU 0 instructions: 228501238 cycles: 191370799 heartbeat IPC: 1.733 cumulative IPC: 0.992 (Simulation time: 00 hr 29 min 17 sec)
Heartbeat CPU 0 instructions: 229001238 cycles: 191652362 heartbeat IPC: 1.776 cumulative IPC: 0.9933 (Simulation time: 00 hr 29 min 20 sec)
Heartbeat CPU 0 instructions: 229501245 cycles: 192159769 heartbeat IPC: 0.9854 cumulative IPC: 0.9932 (Simulation time: 00 hr 29 min 24 sec)
Heartbeat CPU 0 instructions: 230001247 cycles: 192446008 heartbeat IPC: 1.747 cumulative IPC: 0.9944 (Simulation time: 00 hr 29 min 27 sec)
Heartbeat CPU 0 instructions: 230501248 cycles: 192716869 heartbeat IPC: 1.846 cumulative IPC: 0.9957 (Simulation time: 00 hr 29 min 30 sec)
Heartbeat CPU 0 instructions: 231001249 cycles: 192996098 heartbeat IPC: 1.791 cumulative IPC: 0.9969 (Simulation time: 00 hr 29 min 33 sec)
Heartbeat CPU 0 instructions: 231501250 cycles: 193264058 heartbeat IPC: 1.866 cumulative IPC: 0.9982 (Simulation time: 00 hr 29 min 35 sec)
Heartbeat CPU 0 instructions: 232001250 cycles: 193529835 heartbeat IPC: 1.881 cumulative IPC: 0.9995 (Simulation time: 00 hr 29 min 38 sec)
Heartbeat CPU 0 instructions: 232501252 cycles: 193803114 heartbeat IPC: 1.83 cumulative IPC: 1.001 (Simulation time: 00 hr 29 min 41 sec)
Heartbeat CPU 0 instructions: 233001257 cycles: 194073863 heartbeat IPC: 1.847 cumulative IPC: 1.002 (Simulation time: 00 hr 29 min 44 sec)
Heartbeat CPU 0 instructions: 233501257 cycles: 194356525 heartbeat IPC: 1.769 cumulative IPC: 1.003 (Simulation time: 00 hr 29 min 46 sec)
Heartbeat CPU 0 instructions: 234001259 cycles: 194620622 heartbeat IPC: 1.893 cumulative IPC: 1.004 (Simulation time: 00 hr 29 min 49 sec)
Heartbeat CPU 0 instructions: 234501260 cycles: 194928471 heartbeat IPC: 1.624 cumulative IPC: 1.005 (Simulation time: 00 hr 29 min 52 sec)
Heartbeat CPU 0 instructions: 235001264 cycles: 195197848 heartbeat IPC: 1.856 cumulative IPC: 1.007 (Simulation time: 00 hr 29 min 55 sec)
Heartbeat CPU 0 instructions: 235501269 cycles: 195472001 heartbeat IPC: 1.824 cumulative IPC: 1.008 (Simulation time: 00 hr 29 min 58 sec)
Heartbeat CPU 0 instructions: 236001270 cycles: 195746572 heartbeat IPC: 1.821 cumulative IPC: 1.009 (Simulation time: 00 hr 30 min 00 sec)
Heartbeat CPU 0 instructions: 236501273 cycles: 196008717 heartbeat IPC: 1.907 cumulative IPC: 1.01 (Simulation time: 00 hr 30 min 03 sec)
Heartbeat CPU 0 instructions: 237001279 cycles: 196289429 heartbeat IPC: 1.781 cumulative IPC: 1.012 (Simulation time: 00 hr 30 min 06 sec)
Heartbeat CPU 0 instructions: 237501279 cycles: 196575075 heartbeat IPC: 1.75 cumulative IPC: 1.013 (Simulation time: 00 hr 30 min 09 sec)
Heartbeat CPU 0 instructions: 238001279 cycles: 196865286 heartbeat IPC: 1.723 cumulative IPC: 1.014 (Simulation time: 00 hr 30 min 12 sec)
Heartbeat CPU 0 instructions: 238501281 cycles: 197128175 heartbeat IPC: 1.902 cumulative IPC: 1.015 (Simulation time: 00 hr 30 min 14 sec)
Heartbeat CPU 0 instructions: 239001284 cycles: 197415066 heartbeat IPC: 1.743 cumulative IPC: 1.016 (Simulation time: 00 hr 30 min 17 sec)
Heartbeat CPU 0 instructions: 239501291 cycles: 198827326 heartbeat IPC: 0.354 cumulative IPC: 1.011 (Simulation time: 00 hr 30 min 26 sec)
Heartbeat CPU 0 instructions: 240001292 cycles: 200151841 heartbeat IPC: 0.3775 cumulative IPC: 1.007 (Simulation time: 00 hr 30 min 34 sec)
Heartbeat CPU 0 instructions: 240501293 cycles: 200757975 heartbeat IPC: 0.8249 cumulative IPC: 1.006 (Simulation time: 00 hr 30 min 38 sec)
Heartbeat CPU 0 instructions: 241001293 cycles: 201573332 heartbeat IPC: 0.6132 cumulative IPC: 1.005 (Simulation time: 00 hr 30 min 44 sec)
Heartbeat CPU 0 instructions: 241501293 cycles: 202514250 heartbeat IPC: 0.5314 cumulative IPC: 1.002 (Simulation time: 00 hr 30 min 50 sec)
Heartbeat CPU 0 instructions: 242001293 cycles: 203837961 heartbeat IPC: 0.3777 cumulative IPC: 0.9979 (Simulation time: 00 hr 30 min 58 sec)
Heartbeat CPU 0 instructions: 242501293 cycles: 204766286 heartbeat IPC: 0.5386 cumulative IPC: 0.9957 (Simulation time: 00 hr 31 min 04 sec)
Heartbeat CPU 0 instructions: 243001296 cycles: 205048975 heartbeat IPC: 1.769 cumulative IPC: 0.9968 (Simulation time: 00 hr 31 min 07 sec)
Heartbeat CPU 0 instructions: 243501301 cycles: 205341436 heartbeat IPC: 1.71 cumulative IPC: 0.9979 (Simulation time: 00 hr 31 min 10 sec)
Heartbeat CPU 0 instructions: 244001303 cycles: 205647987 heartbeat IPC: 1.631 cumulative IPC: 0.9989 (Simulation time: 00 hr 31 min 13 sec)
Heartbeat CPU 0 instructions: 244501310 cycles: 205954633 heartbeat IPC: 1.631 cumulative IPC: 0.9999 (Simulation time: 00 hr 31 min 16 sec)
Heartbeat CPU 0 instructions: 245001310 cycles: 206244781 heartbeat IPC: 1.723 cumulative IPC: 1.001 (Simulation time: 00 hr 31 min 19 sec)
Heartbeat CPU 0 instructions: 245501317 cycles: 206536638 heartbeat IPC: 1.713 cumulative IPC: 1.002 (Simulation time: 00 hr 31 min 22 sec)
Heartbeat CPU 0 instructions: 246001321 cycles: 206815060 heartbeat IPC: 1.796 cumulative IPC: 1.003 (Simulation time: 00 hr 31 min 24 sec)
Heartbeat CPU 0 instructions: 246501328 cycles: 207461739 heartbeat IPC: 0.7732 cumulative IPC: 1.002 (Simulation time: 00 hr 31 min 29 sec)
Heartbeat CPU 0 instructions: 247001332 cycles: 208183563 heartbeat IPC: 0.6927 cumulative IPC: 1.001 (Simulation time: 00 hr 31 min 35 sec)
Heartbeat CPU 0 instructions: 247501333 cycles: 208888241 heartbeat IPC: 0.7095 cumulative IPC: 1 (Simulation time: 00 hr 31 min 40 sec)
Heartbeat CPU 0 instructions: 248001333 cycles: 209522921 heartbeat IPC: 0.7878 cumulative IPC: 0.9996 (Simulation time: 00 hr 31 min 46 sec)
Heartbeat CPU 0 instructions: 248501336 cycles: 210215563 heartbeat IPC: 0.7219 cumulative IPC: 0.9986 (Simulation time: 00 hr 31 min 51 sec)
Heartbeat CPU 0 instructions: 249001337 cycles: 211013529 heartbeat IPC: 0.6266 cumulative IPC: 0.9971 (Simulation time: 00 hr 31 min 58 sec)
Heartbeat CPU 0 instructions: 249501342 cycles: 211973564 heartbeat IPC: 0.5208 cumulative IPC: 0.9948 (Simulation time: 00 hr 32 min 06 sec)
Simulation finished CPU 0 instructions: 200000004 cycles: 201611730 cumulative IPC: 0.992 (Simulation time: 00 hr 32 min 16 sec)
Simulation complete CPU 0 instructions: 200000004 cycles: 201611730 cumulative IPC: 0.992 (Simulation time: 00 hr 32 min 16 sec)

ChampSim completed all CPUs

=== Simulation ===
CPU 0 runs /local-ssd/ben/dpc4-traces/gtraces_v2/charlie_0004.champsim.gz

Region of Interest Statistics

CPU 0 cumulative IPC: 0.992 instructions: 200000004 cycles: 201611730
CPU 0 Branch Prediction Accuracy: 95.27% MPKI: 8.875 Average ROB Occupancy at Mispredict: 51.2
Branch type MPKI
BRANCH_DIRECT_JUMP: 0.2505
BRANCH_INDIRECT: 0.08095
BRANCH_CONDITIONAL: 7.923
BRANCH_DIRECT_CALL: 0.2287
BRANCH_INDIRECT_CALL: 0.1403
BRANCH_RETURN: 0.2513

cpu0->cpu0_STLB TOTAL        ACCESS:    1816629 HIT:    1571814 MISS:     244815 MSHR_MERGE:          0
cpu0->cpu0_STLB LOAD         ACCESS:    1816629 HIT:    1571814 MISS:     244815 MSHR_MERGE:          0
cpu0->cpu0_STLB RFO          ACCESS:          0 HIT:          0 MISS:          0 MSHR_MERGE:          0
cpu0->cpu0_STLB PREFETCH     ACCESS:          0 HIT:          0 MISS:          0 MSHR_MERGE:          0
cpu0->cpu0_STLB WRITE        ACCESS:          0 HIT:          0 MISS:          0 MSHR_MERGE:          0
cpu0->cpu0_STLB TRANSLATION  ACCESS:          0 HIT:          0 MISS:          0 MSHR_MERGE:          0
cpu0->cpu0_STLB PREFETCH REQUESTED:          0 ISSUED:          0 USEFUL:          0 USELESS:          0
cpu0->cpu0_STLB AVERAGE MISS LATENCY: 227.3 cycles
cpu0->cpu0_L2C TOTAL        ACCESS:    9853886 HIT:    6912429 MISS:    2941457 MSHR_MERGE:     726117
cpu0->cpu0_L2C LOAD         ACCESS:    1720334 HIT:    1268279 MISS:     452055 MSHR_MERGE:      45066
cpu0->cpu0_L2C RFO          ACCESS:     521116 HIT:     186286 MISS:     334830 MSHR_MERGE:       6110
cpu0->cpu0_L2C PREFETCH     ACCESS:    6505527 HIT:    4470809 MISS:    2034718 MSHR_MERGE:     674941
cpu0->cpu0_L2C WRITE        ACCESS:     851654 HIT:     851531 MISS:        123 MSHR_MERGE:          0
cpu0->cpu0_L2C TRANSLATION  ACCESS:     255255 HIT:     135524 MISS:     119731 MSHR_MERGE:          0
cpu0->cpu0_L2C PREFETCH REQUESTED:    6295771 ISSUED:    5758864 USEFUL:     527805 USELESS:     602233
cpu0->cpu0_L2C AVERAGE MISS LATENCY: 241.1 cycles
cpu0->cpu0_L1I TOTAL        ACCESS:   19378914 HIT:   18447682 MISS:     931232 MSHR_MERGE:     233786
cpu0->cpu0_L1I LOAD         ACCESS:   19378914 HIT:   18447682 MISS:     931232 MSHR_MERGE:     233786
cpu0->cpu0_L1I RFO          ACCESS:          0 HIT:          0 MISS:          0 MSHR_MERGE:          0
cpu0->cpu0_L1I PREFETCH     ACCESS:          0 HIT:          0 MISS:          0 MSHR_MERGE:          0
cpu0->cpu0_L1I WRITE        ACCESS:          0 HIT:          0 MISS:          0 MSHR_MERGE:          0
cpu0->cpu0_L1I TRANSLATION  ACCESS:          0 HIT:          0 MISS:          0 MSHR_MERGE:          0
cpu0->cpu0_L1I PREFETCH REQUESTED:          0 ISSUED:          0 USEFUL:          0 USELESS:          0
cpu0->cpu0_L1I AVERAGE MISS LATENCY: 37.22 cycles
cpu0->cpu0_L1D TOTAL        ACCESS:   55603839 HIT:   51362372 MISS:    4241467 MSHR_MERGE:    1695504
cpu0->cpu0_L1D LOAD         ACCESS:   30634298 HIT:   29308816 MISS:    1325482 MSHR_MERGE:     302583
cpu0->cpu0_L1D RFO          ACCESS:          0 HIT:          0 MISS:          0 MSHR_MERGE:          0
cpu0->cpu0_L1D PREFETCH     ACCESS:    1894459 HIT:    1106661 MISS:     787798 MSHR_MERGE:      41133
cpu0->cpu0_L1D WRITE        ACCESS:   22426701 HIT:   20559253 MISS:    1867448 MSHR_MERGE:    1346304
cpu0->cpu0_L1D TRANSLATION  ACCESS:     648381 HIT:     387642 MISS:     260739 MSHR_MERGE:       5484
cpu0->cpu0_L1D PREFETCH REQUESTED:    1957078 ISSUED:    1894451 USEFUL:     402148 USELESS:     344477
cpu0->cpu0_L1D AVERAGE MISS LATENCY: 118.5 cycles
cpu0->cpu0_ITLB TOTAL        ACCESS:   15851701 HIT:   15744743 MISS:     106958 MSHR_MERGE:      49333
cpu0->cpu0_ITLB LOAD         ACCESS:   15851701 HIT:   15744743 MISS:     106958 MSHR_MERGE:      49333
cpu0->cpu0_ITLB RFO          ACCESS:          0 HIT:          0 MISS:          0 MSHR_MERGE:          0
cpu0->cpu0_ITLB PREFETCH     ACCESS:          0 HIT:          0 MISS:          0 MSHR_MERGE:          0
cpu0->cpu0_ITLB WRITE        ACCESS:          0 HIT:          0 MISS:          0 MSHR_MERGE:          0
cpu0->cpu0_ITLB TRANSLATION  ACCESS:          0 HIT:          0 MISS:          0 MSHR_MERGE:          0
cpu0->cpu0_ITLB PREFETCH REQUESTED:          0 ISSUED:          0 USEFUL:          0 USELESS:          0
cpu0->cpu0_ITLB AVERAGE MISS LATENCY: 57.65 cycles
cpu0->cpu0_DTLB TOTAL        ACCESS:   51552724 HIT:   48869070 MISS:    2683654 MSHR_MERGE:     924650
cpu0->cpu0_DTLB LOAD         ACCESS:   51552724 HIT:   48869070 MISS:    2683654 MSHR_MERGE:     924650
cpu0->cpu0_DTLB RFO          ACCESS:          0 HIT:          0 MISS:          0 MSHR_MERGE:          0
cpu0->cpu0_DTLB PREFETCH     ACCESS:          0 HIT:          0 MISS:          0 MSHR_MERGE:          0
cpu0->cpu0_DTLB WRITE        ACCESS:          0 HIT:          0 MISS:          0 MSHR_MERGE:          0
cpu0->cpu0_DTLB TRANSLATION  ACCESS:          0 HIT:          0 MISS:          0 MSHR_MERGE:          0
cpu0->cpu0_DTLB PREFETCH REQUESTED:          0 ISSUED:          0 USEFUL:          0 USELESS:          0
cpu0->cpu0_DTLB AVERAGE MISS LATENCY: 35.05 cycles
cpu0->LLC TOTAL        ACCESS:    3747220 HIT:     706770 MISS:    3040450 MSHR_MERGE:     160302
cpu0->LLC LOAD         ACCESS:     406989 HIT:      59296 MISS:     347693 MSHR_MERGE:       3406
cpu0->LLC RFO          ACCESS:     328720 HIT:      25084 MISS:     303636 MSHR_MERGE:       1302
cpu0->LLC PREFETCH     ACCESS:    2294836 HIT:     397312 MISS:    1897524 MSHR_MERGE:     155594
cpu0->LLC WRITE        ACCESS:     596944 HIT:     219400 MISS:     377544 MSHR_MERGE:          0
cpu0->LLC TRANSLATION  ACCESS:     119731 HIT:       5678 MISS:     114053 MSHR_MERGE:          0
cpu0->LLC PREFETCH REQUESTED:    1028453 ISSUED:     935059 USEFUL:     230064 USELESS:     465907
cpu0->LLC AVERAGE MISS LATENCY: 172.5 cycles

DRAM Statistics

Channel 0 RQ ROW_BUFFER_HIT:     111142
  ROW_BUFFER_MISS:    2391366
  AVG DBUS CONGESTED CYCLE: 15.98
Channel 0 WQ ROW_BUFFER_HIT:     115411
  ROW_BUFFER_MISS:     460030
  FULL:        593
Channel 0 REFRESHES ISSUED:      16800
