[VMEM] WARNING: physical memory size is smaller than virtual memory size.

*** ChampSim Multicore Out-of-Order Simulator ***
Warmup Instructions: 50000000
Simulation Instructions: 200000000
Number of CPUs: 1
Page size: 4096
Core 0: /local-ssd/ben/dpc4-traces/gtraces_v2/yankee_0000.champsim.gz
 L1D Berti prefetcher
Off-chip DRAM Size: 64 GiB Channels: 1 Width: 64-bit Data Rate: 4807 MT/s
[BTB] WARNING: target of return is a lower address than the corresponding call. This is usually a problem with your trace.
[BTB] WARNING: target of return is a lower address than the corresponding call. This is usually a problem with your trace.
Heartbeat CPU 0 instructions: 500007 cycles: 266134 heartbeat IPC: 1.879 cumulative IPC: 1.879 (Simulation time: 00 hr 00 min 04 sec)
[BTB] WARNING: target of return is a lower address than the corresponding call. This is usually a problem with your trace.
[BTB] WARNING: target of return is a lower address than the corresponding call. This is usually a problem with your trace.
[BTB] WARNING: target of return is a lower address than the corresponding call. This is usually a problem with your trace.
[BTB] WARNING: target of return is a lower address than the corresponding call. This is usually a problem with your trace.
[BTB] WARNING: target of return is a lower address than the corresponding call. This is usually a problem with your trace.
[BTB] WARNING: target of return is a lower address than the corresponding call. This is usually a problem with your trace.
[BTB] WARNING: target of return is a lower address than the corresponding call. This is usually a problem with your trace.
Heartbeat CPU 0 instructions: 1000010 cycles: 496337 heartbeat IPC: 2.172 cumulative IPC: 2.015 (Simulation time: 00 hr 00 min 07 sec)
[BTB] WARNING: target of return is a lower address than the corresponding call. This is usually a problem with your trace.
Heartbeat CPU 0 instructions: 1500011 cycles: 914512 heartbeat IPC: 1.196 cumulative IPC: 1.64 (Simulation time: 00 hr 00 min 14 sec)
Heartbeat CPU 0 instructions: 2000018 cycles: 1114764 heartbeat IPC: 2.497 cumulative IPC: 1.794 (Simulation time: 00 hr 00 min 17 sec)
Heartbeat CPU 0 instructions: 2500023 cycles: 1291203 heartbeat IPC: 2.834 cumulative IPC: 1.936 (Simulation time: 00 hr 00 min 20 sec)
Heartbeat CPU 0 instructions: 3000028 cycles: 1515868 heartbeat IPC: 2.226 cumulative IPC: 1.979 (Simulation time: 00 hr 00 min 24 sec)
Heartbeat CPU 0 instructions: 3500029 cycles: 1678595 heartbeat IPC: 3.073 cumulative IPC: 2.085 (Simulation time: 00 hr 00 min 27 sec)
Heartbeat CPU 0 instructions: 4000030 cycles: 1815811 heartbeat IPC: 3.644 cumulative IPC: 2.203 (Simulation time: 00 hr 00 min 29 sec)
Heartbeat CPU 0 instructions: 4500034 cycles: 1949488 heartbeat IPC: 3.74 cumulative IPC: 2.308 (Simulation time: 00 hr 00 min 31 sec)
Heartbeat CPU 0 instructions: 5000039 cycles: 2067592 heartbeat IPC: 4.234 cumulative IPC: 2.418 (Simulation time: 00 hr 00 min 33 sec)
Heartbeat CPU 0 instructions: 5500041 cycles: 2205303 heartbeat IPC: 3.631 cumulative IPC: 2.494 (Simulation time: 00 hr 00 min 35 sec)
Heartbeat CPU 0 instructions: 6000041 cycles: 2384861 heartbeat IPC: 2.785 cumulative IPC: 2.516 (Simulation time: 00 hr 00 min 38 sec)
Heartbeat CPU 0 instructions: 6500047 cycles: 2521530 heartbeat IPC: 3.659 cumulative IPC: 2.578 (Simulation time: 00 hr 00 min 41 sec)
Heartbeat CPU 0 instructions: 7000048 cycles: 2642498 heartbeat IPC: 4.133 cumulative IPC: 2.649 (Simulation time: 00 hr 00 min 43 sec)
Heartbeat CPU 0 instructions: 7500051 cycles: 2762564 heartbeat IPC: 4.164 cumulative IPC: 2.715 (Simulation time: 00 hr 00 min 45 sec)
Heartbeat CPU 0 instructions: 8000055 cycles: 2878123 heartbeat IPC: 4.327 cumulative IPC: 2.78 (Simulation time: 00 hr 00 min 47 sec)
Heartbeat CPU 0 instructions: 8500059 cycles: 3026454 heartbeat IPC: 3.371 cumulative IPC: 2.809 (Simulation time: 00 hr 00 min 49 sec)
Heartbeat CPU 0 instructions: 9000065 cycles: 3162537 heartbeat IPC: 3.674 cumulative IPC: 2.846 (Simulation time: 00 hr 00 min 51 sec)
Heartbeat CPU 0 instructions: 9500069 cycles: 3279163 heartbeat IPC: 4.287 cumulative IPC: 2.897 (Simulation time: 00 hr 00 min 54 sec)
Heartbeat CPU 0 instructions: 10000072 cycles: 3437402 heartbeat IPC: 3.16 cumulative IPC: 2.909 (Simulation time: 00 hr 00 min 56 sec)
Heartbeat CPU 0 instructions: 10500076 cycles: 3589737 heartbeat IPC: 3.282 cumulative IPC: 2.925 (Simulation time: 00 hr 00 min 59 sec)
Heartbeat CPU 0 instructions: 11000082 cycles: 3732655 heartbeat IPC: 3.499 cumulative IPC: 2.947 (Simulation time: 00 hr 01 min 02 sec)
Heartbeat CPU 0 instructions: 11500082 cycles: 3860946 heartbeat IPC: 3.897 cumulative IPC: 2.979 (Simulation time: 00 hr 01 min 04 sec)
Heartbeat CPU 0 instructions: 12000089 cycles: 3987023 heartbeat IPC: 3.966 cumulative IPC: 3.01 (Simulation time: 00 hr 01 min 06 sec)
Heartbeat CPU 0 instructions: 12500089 cycles: 4107216 heartbeat IPC: 4.16 cumulative IPC: 3.043 (Simulation time: 00 hr 01 min 08 sec)
Heartbeat CPU 0 instructions: 13000096 cycles: 4251594 heartbeat IPC: 3.463 cumulative IPC: 3.058 (Simulation time: 00 hr 01 min 11 sec)
Heartbeat CPU 0 instructions: 13500099 cycles: 4383284 heartbeat IPC: 3.797 cumulative IPC: 3.08 (Simulation time: 00 hr 01 min 13 sec)
Heartbeat CPU 0 instructions: 14000102 cycles: 4530804 heartbeat IPC: 3.389 cumulative IPC: 3.09 (Simulation time: 00 hr 01 min 16 sec)
Heartbeat CPU 0 instructions: 14500107 cycles: 4643628 heartbeat IPC: 4.432 cumulative IPC: 3.123 (Simulation time: 00 hr 01 min 18 sec)
Heartbeat CPU 0 instructions: 15000114 cycles: 4748209 heartbeat IPC: 4.781 cumulative IPC: 3.159 (Simulation time: 00 hr 01 min 20 sec)
Heartbeat CPU 0 instructions: 15500114 cycles: 4858654 heartbeat IPC: 4.527 cumulative IPC: 3.19 (Simulation time: 00 hr 01 min 22 sec)
Heartbeat CPU 0 instructions: 16000117 cycles: 5000503 heartbeat IPC: 3.525 cumulative IPC: 3.2 (Simulation time: 00 hr 01 min 25 sec)
Heartbeat CPU 0 instructions: 16500117 cycles: 5135378 heartbeat IPC: 3.707 cumulative IPC: 3.213 (Simulation time: 00 hr 01 min 27 sec)
Heartbeat CPU 0 instructions: 17000120 cycles: 5246176 heartbeat IPC: 4.513 cumulative IPC: 3.24 (Simulation time: 00 hr 01 min 29 sec)
Heartbeat CPU 0 instructions: 17500120 cycles: 5360083 heartbeat IPC: 4.39 cumulative IPC: 3.265 (Simulation time: 00 hr 01 min 31 sec)
Heartbeat CPU 0 instructions: 18000123 cycles: 5462393 heartbeat IPC: 4.887 cumulative IPC: 3.295 (Simulation time: 00 hr 01 min 32 sec)
Heartbeat CPU 0 instructions: 18500125 cycles: 5565820 heartbeat IPC: 4.834 cumulative IPC: 3.324 (Simulation time: 00 hr 01 min 34 sec)
Heartbeat CPU 0 instructions: 19000132 cycles: 5668301 heartbeat IPC: 4.879 cumulative IPC: 3.352 (Simulation time: 00 hr 01 min 35 sec)
Heartbeat CPU 0 instructions: 19500138 cycles: 5775689 heartbeat IPC: 4.656 cumulative IPC: 3.376 (Simulation time: 00 hr 01 min 37 sec)
Heartbeat CPU 0 instructions: 20000145 cycles: 5919562 heartbeat IPC: 3.475 cumulative IPC: 3.379 (Simulation time: 00 hr 01 min 39 sec)
Heartbeat CPU 0 instructions: 20500146 cycles: 6053075 heartbeat IPC: 3.745 cumulative IPC: 3.387 (Simulation time: 00 hr 01 min 42 sec)
Heartbeat CPU 0 instructions: 21000147 cycles: 6205763 heartbeat IPC: 3.275 cumulative IPC: 3.384 (Simulation time: 00 hr 01 min 45 sec)
Heartbeat CPU 0 instructions: 21500151 cycles: 6372192 heartbeat IPC: 3.004 cumulative IPC: 3.374 (Simulation time: 00 hr 01 min 48 sec)
Heartbeat CPU 0 instructions: 22000158 cycles: 6514926 heartbeat IPC: 3.503 cumulative IPC: 3.377 (Simulation time: 00 hr 01 min 50 sec)
Heartbeat CPU 0 instructions: 22500158 cycles: 6644785 heartbeat IPC: 3.85 cumulative IPC: 3.386 (Simulation time: 00 hr 01 min 52 sec)
Heartbeat CPU 0 instructions: 23000158 cycles: 6760815 heartbeat IPC: 4.309 cumulative IPC: 3.402 (Simulation time: 00 hr 01 min 54 sec)
Heartbeat CPU 0 instructions: 23500158 cycles: 6879609 heartbeat IPC: 4.209 cumulative IPC: 3.416 (Simulation time: 00 hr 01 min 56 sec)
Heartbeat CPU 0 instructions: 24000161 cycles: 6999083 heartbeat IPC: 4.185 cumulative IPC: 3.429 (Simulation time: 00 hr 01 min 58 sec)
Heartbeat CPU 0 instructions: 24500168 cycles: 7120546 heartbeat IPC: 4.117 cumulative IPC: 3.441 (Simulation time: 00 hr 02 min 00 sec)
Heartbeat CPU 0 instructions: 25000174 cycles: 7259879 heartbeat IPC: 3.589 cumulative IPC: 3.444 (Simulation time: 00 hr 02 min 03 sec)
Heartbeat CPU 0 instructions: 25500176 cycles: 7378304 heartbeat IPC: 4.222 cumulative IPC: 3.456 (Simulation time: 00 hr 02 min 05 sec)
Heartbeat CPU 0 instructions: 26000177 cycles: 7485307 heartbeat IPC: 4.673 cumulative IPC: 3.473 (Simulation time: 00 hr 02 min 06 sec)
Heartbeat CPU 0 instructions: 26500178 cycles: 7586458 heartbeat IPC: 4.943 cumulative IPC: 3.493 (Simulation time: 00 hr 02 min 08 sec)
Heartbeat CPU 0 instructions: 27000181 cycles: 7696450 heartbeat IPC: 4.546 cumulative IPC: 3.508 (Simulation time: 00 hr 02 min 09 sec)
Heartbeat CPU 0 instructions: 27500181 cycles: 7811080 heartbeat IPC: 4.362 cumulative IPC: 3.521 (Simulation time: 00 hr 02 min 11 sec)
Heartbeat CPU 0 instructions: 28000186 cycles: 7920050 heartbeat IPC: 4.588 cumulative IPC: 3.535 (Simulation time: 00 hr 02 min 13 sec)
Heartbeat CPU 0 instructions: 28500193 cycles: 8038993 heartbeat IPC: 4.204 cumulative IPC: 3.545 (Simulation time: 00 hr 02 min 15 sec)
Heartbeat CPU 0 instructions: 29000196 cycles: 8153922 heartbeat IPC: 4.351 cumulative IPC: 3.557 (Simulation time: 00 hr 02 min 17 sec)
Heartbeat CPU 0 instructions: 29500201 cycles: 8271855 heartbeat IPC: 4.24 cumulative IPC: 3.566 (Simulation time: 00 hr 02 min 19 sec)
Heartbeat CPU 0 instructions: 30000201 cycles: 8383012 heartbeat IPC: 4.498 cumulative IPC: 3.579 (Simulation time: 00 hr 02 min 21 sec)
Heartbeat CPU 0 instructions: 30500205 cycles: 8493717 heartbeat IPC: 4.517 cumulative IPC: 3.591 (Simulation time: 00 hr 02 min 23 sec)
Heartbeat CPU 0 instructions: 31000210 cycles: 8617514 heartbeat IPC: 4.039 cumulative IPC: 3.597 (Simulation time: 00 hr 02 min 25 sec)
Heartbeat CPU 0 instructions: 31500212 cycles: 8756754 heartbeat IPC: 3.591 cumulative IPC: 3.597 (Simulation time: 00 hr 02 min 28 sec)
Heartbeat CPU 0 instructions: 32000219 cycles: 8892070 heartbeat IPC: 3.695 cumulative IPC: 3.599 (Simulation time: 00 hr 02 min 30 sec)
Heartbeat CPU 0 instructions: 32500219 cycles: 9014009 heartbeat IPC: 4.1 cumulative IPC: 3.606 (Simulation time: 00 hr 02 min 32 sec)
Heartbeat CPU 0 instructions: 33000219 cycles: 9128608 heartbeat IPC: 4.363 cumulative IPC: 3.615 (Simulation time: 00 hr 02 min 34 sec)
Heartbeat CPU 0 instructions: 33500221 cycles: 9257912 heartbeat IPC: 3.867 cumulative IPC: 3.619 (Simulation time: 00 hr 02 min 36 sec)
Heartbeat CPU 0 instructions: 34000221 cycles: 9409756 heartbeat IPC: 3.293 cumulative IPC: 3.613 (Simulation time: 00 hr 02 min 39 sec)
Heartbeat CPU 0 instructions: 34500224 cycles: 9576454 heartbeat IPC: 2.999 cumulative IPC: 3.603 (Simulation time: 00 hr 02 min 42 sec)
Heartbeat CPU 0 instructions: 35000226 cycles: 9704187 heartbeat IPC: 3.914 cumulative IPC: 3.607 (Simulation time: 00 hr 02 min 44 sec)
Heartbeat CPU 0 instructions: 35500231 cycles: 9820519 heartbeat IPC: 4.298 cumulative IPC: 3.615 (Simulation time: 00 hr 02 min 46 sec)
Heartbeat CPU 0 instructions: 36000238 cycles: 9940242 heartbeat IPC: 4.176 cumulative IPC: 3.622 (Simulation time: 00 hr 02 min 48 sec)
Heartbeat CPU 0 instructions: 36500238 cycles: 10099074 heartbeat IPC: 3.148 cumulative IPC: 3.614 (Simulation time: 00 hr 02 min 51 sec)
Heartbeat CPU 0 instructions: 37000241 cycles: 10229947 heartbeat IPC: 3.821 cumulative IPC: 3.617 (Simulation time: 00 hr 02 min 53 sec)
Heartbeat CPU 0 instructions: 37500241 cycles: 10353553 heartbeat IPC: 4.045 cumulative IPC: 3.622 (Simulation time: 00 hr 02 min 56 sec)
Heartbeat CPU 0 instructions: 38000248 cycles: 10480345 heartbeat IPC: 3.944 cumulative IPC: 3.626 (Simulation time: 00 hr 02 min 58 sec)
Heartbeat CPU 0 instructions: 38500254 cycles: 10584625 heartbeat IPC: 4.795 cumulative IPC: 3.637 (Simulation time: 00 hr 03 min 00 sec)
Heartbeat CPU 0 instructions: 39000258 cycles: 10687513 heartbeat IPC: 4.86 cumulative IPC: 3.649 (Simulation time: 00 hr 03 min 02 sec)
Heartbeat CPU 0 instructions: 39500261 cycles: 10787501 heartbeat IPC: 5.001 cumulative IPC: 3.662 (Simulation time: 00 hr 03 min 03 sec)
Heartbeat CPU 0 instructions: 40000261 cycles: 10887486 heartbeat IPC: 5.001 cumulative IPC: 3.674 (Simulation time: 00 hr 03 min 05 sec)
Heartbeat CPU 0 instructions: 40500267 cycles: 10987487 heartbeat IPC: 5 cumulative IPC: 3.686 (Simulation time: 00 hr 03 min 06 sec)
Heartbeat CPU 0 instructions: 41000273 cycles: 11091464 heartbeat IPC: 4.809 cumulative IPC: 3.697 (Simulation time: 00 hr 03 min 08 sec)
Heartbeat CPU 0 instructions: 41500275 cycles: 11192332 heartbeat IPC: 4.957 cumulative IPC: 3.708 (Simulation time: 00 hr 03 min 09 sec)
Heartbeat CPU 0 instructions: 42000278 cycles: 11327915 heartbeat IPC: 3.688 cumulative IPC: 3.708 (Simulation time: 00 hr 03 min 11 sec)
Heartbeat CPU 0 instructions: 42500283 cycles: 11455072 heartbeat IPC: 3.932 cumulative IPC: 3.71 (Simulation time: 00 hr 03 min 14 sec)
Heartbeat CPU 0 instructions: 43000290 cycles: 11583092 heartbeat IPC: 3.906 cumulative IPC: 3.712 (Simulation time: 00 hr 03 min 16 sec)
Heartbeat CPU 0 instructions: 43500293 cycles: 11698168 heartbeat IPC: 4.345 cumulative IPC: 3.719 (Simulation time: 00 hr 03 min 18 sec)
Heartbeat CPU 0 instructions: 44000300 cycles: 11805031 heartbeat IPC: 4.679 cumulative IPC: 3.727 (Simulation time: 00 hr 03 min 20 sec)
Heartbeat CPU 0 instructions: 44500307 cycles: 11924933 heartbeat IPC: 4.17 cumulative IPC: 3.732 (Simulation time: 00 hr 03 min 22 sec)
Heartbeat CPU 0 instructions: 45000311 cycles: 12060693 heartbeat IPC: 3.683 cumulative IPC: 3.731 (Simulation time: 00 hr 03 min 24 sec)
Heartbeat CPU 0 instructions: 45500312 cycles: 12179110 heartbeat IPC: 4.222 cumulative IPC: 3.736 (Simulation time: 00 hr 03 min 26 sec)
Heartbeat CPU 0 instructions: 46000312 cycles: 12290471 heartbeat IPC: 4.49 cumulative IPC: 3.743 (Simulation time: 00 hr 03 min 28 sec)
Heartbeat CPU 0 instructions: 46500314 cycles: 12400971 heartbeat IPC: 4.525 cumulative IPC: 3.75 (Simulation time: 00 hr 03 min 30 sec)
Heartbeat CPU 0 instructions: 47000319 cycles: 12519409 heartbeat IPC: 4.222 cumulative IPC: 3.754 (Simulation time: 00 hr 03 min 32 sec)
Heartbeat CPU 0 instructions: 47500326 cycles: 12652306 heartbeat IPC: 3.762 cumulative IPC: 3.754 (Simulation time: 00 hr 03 min 35 sec)
Heartbeat CPU 0 instructions: 48000326 cycles: 12763023 heartbeat IPC: 4.516 cumulative IPC: 3.761 (Simulation time: 00 hr 03 min 37 sec)
Heartbeat CPU 0 instructions: 48500332 cycles: 12891861 heartbeat IPC: 3.881 cumulative IPC: 3.762 (Simulation time: 00 hr 03 min 39 sec)
Heartbeat CPU 0 instructions: 49000333 cycles: 13011330 heartbeat IPC: 4.185 cumulative IPC: 3.766 (Simulation time: 00 hr 03 min 41 sec)
Heartbeat CPU 0 instructions: 49500333 cycles: 13121887 heartbeat IPC: 4.523 cumulative IPC: 3.772 (Simulation time: 00 hr 03 min 43 sec)
Warmup halting CPU 0 at instruction 50000005 cycle 13239081 for remainder of phase
Warmup finished CPU 0 instructions: 50000005 cycles: 13239081 cumulative IPC: 3.777 (Simulation time: 00 hr 03 min 45 sec)
Warmup complete CPU 0 instructions: 50000005 cycles: 13239081 cumulative IPC: 3.777 (Simulation time: 00 hr 03 min 45 sec)
Heartbeat CPU 0 instructions: 50000334 cycles: 13239704 heartbeat IPC: 4.244 cumulative IPC: 0.5281 (Simulation time: 00 hr 03 min 45 sec)
Heartbeat CPU 0 instructions: 50500335 cycles: 14517180 heartbeat IPC: 0.3914 cumulative IPC: 0.3915 (Simulation time: 00 hr 03 min 55 sec)
Heartbeat CPU 0 instructions: 51000335 cycles: 15024978 heartbeat IPC: 0.9846 cumulative IPC: 0.5601 (Simulation time: 00 hr 03 min 59 sec)
Heartbeat CPU 0 instructions: 51500340 cycles: 16530674 heartbeat IPC: 0.3321 cumulative IPC: 0.4558 (Simulation time: 00 hr 04 min 10 sec)
Heartbeat CPU 0 instructions: 52000340 cycles: 17564979 heartbeat IPC: 0.4834 cumulative IPC: 0.4624 (Simulation time: 00 hr 04 min 17 sec)
Heartbeat CPU 0 instructions: 52500342 cycles: 18046845 heartbeat IPC: 1.038 cumulative IPC: 0.5201 (Simulation time: 00 hr 04 min 21 sec)
Heartbeat CPU 0 instructions: 53000346 cycles: 18505678 heartbeat IPC: 1.09 cumulative IPC: 0.5697 (Simulation time: 00 hr 04 min 25 sec)
Heartbeat CPU 0 instructions: 53500350 cycles: 18770604 heartbeat IPC: 1.887 cumulative IPC: 0.6328 (Simulation time: 00 hr 04 min 27 sec)
Heartbeat CPU 0 instructions: 54000357 cycles: 19012440 heartbeat IPC: 2.068 cumulative IPC: 0.6929 (Simulation time: 00 hr 04 min 30 sec)
Heartbeat CPU 0 instructions: 54500359 cycles: 19254703 heartbeat IPC: 2.064 cumulative IPC: 0.7481 (Simulation time: 00 hr 04 min 32 sec)
Heartbeat CPU 0 instructions: 55000361 cycles: 19528087 heartbeat IPC: 1.829 cumulative IPC: 0.7951 (Simulation time: 00 hr 04 min 35 sec)
Heartbeat CPU 0 instructions: 55500363 cycles: 19769400 heartbeat IPC: 2.072 cumulative IPC: 0.8423 (Simulation time: 00 hr 04 min 37 sec)
Heartbeat CPU 0 instructions: 56000363 cycles: 20008222 heartbeat IPC: 2.094 cumulative IPC: 0.8864 (Simulation time: 00 hr 04 min 40 sec)
Heartbeat CPU 0 instructions: 56500367 cycles: 20233678 heartbeat IPC: 2.218 cumulative IPC: 0.9293 (Simulation time: 00 hr 04 min 42 sec)
Heartbeat CPU 0 instructions: 57000367 cycles: 20473220 heartbeat IPC: 2.087 cumulative IPC: 0.9677 (Simulation time: 00 hr 04 min 45 sec)
Heartbeat CPU 0 instructions: 57500368 cycles: 20722702 heartbeat IPC: 2.004 cumulative IPC: 1.002 (Simulation time: 00 hr 04 min 47 sec)
Heartbeat CPU 0 instructions: 58000368 cycles: 20967694 heartbeat IPC: 2.041 cumulative IPC: 1.035 (Simulation time: 00 hr 04 min 50 sec)
Heartbeat CPU 0 instructions: 58500375 cycles: 21245146 heartbeat IPC: 1.802 cumulative IPC: 1.062 (Simulation time: 00 hr 04 min 52 sec)
Heartbeat CPU 0 instructions: 59000375 cycles: 22375677 heartbeat IPC: 0.4423 cumulative IPC: 0.9851 (Simulation time: 00 hr 05 min 00 sec)
Heartbeat CPU 0 instructions: 59500380 cycles: 23948651 heartbeat IPC: 0.3179 cumulative IPC: 0.8871 (Simulation time: 00 hr 05 min 11 sec)
Heartbeat CPU 0 instructions: 60000384 cycles: 25078518 heartbeat IPC: 0.4425 cumulative IPC: 0.8447 (Simulation time: 00 hr 05 min 19 sec)
Heartbeat CPU 0 instructions: 60500391 cycles: 26120383 heartbeat IPC: 0.4799 cumulative IPC: 0.8152 (Simulation time: 00 hr 05 min 26 sec)
Heartbeat CPU 0 instructions: 61000392 cycles: 27605912 heartbeat IPC: 0.3366 cumulative IPC: 0.7657 (Simulation time: 00 hr 05 min 36 sec)
Heartbeat CPU 0 instructions: 61500399 cycles: 28509478 heartbeat IPC: 0.5534 cumulative IPC: 0.7531 (Simulation time: 00 hr 05 min 43 sec)
Heartbeat CPU 0 instructions: 62000399 cycles: 29140901 heartbeat IPC: 0.7919 cumulative IPC: 0.7547 (Simulation time: 00 hr 05 min 48 sec)
Heartbeat CPU 0 instructions: 62500401 cycles: 29621513 heartbeat IPC: 1.04 cumulative IPC: 0.763 (Simulation time: 00 hr 05 min 51 sec)
Heartbeat CPU 0 instructions: 63000403 cycles: 30198764 heartbeat IPC: 0.8662 cumulative IPC: 0.7665 (Simulation time: 00 hr 05 min 56 sec)
Heartbeat CPU 0 instructions: 63500403 cycles: 31156225 heartbeat IPC: 0.5222 cumulative IPC: 0.7535 (Simulation time: 00 hr 06 min 03 sec)
Heartbeat CPU 0 instructions: 64000405 cycles: 32573597 heartbeat IPC: 0.3528 cumulative IPC: 0.7241 (Simulation time: 00 hr 06 min 13 sec)
Heartbeat CPU 0 instructions: 64500412 cycles: 33751641 heartbeat IPC: 0.4244 cumulative IPC: 0.7069 (Simulation time: 00 hr 06 min 22 sec)
Heartbeat CPU 0 instructions: 65000412 cycles: 34832993 heartbeat IPC: 0.4624 cumulative IPC: 0.6947 (Simulation time: 00 hr 06 min 29 sec)
Heartbeat CPU 0 instructions: 65500412 cycles: 36337809 heartbeat IPC: 0.3323 cumulative IPC: 0.6711 (Simulation time: 00 hr 06 min 40 sec)
Heartbeat CPU 0 instructions: 66000412 cycles: 37731137 heartbeat IPC: 0.3589 cumulative IPC: 0.6533 (Simulation time: 00 hr 06 min 50 sec)
Heartbeat CPU 0 instructions: 66500414 cycles: 38834309 heartbeat IPC: 0.4532 cumulative IPC: 0.6447 (Simulation time: 00 hr 06 min 58 sec)
Heartbeat CPU 0 instructions: 67000414 cycles: 40111456 heartbeat IPC: 0.3915 cumulative IPC: 0.6326 (Simulation time: 00 hr 07 min 07 sec)
Heartbeat CPU 0 instructions: 67500419 cycles: 40828672 heartbeat IPC: 0.6971 cumulative IPC: 0.6343 (Simulation time: 00 hr 07 min 12 sec)
Heartbeat CPU 0 instructions: 68000419 cycles: 41397688 heartbeat IPC: 0.8787 cumulative IPC: 0.6393 (Simulation time: 00 hr 07 min 17 sec)
Heartbeat CPU 0 instructions: 68500419 cycles: 41858481 heartbeat IPC: 1.085 cumulative IPC: 0.6464 (Simulation time: 00 hr 07 min 21 sec)
Heartbeat CPU 0 instructions: 69000423 cycles: 42252451 heartbeat IPC: 1.269 cumulative IPC: 0.6549 (Simulation time: 00 hr 07 min 24 sec)
Heartbeat CPU 0 instructions: 69500427 cycles: 43037749 heartbeat IPC: 0.6367 cumulative IPC: 0.6544 (Simulation time: 00 hr 07 min 30 sec)
Heartbeat CPU 0 instructions: 70000428 cycles: 44493621 heartbeat IPC: 0.3434 cumulative IPC: 0.6399 (Simulation time: 00 hr 07 min 41 sec)
Heartbeat CPU 0 instructions: 70500434 cycles: 45641602 heartbeat IPC: 0.4356 cumulative IPC: 0.6327 (Simulation time: 00 hr 07 min 49 sec)
Heartbeat CPU 0 instructions: 71000440 cycles: 46562894 heartbeat IPC: 0.5427 cumulative IPC: 0.6302 (Simulation time: 00 hr 07 min 56 sec)
Heartbeat CPU 0 instructions: 71500440 cycles: 48162018 heartbeat IPC: 0.3127 cumulative IPC: 0.6157 (Simulation time: 00 hr 08 min 07 sec)
Heartbeat CPU 0 instructions: 72000443 cycles: 49071883 heartbeat IPC: 0.5495 cumulative IPC: 0.614 (Simulation time: 00 hr 08 min 14 sec)
Heartbeat CPU 0 instructions: 72500447 cycles: 49748943 heartbeat IPC: 0.7385 cumulative IPC: 0.6163 (Simulation time: 00 hr 08 min 19 sec)
Heartbeat CPU 0 instructions: 73000448 cycles: 50986345 heartbeat IPC: 0.4041 cumulative IPC: 0.6093 (Simulation time: 00 hr 08 min 27 sec)
Heartbeat CPU 0 instructions: 73500449 cycles: 52589463 heartbeat IPC: 0.3119 cumulative IPC: 0.5972 (Simulation time: 00 hr 08 min 39 sec)
Heartbeat CPU 0 instructions: 74000450 cycles: 53651468 heartbeat IPC: 0.4708 cumulative IPC: 0.5939 (Simulation time: 00 hr 08 min 46 sec)
Heartbeat CPU 0 instructions: 74500453 cycles: 54367657 heartbeat IPC: 0.6981 cumulative IPC: 0.5957 (Simulation time: 00 hr 08 min 52 sec)
Heartbeat CPU 0 instructions: 75000455 cycles: 55377393 heartbeat IPC: 0.4952 cumulative IPC: 0.5933 (Simulation time: 00 hr 08 min 59 sec)
Heartbeat CPU 0 instructions: 75500457 cycles: 56357362 heartbeat IPC: 0.5102 cumulative IPC: 0.5914 (Simulation time: 00 hr 09 min 06 sec)
Heartbeat CPU 0 instructions: 76000459 cycles: 57013854 heartbeat IPC: 0.7616 cumulative IPC: 0.594 (Simulation time: 00 hr 09 min 12 sec)
Heartbeat CPU 0 instructions: 76500461 cycles: 58255847 heartbeat IPC: 0.4026 cumulative IPC: 0.5887 (Simulation time: 00 hr 09 min 20 sec)
Heartbeat CPU 0 instructions: 77000461 cycles: 59382282 heartbeat IPC: 0.4439 cumulative IPC: 0.5851 (Simulation time: 00 hr 09 min 29 sec)
Heartbeat CPU 0 instructions: 77500466 cycles: 59998421 heartbeat IPC: 0.8115 cumulative IPC: 0.5881 (Simulation time: 00 hr 09 min 33 sec)
Heartbeat CPU 0 instructions: 78000468 cycles: 60316856 heartbeat IPC: 1.57 cumulative IPC: 0.5948 (Simulation time: 00 hr 09 min 36 sec)
Heartbeat CPU 0 instructions: 78500468 cycles: 61325881 heartbeat IPC: 0.4955 cumulative IPC: 0.5927 (Simulation time: 00 hr 09 min 43 sec)
Heartbeat CPU 0 instructions: 79000468 cycles: 62231999 heartbeat IPC: 0.5518 cumulative IPC: 0.5919 (Simulation time: 00 hr 09 min 50 sec)
Heartbeat CPU 0 instructions: 79500468 cycles: 63113449 heartbeat IPC: 0.5672 cumulative IPC: 0.5915 (Simulation time: 00 hr 09 min 57 sec)
Heartbeat CPU 0 instructions: 80000471 cycles: 64554405 heartbeat IPC: 0.347 cumulative IPC: 0.5846 (Simulation time: 00 hr 10 min 07 sec)
Heartbeat CPU 0 instructions: 80500474 cycles: 65829481 heartbeat IPC: 0.3921 cumulative IPC: 0.58 (Simulation time: 00 hr 10 min 16 sec)
Heartbeat CPU 0 instructions: 81000479 cycles: 66857998 heartbeat IPC: 0.4861 cumulative IPC: 0.5782 (Simulation time: 00 hr 10 min 24 sec)
Heartbeat CPU 0 instructions: 81500480 cycles: 68011481 heartbeat IPC: 0.4335 cumulative IPC: 0.5751 (Simulation time: 00 hr 10 min 32 sec)
Heartbeat CPU 0 instructions: 82000480 cycles: 69399391 heartbeat IPC: 0.3603 cumulative IPC: 0.5698 (Simulation time: 00 hr 10 min 42 sec)
Heartbeat CPU 0 instructions: 82500480 cycles: 70671321 heartbeat IPC: 0.3931 cumulative IPC: 0.5659 (Simulation time: 00 hr 10 min 51 sec)
Heartbeat CPU 0 instructions: 83000483 cycles: 71271721 heartbeat IPC: 0.8328 cumulative IPC: 0.5687 (Simulation time: 00 hr 10 min 56 sec)
Heartbeat CPU 0 instructions: 83500485 cycles: 71646232 heartbeat IPC: 1.335 cumulative IPC: 0.5736 (Simulation time: 00 hr 10 min 59 sec)
Heartbeat CPU 0 instructions: 84000490 cycles: 72652089 heartbeat IPC: 0.4971 cumulative IPC: 0.5723 (Simulation time: 00 hr 11 min 06 sec)
Heartbeat CPU 0 instructions: 84500493 cycles: 73909792 heartbeat IPC: 0.3976 cumulative IPC: 0.5687 (Simulation time: 00 hr 11 min 15 sec)
Heartbeat CPU 0 instructions: 85000495 cycles: 74820597 heartbeat IPC: 0.549 cumulative IPC: 0.5684 (Simulation time: 00 hr 11 min 22 sec)
Heartbeat CPU 0 instructions: 85500495 cycles: 75487709 heartbeat IPC: 0.7495 cumulative IPC: 0.5703 (Simulation time: 00 hr 11 min 27 sec)
Heartbeat CPU 0 instructions: 86000501 cycles: 76089621 heartbeat IPC: 0.8307 cumulative IPC: 0.5728 (Simulation time: 00 hr 11 min 32 sec)
Heartbeat CPU 0 instructions: 86500507 cycles: 76631410 heartbeat IPC: 0.9229 cumulative IPC: 0.5758 (Simulation time: 00 hr 11 min 36 sec)
Heartbeat CPU 0 instructions: 87000513 cycles: 76953007 heartbeat IPC: 1.555 cumulative IPC: 0.5807 (Simulation time: 00 hr 11 min 39 sec)
Heartbeat CPU 0 instructions: 87500514 cycles: 77447949 heartbeat IPC: 1.01 cumulative IPC: 0.584 (Simulation time: 00 hr 11 min 44 sec)
Heartbeat CPU 0 instructions: 88000521 cycles: 78551552 heartbeat IPC: 0.4531 cumulative IPC: 0.5818 (Simulation time: 00 hr 11 min 52 sec)
Heartbeat CPU 0 instructions: 88500522 cycles: 79585039 heartbeat IPC: 0.4838 cumulative IPC: 0.5803 (Simulation time: 00 hr 11 min 59 sec)
Heartbeat CPU 0 instructions: 89000526 cycles: 80238201 heartbeat IPC: 0.7655 cumulative IPC: 0.5821 (Simulation time: 00 hr 12 min 04 sec)
Heartbeat CPU 0 instructions: 89500533 cycles: 80699852 heartbeat IPC: 1.083 cumulative IPC: 0.5855 (Simulation time: 00 hr 12 min 08 sec)
Heartbeat CPU 0 instructions: 90000540 cycles: 81205693 heartbeat IPC: 0.9885 cumulative IPC: 0.5885 (Simulation time: 00 hr 12 min 12 sec)
Heartbeat CPU 0 instructions: 90500540 cycles: 82219261 heartbeat IPC: 0.4933 cumulative IPC: 0.5871 (Simulation time: 00 hr 12 min 20 sec)
Heartbeat CPU 0 instructions: 91000541 cycles: 83763493 heartbeat IPC: 0.3238 cumulative IPC: 0.5814 (Simulation time: 00 hr 12 min 31 sec)
Heartbeat CPU 0 instructions: 91500542 cycles: 84628635 heartbeat IPC: 0.5779 cumulative IPC: 0.5813 (Simulation time: 00 hr 12 min 37 sec)
Heartbeat CPU 0 instructions: 92000542 cycles: 85582218 heartbeat IPC: 0.5243 cumulative IPC: 0.5806 (Simulation time: 00 hr 12 min 44 sec)
Heartbeat CPU 0 instructions: 92500542 cycles: 86679391 heartbeat IPC: 0.4557 cumulative IPC: 0.5787 (Simulation time: 00 hr 12 min 52 sec)
Heartbeat CPU 0 instructions: 93000542 cycles: 87309768 heartbeat IPC: 0.7932 cumulative IPC: 0.5805 (Simulation time: 00 hr 12 min 57 sec)
Heartbeat CPU 0 instructions: 93500544 cycles: 88043518 heartbeat IPC: 0.6814 cumulative IPC: 0.5815 (Simulation time: 00 hr 13 min 03 sec)
Heartbeat CPU 0 instructions: 94000545 cycles: 89216922 heartbeat IPC: 0.4261 cumulative IPC: 0.5791 (Simulation time: 00 hr 13 min 11 sec)
Heartbeat CPU 0 instructions: 94500545 cycles: 90710840 heartbeat IPC: 0.3347 cumulative IPC: 0.5744 (Simulation time: 00 hr 13 min 21 sec)
Heartbeat CPU 0 instructions: 95000546 cycles: 92565890 heartbeat IPC: 0.2695 cumulative IPC: 0.5673 (Simulation time: 00 hr 13 min 34 sec)
Heartbeat CPU 0 instructions: 95500546 cycles: 93887849 heartbeat IPC: 0.3782 cumulative IPC: 0.5642 (Simulation time: 00 hr 13 min 43 sec)
Heartbeat CPU 0 instructions: 96000547 cycles: 95160232 heartbeat IPC: 0.393 cumulative IPC: 0.5615 (Simulation time: 00 hr 13 min 52 sec)
Heartbeat CPU 0 instructions: 96500547 cycles: 96442185 heartbeat IPC: 0.39 cumulative IPC: 0.5589 (Simulation time: 00 hr 14 min 02 sec)
Heartbeat CPU 0 instructions: 97000547 cycles: 97151058 heartbeat IPC: 0.7053 cumulative IPC: 0.5601 (Simulation time: 00 hr 14 min 07 sec)
Heartbeat CPU 0 instructions: 97500554 cycles: 97643000 heartbeat IPC: 1.016 cumulative IPC: 0.5628 (Simulation time: 00 hr 14 min 11 sec)
Heartbeat CPU 0 instructions: 98000554 cycles: 98431949 heartbeat IPC: 0.6338 cumulative IPC: 0.5634 (Simulation time: 00 hr 14 min 17 sec)
Heartbeat CPU 0 instructions: 98500560 cycles: 99508169 heartbeat IPC: 0.4646 cumulative IPC: 0.5622 (Simulation time: 00 hr 14 min 25 sec)
Heartbeat CPU 0 instructions: 99000560 cycles: 100229320 heartbeat IPC: 0.6933 cumulative IPC: 0.5633 (Simulation time: 00 hr 14 min 30 sec)
Heartbeat CPU 0 instructions: 99500561 cycles: 100837562 heartbeat IPC: 0.822 cumulative IPC: 0.5651 (Simulation time: 00 hr 14 min 35 sec)
Heartbeat CPU 0 instructions: 100000562 cycles: 101949839 heartbeat IPC: 0.4495 cumulative IPC: 0.5636 (Simulation time: 00 hr 14 min 43 sec)
Heartbeat CPU 0 instructions: 100500562 cycles: 102795312 heartbeat IPC: 0.5914 cumulative IPC: 0.5639 (Simulation time: 00 hr 14 min 49 sec)
Heartbeat CPU 0 instructions: 101000566 cycles: 103215154 heartbeat IPC: 1.191 cumulative IPC: 0.5668 (Simulation time: 00 hr 14 min 53 sec)
Heartbeat CPU 0 instructions: 101500568 cycles: 103580999 heartbeat IPC: 1.367 cumulative IPC: 0.5701 (Simulation time: 00 hr 14 min 57 sec)
Heartbeat CPU 0 instructions: 102000568 cycles: 103902580 heartbeat IPC: 1.555 cumulative IPC: 0.5736 (Simulation time: 00 hr 15 min 00 sec)
Heartbeat CPU 0 instructions: 102500573 cycles: 104219893 heartbeat IPC: 1.576 cumulative IPC: 0.5771 (Simulation time: 00 hr 15 min 03 sec)
Heartbeat CPU 0 instructions: 103000574 cycles: 105584032 heartbeat IPC: 0.3665 cumulative IPC: 0.5739 (Simulation time: 00 hr 15 min 12 sec)
Heartbeat CPU 0 instructions: 103500574 cycles: 107052799 heartbeat IPC: 0.3404 cumulative IPC: 0.5703 (Simulation time: 00 hr 15 min 23 sec)
Heartbeat CPU 0 instructions: 104000577 cycles: 107778214 heartbeat IPC: 0.6893 cumulative IPC: 0.5712 (Simulation time: 00 hr 15 min 29 sec)
Heartbeat CPU 0 instructions: 104500583 cycles: 109079742 heartbeat IPC: 0.3842 cumulative IPC: 0.5687 (Simulation time: 00 hr 15 min 38 sec)
Heartbeat CPU 0 instructions: 105000586 cycles: 109928268 heartbeat IPC: 0.5893 cumulative IPC: 0.5688 (Simulation time: 00 hr 15 min 44 sec)
Heartbeat CPU 0 instructions: 105500588 cycles: 111309116 heartbeat IPC: 0.3621 cumulative IPC: 0.5659 (Simulation time: 00 hr 15 min 54 sec)
Heartbeat CPU 0 instructions: 106000594 cycles: 112015253 heartbeat IPC: 0.7081 cumulative IPC: 0.5669 (Simulation time: 00 hr 15 min 59 sec)
Heartbeat CPU 0 instructions: 106500597 cycles: 112546328 heartbeat IPC: 0.9415 cumulative IPC: 0.5689 (Simulation time: 00 hr 16 min 03 sec)
Heartbeat CPU 0 instructions: 107000597 cycles: 113321328 heartbeat IPC: 0.6452 cumulative IPC: 0.5695 (Simulation time: 00 hr 16 min 09 sec)
Heartbeat CPU 0 instructions: 107500597 cycles: 114488970 heartbeat IPC: 0.4282 cumulative IPC: 0.5679 (Simulation time: 00 hr 16 min 18 sec)
Heartbeat CPU 0 instructions: 108000600 cycles: 115583791 heartbeat IPC: 0.4567 cumulative IPC: 0.5667 (Simulation time: 00 hr 16 min 26 sec)
Heartbeat CPU 0 instructions: 108500603 cycles: 116312907 heartbeat IPC: 0.6858 cumulative IPC: 0.5676 (Simulation time: 00 hr 16 min 31 sec)
Heartbeat CPU 0 instructions: 109000608 cycles: 116867334 heartbeat IPC: 0.9018 cumulative IPC: 0.5693 (Simulation time: 00 hr 16 min 36 sec)
Heartbeat CPU 0 instructions: 109500609 cycles: 117357851 heartbeat IPC: 1.019 cumulative IPC: 0.5715 (Simulation time: 00 hr 16 min 40 sec)
Heartbeat CPU 0 instructions: 110000615 cycles: 117863386 heartbeat IPC: 0.9891 cumulative IPC: 0.5735 (Simulation time: 00 hr 16 min 44 sec)
Heartbeat CPU 0 instructions: 110500615 cycles: 118258329 heartbeat IPC: 1.266 cumulative IPC: 0.5761 (Simulation time: 00 hr 16 min 47 sec)
Heartbeat CPU 0 instructions: 111000617 cycles: 118860194 heartbeat IPC: 0.8308 cumulative IPC: 0.5775 (Simulation time: 00 hr 16 min 52 sec)
Heartbeat CPU 0 instructions: 111500618 cycles: 120230941 heartbeat IPC: 0.3648 cumulative IPC: 0.5748 (Simulation time: 00 hr 17 min 02 sec)
Heartbeat CPU 0 instructions: 112000619 cycles: 121103092 heartbeat IPC: 0.5733 cumulative IPC: 0.5748 (Simulation time: 00 hr 17 min 09 sec)
Heartbeat CPU 0 instructions: 112500626 cycles: 121715815 heartbeat IPC: 0.816 cumulative IPC: 0.5762 (Simulation time: 00 hr 17 min 13 sec)
Heartbeat CPU 0 instructions: 113000627 cycles: 122197215 heartbeat IPC: 1.039 cumulative IPC: 0.5782 (Simulation time: 00 hr 17 min 17 sec)
Heartbeat CPU 0 instructions: 113500628 cycles: 122686192 heartbeat IPC: 1.023 cumulative IPC: 0.5802 (Simulation time: 00 hr 17 min 22 sec)
Heartbeat CPU 0 instructions: 114000632 cycles: 123483186 heartbeat IPC: 0.6274 cumulative IPC: 0.5805 (Simulation time: 00 hr 17 min 28 sec)
Heartbeat CPU 0 instructions: 114500639 cycles: 124912066 heartbeat IPC: 0.3499 cumulative IPC: 0.5776 (Simulation time: 00 hr 17 min 38 sec)
Heartbeat CPU 0 instructions: 115000639 cycles: 125547817 heartbeat IPC: 0.7865 cumulative IPC: 0.5788 (Simulation time: 00 hr 17 min 43 sec)
Heartbeat CPU 0 instructions: 115500641 cycles: 127168801 heartbeat IPC: 0.3085 cumulative IPC: 0.5749 (Simulation time: 00 hr 17 min 54 sec)
Heartbeat CPU 0 instructions: 116000641 cycles: 128200914 heartbeat IPC: 0.4844 cumulative IPC: 0.5741 (Simulation time: 00 hr 18 min 02 sec)
Heartbeat CPU 0 instructions: 116500642 cycles: 129037879 heartbeat IPC: 0.5974 cumulative IPC: 0.5743 (Simulation time: 00 hr 18 min 08 sec)
Heartbeat CPU 0 instructions: 117000648 cycles: 129657925 heartbeat IPC: 0.8064 cumulative IPC: 0.5755 (Simulation time: 00 hr 18 min 13 sec)
Heartbeat CPU 0 instructions: 117500650 cycles: 130416189 heartbeat IPC: 0.6594 cumulative IPC: 0.5761 (Simulation time: 00 hr 18 min 19 sec)
Heartbeat CPU 0 instructions: 118000654 cycles: 132124820 heartbeat IPC: 0.2926 cumulative IPC: 0.572 (Simulation time: 00 hr 18 min 30 sec)
Heartbeat CPU 0 instructions: 118500654 cycles: 133211849 heartbeat IPC: 0.46 cumulative IPC: 0.571 (Simulation time: 00 hr 18 min 38 sec)
Heartbeat CPU 0 instructions: 119000658 cycles: 133954924 heartbeat IPC: 0.6729 cumulative IPC: 0.5716 (Simulation time: 00 hr 18 min 44 sec)
Heartbeat CPU 0 instructions: 119500660 cycles: 135022818 heartbeat IPC: 0.4682 cumulative IPC: 0.5707 (Simulation time: 00 hr 18 min 51 sec)
Heartbeat CPU 0 instructions: 120000660 cycles: 135916682 heartbeat IPC: 0.5594 cumulative IPC: 0.5706 (Simulation time: 00 hr 18 min 58 sec)
Heartbeat CPU 0 instructions: 120500660 cycles: 136637371 heartbeat IPC: 0.6938 cumulative IPC: 0.5713 (Simulation time: 00 hr 19 min 03 sec)
Heartbeat CPU 0 instructions: 121000661 cycles: 137411788 heartbeat IPC: 0.6456 cumulative IPC: 0.5718 (Simulation time: 00 hr 19 min 09 sec)
Heartbeat CPU 0 instructions: 121500662 cycles: 138519891 heartbeat IPC: 0.4512 cumulative IPC: 0.5707 (Simulation time: 00 hr 19 min 17 sec)
Heartbeat CPU 0 instructions: 122000666 cycles: 139222580 heartbeat IPC: 0.7116 cumulative IPC: 0.5715 (Simulation time: 00 hr 19 min 22 sec)
Heartbeat CPU 0 instructions: 122500667 cycles: 139943946 heartbeat IPC: 0.6931 cumulative IPC: 0.5722 (Simulation time: 00 hr 19 min 28 sec)
Heartbeat CPU 0 instructions: 123000667 cycles: 141042979 heartbeat IPC: 0.4549 cumulative IPC: 0.5712 (Simulation time: 00 hr 19 min 36 sec)
Heartbeat CPU 0 instructions: 123500669 cycles: 141740260 heartbeat IPC: 0.7171 cumulative IPC: 0.572 (Simulation time: 00 hr 19 min 41 sec)
Heartbeat CPU 0 instructions: 124000670 cycles: 142919075 heartbeat IPC: 0.4242 cumulative IPC: 0.5706 (Simulation time: 00 hr 19 min 49 sec)
Heartbeat CPU 0 instructions: 124500672 cycles: 144254143 heartbeat IPC: 0.3745 cumulative IPC: 0.5686 (Simulation time: 00 hr 19 min 58 sec)
Heartbeat CPU 0 instructions: 125000679 cycles: 144915211 heartbeat IPC: 0.7564 cumulative IPC: 0.5696 (Simulation time: 00 hr 20 min 03 sec)
Heartbeat CPU 0 instructions: 125500681 cycles: 145505459 heartbeat IPC: 0.8471 cumulative IPC: 0.5708 (Simulation time: 00 hr 20 min 08 sec)
Heartbeat CPU 0 instructions: 126000688 cycles: 145921564 heartbeat IPC: 1.202 cumulative IPC: 0.5728 (Simulation time: 00 hr 20 min 12 sec)
Heartbeat CPU 0 instructions: 126500691 cycles: 146566597 heartbeat IPC: 0.7752 cumulative IPC: 0.5738 (Simulation time: 00 hr 20 min 17 sec)
Heartbeat CPU 0 instructions: 127000691 cycles: 147650154 heartbeat IPC: 0.4614 cumulative IPC: 0.5729 (Simulation time: 00 hr 20 min 25 sec)
Heartbeat CPU 0 instructions: 127500693 cycles: 148964483 heartbeat IPC: 0.3804 cumulative IPC: 0.571 (Simulation time: 00 hr 20 min 35 sec)
Heartbeat CPU 0 instructions: 128000693 cycles: 149982469 heartbeat IPC: 0.4912 cumulative IPC: 0.5704 (Simulation time: 00 hr 20 min 42 sec)
Heartbeat CPU 0 instructions: 128500696 cycles: 150568989 heartbeat IPC: 0.8525 cumulative IPC: 0.5716 (Simulation time: 00 hr 20 min 47 sec)
Heartbeat CPU 0 instructions: 129000699 cycles: 150989130 heartbeat IPC: 1.19 cumulative IPC: 0.5735 (Simulation time: 00 hr 20 min 50 sec)
Heartbeat CPU 0 instructions: 129500700 cycles: 151364865 heartbeat IPC: 1.331 cumulative IPC: 0.5756 (Simulation time: 00 hr 20 min 53 sec)
Heartbeat CPU 0 instructions: 130000701 cycles: 151862091 heartbeat IPC: 1.006 cumulative IPC: 0.5771 (Simulation time: 00 hr 20 min 57 sec)
Heartbeat CPU 0 instructions: 130500703 cycles: 152112262 heartbeat IPC: 1.999 cumulative IPC: 0.5797 (Simulation time: 00 hr 20 min 59 sec)
Heartbeat CPU 0 instructions: 131000707 cycles: 152326564 heartbeat IPC: 2.333 cumulative IPC: 0.5824 (Simulation time: 00 hr 21 min 02 sec)
Heartbeat CPU 0 instructions: 131500708 cycles: 152563882 heartbeat IPC: 2.107 cumulative IPC: 0.585 (Simulation time: 00 hr 21 min 04 sec)
Heartbeat CPU 0 instructions: 132000708 cycles: 152819246 heartbeat IPC: 1.958 cumulative IPC: 0.5875 (Simulation time: 00 hr 21 min 06 sec)
Heartbeat CPU 0 instructions: 132500708 cycles: 153036331 heartbeat IPC: 2.303 cumulative IPC: 0.5901 (Simulation time: 00 hr 21 min 08 sec)
Heartbeat CPU 0 instructions: 133000713 cycles: 153840978 heartbeat IPC: 0.6214 cumulative IPC: 0.5903 (Simulation time: 00 hr 21 min 14 sec)
Heartbeat CPU 0 instructions: 133500715 cycles: 154479427 heartbeat IPC: 0.7832 cumulative IPC: 0.5912 (Simulation time: 00 hr 21 min 19 sec)
Heartbeat CPU 0 instructions: 134000715 cycles: 154847569 heartbeat IPC: 1.358 cumulative IPC: 0.5932 (Simulation time: 00 hr 21 min 23 sec)
Heartbeat CPU 0 instructions: 134500717 cycles: 155231793 heartbeat IPC: 1.301 cumulative IPC: 0.5951 (Simulation time: 00 hr 21 min 26 sec)
Heartbeat CPU 0 instructions: 135000717 cycles: 155721336 heartbeat IPC: 1.021 cumulative IPC: 0.5966 (Simulation time: 00 hr 21 min 30 sec)
Heartbeat CPU 0 instructions: 135500717 cycles: 156015542 heartbeat IPC: 1.699 cumulative IPC: 0.5988 (Simulation time: 00 hr 21 min 32 sec)
Heartbeat CPU 0 instructions: 136000720 cycles: 156344132 heartbeat IPC: 1.522 cumulative IPC: 0.601 (Simulation time: 00 hr 21 min 35 sec)
Heartbeat CPU 0 instructions: 136500723 cycles: 157438554 heartbeat IPC: 0.4569 cumulative IPC: 0.5999 (Simulation time: 00 hr 21 min 43 sec)
Heartbeat CPU 0 instructions: 137000723 cycles: 158406020 heartbeat IPC: 0.5168 cumulative IPC: 0.5993 (Simulation time: 00 hr 21 min 50 sec)
Heartbeat CPU 0 instructions: 137500725 cycles: 158823136 heartbeat IPC: 1.199 cumulative IPC: 0.601 (Simulation time: 00 hr 21 min 53 sec)
Heartbeat CPU 0 instructions: 138000725 cycles: 159140391 heartbeat IPC: 1.576 cumulative IPC: 0.6032 (Simulation time: 00 hr 21 min 56 sec)
Heartbeat CPU 0 instructions: 138500725 cycles: 159536690 heartbeat IPC: 1.262 cumulative IPC: 0.6049 (Simulation time: 00 hr 22 min 00 sec)
Heartbeat CPU 0 instructions: 139000725 cycles: 160198396 heartbeat IPC: 0.7556 cumulative IPC: 0.6056 (Simulation time: 00 hr 22 min 05 sec)
Heartbeat CPU 0 instructions: 139500725 cycles: 160908634 heartbeat IPC: 0.704 cumulative IPC: 0.6061 (Simulation time: 00 hr 22 min 10 sec)
Heartbeat CPU 0 instructions: 140000725 cycles: 162184974 heartbeat IPC: 0.3917 cumulative IPC: 0.6043 (Simulation time: 00 hr 22 min 19 sec)
Heartbeat CPU 0 instructions: 140500727 cycles: 163889465 heartbeat IPC: 0.2933 cumulative IPC: 0.6007 (Simulation time: 00 hr 22 min 30 sec)
Heartbeat CPU 0 instructions: 141000729 cycles: 165275976 heartbeat IPC: 0.3606 cumulative IPC: 0.5985 (Simulation time: 00 hr 22 min 39 sec)
Heartbeat CPU 0 instructions: 141500729 cycles: 166121998 heartbeat IPC: 0.591 cumulative IPC: 0.5985 (Simulation time: 00 hr 22 min 46 sec)
Heartbeat CPU 0 instructions: 142000732 cycles: 166981718 heartbeat IPC: 0.5816 cumulative IPC: 0.5984 (Simulation time: 00 hr 22 min 52 sec)
Heartbeat CPU 0 instructions: 142500732 cycles: 167724481 heartbeat IPC: 0.6732 cumulative IPC: 0.5988 (Simulation time: 00 hr 22 min 57 sec)
Heartbeat CPU 0 instructions: 143000732 cycles: 169459658 heartbeat IPC: 0.2882 cumulative IPC: 0.5953 (Simulation time: 00 hr 23 min 09 sec)
Heartbeat CPU 0 instructions: 143500737 cycles: 170725992 heartbeat IPC: 0.3948 cumulative IPC: 0.5937 (Simulation time: 00 hr 23 min 17 sec)
Heartbeat CPU 0 instructions: 144000737 cycles: 171873275 heartbeat IPC: 0.4358 cumulative IPC: 0.5926 (Simulation time: 00 hr 23 min 25 sec)
Heartbeat CPU 0 instructions: 144500742 cycles: 172568080 heartbeat IPC: 0.7196 cumulative IPC: 0.5931 (Simulation time: 00 hr 23 min 30 sec)
Heartbeat CPU 0 instructions: 145000742 cycles: 173863658 heartbeat IPC: 0.3859 cumulative IPC: 0.5914 (Simulation time: 00 hr 23 min 39 sec)
Heartbeat CPU 0 instructions: 145500749 cycles: 174579381 heartbeat IPC: 0.6986 cumulative IPC: 0.5919 (Simulation time: 00 hr 23 min 44 sec)
Heartbeat CPU 0 instructions: 146000749 cycles: 175881088 heartbeat IPC: 0.3841 cumulative IPC: 0.5903 (Simulation time: 00 hr 23 min 52 sec)
Heartbeat CPU 0 instructions: 146500752 cycles: 177153797 heartbeat IPC: 0.3929 cumulative IPC: 0.5887 (Simulation time: 00 hr 24 min 01 sec)
Heartbeat CPU 0 instructions: 147000753 cycles: 177990492 heartbeat IPC: 0.5976 cumulative IPC: 0.5888 (Simulation time: 00 hr 24 min 07 sec)
Heartbeat CPU 0 instructions: 147500753 cycles: 178857469 heartbeat IPC: 0.5767 cumulative IPC: 0.5887 (Simulation time: 00 hr 24 min 13 sec)
Heartbeat CPU 0 instructions: 148000753 cycles: 180373063 heartbeat IPC: 0.3299 cumulative IPC: 0.5864 (Simulation time: 00 hr 24 min 23 sec)
Heartbeat CPU 0 instructions: 148500754 cycles: 181258945 heartbeat IPC: 0.5644 cumulative IPC: 0.5862 (Simulation time: 00 hr 24 min 29 sec)
Heartbeat CPU 0 instructions: 149000759 cycles: 182551236 heartbeat IPC: 0.3869 cumulative IPC: 0.5847 (Simulation time: 00 hr 24 min 37 sec)
Heartbeat CPU 0 instructions: 149500762 cycles: 184058206 heartbeat IPC: 0.3318 cumulative IPC: 0.5825 (Simulation time: 00 hr 24 min 47 sec)
Heartbeat CPU 0 instructions: 150000768 cycles: 185271068 heartbeat IPC: 0.4123 cumulative IPC: 0.5813 (Simulation time: 00 hr 24 min 55 sec)
Heartbeat CPU 0 instructions: 150500771 cycles: 186127312 heartbeat IPC: 0.5839 cumulative IPC: 0.5813 (Simulation time: 00 hr 25 min 01 sec)
Heartbeat CPU 0 instructions: 151000771 cycles: 186781506 heartbeat IPC: 0.7643 cumulative IPC: 0.582 (Simulation time: 00 hr 25 min 06 sec)
Heartbeat CPU 0 instructions: 151500773 cycles: 187182316 heartbeat IPC: 1.247 cumulative IPC: 0.5835 (Simulation time: 00 hr 25 min 09 sec)
Heartbeat CPU 0 instructions: 152000774 cycles: 187711414 heartbeat IPC: 0.945 cumulative IPC: 0.5846 (Simulation time: 00 hr 25 min 13 sec)
Heartbeat CPU 0 instructions: 152500774 cycles: 188033113 heartbeat IPC: 1.554 cumulative IPC: 0.5864 (Simulation time: 00 hr 25 min 16 sec)
Heartbeat CPU 0 instructions: 153000779 cycles: 188272739 heartbeat IPC: 2.087 cumulative IPC: 0.5885 (Simulation time: 00 hr 25 min 18 sec)
Heartbeat CPU 0 instructions: 153500779 cycles: 188684987 heartbeat IPC: 1.213 cumulative IPC: 0.5899 (Simulation time: 00 hr 25 min 22 sec)
Heartbeat CPU 0 instructions: 154000781 cycles: 189498093 heartbeat IPC: 0.6149 cumulative IPC: 0.59 (Simulation time: 00 hr 25 min 28 sec)
Heartbeat CPU 0 instructions: 154500786 cycles: 191198530 heartbeat IPC: 0.294 cumulative IPC: 0.5872 (Simulation time: 00 hr 25 min 39 sec)
Heartbeat CPU 0 instructions: 155000788 cycles: 192329382 heartbeat IPC: 0.4421 cumulative IPC: 0.5863 (Simulation time: 00 hr 25 min 47 sec)
Heartbeat CPU 0 instructions: 155500793 cycles: 192896277 heartbeat IPC: 0.882 cumulative IPC: 0.5872 (Simulation time: 00 hr 25 min 51 sec)
Heartbeat CPU 0 instructions: 156000797 cycles: 193602022 heartbeat IPC: 0.7085 cumulative IPC: 0.5877 (Simulation time: 00 hr 25 min 56 sec)
Heartbeat CPU 0 instructions: 156500798 cycles: 194191779 heartbeat IPC: 0.8478 cumulative IPC: 0.5886 (Simulation time: 00 hr 26 min 00 sec)
Heartbeat CPU 0 instructions: 157000798 cycles: 195453735 heartbeat IPC: 0.3962 cumulative IPC: 0.5872 (Simulation time: 00 hr 26 min 08 sec)
Heartbeat CPU 0 instructions: 157500798 cycles: 196252896 heartbeat IPC: 0.6257 cumulative IPC: 0.5874 (Simulation time: 00 hr 26 min 14 sec)
Heartbeat CPU 0 instructions: 158000804 cycles: 197475808 heartbeat IPC: 0.4089 cumulative IPC: 0.5862 (Simulation time: 00 hr 26 min 22 sec)
Heartbeat CPU 0 instructions: 158500806 cycles: 198255821 heartbeat IPC: 0.641 cumulative IPC: 0.5864 (Simulation time: 00 hr 26 min 28 sec)
Heartbeat CPU 0 instructions: 159000812 cycles: 198947433 heartbeat IPC: 0.723 cumulative IPC: 0.5869 (Simulation time: 00 hr 26 min 32 sec)
Heartbeat CPU 0 instructions: 159500813 cycles: 199471397 heartbeat IPC: 0.9543 cumulative IPC: 0.588 (Simulation time: 00 hr 26 min 36 sec)
Heartbeat CPU 0 instructions: 160000813 cycles: 200540063 heartbeat IPC: 0.4679 cumulative IPC: 0.5873 (Simulation time: 00 hr 26 min 43 sec)
Heartbeat CPU 0 instructions: 160500813 cycles: 201367748 heartbeat IPC: 0.6041 cumulative IPC: 0.5874 (Simulation time: 00 hr 26 min 49 sec)
Heartbeat CPU 0 instructions: 161000818 cycles: 201977256 heartbeat IPC: 0.8203 cumulative IPC: 0.5881 (Simulation time: 00 hr 26 min 53 sec)
Heartbeat CPU 0 instructions: 161500825 cycles: 202357165 heartbeat IPC: 1.316 cumulative IPC: 0.5896 (Simulation time: 00 hr 26 min 57 sec)
Heartbeat CPU 0 instructions: 162000827 cycles: 202892081 heartbeat IPC: 0.9347 cumulative IPC: 0.5906 (Simulation time: 00 hr 27 min 00 sec)
Heartbeat CPU 0 instructions: 162500831 cycles: 203159558 heartbeat IPC: 1.869 cumulative IPC: 0.5924 (Simulation time: 00 hr 27 min 03 sec)
Heartbeat CPU 0 instructions: 163000834 cycles: 203712554 heartbeat IPC: 0.9042 cumulative IPC: 0.5933 (Simulation time: 00 hr 27 min 07 sec)
Heartbeat CPU 0 instructions: 163500836 cycles: 204748812 heartbeat IPC: 0.4825 cumulative IPC: 0.5927 (Simulation time: 00 hr 27 min 14 sec)
Heartbeat CPU 0 instructions: 164000843 cycles: 206192073 heartbeat IPC: 0.3464 cumulative IPC: 0.5908 (Simulation time: 00 hr 27 min 23 sec)
Heartbeat CPU 0 instructions: 164500843 cycles: 207464206 heartbeat IPC: 0.393 cumulative IPC: 0.5895 (Simulation time: 00 hr 27 min 32 sec)
Heartbeat CPU 0 instructions: 165000845 cycles: 209144988 heartbeat IPC: 0.2975 cumulative IPC: 0.587 (Simulation time: 00 hr 27 min 42 sec)
Heartbeat CPU 0 instructions: 165500845 cycles: 210762258 heartbeat IPC: 0.3092 cumulative IPC: 0.5847 (Simulation time: 00 hr 27 min 52 sec)
Heartbeat CPU 0 instructions: 166000847 cycles: 211816037 heartbeat IPC: 0.4745 cumulative IPC: 0.5842 (Simulation time: 00 hr 27 min 59 sec)
Heartbeat CPU 0 instructions: 166500847 cycles: 212346055 heartbeat IPC: 0.9434 cumulative IPC: 0.5851 (Simulation time: 00 hr 28 min 02 sec)
Heartbeat CPU 0 instructions: 167000850 cycles: 212953895 heartbeat IPC: 0.8226 cumulative IPC: 0.5858 (Simulation time: 00 hr 28 min 07 sec)
Heartbeat CPU 0 instructions: 167500852 cycles: 214117561 heartbeat IPC: 0.4297 cumulative IPC: 0.5849 (Simulation time: 00 hr 28 min 14 sec)
Heartbeat CPU 0 instructions: 168000852 cycles: 214867537 heartbeat IPC: 0.6667 cumulative IPC: 0.5852 (Simulation time: 00 hr 28 min 19 sec)
Heartbeat CPU 0 instructions: 168500852 cycles: 216183820 heartbeat IPC: 0.3799 cumulative IPC: 0.5839 (Simulation time: 00 hr 28 min 28 sec)
Heartbeat CPU 0 instructions: 169000852 cycles: 217052566 heartbeat IPC: 0.5755 cumulative IPC: 0.5839 (Simulation time: 00 hr 28 min 33 sec)
Heartbeat CPU 0 instructions: 169500853 cycles: 217962525 heartbeat IPC: 0.5495 cumulative IPC: 0.5837 (Simulation time: 00 hr 28 min 39 sec)
Heartbeat CPU 0 instructions: 170000853 cycles: 219144419 heartbeat IPC: 0.423 cumulative IPC: 0.5828 (Simulation time: 00 hr 28 min 47 sec)
Heartbeat CPU 0 instructions: 170500853 cycles: 220396356 heartbeat IPC: 0.3994 cumulative IPC: 0.5817 (Simulation time: 00 hr 28 min 54 sec)
Heartbeat CPU 0 instructions: 171000857 cycles: 220968916 heartbeat IPC: 0.8733 cumulative IPC: 0.5825 (Simulation time: 00 hr 28 min 59 sec)
Heartbeat CPU 0 instructions: 171500862 cycles: 222220376 heartbeat IPC: 0.3995 cumulative IPC: 0.5814 (Simulation time: 00 hr 29 min 07 sec)
Heartbeat CPU 0 instructions: 172000862 cycles: 223420500 heartbeat IPC: 0.4166 cumulative IPC: 0.5805 (Simulation time: 00 hr 29 min 14 sec)
Heartbeat CPU 0 instructions: 172500869 cycles: 225158134 heartbeat IPC: 0.2878 cumulative IPC: 0.5781 (Simulation time: 00 hr 29 min 25 sec)
Heartbeat CPU 0 instructions: 173000870 cycles: 225713720 heartbeat IPC: 0.9 cumulative IPC: 0.5789 (Simulation time: 00 hr 29 min 29 sec)
Heartbeat CPU 0 instructions: 173500870 cycles: 227091783 heartbeat IPC: 0.3628 cumulative IPC: 0.5775 (Simulation time: 00 hr 29 min 38 sec)
Heartbeat CPU 0 instructions: 174000872 cycles: 227872593 heartbeat IPC: 0.6404 cumulative IPC: 0.5777 (Simulation time: 00 hr 29 min 43 sec)
Heartbeat CPU 0 instructions: 174500876 cycles: 228188911 heartbeat IPC: 1.581 cumulative IPC: 0.5792 (Simulation time: 00 hr 29 min 46 sec)
Heartbeat CPU 0 instructions: 175000876 cycles: 228547996 heartbeat IPC: 1.392 cumulative IPC: 0.5806 (Simulation time: 00 hr 29 min 49 sec)
Heartbeat CPU 0 instructions: 175500879 cycles: 229306167 heartbeat IPC: 0.6595 cumulative IPC: 0.5808 (Simulation time: 00 hr 29 min 54 sec)
Heartbeat CPU 0 instructions: 176000879 cycles: 230721130 heartbeat IPC: 0.3534 cumulative IPC: 0.5794 (Simulation time: 00 hr 30 min 02 sec)
Heartbeat CPU 0 instructions: 176500879 cycles: 231777046 heartbeat IPC: 0.4735 cumulative IPC: 0.5789 (Simulation time: 00 hr 30 min 09 sec)
Heartbeat CPU 0 instructions: 177000884 cycles: 232840406 heartbeat IPC: 0.4702 cumulative IPC: 0.5783 (Simulation time: 00 hr 30 min 16 sec)
Heartbeat CPU 0 instructions: 177500887 cycles: 233710670 heartbeat IPC: 0.5745 cumulative IPC: 0.5783 (Simulation time: 00 hr 30 min 22 sec)
Heartbeat CPU 0 instructions: 178000887 cycles: 235012960 heartbeat IPC: 0.3839 cumulative IPC: 0.5772 (Simulation time: 00 hr 30 min 30 sec)
Heartbeat CPU 0 instructions: 178500888 cycles: 236039588 heartbeat IPC: 0.487 cumulative IPC: 0.5768 (Simulation time: 00 hr 30 min 37 sec)
Heartbeat CPU 0 instructions: 179000889 cycles: 237581299 heartbeat IPC: 0.3243 cumulative IPC: 0.575 (Simulation time: 00 hr 30 min 46 sec)
Heartbeat CPU 0 instructions: 179500889 cycles: 238808376 heartbeat IPC: 0.4075 cumulative IPC: 0.5741 (Simulation time: 00 hr 30 min 54 sec)
Heartbeat CPU 0 instructions: 180000893 cycles: 239776980 heartbeat IPC: 0.5162 cumulative IPC: 0.5739 (Simulation time: 00 hr 31 min 01 sec)
Heartbeat CPU 0 instructions: 180500894 cycles: 240433420 heartbeat IPC: 0.7617 cumulative IPC: 0.5744 (Simulation time: 00 hr 31 min 05 sec)
Heartbeat CPU 0 instructions: 181000894 cycles: 241113894 heartbeat IPC: 0.7348 cumulative IPC: 0.5749 (Simulation time: 00 hr 31 min 10 sec)
Heartbeat CPU 0 instructions: 181500894 cycles: 241517486 heartbeat IPC: 1.239 cumulative IPC: 0.5761 (Simulation time: 00 hr 31 min 13 sec)
Heartbeat CPU 0 instructions: 182000895 cycles: 243025262 heartbeat IPC: 0.3316 cumulative IPC: 0.5745 (Simulation time: 00 hr 31 min 23 sec)
Heartbeat CPU 0 instructions: 182500895 cycles: 244472285 heartbeat IPC: 0.3455 cumulative IPC: 0.573 (Simulation time: 00 hr 31 min 32 sec)
Heartbeat CPU 0 instructions: 183000900 cycles: 246058283 heartbeat IPC: 0.3153 cumulative IPC: 0.5713 (Simulation time: 00 hr 31 min 41 sec)
Heartbeat CPU 0 instructions: 183500900 cycles: 246661503 heartbeat IPC: 0.8289 cumulative IPC: 0.5719 (Simulation time: 00 hr 31 min 45 sec)
Heartbeat CPU 0 instructions: 184000906 cycles: 247266761 heartbeat IPC: 0.8261 cumulative IPC: 0.5726 (Simulation time: 00 hr 31 min 50 sec)
Heartbeat CPU 0 instructions: 184500910 cycles: 247517248 heartbeat IPC: 1.996 cumulative IPC: 0.5741 (Simulation time: 00 hr 31 min 52 sec)
Heartbeat CPU 0 instructions: 185000910 cycles: 247921110 heartbeat IPC: 1.238 cumulative IPC: 0.5753 (Simulation time: 00 hr 31 min 55 sec)
Heartbeat CPU 0 instructions: 185500910 cycles: 248873645 heartbeat IPC: 0.5249 cumulative IPC: 0.575 (Simulation time: 00 hr 32 min 02 sec)
Heartbeat CPU 0 instructions: 186000910 cycles: 250346313 heartbeat IPC: 0.3395 cumulative IPC: 0.5736 (Simulation time: 00 hr 32 min 11 sec)
Heartbeat CPU 0 instructions: 186500912 cycles: 251269070 heartbeat IPC: 0.5419 cumulative IPC: 0.5735 (Simulation time: 00 hr 32 min 17 sec)
Heartbeat CPU 0 instructions: 187000913 cycles: 252381619 heartbeat IPC: 0.4494 cumulative IPC: 0.5729 (Simulation time: 00 hr 32 min 24 sec)
Heartbeat CPU 0 instructions: 187500918 cycles: 253156833 heartbeat IPC: 0.645 cumulative IPC: 0.5731 (Simulation time: 00 hr 32 min 29 sec)
Heartbeat CPU 0 instructions: 188000918 cycles: 253892656 heartbeat IPC: 0.6795 cumulative IPC: 0.5734 (Simulation time: 00 hr 32 min 34 sec)
Heartbeat CPU 0 instructions: 188500918 cycles: 254878936 heartbeat IPC: 0.507 cumulative IPC: 0.5732 (Simulation time: 00 hr 32 min 40 sec)
Heartbeat CPU 0 instructions: 189000919 cycles: 256179073 heartbeat IPC: 0.3846 cumulative IPC: 0.5722 (Simulation time: 00 hr 32 min 48 sec)
Heartbeat CPU 0 instructions: 189500921 cycles: 256833529 heartbeat IPC: 0.764 cumulative IPC: 0.5727 (Simulation time: 00 hr 32 min 53 sec)
Heartbeat CPU 0 instructions: 190000928 cycles: 257728168 heartbeat IPC: 0.5589 cumulative IPC: 0.5726 (Simulation time: 00 hr 32 min 58 sec)
Heartbeat CPU 0 instructions: 190500930 cycles: 258623658 heartbeat IPC: 0.5584 cumulative IPC: 0.5726 (Simulation time: 00 hr 33 min 04 sec)
Heartbeat CPU 0 instructions: 191000930 cycles: 259110485 heartbeat IPC: 1.027 cumulative IPC: 0.5735 (Simulation time: 00 hr 33 min 08 sec)
Heartbeat CPU 0 instructions: 191500930 cycles: 259476526 heartbeat IPC: 1.366 cumulative IPC: 0.5747 (Simulation time: 00 hr 33 min 11 sec)
Heartbeat CPU 0 instructions: 192000934 cycles: 259967796 heartbeat IPC: 1.018 cumulative IPC: 0.5755 (Simulation time: 00 hr 33 min 14 sec)
Heartbeat CPU 0 instructions: 192500935 cycles: 261138591 heartbeat IPC: 0.4271 cumulative IPC: 0.5748 (Simulation time: 00 hr 33 min 21 sec)
Heartbeat CPU 0 instructions: 193000939 cycles: 261986459 heartbeat IPC: 0.5897 cumulative IPC: 0.5749 (Simulation time: 00 hr 33 min 27 sec)
Heartbeat CPU 0 instructions: 193500940 cycles: 262715002 heartbeat IPC: 0.6863 cumulative IPC: 0.5752 (Simulation time: 00 hr 33 min 32 sec)
Heartbeat CPU 0 instructions: 194000940 cycles: 263069330 heartbeat IPC: 1.411 cumulative IPC: 0.5764 (Simulation time: 00 hr 33 min 35 sec)
Heartbeat CPU 0 instructions: 194500945 cycles: 263508676 heartbeat IPC: 1.138 cumulative IPC: 0.5774 (Simulation time: 00 hr 33 min 38 sec)
Heartbeat CPU 0 instructions: 195000946 cycles: 264338959 heartbeat IPC: 0.6022 cumulative IPC: 0.5775 (Simulation time: 00 hr 33 min 44 sec)
Heartbeat CPU 0 instructions: 195500946 cycles: 265418437 heartbeat IPC: 0.4632 cumulative IPC: 0.577 (Simulation time: 00 hr 33 min 51 sec)
Heartbeat CPU 0 instructions: 196000950 cycles: 266076576 heartbeat IPC: 0.7597 cumulative IPC: 0.5774 (Simulation time: 00 hr 33 min 55 sec)
Heartbeat CPU 0 instructions: 196500951 cycles: 266632336 heartbeat IPC: 0.8997 cumulative IPC: 0.5782 (Simulation time: 00 hr 33 min 59 sec)
Heartbeat CPU 0 instructions: 197000955 cycles: 267581450 heartbeat IPC: 0.5268 cumulative IPC: 0.578 (Simulation time: 00 hr 34 min 05 sec)
Heartbeat CPU 0 instructions: 197500955 cycles: 269289988 heartbeat IPC: 0.2926 cumulative IPC: 0.5761 (Simulation time: 00 hr 34 min 16 sec)
Heartbeat CPU 0 instructions: 198000956 cycles: 270389103 heartbeat IPC: 0.4549 cumulative IPC: 0.5755 (Simulation time: 00 hr 34 min 23 sec)
Heartbeat CPU 0 instructions: 198500957 cycles: 271837574 heartbeat IPC: 0.3452 cumulative IPC: 0.5743 (Simulation time: 00 hr 34 min 32 sec)
Heartbeat CPU 0 instructions: 199000960 cycles: 273054529 heartbeat IPC: 0.4109 cumulative IPC: 0.5735 (Simulation time: 00 hr 34 min 40 sec)
Heartbeat CPU 0 instructions: 199500962 cycles: 273904929 heartbeat IPC: 0.588 cumulative IPC: 0.5735 (Simulation time: 00 hr 34 min 46 sec)
Heartbeat CPU 0 instructions: 200000962 cycles: 274934874 heartbeat IPC: 0.4855 cumulative IPC: 0.5732 (Simulation time: 00 hr 34 min 53 sec)
Heartbeat CPU 0 instructions: 200500962 cycles: 275765131 heartbeat IPC: 0.6022 cumulative IPC: 0.5733 (Simulation time: 00 hr 34 min 58 sec)
Heartbeat CPU 0 instructions: 201000966 cycles: 276711615 heartbeat IPC: 0.5283 cumulative IPC: 0.5731 (Simulation time: 00 hr 35 min 04 sec)
Heartbeat CPU 0 instructions: 201500973 cycles: 277866047 heartbeat IPC: 0.4331 cumulative IPC: 0.5725 (Simulation time: 00 hr 35 min 12 sec)
Heartbeat CPU 0 instructions: 202000974 cycles: 278816807 heartbeat IPC: 0.5259 cumulative IPC: 0.5723 (Simulation time: 00 hr 35 min 18 sec)
Heartbeat CPU 0 instructions: 202500974 cycles: 279088754 heartbeat IPC: 1.839 cumulative IPC: 0.5736 (Simulation time: 00 hr 35 min 20 sec)
Heartbeat CPU 0 instructions: 203000975 cycles: 279658612 heartbeat IPC: 0.8774 cumulative IPC: 0.5743 (Simulation time: 00 hr 35 min 24 sec)
Heartbeat CPU 0 instructions: 203500982 cycles: 280005881 heartbeat IPC: 1.44 cumulative IPC: 0.5754 (Simulation time: 00 hr 35 min 27 sec)
Heartbeat CPU 0 instructions: 204000987 cycles: 280648066 heartbeat IPC: 0.7786 cumulative IPC: 0.5759 (Simulation time: 00 hr 35 min 31 sec)
Heartbeat CPU 0 instructions: 204500992 cycles: 281677683 heartbeat IPC: 0.4856 cumulative IPC: 0.5756 (Simulation time: 00 hr 35 min 38 sec)
Heartbeat CPU 0 instructions: 205000995 cycles: 282445567 heartbeat IPC: 0.6511 cumulative IPC: 0.5758 (Simulation time: 00 hr 35 min 43 sec)
Heartbeat CPU 0 instructions: 205500996 cycles: 283749230 heartbeat IPC: 0.3835 cumulative IPC: 0.5748 (Simulation time: 00 hr 35 min 52 sec)
Heartbeat CPU 0 instructions: 206000997 cycles: 284626424 heartbeat IPC: 0.57 cumulative IPC: 0.5748 (Simulation time: 00 hr 35 min 58 sec)
Heartbeat CPU 0 instructions: 206501000 cycles: 285490328 heartbeat IPC: 0.5788 cumulative IPC: 0.5748 (Simulation time: 00 hr 36 min 03 sec)
Heartbeat CPU 0 instructions: 207001007 cycles: 286786614 heartbeat IPC: 0.3857 cumulative IPC: 0.5739 (Simulation time: 00 hr 36 min 11 sec)
Heartbeat CPU 0 instructions: 207501008 cycles: 287562807 heartbeat IPC: 0.6442 cumulative IPC: 0.5741 (Simulation time: 00 hr 36 min 16 sec)
Heartbeat CPU 0 instructions: 208001009 cycles: 287972277 heartbeat IPC: 1.221 cumulative IPC: 0.5751 (Simulation time: 00 hr 36 min 19 sec)
Heartbeat CPU 0 instructions: 208501011 cycles: 288439963 heartbeat IPC: 1.069 cumulative IPC: 0.5759 (Simulation time: 00 hr 36 min 23 sec)
Heartbeat CPU 0 instructions: 209001014 cycles: 288949056 heartbeat IPC: 0.9821 cumulative IPC: 0.5767 (Simulation time: 00 hr 36 min 27 sec)
Heartbeat CPU 0 instructions: 209501016 cycles: 289431712 heartbeat IPC: 1.036 cumulative IPC: 0.5775 (Simulation time: 00 hr 36 min 30 sec)
Heartbeat CPU 0 instructions: 210001023 cycles: 290151405 heartbeat IPC: 0.6948 cumulative IPC: 0.5778 (Simulation time: 00 hr 36 min 36 sec)
Heartbeat CPU 0 instructions: 210501028 cycles: 290733473 heartbeat IPC: 0.859 cumulative IPC: 0.5784 (Simulation time: 00 hr 36 min 40 sec)
Heartbeat CPU 0 instructions: 211001028 cycles: 291372485 heartbeat IPC: 0.7825 cumulative IPC: 0.5789 (Simulation time: 00 hr 36 min 44 sec)
Heartbeat CPU 0 instructions: 211501029 cycles: 291861538 heartbeat IPC: 1.022 cumulative IPC: 0.5796 (Simulation time: 00 hr 36 min 48 sec)
Heartbeat CPU 0 instructions: 212001033 cycles: 292316043 heartbeat IPC: 1.1 cumulative IPC: 0.5805 (Simulation time: 00 hr 36 min 51 sec)
Heartbeat CPU 0 instructions: 212501033 cycles: 292751951 heartbeat IPC: 1.147 cumulative IPC: 0.5814 (Simulation time: 00 hr 36 min 55 sec)
Heartbeat CPU 0 instructions: 213001037 cycles: 293980096 heartbeat IPC: 0.4071 cumulative IPC: 0.5806 (Simulation time: 00 hr 37 min 02 sec)
Heartbeat CPU 0 instructions: 213501041 cycles: 294689686 heartbeat IPC: 0.7046 cumulative IPC: 0.5809 (Simulation time: 00 hr 37 min 07 sec)
Heartbeat CPU 0 instructions: 214001043 cycles: 295542002 heartbeat IPC: 0.5866 cumulative IPC: 0.5809 (Simulation time: 00 hr 37 min 13 sec)
Heartbeat CPU 0 instructions: 214501045 cycles: 296895405 heartbeat IPC: 0.3694 cumulative IPC: 0.5799 (Simulation time: 00 hr 37 min 21 sec)
Heartbeat CPU 0 instructions: 215001052 cycles: 297790081 heartbeat IPC: 0.5589 cumulative IPC: 0.5799 (Simulation time: 00 hr 37 min 27 sec)
Heartbeat CPU 0 instructions: 215501052 cycles: 298777956 heartbeat IPC: 0.5061 cumulative IPC: 0.5796 (Simulation time: 00 hr 37 min 33 sec)
Heartbeat CPU 0 instructions: 216001053 cycles: 300489336 heartbeat IPC: 0.2922 cumulative IPC: 0.5779 (Simulation time: 00 hr 37 min 44 sec)
Heartbeat CPU 0 instructions: 216501055 cycles: 301753128 heartbeat IPC: 0.3956 cumulative IPC: 0.5771 (Simulation time: 00 hr 37 min 52 sec)
Heartbeat CPU 0 instructions: 217001055 cycles: 302543818 heartbeat IPC: 0.6324 cumulative IPC: 0.5772 (Simulation time: 00 hr 37 min 57 sec)
Heartbeat CPU 0 instructions: 217501059 cycles: 303404007 heartbeat IPC: 0.5813 cumulative IPC: 0.5773 (Simulation time: 00 hr 38 min 03 sec)
Heartbeat CPU 0 instructions: 218001059 cycles: 304412077 heartbeat IPC: 0.496 cumulative IPC: 0.577 (Simulation time: 00 hr 38 min 09 sec)
Heartbeat CPU 0 instructions: 218501060 cycles: 305088943 heartbeat IPC: 0.7387 cumulative IPC: 0.5774 (Simulation time: 00 hr 38 min 14 sec)
Heartbeat CPU 0 instructions: 219001061 cycles: 306237315 heartbeat IPC: 0.4354 cumulative IPC: 0.5768 (Simulation time: 00 hr 38 min 21 sec)
Heartbeat CPU 0 instructions: 219501067 cycles: 307079817 heartbeat IPC: 0.5935 cumulative IPC: 0.5768 (Simulation time: 00 hr 38 min 27 sec)
Heartbeat CPU 0 instructions: 220001073 cycles: 308182694 heartbeat IPC: 0.4534 cumulative IPC: 0.5764 (Simulation time: 00 hr 38 min 35 sec)
Heartbeat CPU 0 instructions: 220501076 cycles: 308955009 heartbeat IPC: 0.6474 cumulative IPC: 0.5766 (Simulation time: 00 hr 38 min 40 sec)
Heartbeat CPU 0 instructions: 221001079 cycles: 309551120 heartbeat IPC: 0.8388 cumulative IPC: 0.5771 (Simulation time: 00 hr 38 min 44 sec)
Heartbeat CPU 0 instructions: 221501084 cycles: 310113826 heartbeat IPC: 0.8886 cumulative IPC: 0.5777 (Simulation time: 00 hr 38 min 48 sec)
Heartbeat CPU 0 instructions: 222001086 cycles: 310808908 heartbeat IPC: 0.7193 cumulative IPC: 0.578 (Simulation time: 00 hr 38 min 53 sec)
Heartbeat CPU 0 instructions: 222501090 cycles: 312232704 heartbeat IPC: 0.3512 cumulative IPC: 0.5769 (Simulation time: 00 hr 39 min 02 sec)
Heartbeat CPU 0 instructions: 223001094 cycles: 313869593 heartbeat IPC: 0.3055 cumulative IPC: 0.5755 (Simulation time: 00 hr 39 min 12 sec)
Heartbeat CPU 0 instructions: 223501095 cycles: 314416494 heartbeat IPC: 0.9142 cumulative IPC: 0.5761 (Simulation time: 00 hr 39 min 17 sec)
Heartbeat CPU 0 instructions: 224001097 cycles: 314943084 heartbeat IPC: 0.9495 cumulative IPC: 0.5767 (Simulation time: 00 hr 39 min 20 sec)
Heartbeat CPU 0 instructions: 224501098 cycles: 315981575 heartbeat IPC: 0.4815 cumulative IPC: 0.5764 (Simulation time: 00 hr 39 min 27 sec)
Heartbeat CPU 0 instructions: 225001100 cycles: 317264432 heartbeat IPC: 0.3898 cumulative IPC: 0.5756 (Simulation time: 00 hr 39 min 35 sec)
Heartbeat CPU 0 instructions: 225501100 cycles: 318071848 heartbeat IPC: 0.6193 cumulative IPC: 0.5757 (Simulation time: 00 hr 39 min 41 sec)
Heartbeat CPU 0 instructions: 226001102 cycles: 318782099 heartbeat IPC: 0.704 cumulative IPC: 0.576 (Simulation time: 00 hr 39 min 45 sec)
Heartbeat CPU 0 instructions: 226501105 cycles: 320220655 heartbeat IPC: 0.3476 cumulative IPC: 0.575 (Simulation time: 00 hr 39 min 54 sec)
Heartbeat CPU 0 instructions: 227001107 cycles: 321159568 heartbeat IPC: 0.5325 cumulative IPC: 0.5748 (Simulation time: 00 hr 40 min 01 sec)
Heartbeat CPU 0 instructions: 227501108 cycles: 321900247 heartbeat IPC: 0.6751 cumulative IPC: 0.5751 (Simulation time: 00 hr 40 min 05 sec)
Heartbeat CPU 0 instructions: 228001113 cycles: 322455830 heartbeat IPC: 0.9 cumulative IPC: 0.5757 (Simulation time: 00 hr 40 min 10 sec)
Heartbeat CPU 0 instructions: 228501119 cycles: 323651561 heartbeat IPC: 0.4182 cumulative IPC: 0.575 (Simulation time: 00 hr 40 min 17 sec)
Heartbeat CPU 0 instructions: 229001123 cycles: 324866984 heartbeat IPC: 0.4114 cumulative IPC: 0.5744 (Simulation time: 00 hr 40 min 25 sec)
Heartbeat CPU 0 instructions: 229501123 cycles: 325507049 heartbeat IPC: 0.7812 cumulative IPC: 0.5748 (Simulation time: 00 hr 40 min 29 sec)
Heartbeat CPU 0 instructions: 230001123 cycles: 326271444 heartbeat IPC: 0.6541 cumulative IPC: 0.575 (Simulation time: 00 hr 40 min 34 sec)
Heartbeat CPU 0 instructions: 230501123 cycles: 327592099 heartbeat IPC: 0.3786 cumulative IPC: 0.5742 (Simulation time: 00 hr 40 min 43 sec)
Heartbeat CPU 0 instructions: 231001123 cycles: 328352850 heartbeat IPC: 0.6572 cumulative IPC: 0.5744 (Simulation time: 00 hr 40 min 48 sec)
Heartbeat CPU 0 instructions: 231501128 cycles: 329044137 heartbeat IPC: 0.7233 cumulative IPC: 0.5747 (Simulation time: 00 hr 40 min 52 sec)
Heartbeat CPU 0 instructions: 232001134 cycles: 329845445 heartbeat IPC: 0.624 cumulative IPC: 0.5748 (Simulation time: 00 hr 40 min 58 sec)
Heartbeat CPU 0 instructions: 232501136 cycles: 330398160 heartbeat IPC: 0.9046 cumulative IPC: 0.5754 (Simulation time: 00 hr 41 min 02 sec)
Heartbeat CPU 0 instructions: 233001141 cycles: 330912609 heartbeat IPC: 0.9719 cumulative IPC: 0.5761 (Simulation time: 00 hr 41 min 06 sec)
Heartbeat CPU 0 instructions: 233501142 cycles: 331821726 heartbeat IPC: 0.55 cumulative IPC: 0.576 (Simulation time: 00 hr 41 min 11 sec)
Heartbeat CPU 0 instructions: 234001143 cycles: 333569612 heartbeat IPC: 0.2861 cumulative IPC: 0.5744 (Simulation time: 00 hr 41 min 22 sec)
Heartbeat CPU 0 instructions: 234501143 cycles: 334579848 heartbeat IPC: 0.4949 cumulative IPC: 0.5742 (Simulation time: 00 hr 41 min 29 sec)
Heartbeat CPU 0 instructions: 235001143 cycles: 335603461 heartbeat IPC: 0.4885 cumulative IPC: 0.5739 (Simulation time: 00 hr 41 min 36 sec)
Heartbeat CPU 0 instructions: 235501146 cycles: 336541384 heartbeat IPC: 0.5331 cumulative IPC: 0.5738 (Simulation time: 00 hr 41 min 42 sec)
Heartbeat CPU 0 instructions: 236001152 cycles: 336860239 heartbeat IPC: 1.568 cumulative IPC: 0.5747 (Simulation time: 00 hr 41 min 44 sec)
Heartbeat CPU 0 instructions: 236501152 cycles: 337528667 heartbeat IPC: 0.748 cumulative IPC: 0.5751 (Simulation time: 00 hr 41 min 49 sec)
Heartbeat CPU 0 instructions: 237001152 cycles: 339251860 heartbeat IPC: 0.2902 cumulative IPC: 0.5736 (Simulation time: 00 hr 41 min 59 sec)
Heartbeat CPU 0 instructions: 237501155 cycles: 340311119 heartbeat IPC: 0.472 cumulative IPC: 0.5733 (Simulation time: 00 hr 42 min 06 sec)
Heartbeat CPU 0 instructions: 238001155 cycles: 341380188 heartbeat IPC: 0.4677 cumulative IPC: 0.5729 (Simulation time: 00 hr 42 min 13 sec)
Heartbeat CPU 0 instructions: 238501156 cycles: 342024284 heartbeat IPC: 0.7763 cumulative IPC: 0.5733 (Simulation time: 00 hr 42 min 18 sec)
Heartbeat CPU 0 instructions: 239001162 cycles: 342579741 heartbeat IPC: 0.9002 cumulative IPC: 0.5739 (Simulation time: 00 hr 42 min 21 sec)
Heartbeat CPU 0 instructions: 239501166 cycles: 342981074 heartbeat IPC: 1.246 cumulative IPC: 0.5747 (Simulation time: 00 hr 42 min 25 sec)
Heartbeat CPU 0 instructions: 240001169 cycles: 343899102 heartbeat IPC: 0.5446 cumulative IPC: 0.5746 (Simulation time: 00 hr 42 min 31 sec)
Heartbeat CPU 0 instructions: 240501171 cycles: 344875380 heartbeat IPC: 0.5122 cumulative IPC: 0.5744 (Simulation time: 00 hr 42 min 37 sec)
Heartbeat CPU 0 instructions: 241001171 cycles: 345536901 heartbeat IPC: 0.7558 cumulative IPC: 0.5748 (Simulation time: 00 hr 42 min 42 sec)
Heartbeat CPU 0 instructions: 241501176 cycles: 346064813 heartbeat IPC: 0.9471 cumulative IPC: 0.5754 (Simulation time: 00 hr 42 min 45 sec)
Heartbeat CPU 0 instructions: 242001181 cycles: 346743872 heartbeat IPC: 0.7363 cumulative IPC: 0.5757 (Simulation time: 00 hr 42 min 50 sec)
Heartbeat CPU 0 instructions: 242501181 cycles: 347777926 heartbeat IPC: 0.4835 cumulative IPC: 0.5754 (Simulation time: 00 hr 42 min 57 sec)
Heartbeat CPU 0 instructions: 243001185 cycles: 348433224 heartbeat IPC: 0.763 cumulative IPC: 0.5758 (Simulation time: 00 hr 43 min 01 sec)
Heartbeat CPU 0 instructions: 243501189 cycles: 348969862 heartbeat IPC: 0.9317 cumulative IPC: 0.5764 (Simulation time: 00 hr 43 min 05 sec)
Heartbeat CPU 0 instructions: 244001192 cycles: 350024099 heartbeat IPC: 0.4743 cumulative IPC: 0.576 (Simulation time: 00 hr 43 min 12 sec)
Heartbeat CPU 0 instructions: 244501197 cycles: 350848103 heartbeat IPC: 0.6068 cumulative IPC: 0.5761 (Simulation time: 00 hr 43 min 17 sec)
Heartbeat CPU 0 instructions: 245001198 cycles: 351469893 heartbeat IPC: 0.8041 cumulative IPC: 0.5765 (Simulation time: 00 hr 43 min 21 sec)
Heartbeat CPU 0 instructions: 245501204 cycles: 351870755 heartbeat IPC: 1.247 cumulative IPC: 0.5773 (Simulation time: 00 hr 43 min 25 sec)
Heartbeat CPU 0 instructions: 246001205 cycles: 352367353 heartbeat IPC: 1.007 cumulative IPC: 0.578 (Simulation time: 00 hr 43 min 28 sec)
Heartbeat CPU 0 instructions: 246501208 cycles: 353536994 heartbeat IPC: 0.4275 cumulative IPC: 0.5774 (Simulation time: 00 hr 43 min 36 sec)
Heartbeat CPU 0 instructions: 247001211 cycles: 354554750 heartbeat IPC: 0.4913 cumulative IPC: 0.5772 (Simulation time: 00 hr 43 min 42 sec)
Heartbeat CPU 0 instructions: 247501212 cycles: 355164528 heartbeat IPC: 0.82 cumulative IPC: 0.5776 (Simulation time: 00 hr 43 min 46 sec)
Heartbeat CPU 0 instructions: 248001214 cycles: 355505461 heartbeat IPC: 1.467 cumulative IPC: 0.5785 (Simulation time: 00 hr 43 min 49 sec)
Heartbeat CPU 0 instructions: 248501216 cycles: 355900882 heartbeat IPC: 1.264 cumulative IPC: 0.5793 (Simulation time: 00 hr 43 min 52 sec)
Heartbeat CPU 0 instructions: 249001217 cycles: 356403865 heartbeat IPC: 0.9941 cumulative IPC: 0.5799 (Simulation time: 00 hr 43 min 55 sec)
Heartbeat CPU 0 instructions: 249501222 cycles: 356830941 heartbeat IPC: 1.171 cumulative IPC: 0.5806 (Simulation time: 00 hr 43 min 59 sec)
Simulation finished CPU 0 instructions: 200000007 cycles: 344366410 cumulative IPC: 0.5808 (Simulation time: 00 hr 44 min 04 sec)
Simulation complete CPU 0 instructions: 200000007 cycles: 344366410 cumulative IPC: 0.5808 (Simulation time: 00 hr 44 min 04 sec)

ChampSim completed all CPUs

=== Simulation ===
CPU 0 runs /local-ssd/ben/dpc4-traces/gtraces_v2/yankee_0000.champsim.gz

Region of Interest Statistics

CPU 0 cumulative IPC: 0.5808 instructions: 200000007 cycles: 344366410
CPU 0 Branch Prediction Accuracy: 88.52% MPKI: 21.11 Average ROB Occupancy at Mispredict: 23.55
Branch type MPKI
BRANCH_DIRECT_JUMP: 0.8628
BRANCH_INDIRECT: 0.5346
BRANCH_CONDITIONAL: 16.78
BRANCH_DIRECT_CALL: 1.572
BRANCH_INDIRECT_CALL: 0.48
BRANCH_RETURN: 0.8826

cpu0->cpu0_STLB TOTAL        ACCESS:    1710699 HIT:    1173619 MISS:     537080 MSHR_MERGE:          0
cpu0->cpu0_STLB LOAD         ACCESS:    1710699 HIT:    1173619 MISS:     537080 MSHR_MERGE:          0
cpu0->cpu0_STLB RFO          ACCESS:          0 HIT:          0 MISS:          0 MSHR_MERGE:          0
cpu0->cpu0_STLB PREFETCH     ACCESS:          0 HIT:          0 MISS:          0 MSHR_MERGE:          0
cpu0->cpu0_STLB WRITE        ACCESS:          0 HIT:          0 MISS:          0 MSHR_MERGE:          0
cpu0->cpu0_STLB TRANSLATION  ACCESS:          0 HIT:          0 MISS:          0 MSHR_MERGE:          0
cpu0->cpu0_STLB PREFETCH REQUESTED:          0 ISSUED:          0 USEFUL:          0 USELESS:          0
cpu0->cpu0_STLB AVERAGE MISS LATENCY: 185.4 cycles
cpu0->cpu0_L2C TOTAL        ACCESS:   22916879 HIT:   15488224 MISS:    7428655 MSHR_MERGE:    2589250
cpu0->cpu0_L2C LOAD         ACCESS:    3966756 HIT:    2795021 MISS:    1171735 MSHR_MERGE:     185380
cpu0->cpu0_L2C RFO          ACCESS:     736562 HIT:     243248 MISS:     493314 MSHR_MERGE:      10171
cpu0->cpu0_L2C PREFETCH     ACCESS:   16360989 HIT:   10889841 MISS:    5471148 MSHR_MERGE:    2393699
cpu0->cpu0_L2C WRITE        ACCESS:    1234789 HIT:    1234767 MISS:         22 MSHR_MERGE:          0
cpu0->cpu0_L2C TRANSLATION  ACCESS:     617783 HIT:     325347 MISS:     292436 MSHR_MERGE:          0
cpu0->cpu0_L2C PREFETCH REQUESTED:   16631469 ISSUED:   15089117 USEFUL:    1620241 USELESS:    1088398
cpu0->cpu0_L2C AVERAGE MISS LATENCY: 202.9 cycles
cpu0->cpu0_L1I TOTAL        ACCESS:   13354072 HIT:   10407692 MISS:    2946380 MSHR_MERGE:     669319
cpu0->cpu0_L1I LOAD         ACCESS:   13354072 HIT:   10407692 MISS:    2946380 MSHR_MERGE:     669319
cpu0->cpu0_L1I RFO          ACCESS:          0 HIT:          0 MISS:          0 MSHR_MERGE:          0
cpu0->cpu0_L1I PREFETCH     ACCESS:          0 HIT:          0 MISS:          0 MSHR_MERGE:          0
cpu0->cpu0_L1I WRITE        ACCESS:          0 HIT:          0 MISS:          0 MSHR_MERGE:          0
cpu0->cpu0_L1I TRANSLATION  ACCESS:          0 HIT:          0 MISS:          0 MSHR_MERGE:          0
cpu0->cpu0_L1I PREFETCH REQUESTED:          0 ISSUED:          0 USEFUL:          0 USELESS:          0
cpu0->cpu0_L1I AVERAGE MISS LATENCY: 49.33 cycles
cpu0->cpu0_L1D TOTAL        ACCESS:   61109521 HIT:   54034063 MISS:    7075458 MSHR_MERGE:    2759508
cpu0->cpu0_L1D LOAD         ACCESS:   34379754 HIT:   32154768 MISS:    2224986 MSHR_MERGE:     535276
cpu0->cpu0_L1D RFO          ACCESS:          0 HIT:          0 MISS:          0 MSHR_MERGE:          0
cpu0->cpu0_L1D PREFETCH     ACCESS:    2203136 HIT:     868801 MISS:    1334335 MSHR_MERGE:      62474
cpu0->cpu0_L1D WRITE        ACCESS:   23129990 HIT:   20235511 MISS:    2894479 MSHR_MERGE:    2157883
cpu0->cpu0_L1D TRANSLATION  ACCESS:    1396641 HIT:     774983 MISS:     621658 MSHR_MERGE:       3875
cpu0->cpu0_L1D PREFETCH REQUESTED:    2226741 ISSUED:    2203128 USEFUL:     630746 USELESS:     641044
cpu0->cpu0_L1D AVERAGE MISS LATENCY: 107.4 cycles
cpu0->cpu0_ITLB TOTAL        ACCESS:   10785028 HIT:   10527503 MISS:     257525 MSHR_MERGE:     127401
cpu0->cpu0_ITLB LOAD         ACCESS:   10785028 HIT:   10527503 MISS:     257525 MSHR_MERGE:     127401
cpu0->cpu0_ITLB RFO          ACCESS:          0 HIT:          0 MISS:          0 MSHR_MERGE:          0
cpu0->cpu0_ITLB PREFETCH     ACCESS:          0 HIT:          0 MISS:          0 MSHR_MERGE:          0
cpu0->cpu0_ITLB WRITE        ACCESS:          0 HIT:          0 MISS:          0 MSHR_MERGE:          0
cpu0->cpu0_ITLB TRANSLATION  ACCESS:          0 HIT:          0 MISS:          0 MSHR_MERGE:          0
cpu0->cpu0_ITLB PREFETCH REQUESTED:          0 ISSUED:          0 USEFUL:          0 USELESS:          0
cpu0->cpu0_ITLB AVERAGE MISS LATENCY: 42.29 cycles
cpu0->cpu0_DTLB TOTAL        ACCESS:   56949495 HIT:   54186911 MISS:    2762584 MSHR_MERGE:    1182009
cpu0->cpu0_DTLB LOAD         ACCESS:   56949495 HIT:   54186911 MISS:    2762584 MSHR_MERGE:    1182009
cpu0->cpu0_DTLB RFO          ACCESS:          0 HIT:          0 MISS:          0 MSHR_MERGE:          0
cpu0->cpu0_DTLB PREFETCH     ACCESS:          0 HIT:          0 MISS:          0 MSHR_MERGE:          0
cpu0->cpu0_DTLB WRITE        ACCESS:          0 HIT:          0 MISS:          0 MSHR_MERGE:          0
cpu0->cpu0_DTLB TRANSLATION  ACCESS:          0 HIT:          0 MISS:          0 MSHR_MERGE:          0
cpu0->cpu0_DTLB PREFETCH REQUESTED:          0 ISSUED:          0 USEFUL:          0 USELESS:          0
cpu0->cpu0_DTLB AVERAGE MISS LATENCY: 65.28 cycles
cpu0->LLC TOTAL        ACCESS:    7285565 HIT:    1931153 MISS:    5354412 MSHR_MERGE:     218943
cpu0->LLC LOAD         ACCESS:     986355 HIT:     285682 MISS:     700673 MSHR_MERGE:       2366
cpu0->LLC RFO          ACCESS:     483143 HIT:      27094 MISS:     456049 MSHR_MERGE:        681
cpu0->LLC PREFETCH     ACCESS:    4645371 HIT:    1407629 MISS:    3237742 MSHR_MERGE:     215896
cpu0->LLC WRITE        ACCESS:     878260 HIT:     187627 MISS:     690633 MSHR_MERGE:          0
cpu0->LLC TRANSLATION  ACCESS:     292436 HIT:      23121 MISS:     269315 MSHR_MERGE:          0
cpu0->LLC PREFETCH REQUESTED:    1615572 ISSUED:    1567920 USEFUL:     174698 USELESS:     742276
cpu0->LLC AVERAGE MISS LATENCY: 161.2 cycles

DRAM Statistics

Channel 0 RQ ROW_BUFFER_HIT:     139928
  ROW_BUFFER_MISS:    4304829
  AVG DBUS CONGESTED CYCLE: 18.95
Channel 0 WQ ROW_BUFFER_HIT:     211826
  ROW_BUFFER_MISS:     597083
  FULL:          0
Channel 0 REFRESHES ISSUED:      28695
