[VMEM] WARNING: physical memory size is smaller than virtual memory size.

*** ChampSim Multicore Out-of-Order Simulator ***
Warmup Instructions: 50000000
Simulation Instructions: 200000000
Number of CPUs: 1
Page size: 4096
Core 0: /local-ssd/ben/dpc4-traces/gtraces_v2/sierra.a.6_0001.champsim.gz
 L1D Berti prefetcher
Off-chip DRAM Size: 64 GiB Channels: 1 Width: 64-bit Data Rate: 4807 MT/s
[BTB] WARNING: target of return is a lower address than the corresponding call. This is usually a problem with your trace.
[BTB] WARNING: target of return is a lower address than the corresponding call. This is usually a problem with your trace.
[BTB] WARNING: target of return is a lower address than the corresponding call. This is usually a problem with your trace.
[BTB] WARNING: target of return is a lower address than the corresponding call. This is usually a problem with your trace.
[BTB] WARNING: target of return is a lower address than the corresponding call. This is usually a problem with your trace.
[BTB] WARNING: target of return is a lower address than the corresponding call. This is usually a problem with your trace.
[BTB] WARNING: target of return is a lower address than the corresponding call. This is usually a problem with your trace.
[BTB] WARNING: target of return is a lower address than the corresponding call. This is usually a problem with your trace.
[BTB] WARNING: target of return is a lower address than the corresponding call. This is usually a problem with your trace.
[BTB] WARNING: target of return is a lower address than the corresponding call. This is usually a problem with your trace.
Heartbeat CPU 0 instructions: 500001 cycles: 265251 heartbeat IPC: 1.885 cumulative IPC: 1.885 (Simulation time: 00 hr 00 min 04 sec)
Heartbeat CPU 0 instructions: 1000001 cycles: 459868 heartbeat IPC: 2.569 cumulative IPC: 2.175 (Simulation time: 00 hr 00 min 07 sec)
Heartbeat CPU 0 instructions: 1500003 cycles: 621262 heartbeat IPC: 3.098 cumulative IPC: 2.414 (Simulation time: 00 hr 00 min 10 sec)
Heartbeat CPU 0 instructions: 2000010 cycles: 807309 heartbeat IPC: 2.688 cumulative IPC: 2.477 (Simulation time: 00 hr 00 min 13 sec)
Heartbeat CPU 0 instructions: 2500016 cycles: 970384 heartbeat IPC: 3.066 cumulative IPC: 2.576 (Simulation time: 00 hr 00 min 16 sec)
Heartbeat CPU 0 instructions: 3000022 cycles: 1123571 heartbeat IPC: 3.264 cumulative IPC: 2.67 (Simulation time: 00 hr 00 min 19 sec)
Heartbeat CPU 0 instructions: 3500027 cycles: 1273975 heartbeat IPC: 3.324 cumulative IPC: 2.747 (Simulation time: 00 hr 00 min 22 sec)
Heartbeat CPU 0 instructions: 4000028 cycles: 1401007 heartbeat IPC: 3.936 cumulative IPC: 2.855 (Simulation time: 00 hr 00 min 24 sec)
Heartbeat CPU 0 instructions: 4500028 cycles: 1547354 heartbeat IPC: 3.417 cumulative IPC: 2.908 (Simulation time: 00 hr 00 min 26 sec)
Heartbeat CPU 0 instructions: 5000032 cycles: 1687883 heartbeat IPC: 3.558 cumulative IPC: 2.962 (Simulation time: 00 hr 00 min 29 sec)
Heartbeat CPU 0 instructions: 5500032 cycles: 1821565 heartbeat IPC: 3.74 cumulative IPC: 3.019 (Simulation time: 00 hr 00 min 32 sec)
Heartbeat CPU 0 instructions: 6000033 cycles: 1950957 heartbeat IPC: 3.864 cumulative IPC: 3.075 (Simulation time: 00 hr 00 min 34 sec)
Heartbeat CPU 0 instructions: 6500034 cycles: 2082252 heartbeat IPC: 3.808 cumulative IPC: 3.122 (Simulation time: 00 hr 00 min 37 sec)
Heartbeat CPU 0 instructions: 7000035 cycles: 2252904 heartbeat IPC: 2.93 cumulative IPC: 3.107 (Simulation time: 00 hr 00 min 40 sec)
Heartbeat CPU 0 instructions: 7500036 cycles: 2403847 heartbeat IPC: 3.313 cumulative IPC: 3.12 (Simulation time: 00 hr 00 min 43 sec)
Heartbeat CPU 0 instructions: 8000040 cycles: 2542281 heartbeat IPC: 3.612 cumulative IPC: 3.147 (Simulation time: 00 hr 00 min 46 sec)
Heartbeat CPU 0 instructions: 8500042 cycles: 2679418 heartbeat IPC: 3.646 cumulative IPC: 3.172 (Simulation time: 00 hr 00 min 48 sec)
Heartbeat CPU 0 instructions: 9000046 cycles: 2823695 heartbeat IPC: 3.466 cumulative IPC: 3.187 (Simulation time: 00 hr 00 min 51 sec)
Heartbeat CPU 0 instructions: 9500046 cycles: 2963856 heartbeat IPC: 3.567 cumulative IPC: 3.205 (Simulation time: 00 hr 00 min 54 sec)
Heartbeat CPU 0 instructions: 10000048 cycles: 3092217 heartbeat IPC: 3.895 cumulative IPC: 3.234 (Simulation time: 00 hr 00 min 56 sec)
Heartbeat CPU 0 instructions: 10500052 cycles: 3215708 heartbeat IPC: 4.049 cumulative IPC: 3.265 (Simulation time: 00 hr 00 min 59 sec)
Heartbeat CPU 0 instructions: 11000053 cycles: 3346047 heartbeat IPC: 3.836 cumulative IPC: 3.287 (Simulation time: 00 hr 01 min 01 sec)
Heartbeat CPU 0 instructions: 11500059 cycles: 3468073 heartbeat IPC: 4.098 cumulative IPC: 3.316 (Simulation time: 00 hr 01 min 04 sec)
Heartbeat CPU 0 instructions: 12000066 cycles: 3595690 heartbeat IPC: 3.918 cumulative IPC: 3.337 (Simulation time: 00 hr 01 min 06 sec)
Heartbeat CPU 0 instructions: 12500067 cycles: 3718560 heartbeat IPC: 4.069 cumulative IPC: 3.362 (Simulation time: 00 hr 01 min 09 sec)
Heartbeat CPU 0 instructions: 13000070 cycles: 3843285 heartbeat IPC: 4.009 cumulative IPC: 3.383 (Simulation time: 00 hr 01 min 12 sec)
Heartbeat CPU 0 instructions: 13500070 cycles: 3969930 heartbeat IPC: 3.948 cumulative IPC: 3.401 (Simulation time: 00 hr 01 min 14 sec)
Heartbeat CPU 0 instructions: 14000072 cycles: 4093753 heartbeat IPC: 4.038 cumulative IPC: 3.42 (Simulation time: 00 hr 01 min 17 sec)
Heartbeat CPU 0 instructions: 14500075 cycles: 4220431 heartbeat IPC: 3.947 cumulative IPC: 3.436 (Simulation time: 00 hr 01 min 19 sec)
Heartbeat CPU 0 instructions: 15000076 cycles: 4384885 heartbeat IPC: 3.04 cumulative IPC: 3.421 (Simulation time: 00 hr 01 min 22 sec)
Heartbeat CPU 0 instructions: 15500083 cycles: 4507189 heartbeat IPC: 4.088 cumulative IPC: 3.439 (Simulation time: 00 hr 01 min 25 sec)
Heartbeat CPU 0 instructions: 16000090 cycles: 4703601 heartbeat IPC: 2.546 cumulative IPC: 3.402 (Simulation time: 00 hr 01 min 28 sec)
Heartbeat CPU 0 instructions: 16500091 cycles: 4823609 heartbeat IPC: 4.166 cumulative IPC: 3.421 (Simulation time: 00 hr 01 min 30 sec)
Heartbeat CPU 0 instructions: 17000098 cycles: 4961507 heartbeat IPC: 3.626 cumulative IPC: 3.426 (Simulation time: 00 hr 01 min 32 sec)
Heartbeat CPU 0 instructions: 17500100 cycles: 5175907 heartbeat IPC: 2.332 cumulative IPC: 3.381 (Simulation time: 00 hr 01 min 36 sec)
Heartbeat CPU 0 instructions: 18000107 cycles: 5371419 heartbeat IPC: 2.557 cumulative IPC: 3.351 (Simulation time: 00 hr 01 min 39 sec)
Heartbeat CPU 0 instructions: 18500111 cycles: 5572074 heartbeat IPC: 2.492 cumulative IPC: 3.32 (Simulation time: 00 hr 01 min 42 sec)
Heartbeat CPU 0 instructions: 19000112 cycles: 5728577 heartbeat IPC: 3.195 cumulative IPC: 3.317 (Simulation time: 00 hr 01 min 45 sec)
Heartbeat CPU 0 instructions: 19500114 cycles: 5885137 heartbeat IPC: 3.194 cumulative IPC: 3.313 (Simulation time: 00 hr 01 min 48 sec)
Heartbeat CPU 0 instructions: 20000116 cycles: 6046955 heartbeat IPC: 3.09 cumulative IPC: 3.307 (Simulation time: 00 hr 01 min 50 sec)
Heartbeat CPU 0 instructions: 20500120 cycles: 6197625 heartbeat IPC: 3.319 cumulative IPC: 3.308 (Simulation time: 00 hr 01 min 53 sec)
Heartbeat CPU 0 instructions: 21000121 cycles: 6333674 heartbeat IPC: 3.675 cumulative IPC: 3.316 (Simulation time: 00 hr 01 min 56 sec)
Heartbeat CPU 0 instructions: 21500125 cycles: 6471446 heartbeat IPC: 3.629 cumulative IPC: 3.322 (Simulation time: 00 hr 01 min 59 sec)
Heartbeat CPU 0 instructions: 22000130 cycles: 6608313 heartbeat IPC: 3.653 cumulative IPC: 3.329 (Simulation time: 00 hr 02 min 01 sec)
Heartbeat CPU 0 instructions: 22500135 cycles: 6766122 heartbeat IPC: 3.168 cumulative IPC: 3.325 (Simulation time: 00 hr 02 min 04 sec)
Heartbeat CPU 0 instructions: 23000142 cycles: 6922383 heartbeat IPC: 3.2 cumulative IPC: 3.323 (Simulation time: 00 hr 02 min 07 sec)
Heartbeat CPU 0 instructions: 23500143 cycles: 7079026 heartbeat IPC: 3.192 cumulative IPC: 3.32 (Simulation time: 00 hr 02 min 10 sec)
Heartbeat CPU 0 instructions: 24000146 cycles: 7221069 heartbeat IPC: 3.52 cumulative IPC: 3.324 (Simulation time: 00 hr 02 min 13 sec)
Heartbeat CPU 0 instructions: 24500149 cycles: 7358736 heartbeat IPC: 3.632 cumulative IPC: 3.329 (Simulation time: 00 hr 02 min 15 sec)
Heartbeat CPU 0 instructions: 25000154 cycles: 7514809 heartbeat IPC: 3.204 cumulative IPC: 3.327 (Simulation time: 00 hr 02 min 18 sec)
Heartbeat CPU 0 instructions: 25500160 cycles: 7676349 heartbeat IPC: 3.095 cumulative IPC: 3.322 (Simulation time: 00 hr 02 min 21 sec)
Heartbeat CPU 0 instructions: 26000161 cycles: 7813610 heartbeat IPC: 3.643 cumulative IPC: 3.328 (Simulation time: 00 hr 02 min 23 sec)
Heartbeat CPU 0 instructions: 26500165 cycles: 7939794 heartbeat IPC: 3.962 cumulative IPC: 3.338 (Simulation time: 00 hr 02 min 26 sec)
Heartbeat CPU 0 instructions: 27000166 cycles: 8091449 heartbeat IPC: 3.297 cumulative IPC: 3.337 (Simulation time: 00 hr 02 min 28 sec)
Heartbeat CPU 0 instructions: 27500170 cycles: 8237462 heartbeat IPC: 3.424 cumulative IPC: 3.338 (Simulation time: 00 hr 02 min 31 sec)
Heartbeat CPU 0 instructions: 28000176 cycles: 8390236 heartbeat IPC: 3.273 cumulative IPC: 3.337 (Simulation time: 00 hr 02 min 34 sec)
Heartbeat CPU 0 instructions: 28500177 cycles: 8534256 heartbeat IPC: 3.472 cumulative IPC: 3.34 (Simulation time: 00 hr 02 min 37 sec)
Heartbeat CPU 0 instructions: 29000183 cycles: 8668434 heartbeat IPC: 3.726 cumulative IPC: 3.345 (Simulation time: 00 hr 02 min 39 sec)
Heartbeat CPU 0 instructions: 29500183 cycles: 8815018 heartbeat IPC: 3.411 cumulative IPC: 3.347 (Simulation time: 00 hr 02 min 42 sec)
Heartbeat CPU 0 instructions: 30000189 cycles: 8960215 heartbeat IPC: 3.444 cumulative IPC: 3.348 (Simulation time: 00 hr 02 min 45 sec)
Heartbeat CPU 0 instructions: 30500194 cycles: 9090170 heartbeat IPC: 3.848 cumulative IPC: 3.355 (Simulation time: 00 hr 02 min 47 sec)
Heartbeat CPU 0 instructions: 31000195 cycles: 9225185 heartbeat IPC: 3.703 cumulative IPC: 3.36 (Simulation time: 00 hr 02 min 50 sec)
Heartbeat CPU 0 instructions: 31500196 cycles: 9363987 heartbeat IPC: 3.602 cumulative IPC: 3.364 (Simulation time: 00 hr 02 min 52 sec)
Heartbeat CPU 0 instructions: 32000200 cycles: 9492212 heartbeat IPC: 3.899 cumulative IPC: 3.371 (Simulation time: 00 hr 02 min 55 sec)
Heartbeat CPU 0 instructions: 32500206 cycles: 9622923 heartbeat IPC: 3.825 cumulative IPC: 3.377 (Simulation time: 00 hr 02 min 58 sec)
Heartbeat CPU 0 instructions: 33000212 cycles: 9749817 heartbeat IPC: 3.94 cumulative IPC: 3.385 (Simulation time: 00 hr 03 min 00 sec)
Heartbeat CPU 0 instructions: 33500213 cycles: 9873606 heartbeat IPC: 4.039 cumulative IPC: 3.393 (Simulation time: 00 hr 03 min 02 sec)
Heartbeat CPU 0 instructions: 34000219 cycles: 10012121 heartbeat IPC: 3.61 cumulative IPC: 3.396 (Simulation time: 00 hr 03 min 04 sec)
Heartbeat CPU 0 instructions: 34500222 cycles: 10133468 heartbeat IPC: 4.12 cumulative IPC: 3.405 (Simulation time: 00 hr 03 min 07 sec)
Heartbeat CPU 0 instructions: 35000223 cycles: 10259743 heartbeat IPC: 3.96 cumulative IPC: 3.411 (Simulation time: 00 hr 03 min 09 sec)
Heartbeat CPU 0 instructions: 35500223 cycles: 10385828 heartbeat IPC: 3.966 cumulative IPC: 3.418 (Simulation time: 00 hr 03 min 12 sec)
Heartbeat CPU 0 instructions: 36000225 cycles: 10522580 heartbeat IPC: 3.656 cumulative IPC: 3.421 (Simulation time: 00 hr 03 min 14 sec)
Heartbeat CPU 0 instructions: 36500231 cycles: 10650957 heartbeat IPC: 3.895 cumulative IPC: 3.427 (Simulation time: 00 hr 03 min 17 sec)
Heartbeat CPU 0 instructions: 37000238 cycles: 10781963 heartbeat IPC: 3.817 cumulative IPC: 3.432 (Simulation time: 00 hr 03 min 19 sec)
Heartbeat CPU 0 instructions: 37500238 cycles: 10909329 heartbeat IPC: 3.926 cumulative IPC: 3.437 (Simulation time: 00 hr 03 min 22 sec)
Heartbeat CPU 0 instructions: 38000245 cycles: 11033955 heartbeat IPC: 4.012 cumulative IPC: 3.444 (Simulation time: 00 hr 03 min 24 sec)
Heartbeat CPU 0 instructions: 38500252 cycles: 11163728 heartbeat IPC: 3.853 cumulative IPC: 3.449 (Simulation time: 00 hr 03 min 27 sec)
Heartbeat CPU 0 instructions: 39000258 cycles: 11292709 heartbeat IPC: 3.877 cumulative IPC: 3.454 (Simulation time: 00 hr 03 min 29 sec)
Heartbeat CPU 0 instructions: 39500265 cycles: 11423424 heartbeat IPC: 3.825 cumulative IPC: 3.458 (Simulation time: 00 hr 03 min 31 sec)
Heartbeat CPU 0 instructions: 40000269 cycles: 11530961 heartbeat IPC: 4.65 cumulative IPC: 3.469 (Simulation time: 00 hr 03 min 33 sec)
Heartbeat CPU 0 instructions: 40500270 cycles: 11640392 heartbeat IPC: 4.569 cumulative IPC: 3.479 (Simulation time: 00 hr 03 min 35 sec)
Heartbeat CPU 0 instructions: 41000276 cycles: 11749961 heartbeat IPC: 4.563 cumulative IPC: 3.489 (Simulation time: 00 hr 03 min 37 sec)
Heartbeat CPU 0 instructions: 41500278 cycles: 11856614 heartbeat IPC: 4.688 cumulative IPC: 3.5 (Simulation time: 00 hr 03 min 38 sec)
Heartbeat CPU 0 instructions: 42000279 cycles: 11964420 heartbeat IPC: 4.638 cumulative IPC: 3.51 (Simulation time: 00 hr 03 min 40 sec)
Heartbeat CPU 0 instructions: 42500283 cycles: 12072333 heartbeat IPC: 4.633 cumulative IPC: 3.52 (Simulation time: 00 hr 03 min 42 sec)
Heartbeat CPU 0 instructions: 43000283 cycles: 12185140 heartbeat IPC: 4.432 cumulative IPC: 3.529 (Simulation time: 00 hr 03 min 44 sec)
Heartbeat CPU 0 instructions: 43500287 cycles: 12321518 heartbeat IPC: 3.666 cumulative IPC: 3.53 (Simulation time: 00 hr 03 min 46 sec)
Heartbeat CPU 0 instructions: 44000288 cycles: 12468104 heartbeat IPC: 3.411 cumulative IPC: 3.529 (Simulation time: 00 hr 03 min 49 sec)
Heartbeat CPU 0 instructions: 44500292 cycles: 12617639 heartbeat IPC: 3.344 cumulative IPC: 3.527 (Simulation time: 00 hr 03 min 52 sec)
Heartbeat CPU 0 instructions: 45000297 cycles: 12757917 heartbeat IPC: 3.564 cumulative IPC: 3.527 (Simulation time: 00 hr 03 min 55 sec)
Heartbeat CPU 0 instructions: 45500297 cycles: 12910604 heartbeat IPC: 3.275 cumulative IPC: 3.524 (Simulation time: 00 hr 03 min 58 sec)
Heartbeat CPU 0 instructions: 46000301 cycles: 13040504 heartbeat IPC: 3.849 cumulative IPC: 3.527 (Simulation time: 00 hr 04 min 00 sec)
Heartbeat CPU 0 instructions: 46500306 cycles: 13167955 heartbeat IPC: 3.923 cumulative IPC: 3.531 (Simulation time: 00 hr 04 min 03 sec)
Heartbeat CPU 0 instructions: 47000309 cycles: 13306904 heartbeat IPC: 3.598 cumulative IPC: 3.532 (Simulation time: 00 hr 04 min 05 sec)
Heartbeat CPU 0 instructions: 47500313 cycles: 13413595 heartbeat IPC: 4.686 cumulative IPC: 3.541 (Simulation time: 00 hr 04 min 07 sec)
Heartbeat CPU 0 instructions: 48000315 cycles: 13520760 heartbeat IPC: 4.666 cumulative IPC: 3.55 (Simulation time: 00 hr 04 min 09 sec)
Heartbeat CPU 0 instructions: 48500315 cycles: 13631072 heartbeat IPC: 4.533 cumulative IPC: 3.558 (Simulation time: 00 hr 04 min 11 sec)
Heartbeat CPU 0 instructions: 49000321 cycles: 13749020 heartbeat IPC: 4.239 cumulative IPC: 3.564 (Simulation time: 00 hr 04 min 13 sec)
Heartbeat CPU 0 instructions: 49500321 cycles: 13881921 heartbeat IPC: 3.762 cumulative IPC: 3.566 (Simulation time: 00 hr 04 min 15 sec)
Warmup halting CPU 0 at instruction 50000007 cycle 14022878 for remainder of phase
Warmup finished CPU 0 instructions: 50000007 cycles: 14022878 cumulative IPC: 3.566 (Simulation time: 00 hr 04 min 18 sec)
Warmup complete CPU 0 instructions: 50000007 cycles: 14022878 cumulative IPC: 3.566 (Simulation time: 00 hr 04 min 18 sec)
Heartbeat CPU 0 instructions: 50000327 cycles: 14022918 heartbeat IPC: 3.546 cumulative IPC: 8 (Simulation time: 00 hr 04 min 18 sec)
Heartbeat CPU 0 instructions: 50500328 cycles: 14981952 heartbeat IPC: 0.5214 cumulative IPC: 0.5217 (Simulation time: 00 hr 04 min 25 sec)
Heartbeat CPU 0 instructions: 51000328 cycles: 16468606 heartbeat IPC: 0.3363 cumulative IPC: 0.409 (Simulation time: 00 hr 04 min 36 sec)
Heartbeat CPU 0 instructions: 51500330 cycles: 17207791 heartbeat IPC: 0.6764 cumulative IPC: 0.4711 (Simulation time: 00 hr 04 min 42 sec)
Heartbeat CPU 0 instructions: 52000330 cycles: 17990579 heartbeat IPC: 0.6387 cumulative IPC: 0.5042 (Simulation time: 00 hr 04 min 48 sec)
Heartbeat CPU 0 instructions: 52500333 cycles: 18935986 heartbeat IPC: 0.5289 cumulative IPC: 0.5089 (Simulation time: 00 hr 04 min 55 sec)
Heartbeat CPU 0 instructions: 53000339 cycles: 19695614 heartbeat IPC: 0.6582 cumulative IPC: 0.5289 (Simulation time: 00 hr 05 min 01 sec)
Heartbeat CPU 0 instructions: 53500343 cycles: 20023252 heartbeat IPC: 1.526 cumulative IPC: 0.5834 (Simulation time: 00 hr 05 min 04 sec)
Heartbeat CPU 0 instructions: 54000349 cycles: 20390181 heartbeat IPC: 1.363 cumulative IPC: 0.6283 (Simulation time: 00 hr 05 min 07 sec)
Heartbeat CPU 0 instructions: 54500349 cycles: 20687392 heartbeat IPC: 1.682 cumulative IPC: 0.6753 (Simulation time: 00 hr 05 min 10 sec)
Heartbeat CPU 0 instructions: 55000350 cycles: 21040469 heartbeat IPC: 1.416 cumulative IPC: 0.7125 (Simulation time: 00 hr 05 min 14 sec)
Heartbeat CPU 0 instructions: 55500350 cycles: 21443914 heartbeat IPC: 1.239 cumulative IPC: 0.7412 (Simulation time: 00 hr 05 min 17 sec)
Heartbeat CPU 0 instructions: 56000350 cycles: 22628948 heartbeat IPC: 0.4219 cumulative IPC: 0.6972 (Simulation time: 00 hr 05 min 26 sec)
Heartbeat CPU 0 instructions: 56500350 cycles: 23658955 heartbeat IPC: 0.4854 cumulative IPC: 0.6746 (Simulation time: 00 hr 05 min 33 sec)
Heartbeat CPU 0 instructions: 57000351 cycles: 24584573 heartbeat IPC: 0.5402 cumulative IPC: 0.6628 (Simulation time: 00 hr 05 min 40 sec)
Heartbeat CPU 0 instructions: 57500351 cycles: 26272403 heartbeat IPC: 0.2962 cumulative IPC: 0.6123 (Simulation time: 00 hr 05 min 52 sec)
Heartbeat CPU 0 instructions: 58000351 cycles: 27524842 heartbeat IPC: 0.3992 cumulative IPC: 0.5925 (Simulation time: 00 hr 06 min 01 sec)
Heartbeat CPU 0 instructions: 58500353 cycles: 28879331 heartbeat IPC: 0.3691 cumulative IPC: 0.5722 (Simulation time: 00 hr 06 min 11 sec)
Heartbeat CPU 0 instructions: 59000355 cycles: 29836473 heartbeat IPC: 0.5224 cumulative IPC: 0.5692 (Simulation time: 00 hr 06 min 19 sec)
Heartbeat CPU 0 instructions: 59500355 cycles: 31115152 heartbeat IPC: 0.391 cumulative IPC: 0.5558 (Simulation time: 00 hr 06 min 28 sec)
Heartbeat CPU 0 instructions: 60000360 cycles: 32212407 heartbeat IPC: 0.4557 cumulative IPC: 0.5498 (Simulation time: 00 hr 06 min 36 sec)
Heartbeat CPU 0 instructions: 60500363 cycles: 33280142 heartbeat IPC: 0.4683 cumulative IPC: 0.5453 (Simulation time: 00 hr 06 min 44 sec)
Heartbeat CPU 0 instructions: 61000363 cycles: 34317708 heartbeat IPC: 0.4819 cumulative IPC: 0.542 (Simulation time: 00 hr 06 min 51 sec)
Heartbeat CPU 0 instructions: 61500367 cycles: 35762335 heartbeat IPC: 0.3461 cumulative IPC: 0.529 (Simulation time: 00 hr 07 min 02 sec)
Heartbeat CPU 0 instructions: 62000369 cycles: 37284309 heartbeat IPC: 0.3285 cumulative IPC: 0.5159 (Simulation time: 00 hr 07 min 12 sec)
Heartbeat CPU 0 instructions: 62500369 cycles: 38463750 heartbeat IPC: 0.4239 cumulative IPC: 0.5115 (Simulation time: 00 hr 07 min 21 sec)
Heartbeat CPU 0 instructions: 63000369 cycles: 40198253 heartbeat IPC: 0.2883 cumulative IPC: 0.4967 (Simulation time: 00 hr 07 min 33 sec)
Heartbeat CPU 0 instructions: 63500370 cycles: 41124323 heartbeat IPC: 0.5399 cumulative IPC: 0.4981 (Simulation time: 00 hr 07 min 40 sec)
Heartbeat CPU 0 instructions: 64000372 cycles: 42477674 heartbeat IPC: 0.3695 cumulative IPC: 0.492 (Simulation time: 00 hr 07 min 50 sec)
Heartbeat CPU 0 instructions: 64500372 cycles: 43444874 heartbeat IPC: 0.517 cumulative IPC: 0.4928 (Simulation time: 00 hr 07 min 57 sec)
Heartbeat CPU 0 instructions: 65000372 cycles: 44597847 heartbeat IPC: 0.4337 cumulative IPC: 0.4906 (Simulation time: 00 hr 08 min 05 sec)
Heartbeat CPU 0 instructions: 65500378 cycles: 45583777 heartbeat IPC: 0.5071 cumulative IPC: 0.4911 (Simulation time: 00 hr 08 min 13 sec)
Heartbeat CPU 0 instructions: 66000381 cycles: 46649878 heartbeat IPC: 0.469 cumulative IPC: 0.4904 (Simulation time: 00 hr 08 min 20 sec)
Heartbeat CPU 0 instructions: 66500384 cycles: 47712377 heartbeat IPC: 0.4706 cumulative IPC: 0.4898 (Simulation time: 00 hr 08 min 28 sec)
Heartbeat CPU 0 instructions: 67000384 cycles: 49179329 heartbeat IPC: 0.3408 cumulative IPC: 0.4836 (Simulation time: 00 hr 08 min 39 sec)
Heartbeat CPU 0 instructions: 67500386 cycles: 50460185 heartbeat IPC: 0.3904 cumulative IPC: 0.4803 (Simulation time: 00 hr 08 min 48 sec)
Heartbeat CPU 0 instructions: 68000387 cycles: 51478272 heartbeat IPC: 0.4911 cumulative IPC: 0.4806 (Simulation time: 00 hr 08 min 55 sec)
Heartbeat CPU 0 instructions: 68500392 cycles: 52861944 heartbeat IPC: 0.3614 cumulative IPC: 0.4763 (Simulation time: 00 hr 09 min 05 sec)
Heartbeat CPU 0 instructions: 69000392 cycles: 53723762 heartbeat IPC: 0.5802 cumulative IPC: 0.4786 (Simulation time: 00 hr 09 min 12 sec)
Heartbeat CPU 0 instructions: 69500392 cycles: 54692156 heartbeat IPC: 0.5163 cumulative IPC: 0.4795 (Simulation time: 00 hr 09 min 19 sec)
Heartbeat CPU 0 instructions: 70000394 cycles: 56134896 heartbeat IPC: 0.3466 cumulative IPC: 0.4749 (Simulation time: 00 hr 09 min 29 sec)
Heartbeat CPU 0 instructions: 70500394 cycles: 57848270 heartbeat IPC: 0.2918 cumulative IPC: 0.4678 (Simulation time: 00 hr 09 min 41 sec)
Heartbeat CPU 0 instructions: 71000394 cycles: 59007193 heartbeat IPC: 0.4314 cumulative IPC: 0.4668 (Simulation time: 00 hr 09 min 50 sec)
Heartbeat CPU 0 instructions: 71500399 cycles: 59862900 heartbeat IPC: 0.5843 cumulative IPC: 0.469 (Simulation time: 00 hr 09 min 56 sec)
Heartbeat CPU 0 instructions: 72000401 cycles: 61209568 heartbeat IPC: 0.3713 cumulative IPC: 0.4662 (Simulation time: 00 hr 10 min 05 sec)
Heartbeat CPU 0 instructions: 72500403 cycles: 62561525 heartbeat IPC: 0.3698 cumulative IPC: 0.4636 (Simulation time: 00 hr 10 min 15 sec)
Heartbeat CPU 0 instructions: 73000407 cycles: 63672289 heartbeat IPC: 0.4501 cumulative IPC: 0.4633 (Simulation time: 00 hr 10 min 24 sec)
Heartbeat CPU 0 instructions: 73500412 cycles: 64713285 heartbeat IPC: 0.4803 cumulative IPC: 0.4636 (Simulation time: 00 hr 10 min 32 sec)
Heartbeat CPU 0 instructions: 74000412 cycles: 65760071 heartbeat IPC: 0.4777 cumulative IPC: 0.4639 (Simulation time: 00 hr 10 min 39 sec)
Heartbeat CPU 0 instructions: 74500413 cycles: 66790077 heartbeat IPC: 0.4854 cumulative IPC: 0.4643 (Simulation time: 00 hr 10 min 47 sec)
Heartbeat CPU 0 instructions: 75000414 cycles: 67808820 heartbeat IPC: 0.4908 cumulative IPC: 0.4648 (Simulation time: 00 hr 10 min 55 sec)
Heartbeat CPU 0 instructions: 75500421 cycles: 68799791 heartbeat IPC: 0.5046 cumulative IPC: 0.4655 (Simulation time: 00 hr 11 min 02 sec)
Heartbeat CPU 0 instructions: 76000426 cycles: 69813216 heartbeat IPC: 0.4934 cumulative IPC: 0.466 (Simulation time: 00 hr 11 min 10 sec)
Heartbeat CPU 0 instructions: 76500427 cycles: 70830321 heartbeat IPC: 0.4916 cumulative IPC: 0.4665 (Simulation time: 00 hr 11 min 17 sec)
Heartbeat CPU 0 instructions: 77000427 cycles: 71845745 heartbeat IPC: 0.4924 cumulative IPC: 0.467 (Simulation time: 00 hr 11 min 25 sec)
Heartbeat CPU 0 instructions: 77500430 cycles: 72855718 heartbeat IPC: 0.4951 cumulative IPC: 0.4674 (Simulation time: 00 hr 11 min 33 sec)
Heartbeat CPU 0 instructions: 78000431 cycles: 73818413 heartbeat IPC: 0.5194 cumulative IPC: 0.4683 (Simulation time: 00 hr 11 min 40 sec)
Heartbeat CPU 0 instructions: 78500432 cycles: 74810347 heartbeat IPC: 0.5041 cumulative IPC: 0.4689 (Simulation time: 00 hr 11 min 48 sec)
Heartbeat CPU 0 instructions: 79000434 cycles: 75801387 heartbeat IPC: 0.5045 cumulative IPC: 0.4694 (Simulation time: 00 hr 11 min 55 sec)
Heartbeat CPU 0 instructions: 79500436 cycles: 76806262 heartbeat IPC: 0.4976 cumulative IPC: 0.4699 (Simulation time: 00 hr 12 min 03 sec)
Heartbeat CPU 0 instructions: 80000440 cycles: 77818936 heartbeat IPC: 0.4937 cumulative IPC: 0.4703 (Simulation time: 00 hr 12 min 10 sec)
Heartbeat CPU 0 instructions: 80500440 cycles: 78820902 heartbeat IPC: 0.499 cumulative IPC: 0.4707 (Simulation time: 00 hr 12 min 18 sec)
Heartbeat CPU 0 instructions: 81000441 cycles: 80521088 heartbeat IPC: 0.2941 cumulative IPC: 0.4662 (Simulation time: 00 hr 12 min 30 sec)
Heartbeat CPU 0 instructions: 81500445 cycles: 81783741 heartbeat IPC: 0.396 cumulative IPC: 0.4649 (Simulation time: 00 hr 12 min 38 sec)
Heartbeat CPU 0 instructions: 82000445 cycles: 82909761 heartbeat IPC: 0.444 cumulative IPC: 0.4645 (Simulation time: 00 hr 12 min 47 sec)
Heartbeat CPU 0 instructions: 82500447 cycles: 83851895 heartbeat IPC: 0.5307 cumulative IPC: 0.4654 (Simulation time: 00 hr 12 min 54 sec)
Heartbeat CPU 0 instructions: 83000448 cycles: 84755372 heartbeat IPC: 0.5534 cumulative IPC: 0.4666 (Simulation time: 00 hr 13 min 01 sec)
Heartbeat CPU 0 instructions: 83500448 cycles: 86407350 heartbeat IPC: 0.3027 cumulative IPC: 0.4628 (Simulation time: 00 hr 13 min 12 sec)
Heartbeat CPU 0 instructions: 84000448 cycles: 87638899 heartbeat IPC: 0.406 cumulative IPC: 0.4619 (Simulation time: 00 hr 13 min 21 sec)
Heartbeat CPU 0 instructions: 84500450 cycles: 88978160 heartbeat IPC: 0.3733 cumulative IPC: 0.4603 (Simulation time: 00 hr 13 min 31 sec)
Heartbeat CPU 0 instructions: 85000451 cycles: 90250809 heartbeat IPC: 0.3929 cumulative IPC: 0.4592 (Simulation time: 00 hr 13 min 40 sec)
Heartbeat CPU 0 instructions: 85500454 cycles: 91447372 heartbeat IPC: 0.4179 cumulative IPC: 0.4585 (Simulation time: 00 hr 13 min 49 sec)
Heartbeat CPU 0 instructions: 86000456 cycles: 93181557 heartbeat IPC: 0.2883 cumulative IPC: 0.4548 (Simulation time: 00 hr 14 min 01 sec)
Heartbeat CPU 0 instructions: 86500458 cycles: 93550610 heartbeat IPC: 1.355 cumulative IPC: 0.459 (Simulation time: 00 hr 14 min 04 sec)
Heartbeat CPU 0 instructions: 87000460 cycles: 93859301 heartbeat IPC: 1.62 cumulative IPC: 0.4635 (Simulation time: 00 hr 14 min 07 sec)
Heartbeat CPU 0 instructions: 87500460 cycles: 94225015 heartbeat IPC: 1.367 cumulative IPC: 0.4676 (Simulation time: 00 hr 14 min 11 sec)
Heartbeat CPU 0 instructions: 88000460 cycles: 94523430 heartbeat IPC: 1.676 cumulative IPC: 0.4721 (Simulation time: 00 hr 14 min 14 sec)
Heartbeat CPU 0 instructions: 88500461 cycles: 94847717 heartbeat IPC: 1.542 cumulative IPC: 0.4763 (Simulation time: 00 hr 14 min 17 sec)
Heartbeat CPU 0 instructions: 89000467 cycles: 96889506 heartbeat IPC: 0.2449 cumulative IPC: 0.4706 (Simulation time: 00 hr 14 min 31 sec)
Heartbeat CPU 0 instructions: 89500472 cycles: 98166616 heartbeat IPC: 0.3915 cumulative IPC: 0.4694 (Simulation time: 00 hr 14 min 39 sec)
Heartbeat CPU 0 instructions: 90000472 cycles: 99145541 heartbeat IPC: 0.5108 cumulative IPC: 0.4699 (Simulation time: 00 hr 14 min 47 sec)
Heartbeat CPU 0 instructions: 90500472 cycles: 100438571 heartbeat IPC: 0.3867 cumulative IPC: 0.4687 (Simulation time: 00 hr 14 min 56 sec)
Heartbeat CPU 0 instructions: 91000472 cycles: 101784187 heartbeat IPC: 0.3716 cumulative IPC: 0.4672 (Simulation time: 00 hr 15 min 05 sec)
Heartbeat CPU 0 instructions: 91500476 cycles: 102895206 heartbeat IPC: 0.45 cumulative IPC: 0.467 (Simulation time: 00 hr 15 min 14 sec)
Heartbeat CPU 0 instructions: 92000477 cycles: 103265452 heartbeat IPC: 1.35 cumulative IPC: 0.4706 (Simulation time: 00 hr 15 min 17 sec)
Heartbeat CPU 0 instructions: 92500478 cycles: 103827481 heartbeat IPC: 0.8896 cumulative IPC: 0.4733 (Simulation time: 00 hr 15 min 22 sec)
Heartbeat CPU 0 instructions: 93000482 cycles: 104176472 heartbeat IPC: 1.433 cumulative IPC: 0.477 (Simulation time: 00 hr 15 min 25 sec)
Heartbeat CPU 0 instructions: 93500483 cycles: 104480804 heartbeat IPC: 1.643 cumulative IPC: 0.4809 (Simulation time: 00 hr 15 min 28 sec)
Heartbeat CPU 0 instructions: 94000484 cycles: 104788917 heartbeat IPC: 1.623 cumulative IPC: 0.4848 (Simulation time: 00 hr 15 min 31 sec)
Heartbeat CPU 0 instructions: 94500489 cycles: 105095865 heartbeat IPC: 1.629 cumulative IPC: 0.4886 (Simulation time: 00 hr 15 min 34 sec)
Heartbeat CPU 0 instructions: 95000489 cycles: 105409689 heartbeat IPC: 1.593 cumulative IPC: 0.4924 (Simulation time: 00 hr 15 min 37 sec)
Heartbeat CPU 0 instructions: 95500489 cycles: 105750945 heartbeat IPC: 1.465 cumulative IPC: 0.496 (Simulation time: 00 hr 15 min 40 sec)
Heartbeat CPU 0 instructions: 96000490 cycles: 106080369 heartbeat IPC: 1.518 cumulative IPC: 0.4997 (Simulation time: 00 hr 15 min 43 sec)
Heartbeat CPU 0 instructions: 96500496 cycles: 106425436 heartbeat IPC: 1.449 cumulative IPC: 0.5032 (Simulation time: 00 hr 15 min 46 sec)
Heartbeat CPU 0 instructions: 97000497 cycles: 106752705 heartbeat IPC: 1.528 cumulative IPC: 0.5069 (Simulation time: 00 hr 15 min 49 sec)
Heartbeat CPU 0 instructions: 97500498 cycles: 107060424 heartbeat IPC: 1.625 cumulative IPC: 0.5106 (Simulation time: 00 hr 15 min 52 sec)
Heartbeat CPU 0 instructions: 98000499 cycles: 107253001 heartbeat IPC: 2.596 cumulative IPC: 0.5149 (Simulation time: 00 hr 15 min 54 sec)
Heartbeat CPU 0 instructions: 98500499 cycles: 108754913 heartbeat IPC: 0.3329 cumulative IPC: 0.512 (Simulation time: 00 hr 16 min 05 sec)
Heartbeat CPU 0 instructions: 99000499 cycles: 109750738 heartbeat IPC: 0.5021 cumulative IPC: 0.5119 (Simulation time: 00 hr 16 min 12 sec)
Heartbeat CPU 0 instructions: 99500499 cycles: 110967003 heartbeat IPC: 0.4111 cumulative IPC: 0.5106 (Simulation time: 00 hr 16 min 21 sec)
Heartbeat CPU 0 instructions: 100000506 cycles: 111979148 heartbeat IPC: 0.494 cumulative IPC: 0.5104 (Simulation time: 00 hr 16 min 29 sec)
Heartbeat CPU 0 instructions: 100500507 cycles: 113162282 heartbeat IPC: 0.4226 cumulative IPC: 0.5094 (Simulation time: 00 hr 16 min 37 sec)
Heartbeat CPU 0 instructions: 101000509 cycles: 114227006 heartbeat IPC: 0.4696 cumulative IPC: 0.509 (Simulation time: 00 hr 16 min 46 sec)
Heartbeat CPU 0 instructions: 101500515 cycles: 115248433 heartbeat IPC: 0.4895 cumulative IPC: 0.5088 (Simulation time: 00 hr 16 min 53 sec)
Heartbeat CPU 0 instructions: 102000515 cycles: 116270906 heartbeat IPC: 0.489 cumulative IPC: 0.5086 (Simulation time: 00 hr 17 min 01 sec)
Heartbeat CPU 0 instructions: 102500517 cycles: 117457998 heartbeat IPC: 0.4212 cumulative IPC: 0.5076 (Simulation time: 00 hr 17 min 10 sec)
Heartbeat CPU 0 instructions: 103000517 cycles: 118476317 heartbeat IPC: 0.491 cumulative IPC: 0.5074 (Simulation time: 00 hr 17 min 17 sec)
Heartbeat CPU 0 instructions: 103500517 cycles: 119499509 heartbeat IPC: 0.4887 cumulative IPC: 0.5072 (Simulation time: 00 hr 17 min 25 sec)
Heartbeat CPU 0 instructions: 104000518 cycles: 120506775 heartbeat IPC: 0.4964 cumulative IPC: 0.5071 (Simulation time: 00 hr 17 min 33 sec)
Heartbeat CPU 0 instructions: 104500522 cycles: 121504339 heartbeat IPC: 0.5012 cumulative IPC: 0.5071 (Simulation time: 00 hr 17 min 40 sec)
Heartbeat CPU 0 instructions: 105000527 cycles: 122498266 heartbeat IPC: 0.5031 cumulative IPC: 0.507 (Simulation time: 00 hr 17 min 48 sec)
Heartbeat CPU 0 instructions: 105500531 cycles: 123539617 heartbeat IPC: 0.4801 cumulative IPC: 0.5068 (Simulation time: 00 hr 17 min 56 sec)
Heartbeat CPU 0 instructions: 106000533 cycles: 124556015 heartbeat IPC: 0.4919 cumulative IPC: 0.5066 (Simulation time: 00 hr 18 min 03 sec)
Heartbeat CPU 0 instructions: 106500537 cycles: 125562057 heartbeat IPC: 0.497 cumulative IPC: 0.5066 (Simulation time: 00 hr 18 min 11 sec)
Heartbeat CPU 0 instructions: 107000537 cycles: 126575978 heartbeat IPC: 0.4931 cumulative IPC: 0.5064 (Simulation time: 00 hr 18 min 18 sec)
Heartbeat CPU 0 instructions: 107500537 cycles: 127522386 heartbeat IPC: 0.5283 cumulative IPC: 0.5066 (Simulation time: 00 hr 18 min 26 sec)
Heartbeat CPU 0 instructions: 108000537 cycles: 128531295 heartbeat IPC: 0.4956 cumulative IPC: 0.5065 (Simulation time: 00 hr 18 min 33 sec)
Heartbeat CPU 0 instructions: 108500537 cycles: 129581518 heartbeat IPC: 0.4761 cumulative IPC: 0.5062 (Simulation time: 00 hr 18 min 41 sec)
Heartbeat CPU 0 instructions: 109000540 cycles: 130531430 heartbeat IPC: 0.5264 cumulative IPC: 0.5064 (Simulation time: 00 hr 18 min 48 sec)
Heartbeat CPU 0 instructions: 109500543 cycles: 131551668 heartbeat IPC: 0.4901 cumulative IPC: 0.5063 (Simulation time: 00 hr 18 min 56 sec)
Heartbeat CPU 0 instructions: 110000545 cycles: 132572659 heartbeat IPC: 0.4897 cumulative IPC: 0.5061 (Simulation time: 00 hr 19 min 04 sec)
Heartbeat CPU 0 instructions: 110500547 cycles: 133576710 heartbeat IPC: 0.498 cumulative IPC: 0.5061 (Simulation time: 00 hr 19 min 11 sec)
Heartbeat CPU 0 instructions: 111000547 cycles: 134574243 heartbeat IPC: 0.5012 cumulative IPC: 0.506 (Simulation time: 00 hr 19 min 19 sec)
Heartbeat CPU 0 instructions: 111500550 cycles: 135559399 heartbeat IPC: 0.5075 cumulative IPC: 0.506 (Simulation time: 00 hr 19 min 26 sec)
Heartbeat CPU 0 instructions: 112000550 cycles: 137502452 heartbeat IPC: 0.2573 cumulative IPC: 0.5021 (Simulation time: 00 hr 19 min 39 sec)
Heartbeat CPU 0 instructions: 112500550 cycles: 138906081 heartbeat IPC: 0.3562 cumulative IPC: 0.5005 (Simulation time: 00 hr 19 min 49 sec)
Heartbeat CPU 0 instructions: 113000550 cycles: 140061314 heartbeat IPC: 0.4328 cumulative IPC: 0.4999 (Simulation time: 00 hr 19 min 57 sec)
Heartbeat CPU 0 instructions: 113500557 cycles: 142099673 heartbeat IPC: 0.2453 cumulative IPC: 0.4958 (Simulation time: 00 hr 20 min 10 sec)
Heartbeat CPU 0 instructions: 114000562 cycles: 143311075 heartbeat IPC: 0.4127 cumulative IPC: 0.495 (Simulation time: 00 hr 20 min 19 sec)
Heartbeat CPU 0 instructions: 114500562 cycles: 144672241 heartbeat IPC: 0.3673 cumulative IPC: 0.4937 (Simulation time: 00 hr 20 min 29 sec)
Heartbeat CPU 0 instructions: 115000563 cycles: 145591189 heartbeat IPC: 0.5441 cumulative IPC: 0.494 (Simulation time: 00 hr 20 min 35 sec)
Heartbeat CPU 0 instructions: 115500563 cycles: 146580362 heartbeat IPC: 0.5055 cumulative IPC: 0.4941 (Simulation time: 00 hr 20 min 43 sec)
Heartbeat CPU 0 instructions: 116000564 cycles: 147936101 heartbeat IPC: 0.3688 cumulative IPC: 0.4929 (Simulation time: 00 hr 20 min 52 sec)
Heartbeat CPU 0 instructions: 116500568 cycles: 149703283 heartbeat IPC: 0.2829 cumulative IPC: 0.4901 (Simulation time: 00 hr 21 min 04 sec)
Heartbeat CPU 0 instructions: 117000569 cycles: 150694581 heartbeat IPC: 0.5044 cumulative IPC: 0.4902 (Simulation time: 00 hr 21 min 12 sec)
Heartbeat CPU 0 instructions: 117500569 cycles: 151960588 heartbeat IPC: 0.3949 cumulative IPC: 0.4894 (Simulation time: 00 hr 21 min 20 sec)
Heartbeat CPU 0 instructions: 118000570 cycles: 153476760 heartbeat IPC: 0.3298 cumulative IPC: 0.4876 (Simulation time: 00 hr 21 min 31 sec)
Heartbeat CPU 0 instructions: 118500571 cycles: 154940217 heartbeat IPC: 0.3417 cumulative IPC: 0.4861 (Simulation time: 00 hr 21 min 41 sec)
Heartbeat CPU 0 instructions: 119000573 cycles: 155801305 heartbeat IPC: 0.5807 cumulative IPC: 0.4867 (Simulation time: 00 hr 21 min 47 sec)
Heartbeat CPU 0 instructions: 119500573 cycles: 156931344 heartbeat IPC: 0.4425 cumulative IPC: 0.4863 (Simulation time: 00 hr 21 min 55 sec)
Heartbeat CPU 0 instructions: 120000573 cycles: 157748386 heartbeat IPC: 0.612 cumulative IPC: 0.487 (Simulation time: 00 hr 22 min 01 sec)
Heartbeat CPU 0 instructions: 120500573 cycles: 158852640 heartbeat IPC: 0.4528 cumulative IPC: 0.4868 (Simulation time: 00 hr 22 min 09 sec)
Heartbeat CPU 0 instructions: 121000573 cycles: 159949237 heartbeat IPC: 0.456 cumulative IPC: 0.4866 (Simulation time: 00 hr 22 min 17 sec)
Heartbeat CPU 0 instructions: 121500576 cycles: 161851505 heartbeat IPC: 0.2628 cumulative IPC: 0.4837 (Simulation time: 00 hr 22 min 29 sec)
Heartbeat CPU 0 instructions: 122000576 cycles: 162929823 heartbeat IPC: 0.4637 cumulative IPC: 0.4835 (Simulation time: 00 hr 22 min 37 sec)
Heartbeat CPU 0 instructions: 122500576 cycles: 164077835 heartbeat IPC: 0.4355 cumulative IPC: 0.4832 (Simulation time: 00 hr 22 min 45 sec)
Heartbeat CPU 0 instructions: 123000582 cycles: 165077331 heartbeat IPC: 0.5003 cumulative IPC: 0.4833 (Simulation time: 00 hr 22 min 52 sec)
Heartbeat CPU 0 instructions: 123500582 cycles: 166403662 heartbeat IPC: 0.377 cumulative IPC: 0.4823 (Simulation time: 00 hr 23 min 01 sec)
Heartbeat CPU 0 instructions: 124000583 cycles: 167691984 heartbeat IPC: 0.3881 cumulative IPC: 0.4816 (Simulation time: 00 hr 23 min 10 sec)
Heartbeat CPU 0 instructions: 124500590 cycles: 168753358 heartbeat IPC: 0.4711 cumulative IPC: 0.4815 (Simulation time: 00 hr 23 min 17 sec)
Heartbeat CPU 0 instructions: 125000591 cycles: 170067453 heartbeat IPC: 0.3805 cumulative IPC: 0.4806 (Simulation time: 00 hr 23 min 26 sec)
Heartbeat CPU 0 instructions: 125500591 cycles: 171511205 heartbeat IPC: 0.3463 cumulative IPC: 0.4794 (Simulation time: 00 hr 23 min 36 sec)
Heartbeat CPU 0 instructions: 126000591 cycles: 173060032 heartbeat IPC: 0.3228 cumulative IPC: 0.4779 (Simulation time: 00 hr 23 min 46 sec)
Heartbeat CPU 0 instructions: 126500594 cycles: 174046911 heartbeat IPC: 0.5067 cumulative IPC: 0.4781 (Simulation time: 00 hr 23 min 53 sec)
Heartbeat CPU 0 instructions: 127000594 cycles: 175141430 heartbeat IPC: 0.4568 cumulative IPC: 0.4779 (Simulation time: 00 hr 24 min 01 sec)
Heartbeat CPU 0 instructions: 127500597 cycles: 176045602 heartbeat IPC: 0.553 cumulative IPC: 0.4783 (Simulation time: 00 hr 24 min 07 sec)
Heartbeat CPU 0 instructions: 128000598 cycles: 177592318 heartbeat IPC: 0.3233 cumulative IPC: 0.4769 (Simulation time: 00 hr 24 min 17 sec)
Heartbeat CPU 0 instructions: 128500598 cycles: 178557809 heartbeat IPC: 0.5179 cumulative IPC: 0.4771 (Simulation time: 00 hr 24 min 24 sec)
Heartbeat CPU 0 instructions: 129000600 cycles: 179650477 heartbeat IPC: 0.4576 cumulative IPC: 0.477 (Simulation time: 00 hr 24 min 32 sec)
Heartbeat CPU 0 instructions: 129500602 cycles: 181226310 heartbeat IPC: 0.3173 cumulative IPC: 0.4755 (Simulation time: 00 hr 24 min 42 sec)
Heartbeat CPU 0 instructions: 130000603 cycles: 182561030 heartbeat IPC: 0.3746 cumulative IPC: 0.4747 (Simulation time: 00 hr 24 min 51 sec)
Heartbeat CPU 0 instructions: 130500605 cycles: 183734681 heartbeat IPC: 0.426 cumulative IPC: 0.4743 (Simulation time: 00 hr 24 min 59 sec)
Heartbeat CPU 0 instructions: 131000607 cycles: 185270051 heartbeat IPC: 0.3257 cumulative IPC: 0.473 (Simulation time: 00 hr 25 min 09 sec)
Heartbeat CPU 0 instructions: 131500610 cycles: 186839915 heartbeat IPC: 0.3185 cumulative IPC: 0.4716 (Simulation time: 00 hr 25 min 20 sec)
Heartbeat CPU 0 instructions: 132000611 cycles: 187831635 heartbeat IPC: 0.5042 cumulative IPC: 0.4718 (Simulation time: 00 hr 25 min 27 sec)
Heartbeat CPU 0 instructions: 132500611 cycles: 189351550 heartbeat IPC: 0.329 cumulative IPC: 0.4705 (Simulation time: 00 hr 25 min 36 sec)
Heartbeat CPU 0 instructions: 133000611 cycles: 190391941 heartbeat IPC: 0.4806 cumulative IPC: 0.4706 (Simulation time: 00 hr 25 min 44 sec)
Heartbeat CPU 0 instructions: 133500612 cycles: 191322120 heartbeat IPC: 0.5375 cumulative IPC: 0.471 (Simulation time: 00 hr 25 min 50 sec)
Heartbeat CPU 0 instructions: 134000616 cycles: 192777102 heartbeat IPC: 0.3436 cumulative IPC: 0.4699 (Simulation time: 00 hr 26 min 00 sec)
Heartbeat CPU 0 instructions: 134500617 cycles: 194044126 heartbeat IPC: 0.3946 cumulative IPC: 0.4694 (Simulation time: 00 hr 26 min 08 sec)
Heartbeat CPU 0 instructions: 135000623 cycles: 195414652 heartbeat IPC: 0.3648 cumulative IPC: 0.4686 (Simulation time: 00 hr 26 min 17 sec)
Heartbeat CPU 0 instructions: 135500629 cycles: 196791226 heartbeat IPC: 0.3632 cumulative IPC: 0.4678 (Simulation time: 00 hr 26 min 26 sec)
Heartbeat CPU 0 instructions: 136000629 cycles: 198226819 heartbeat IPC: 0.3483 cumulative IPC: 0.4669 (Simulation time: 00 hr 26 min 36 sec)
Heartbeat CPU 0 instructions: 136500629 cycles: 199117017 heartbeat IPC: 0.5617 cumulative IPC: 0.4673 (Simulation time: 00 hr 26 min 42 sec)
Heartbeat CPU 0 instructions: 137000634 cycles: 200722130 heartbeat IPC: 0.3115 cumulative IPC: 0.466 (Simulation time: 00 hr 26 min 52 sec)
Heartbeat CPU 0 instructions: 137500638 cycles: 202122197 heartbeat IPC: 0.3571 cumulative IPC: 0.4652 (Simulation time: 00 hr 27 min 01 sec)
Heartbeat CPU 0 instructions: 138000640 cycles: 203622462 heartbeat IPC: 0.3333 cumulative IPC: 0.4641 (Simulation time: 00 hr 27 min 10 sec)
Heartbeat CPU 0 instructions: 138500642 cycles: 204740903 heartbeat IPC: 0.4471 cumulative IPC: 0.464 (Simulation time: 00 hr 27 min 18 sec)
Heartbeat CPU 0 instructions: 139000642 cycles: 206119482 heartbeat IPC: 0.3627 cumulative IPC: 0.4633 (Simulation time: 00 hr 27 min 27 sec)
Heartbeat CPU 0 instructions: 139500644 cycles: 207324603 heartbeat IPC: 0.4149 cumulative IPC: 0.463 (Simulation time: 00 hr 27 min 35 sec)
Heartbeat CPU 0 instructions: 140000645 cycles: 208652380 heartbeat IPC: 0.3766 cumulative IPC: 0.4624 (Simulation time: 00 hr 27 min 44 sec)
Heartbeat CPU 0 instructions: 140500646 cycles: 209577965 heartbeat IPC: 0.5402 cumulative IPC: 0.4628 (Simulation time: 00 hr 27 min 50 sec)
Heartbeat CPU 0 instructions: 141000646 cycles: 210803825 heartbeat IPC: 0.4079 cumulative IPC: 0.4624 (Simulation time: 00 hr 27 min 58 sec)
Heartbeat CPU 0 instructions: 141500646 cycles: 211837151 heartbeat IPC: 0.4839 cumulative IPC: 0.4626 (Simulation time: 00 hr 28 min 05 sec)
Heartbeat CPU 0 instructions: 142000650 cycles: 212954047 heartbeat IPC: 0.4477 cumulative IPC: 0.4625 (Simulation time: 00 hr 28 min 13 sec)
Heartbeat CPU 0 instructions: 142500651 cycles: 214247799 heartbeat IPC: 0.3865 cumulative IPC: 0.462 (Simulation time: 00 hr 28 min 21 sec)
Heartbeat CPU 0 instructions: 143000651 cycles: 215937028 heartbeat IPC: 0.296 cumulative IPC: 0.4606 (Simulation time: 00 hr 28 min 31 sec)
Heartbeat CPU 0 instructions: 143500651 cycles: 217140798 heartbeat IPC: 0.4154 cumulative IPC: 0.4603 (Simulation time: 00 hr 28 min 39 sec)
Heartbeat CPU 0 instructions: 144000656 cycles: 218792684 heartbeat IPC: 0.3027 cumulative IPC: 0.4591 (Simulation time: 00 hr 28 min 49 sec)
Heartbeat CPU 0 instructions: 144500656 cycles: 220026737 heartbeat IPC: 0.4052 cumulative IPC: 0.4587 (Simulation time: 00 hr 28 min 57 sec)
Heartbeat CPU 0 instructions: 145000659 cycles: 221012914 heartbeat IPC: 0.507 cumulative IPC: 0.459 (Simulation time: 00 hr 29 min 04 sec)
Heartbeat CPU 0 instructions: 145500659 cycles: 222051723 heartbeat IPC: 0.4813 cumulative IPC: 0.4591 (Simulation time: 00 hr 29 min 11 sec)
Heartbeat CPU 0 instructions: 146000659 cycles: 223060634 heartbeat IPC: 0.4956 cumulative IPC: 0.4593 (Simulation time: 00 hr 29 min 17 sec)
Heartbeat CPU 0 instructions: 146500659 cycles: 224048630 heartbeat IPC: 0.5061 cumulative IPC: 0.4595 (Simulation time: 00 hr 29 min 24 sec)
Heartbeat CPU 0 instructions: 147000661 cycles: 224774831 heartbeat IPC: 0.6885 cumulative IPC: 0.4603 (Simulation time: 00 hr 29 min 29 sec)
Heartbeat CPU 0 instructions: 147500664 cycles: 226207891 heartbeat IPC: 0.3489 cumulative IPC: 0.4595 (Simulation time: 00 hr 29 min 38 sec)
Heartbeat CPU 0 instructions: 148000664 cycles: 227268006 heartbeat IPC: 0.4716 cumulative IPC: 0.4596 (Simulation time: 00 hr 29 min 45 sec)
Heartbeat CPU 0 instructions: 148500666 cycles: 227945927 heartbeat IPC: 0.7376 cumulative IPC: 0.4604 (Simulation time: 00 hr 29 min 50 sec)
Heartbeat CPU 0 instructions: 149000667 cycles: 228587923 heartbeat IPC: 0.7788 cumulative IPC: 0.4614 (Simulation time: 00 hr 29 min 55 sec)
Heartbeat CPU 0 instructions: 149500669 cycles: 229400502 heartbeat IPC: 0.6153 cumulative IPC: 0.462 (Simulation time: 00 hr 30 min 00 sec)
Heartbeat CPU 0 instructions: 150000669 cycles: 230357090 heartbeat IPC: 0.5227 cumulative IPC: 0.4623 (Simulation time: 00 hr 30 min 06 sec)
Heartbeat CPU 0 instructions: 150500669 cycles: 231317304 heartbeat IPC: 0.5207 cumulative IPC: 0.4625 (Simulation time: 00 hr 30 min 13 sec)
Heartbeat CPU 0 instructions: 151000669 cycles: 232328893 heartbeat IPC: 0.4943 cumulative IPC: 0.4627 (Simulation time: 00 hr 30 min 20 sec)
Heartbeat CPU 0 instructions: 151500675 cycles: 233505686 heartbeat IPC: 0.4249 cumulative IPC: 0.4625 (Simulation time: 00 hr 30 min 27 sec)
Heartbeat CPU 0 instructions: 152000677 cycles: 234747085 heartbeat IPC: 0.4028 cumulative IPC: 0.4621 (Simulation time: 00 hr 30 min 35 sec)
Heartbeat CPU 0 instructions: 152500680 cycles: 235711152 heartbeat IPC: 0.5186 cumulative IPC: 0.4624 (Simulation time: 00 hr 30 min 42 sec)
Heartbeat CPU 0 instructions: 153000681 cycles: 236358355 heartbeat IPC: 0.7726 cumulative IPC: 0.4633 (Simulation time: 00 hr 30 min 46 sec)
Heartbeat CPU 0 instructions: 153500681 cycles: 236945161 heartbeat IPC: 0.8521 cumulative IPC: 0.4643 (Simulation time: 00 hr 30 min 50 sec)
Heartbeat CPU 0 instructions: 154000683 cycles: 237311694 heartbeat IPC: 1.364 cumulative IPC: 0.4658 (Simulation time: 00 hr 30 min 53 sec)
Heartbeat CPU 0 instructions: 154500685 cycles: 238028637 heartbeat IPC: 0.6974 cumulative IPC: 0.4665 (Simulation time: 00 hr 30 min 58 sec)
Heartbeat CPU 0 instructions: 155000687 cycles: 239930390 heartbeat IPC: 0.2629 cumulative IPC: 0.4648 (Simulation time: 00 hr 31 min 10 sec)
Heartbeat CPU 0 instructions: 155500689 cycles: 240746703 heartbeat IPC: 0.6125 cumulative IPC: 0.4653 (Simulation time: 00 hr 31 min 15 sec)
Heartbeat CPU 0 instructions: 156000689 cycles: 242137381 heartbeat IPC: 0.3595 cumulative IPC: 0.4647 (Simulation time: 00 hr 31 min 24 sec)
Heartbeat CPU 0 instructions: 156500689 cycles: 243262955 heartbeat IPC: 0.4442 cumulative IPC: 0.4646 (Simulation time: 00 hr 31 min 31 sec)
Heartbeat CPU 0 instructions: 157000692 cycles: 244298186 heartbeat IPC: 0.483 cumulative IPC: 0.4647 (Simulation time: 00 hr 31 min 38 sec)
Heartbeat CPU 0 instructions: 157500698 cycles: 245311595 heartbeat IPC: 0.4934 cumulative IPC: 0.4648 (Simulation time: 00 hr 31 min 45 sec)
Heartbeat CPU 0 instructions: 158000698 cycles: 246169422 heartbeat IPC: 0.5829 cumulative IPC: 0.4652 (Simulation time: 00 hr 31 min 51 sec)
Heartbeat CPU 0 instructions: 158500700 cycles: 247112523 heartbeat IPC: 0.5302 cumulative IPC: 0.4655 (Simulation time: 00 hr 31 min 57 sec)
Heartbeat CPU 0 instructions: 159000701 cycles: 248688362 heartbeat IPC: 0.3173 cumulative IPC: 0.4645 (Simulation time: 00 hr 32 min 07 sec)
Heartbeat CPU 0 instructions: 159500701 cycles: 249738867 heartbeat IPC: 0.476 cumulative IPC: 0.4645 (Simulation time: 00 hr 32 min 14 sec)
Heartbeat CPU 0 instructions: 160000707 cycles: 251658471 heartbeat IPC: 0.2605 cumulative IPC: 0.4629 (Simulation time: 00 hr 32 min 25 sec)
Heartbeat CPU 0 instructions: 160500708 cycles: 252740940 heartbeat IPC: 0.4619 cumulative IPC: 0.4629 (Simulation time: 00 hr 32 min 33 sec)
Heartbeat CPU 0 instructions: 161000714 cycles: 253165057 heartbeat IPC: 1.179 cumulative IPC: 0.4642 (Simulation time: 00 hr 32 min 36 sec)
Heartbeat CPU 0 instructions: 161500719 cycles: 254540011 heartbeat IPC: 0.3637 cumulative IPC: 0.4636 (Simulation time: 00 hr 32 min 45 sec)
Heartbeat CPU 0 instructions: 162000719 cycles: 255378849 heartbeat IPC: 0.5961 cumulative IPC: 0.464 (Simulation time: 00 hr 32 min 51 sec)
Heartbeat CPU 0 instructions: 162500725 cycles: 256223328 heartbeat IPC: 0.5921 cumulative IPC: 0.4645 (Simulation time: 00 hr 32 min 56 sec)
Heartbeat CPU 0 instructions: 163000726 cycles: 257043263 heartbeat IPC: 0.6098 cumulative IPC: 0.465 (Simulation time: 00 hr 33 min 02 sec)
Heartbeat CPU 0 instructions: 163500733 cycles: 258271688 heartbeat IPC: 0.407 cumulative IPC: 0.4647 (Simulation time: 00 hr 33 min 10 sec)
Heartbeat CPU 0 instructions: 164000734 cycles: 259251947 heartbeat IPC: 0.5101 cumulative IPC: 0.4649 (Simulation time: 00 hr 33 min 16 sec)
Heartbeat CPU 0 instructions: 164500735 cycles: 260378788 heartbeat IPC: 0.4437 cumulative IPC: 0.4648 (Simulation time: 00 hr 33 min 23 sec)
Heartbeat CPU 0 instructions: 165000735 cycles: 261608034 heartbeat IPC: 0.4068 cumulative IPC: 0.4645 (Simulation time: 00 hr 33 min 31 sec)
Heartbeat CPU 0 instructions: 165500736 cycles: 262775764 heartbeat IPC: 0.4282 cumulative IPC: 0.4643 (Simulation time: 00 hr 33 min 38 sec)
Heartbeat CPU 0 instructions: 166000739 cycles: 263599801 heartbeat IPC: 0.6068 cumulative IPC: 0.4648 (Simulation time: 00 hr 33 min 44 sec)
Heartbeat CPU 0 instructions: 166500741 cycles: 264571236 heartbeat IPC: 0.5147 cumulative IPC: 0.465 (Simulation time: 00 hr 33 min 50 sec)
Heartbeat CPU 0 instructions: 167000741 cycles: 265447044 heartbeat IPC: 0.5709 cumulative IPC: 0.4654 (Simulation time: 00 hr 33 min 56 sec)
Heartbeat CPU 0 instructions: 167500742 cycles: 266245929 heartbeat IPC: 0.6259 cumulative IPC: 0.4659 (Simulation time: 00 hr 34 min 02 sec)
Heartbeat CPU 0 instructions: 168000742 cycles: 267383289 heartbeat IPC: 0.4396 cumulative IPC: 0.4657 (Simulation time: 00 hr 34 min 09 sec)
Heartbeat CPU 0 instructions: 168500744 cycles: 268591193 heartbeat IPC: 0.4139 cumulative IPC: 0.4655 (Simulation time: 00 hr 34 min 17 sec)
Heartbeat CPU 0 instructions: 169000745 cycles: 269775016 heartbeat IPC: 0.4224 cumulative IPC: 0.4653 (Simulation time: 00 hr 34 min 24 sec)
Heartbeat CPU 0 instructions: 169500745 cycles: 270449159 heartbeat IPC: 0.7417 cumulative IPC: 0.466 (Simulation time: 00 hr 34 min 29 sec)
Heartbeat CPU 0 instructions: 170000746 cycles: 271229144 heartbeat IPC: 0.641 cumulative IPC: 0.4666 (Simulation time: 00 hr 34 min 35 sec)
Heartbeat CPU 0 instructions: 170500752 cycles: 271967579 heartbeat IPC: 0.6771 cumulative IPC: 0.4672 (Simulation time: 00 hr 34 min 40 sec)
Heartbeat CPU 0 instructions: 171000753 cycles: 272369396 heartbeat IPC: 1.244 cumulative IPC: 0.4684 (Simulation time: 00 hr 34 min 43 sec)
Heartbeat CPU 0 instructions: 171500754 cycles: 272761488 heartbeat IPC: 1.275 cumulative IPC: 0.4696 (Simulation time: 00 hr 34 min 46 sec)
Heartbeat CPU 0 instructions: 172000756 cycles: 274146866 heartbeat IPC: 0.3609 cumulative IPC: 0.469 (Simulation time: 00 hr 34 min 54 sec)
Heartbeat CPU 0 instructions: 172500756 cycles: 275323416 heartbeat IPC: 0.425 cumulative IPC: 0.4688 (Simulation time: 00 hr 35 min 02 sec)
Heartbeat CPU 0 instructions: 173000756 cycles: 276343549 heartbeat IPC: 0.4901 cumulative IPC: 0.4689 (Simulation time: 00 hr 35 min 08 sec)
Heartbeat CPU 0 instructions: 173500759 cycles: 277273198 heartbeat IPC: 0.5378 cumulative IPC: 0.4691 (Simulation time: 00 hr 35 min 15 sec)
Heartbeat CPU 0 instructions: 174000765 cycles: 278034094 heartbeat IPC: 0.6571 cumulative IPC: 0.4697 (Simulation time: 00 hr 35 min 20 sec)
Heartbeat CPU 0 instructions: 174500766 cycles: 279123112 heartbeat IPC: 0.4591 cumulative IPC: 0.4696 (Simulation time: 00 hr 35 min 27 sec)
Heartbeat CPU 0 instructions: 175000766 cycles: 280775377 heartbeat IPC: 0.3026 cumulative IPC: 0.4686 (Simulation time: 00 hr 35 min 37 sec)
Heartbeat CPU 0 instructions: 175500766 cycles: 281964006 heartbeat IPC: 0.4207 cumulative IPC: 0.4684 (Simulation time: 00 hr 35 min 45 sec)
Heartbeat CPU 0 instructions: 176000766 cycles: 282841910 heartbeat IPC: 0.5695 cumulative IPC: 0.4687 (Simulation time: 00 hr 35 min 51 sec)
Heartbeat CPU 0 instructions: 176500767 cycles: 283218858 heartbeat IPC: 1.326 cumulative IPC: 0.4699 (Simulation time: 00 hr 35 min 54 sec)
Heartbeat CPU 0 instructions: 177000772 cycles: 283535715 heartbeat IPC: 1.578 cumulative IPC: 0.4712 (Simulation time: 00 hr 35 min 56 sec)
Heartbeat CPU 0 instructions: 177500772 cycles: 284237112 heartbeat IPC: 0.7129 cumulative IPC: 0.4719 (Simulation time: 00 hr 36 min 01 sec)
Heartbeat CPU 0 instructions: 178000778 cycles: 285620158 heartbeat IPC: 0.3615 cumulative IPC: 0.4713 (Simulation time: 00 hr 36 min 10 sec)
Heartbeat CPU 0 instructions: 178500780 cycles: 286250480 heartbeat IPC: 0.7932 cumulative IPC: 0.472 (Simulation time: 00 hr 36 min 14 sec)
Heartbeat CPU 0 instructions: 179000782 cycles: 287082210 heartbeat IPC: 0.6012 cumulative IPC: 0.4724 (Simulation time: 00 hr 36 min 20 sec)
Heartbeat CPU 0 instructions: 179500783 cycles: 287973699 heartbeat IPC: 0.5609 cumulative IPC: 0.4727 (Simulation time: 00 hr 36 min 26 sec)
Heartbeat CPU 0 instructions: 180000783 cycles: 288346567 heartbeat IPC: 1.341 cumulative IPC: 0.4739 (Simulation time: 00 hr 36 min 29 sec)
Heartbeat CPU 0 instructions: 180500784 cycles: 288716874 heartbeat IPC: 1.35 cumulative IPC: 0.4751 (Simulation time: 00 hr 36 min 32 sec)
Heartbeat CPU 0 instructions: 181000785 cycles: 290077046 heartbeat IPC: 0.3676 cumulative IPC: 0.4745 (Simulation time: 00 hr 36 min 40 sec)
Heartbeat CPU 0 instructions: 181500789 cycles: 291094865 heartbeat IPC: 0.4913 cumulative IPC: 0.4746 (Simulation time: 00 hr 36 min 47 sec)
Heartbeat CPU 0 instructions: 182000791 cycles: 292068369 heartbeat IPC: 0.5136 cumulative IPC: 0.4747 (Simulation time: 00 hr 36 min 53 sec)
Heartbeat CPU 0 instructions: 182500792 cycles: 292803624 heartbeat IPC: 0.68 cumulative IPC: 0.4753 (Simulation time: 00 hr 36 min 59 sec)
Heartbeat CPU 0 instructions: 183000796 cycles: 293609063 heartbeat IPC: 0.6208 cumulative IPC: 0.4757 (Simulation time: 00 hr 37 min 04 sec)
Heartbeat CPU 0 instructions: 183500796 cycles: 294841069 heartbeat IPC: 0.4058 cumulative IPC: 0.4754 (Simulation time: 00 hr 37 min 12 sec)
Heartbeat CPU 0 instructions: 184000798 cycles: 296452729 heartbeat IPC: 0.3102 cumulative IPC: 0.4745 (Simulation time: 00 hr 37 min 22 sec)
Heartbeat CPU 0 instructions: 184500798 cycles: 297280737 heartbeat IPC: 0.6039 cumulative IPC: 0.4748 (Simulation time: 00 hr 37 min 27 sec)
Heartbeat CPU 0 instructions: 185000798 cycles: 298286446 heartbeat IPC: 0.4972 cumulative IPC: 0.4749 (Simulation time: 00 hr 37 min 34 sec)
Heartbeat CPU 0 instructions: 185500798 cycles: 299301111 heartbeat IPC: 0.4928 cumulative IPC: 0.475 (Simulation time: 00 hr 37 min 41 sec)
Heartbeat CPU 0 instructions: 186000801 cycles: 300542713 heartbeat IPC: 0.4027 cumulative IPC: 0.4747 (Simulation time: 00 hr 37 min 49 sec)
Heartbeat CPU 0 instructions: 186500807 cycles: 301329106 heartbeat IPC: 0.6358 cumulative IPC: 0.4751 (Simulation time: 00 hr 37 min 54 sec)
Heartbeat CPU 0 instructions: 187000814 cycles: 302492751 heartbeat IPC: 0.4297 cumulative IPC: 0.4749 (Simulation time: 00 hr 38 min 02 sec)
Heartbeat CPU 0 instructions: 187500815 cycles: 303799345 heartbeat IPC: 0.3827 cumulative IPC: 0.4745 (Simulation time: 00 hr 38 min 10 sec)
Heartbeat CPU 0 instructions: 188000815 cycles: 305101564 heartbeat IPC: 0.384 cumulative IPC: 0.4741 (Simulation time: 00 hr 38 min 18 sec)
Heartbeat CPU 0 instructions: 188500816 cycles: 306422158 heartbeat IPC: 0.3786 cumulative IPC: 0.4737 (Simulation time: 00 hr 38 min 26 sec)
Heartbeat CPU 0 instructions: 189000819 cycles: 307527869 heartbeat IPC: 0.4522 cumulative IPC: 0.4736 (Simulation time: 00 hr 38 min 33 sec)
Heartbeat CPU 0 instructions: 189500825 cycles: 309343008 heartbeat IPC: 0.2755 cumulative IPC: 0.4724 (Simulation time: 00 hr 38 min 45 sec)
Heartbeat CPU 0 instructions: 190000826 cycles: 310163295 heartbeat IPC: 0.6095 cumulative IPC: 0.4728 (Simulation time: 00 hr 38 min 51 sec)
Heartbeat CPU 0 instructions: 190500826 cycles: 311341574 heartbeat IPC: 0.4243 cumulative IPC: 0.4726 (Simulation time: 00 hr 38 min 58 sec)
Heartbeat CPU 0 instructions: 191000826 cycles: 312552258 heartbeat IPC: 0.413 cumulative IPC: 0.4723 (Simulation time: 00 hr 39 min 06 sec)
Heartbeat CPU 0 instructions: 191500828 cycles: 313525386 heartbeat IPC: 0.5138 cumulative IPC: 0.4725 (Simulation time: 00 hr 39 min 13 sec)
Heartbeat CPU 0 instructions: 192000829 cycles: 314780505 heartbeat IPC: 0.3984 cumulative IPC: 0.4721 (Simulation time: 00 hr 39 min 20 sec)
Heartbeat CPU 0 instructions: 192500830 cycles: 316043763 heartbeat IPC: 0.3958 cumulative IPC: 0.4718 (Simulation time: 00 hr 39 min 28 sec)
Heartbeat CPU 0 instructions: 193000831 cycles: 316827522 heartbeat IPC: 0.638 cumulative IPC: 0.4723 (Simulation time: 00 hr 39 min 34 sec)
Heartbeat CPU 0 instructions: 193500831 cycles: 317170255 heartbeat IPC: 1.459 cumulative IPC: 0.4734 (Simulation time: 00 hr 39 min 36 sec)
Heartbeat CPU 0 instructions: 194000833 cycles: 317549758 heartbeat IPC: 1.318 cumulative IPC: 0.4744 (Simulation time: 00 hr 39 min 39 sec)
Heartbeat CPU 0 instructions: 194500838 cycles: 319410084 heartbeat IPC: 0.2688 cumulative IPC: 0.4732 (Simulation time: 00 hr 39 min 50 sec)
Heartbeat CPU 0 instructions: 195000841 cycles: 320365416 heartbeat IPC: 0.5234 cumulative IPC: 0.4733 (Simulation time: 00 hr 39 min 57 sec)
Heartbeat CPU 0 instructions: 195500841 cycles: 321278111 heartbeat IPC: 0.5478 cumulative IPC: 0.4736 (Simulation time: 00 hr 40 min 03 sec)
Heartbeat CPU 0 instructions: 196000846 cycles: 322337790 heartbeat IPC: 0.4718 cumulative IPC: 0.4735 (Simulation time: 00 hr 40 min 10 sec)
Heartbeat CPU 0 instructions: 196500848 cycles: 323390325 heartbeat IPC: 0.475 cumulative IPC: 0.4735 (Simulation time: 00 hr 40 min 16 sec)
Heartbeat CPU 0 instructions: 197000850 cycles: 324384664 heartbeat IPC: 0.5028 cumulative IPC: 0.4736 (Simulation time: 00 hr 40 min 23 sec)
Heartbeat CPU 0 instructions: 197500853 cycles: 325745807 heartbeat IPC: 0.3673 cumulative IPC: 0.4732 (Simulation time: 00 hr 40 min 32 sec)
Heartbeat CPU 0 instructions: 198000855 cycles: 326694472 heartbeat IPC: 0.5271 cumulative IPC: 0.4733 (Simulation time: 00 hr 40 min 38 sec)
Heartbeat CPU 0 instructions: 198500856 cycles: 327874298 heartbeat IPC: 0.4238 cumulative IPC: 0.4732 (Simulation time: 00 hr 40 min 45 sec)
Heartbeat CPU 0 instructions: 199000860 cycles: 329027566 heartbeat IPC: 0.4336 cumulative IPC: 0.473 (Simulation time: 00 hr 40 min 53 sec)
Heartbeat CPU 0 instructions: 199500860 cycles: 330442746 heartbeat IPC: 0.3533 cumulative IPC: 0.4725 (Simulation time: 00 hr 41 min 02 sec)
Heartbeat CPU 0 instructions: 200000861 cycles: 331519920 heartbeat IPC: 0.4642 cumulative IPC: 0.4724 (Simulation time: 00 hr 41 min 09 sec)
Heartbeat CPU 0 instructions: 200500863 cycles: 332501273 heartbeat IPC: 0.5095 cumulative IPC: 0.4726 (Simulation time: 00 hr 41 min 15 sec)
Heartbeat CPU 0 instructions: 201000863 cycles: 333768429 heartbeat IPC: 0.3946 cumulative IPC: 0.4723 (Simulation time: 00 hr 41 min 23 sec)
Heartbeat CPU 0 instructions: 201500868 cycles: 334899221 heartbeat IPC: 0.4422 cumulative IPC: 0.4721 (Simulation time: 00 hr 41 min 30 sec)
Heartbeat CPU 0 instructions: 202000873 cycles: 336064009 heartbeat IPC: 0.4293 cumulative IPC: 0.472 (Simulation time: 00 hr 41 min 37 sec)
Heartbeat CPU 0 instructions: 202500874 cycles: 337189227 heartbeat IPC: 0.4444 cumulative IPC: 0.4719 (Simulation time: 00 hr 41 min 44 sec)
Heartbeat CPU 0 instructions: 203000875 cycles: 338795240 heartbeat IPC: 0.3113 cumulative IPC: 0.4711 (Simulation time: 00 hr 41 min 54 sec)
Heartbeat CPU 0 instructions: 203500876 cycles: 340033343 heartbeat IPC: 0.4038 cumulative IPC: 0.4708 (Simulation time: 00 hr 42 min 02 sec)
Heartbeat CPU 0 instructions: 204000876 cycles: 341370946 heartbeat IPC: 0.3738 cumulative IPC: 0.4704 (Simulation time: 00 hr 42 min 10 sec)
Heartbeat CPU 0 instructions: 204500877 cycles: 342507951 heartbeat IPC: 0.4398 cumulative IPC: 0.4703 (Simulation time: 00 hr 42 min 17 sec)
Heartbeat CPU 0 instructions: 205000877 cycles: 343669051 heartbeat IPC: 0.4306 cumulative IPC: 0.4702 (Simulation time: 00 hr 42 min 25 sec)
Heartbeat CPU 0 instructions: 205500877 cycles: 344751276 heartbeat IPC: 0.462 cumulative IPC: 0.4702 (Simulation time: 00 hr 42 min 32 sec)
Heartbeat CPU 0 instructions: 206000877 cycles: 346021495 heartbeat IPC: 0.3936 cumulative IPC: 0.4699 (Simulation time: 00 hr 42 min 40 sec)
Heartbeat CPU 0 instructions: 206500877 cycles: 347329341 heartbeat IPC: 0.3823 cumulative IPC: 0.4695 (Simulation time: 00 hr 42 min 48 sec)
Heartbeat CPU 0 instructions: 207000878 cycles: 348136675 heartbeat IPC: 0.6193 cumulative IPC: 0.4699 (Simulation time: 00 hr 42 min 54 sec)
Heartbeat CPU 0 instructions: 207500878 cycles: 349330286 heartbeat IPC: 0.4189 cumulative IPC: 0.4697 (Simulation time: 00 hr 43 min 02 sec)
Heartbeat CPU 0 instructions: 208000880 cycles: 350478575 heartbeat IPC: 0.4354 cumulative IPC: 0.4696 (Simulation time: 00 hr 43 min 09 sec)
Heartbeat CPU 0 instructions: 208500886 cycles: 351439932 heartbeat IPC: 0.5201 cumulative IPC: 0.4697 (Simulation time: 00 hr 43 min 15 sec)
Heartbeat CPU 0 instructions: 209000887 cycles: 353194130 heartbeat IPC: 0.285 cumulative IPC: 0.4688 (Simulation time: 00 hr 43 min 26 sec)
Heartbeat CPU 0 instructions: 209500890 cycles: 354256100 heartbeat IPC: 0.4708 cumulative IPC: 0.4688 (Simulation time: 00 hr 43 min 33 sec)
Heartbeat CPU 0 instructions: 210000891 cycles: 355281012 heartbeat IPC: 0.4878 cumulative IPC: 0.4689 (Simulation time: 00 hr 43 min 40 sec)
Heartbeat CPU 0 instructions: 210500893 cycles: 356465230 heartbeat IPC: 0.4222 cumulative IPC: 0.4687 (Simulation time: 00 hr 43 min 47 sec)
Heartbeat CPU 0 instructions: 211000894 cycles: 357921190 heartbeat IPC: 0.3434 cumulative IPC: 0.4682 (Simulation time: 00 hr 43 min 56 sec)
Heartbeat CPU 0 instructions: 211500895 cycles: 359026757 heartbeat IPC: 0.4523 cumulative IPC: 0.4681 (Simulation time: 00 hr 44 min 03 sec)
Heartbeat CPU 0 instructions: 212000895 cycles: 359833597 heartbeat IPC: 0.6197 cumulative IPC: 0.4685 (Simulation time: 00 hr 44 min 09 sec)
Heartbeat CPU 0 instructions: 212500902 cycles: 360889973 heartbeat IPC: 0.4733 cumulative IPC: 0.4685 (Simulation time: 00 hr 44 min 16 sec)
Heartbeat CPU 0 instructions: 213000903 cycles: 361745850 heartbeat IPC: 0.5842 cumulative IPC: 0.4688 (Simulation time: 00 hr 44 min 21 sec)
Heartbeat CPU 0 instructions: 213500903 cycles: 362837213 heartbeat IPC: 0.4581 cumulative IPC: 0.4687 (Simulation time: 00 hr 44 min 28 sec)
Heartbeat CPU 0 instructions: 214000903 cycles: 364317432 heartbeat IPC: 0.3378 cumulative IPC: 0.4682 (Simulation time: 00 hr 44 min 37 sec)
Heartbeat CPU 0 instructions: 214500903 cycles: 365869776 heartbeat IPC: 0.3221 cumulative IPC: 0.4675 (Simulation time: 00 hr 44 min 47 sec)
Heartbeat CPU 0 instructions: 215000903 cycles: 367142348 heartbeat IPC: 0.3929 cumulative IPC: 0.4673 (Simulation time: 00 hr 44 min 55 sec)
Heartbeat CPU 0 instructions: 215500909 cycles: 368199805 heartbeat IPC: 0.4728 cumulative IPC: 0.4673 (Simulation time: 00 hr 45 min 02 sec)
Heartbeat CPU 0 instructions: 216000909 cycles: 369591719 heartbeat IPC: 0.3592 cumulative IPC: 0.4669 (Simulation time: 00 hr 45 min 11 sec)
Heartbeat CPU 0 instructions: 216500910 cycles: 370973766 heartbeat IPC: 0.3618 cumulative IPC: 0.4665 (Simulation time: 00 hr 45 min 19 sec)
Heartbeat CPU 0 instructions: 217000911 cycles: 372100788 heartbeat IPC: 0.4436 cumulative IPC: 0.4664 (Simulation time: 00 hr 45 min 26 sec)
Heartbeat CPU 0 instructions: 217500912 cycles: 373259232 heartbeat IPC: 0.4316 cumulative IPC: 0.4663 (Simulation time: 00 hr 45 min 34 sec)
Heartbeat CPU 0 instructions: 218000913 cycles: 375089462 heartbeat IPC: 0.2732 cumulative IPC: 0.4653 (Simulation time: 00 hr 45 min 45 sec)
Heartbeat CPU 0 instructions: 218500913 cycles: 376228875 heartbeat IPC: 0.4388 cumulative IPC: 0.4652 (Simulation time: 00 hr 45 min 53 sec)
Heartbeat CPU 0 instructions: 219000914 cycles: 377771970 heartbeat IPC: 0.324 cumulative IPC: 0.4646 (Simulation time: 00 hr 46 min 02 sec)
Heartbeat CPU 0 instructions: 219500917 cycles: 378154471 heartbeat IPC: 1.307 cumulative IPC: 0.4655 (Simulation time: 00 hr 46 min 05 sec)
Heartbeat CPU 0 instructions: 220000923 cycles: 378503722 heartbeat IPC: 1.432 cumulative IPC: 0.4664 (Simulation time: 00 hr 46 min 08 sec)
Heartbeat CPU 0 instructions: 220500925 cycles: 378854089 heartbeat IPC: 1.427 cumulative IPC: 0.4673 (Simulation time: 00 hr 46 min 11 sec)
Heartbeat CPU 0 instructions: 221000926 cycles: 379310017 heartbeat IPC: 1.097 cumulative IPC: 0.4681 (Simulation time: 00 hr 46 min 14 sec)
Heartbeat CPU 0 instructions: 221500930 cycles: 379661132 heartbeat IPC: 1.424 cumulative IPC: 0.469 (Simulation time: 00 hr 46 min 17 sec)
Heartbeat CPU 0 instructions: 222000935 cycles: 380012031 heartbeat IPC: 1.425 cumulative IPC: 0.47 (Simulation time: 00 hr 46 min 20 sec)
Heartbeat CPU 0 instructions: 222500936 cycles: 380351318 heartbeat IPC: 1.474 cumulative IPC: 0.4709 (Simulation time: 00 hr 46 min 23 sec)
Heartbeat CPU 0 instructions: 223000939 cycles: 380696392 heartbeat IPC: 1.449 cumulative IPC: 0.4718 (Simulation time: 00 hr 46 min 25 sec)
Heartbeat CPU 0 instructions: 223500941 cycles: 381047816 heartbeat IPC: 1.423 cumulative IPC: 0.4727 (Simulation time: 00 hr 46 min 28 sec)
Heartbeat CPU 0 instructions: 224000941 cycles: 381429587 heartbeat IPC: 1.31 cumulative IPC: 0.4736 (Simulation time: 00 hr 46 min 31 sec)
Heartbeat CPU 0 instructions: 224500942 cycles: 381794539 heartbeat IPC: 1.37 cumulative IPC: 0.4745 (Simulation time: 00 hr 46 min 34 sec)
Heartbeat CPU 0 instructions: 225000943 cycles: 382142491 heartbeat IPC: 1.437 cumulative IPC: 0.4754 (Simulation time: 00 hr 46 min 37 sec)
Heartbeat CPU 0 instructions: 225500944 cycles: 382349669 heartbeat IPC: 2.413 cumulative IPC: 0.4765 (Simulation time: 00 hr 46 min 39 sec)
Heartbeat CPU 0 instructions: 226000945 cycles: 383655200 heartbeat IPC: 0.383 cumulative IPC: 0.4762 (Simulation time: 00 hr 46 min 47 sec)
Heartbeat CPU 0 instructions: 226500947 cycles: 384388053 heartbeat IPC: 0.6823 cumulative IPC: 0.4766 (Simulation time: 00 hr 46 min 52 sec)
Heartbeat CPU 0 instructions: 227000950 cycles: 386025791 heartbeat IPC: 0.3053 cumulative IPC: 0.4758 (Simulation time: 00 hr 47 min 02 sec)
Heartbeat CPU 0 instructions: 227500952 cycles: 387464712 heartbeat IPC: 0.3475 cumulative IPC: 0.4753 (Simulation time: 00 hr 47 min 10 sec)
Heartbeat CPU 0 instructions: 228000956 cycles: 388773934 heartbeat IPC: 0.3819 cumulative IPC: 0.475 (Simulation time: 00 hr 47 min 19 sec)
Heartbeat CPU 0 instructions: 228500959 cycles: 390063557 heartbeat IPC: 0.3877 cumulative IPC: 0.4747 (Simulation time: 00 hr 47 min 27 sec)
Heartbeat CPU 0 instructions: 229000960 cycles: 390943732 heartbeat IPC: 0.5681 cumulative IPC: 0.4749 (Simulation time: 00 hr 47 min 33 sec)
Heartbeat CPU 0 instructions: 229500962 cycles: 392642943 heartbeat IPC: 0.2943 cumulative IPC: 0.4741 (Simulation time: 00 hr 47 min 43 sec)
Heartbeat CPU 0 instructions: 230000963 cycles: 394115422 heartbeat IPC: 0.3396 cumulative IPC: 0.4736 (Simulation time: 00 hr 47 min 52 sec)
Heartbeat CPU 0 instructions: 230500963 cycles: 395555857 heartbeat IPC: 0.3471 cumulative IPC: 0.4731 (Simulation time: 00 hr 48 min 00 sec)
Heartbeat CPU 0 instructions: 231000963 cycles: 396795216 heartbeat IPC: 0.4034 cumulative IPC: 0.4729 (Simulation time: 00 hr 48 min 08 sec)
Heartbeat CPU 0 instructions: 231500964 cycles: 397599907 heartbeat IPC: 0.6214 cumulative IPC: 0.4732 (Simulation time: 00 hr 48 min 14 sec)
Heartbeat CPU 0 instructions: 232000964 cycles: 398562517 heartbeat IPC: 0.5194 cumulative IPC: 0.4733 (Simulation time: 00 hr 48 min 20 sec)
Heartbeat CPU 0 instructions: 232500965 cycles: 399521609 heartbeat IPC: 0.5213 cumulative IPC: 0.4734 (Simulation time: 00 hr 48 min 27 sec)
Heartbeat CPU 0 instructions: 233000967 cycles: 401201886 heartbeat IPC: 0.2976 cumulative IPC: 0.4727 (Simulation time: 00 hr 48 min 38 sec)
Heartbeat CPU 0 instructions: 233500969 cycles: 402152982 heartbeat IPC: 0.5257 cumulative IPC: 0.4728 (Simulation time: 00 hr 48 min 44 sec)
Heartbeat CPU 0 instructions: 234000974 cycles: 403354501 heartbeat IPC: 0.4161 cumulative IPC: 0.4726 (Simulation time: 00 hr 48 min 51 sec)
Heartbeat CPU 0 instructions: 234500975 cycles: 404275353 heartbeat IPC: 0.543 cumulative IPC: 0.4728 (Simulation time: 00 hr 48 min 57 sec)
Heartbeat CPU 0 instructions: 235000975 cycles: 405394375 heartbeat IPC: 0.4468 cumulative IPC: 0.4727 (Simulation time: 00 hr 49 min 04 sec)
Heartbeat CPU 0 instructions: 235500975 cycles: 406484481 heartbeat IPC: 0.4587 cumulative IPC: 0.4727 (Simulation time: 00 hr 49 min 11 sec)
Heartbeat CPU 0 instructions: 236000977 cycles: 407652568 heartbeat IPC: 0.4281 cumulative IPC: 0.4725 (Simulation time: 00 hr 49 min 19 sec)
Heartbeat CPU 0 instructions: 236500978 cycles: 409078847 heartbeat IPC: 0.3506 cumulative IPC: 0.4721 (Simulation time: 00 hr 49 min 28 sec)
Heartbeat CPU 0 instructions: 237000978 cycles: 410329721 heartbeat IPC: 0.3997 cumulative IPC: 0.4719 (Simulation time: 00 hr 49 min 36 sec)
Heartbeat CPU 0 instructions: 237500985 cycles: 411605681 heartbeat IPC: 0.3919 cumulative IPC: 0.4716 (Simulation time: 00 hr 49 min 44 sec)
Heartbeat CPU 0 instructions: 238000985 cycles: 412837465 heartbeat IPC: 0.4059 cumulative IPC: 0.4714 (Simulation time: 00 hr 49 min 52 sec)
Heartbeat CPU 0 instructions: 238500990 cycles: 413896417 heartbeat IPC: 0.4722 cumulative IPC: 0.4714 (Simulation time: 00 hr 49 min 59 sec)
Heartbeat CPU 0 instructions: 239000991 cycles: 414852289 heartbeat IPC: 0.5231 cumulative IPC: 0.4715 (Simulation time: 00 hr 50 min 05 sec)
Heartbeat CPU 0 instructions: 239500993 cycles: 416175070 heartbeat IPC: 0.378 cumulative IPC: 0.4712 (Simulation time: 00 hr 50 min 13 sec)
Heartbeat CPU 0 instructions: 240000994 cycles: 417400614 heartbeat IPC: 0.408 cumulative IPC: 0.471 (Simulation time: 00 hr 50 min 21 sec)
Heartbeat CPU 0 instructions: 240500994 cycles: 418637067 heartbeat IPC: 0.4044 cumulative IPC: 0.4708 (Simulation time: 00 hr 50 min 29 sec)
Heartbeat CPU 0 instructions: 241000994 cycles: 419563597 heartbeat IPC: 0.5396 cumulative IPC: 0.471 (Simulation time: 00 hr 50 min 35 sec)
Heartbeat CPU 0 instructions: 241500997 cycles: 420770052 heartbeat IPC: 0.4144 cumulative IPC: 0.4708 (Simulation time: 00 hr 50 min 42 sec)
Heartbeat CPU 0 instructions: 242000998 cycles: 421645143 heartbeat IPC: 0.5714 cumulative IPC: 0.471 (Simulation time: 00 hr 50 min 48 sec)
Heartbeat CPU 0 instructions: 242500998 cycles: 422513308 heartbeat IPC: 0.5759 cumulative IPC: 0.4712 (Simulation time: 00 hr 50 min 54 sec)
Heartbeat CPU 0 instructions: 243001000 cycles: 424095403 heartbeat IPC: 0.316 cumulative IPC: 0.4707 (Simulation time: 00 hr 51 min 03 sec)
Heartbeat CPU 0 instructions: 243501002 cycles: 424965944 heartbeat IPC: 0.5744 cumulative IPC: 0.4709 (Simulation time: 00 hr 51 min 09 sec)
Heartbeat CPU 0 instructions: 244001004 cycles: 426055671 heartbeat IPC: 0.4588 cumulative IPC: 0.4708 (Simulation time: 00 hr 51 min 16 sec)
Heartbeat CPU 0 instructions: 244501004 cycles: 427230152 heartbeat IPC: 0.4257 cumulative IPC: 0.4707 (Simulation time: 00 hr 51 min 24 sec)
Heartbeat CPU 0 instructions: 245001008 cycles: 428058569 heartbeat IPC: 0.6036 cumulative IPC: 0.471 (Simulation time: 00 hr 51 min 29 sec)
Heartbeat CPU 0 instructions: 245501009 cycles: 428925216 heartbeat IPC: 0.5769 cumulative IPC: 0.4712 (Simulation time: 00 hr 51 min 35 sec)
Heartbeat CPU 0 instructions: 246001012 cycles: 429999314 heartbeat IPC: 0.4655 cumulative IPC: 0.4712 (Simulation time: 00 hr 51 min 42 sec)
Heartbeat CPU 0 instructions: 246501017 cycles: 431246377 heartbeat IPC: 0.4009 cumulative IPC: 0.471 (Simulation time: 00 hr 51 min 50 sec)
Heartbeat CPU 0 instructions: 247001017 cycles: 432398763 heartbeat IPC: 0.4339 cumulative IPC: 0.4709 (Simulation time: 00 hr 51 min 57 sec)
Heartbeat CPU 0 instructions: 247501018 cycles: 433526180 heartbeat IPC: 0.4435 cumulative IPC: 0.4708 (Simulation time: 00 hr 52 min 04 sec)
Heartbeat CPU 0 instructions: 248001019 cycles: 434523270 heartbeat IPC: 0.5015 cumulative IPC: 0.4709 (Simulation time: 00 hr 52 min 11 sec)
Heartbeat CPU 0 instructions: 248501021 cycles: 435558432 heartbeat IPC: 0.483 cumulative IPC: 0.4709 (Simulation time: 00 hr 52 min 18 sec)
Heartbeat CPU 0 instructions: 249001027 cycles: 436845084 heartbeat IPC: 0.3886 cumulative IPC: 0.4706 (Simulation time: 00 hr 52 min 26 sec)
Heartbeat CPU 0 instructions: 249501027 cycles: 437934508 heartbeat IPC: 0.459 cumulative IPC: 0.4706 (Simulation time: 00 hr 52 min 33 sec)
Simulation finished CPU 0 instructions: 200000003 cycles: 424672265 cumulative IPC: 0.471 (Simulation time: 00 hr 52 min 38 sec)
Simulation complete CPU 0 instructions: 200000003 cycles: 424672265 cumulative IPC: 0.471 (Simulation time: 00 hr 52 min 38 sec)

ChampSim completed all CPUs

=== Simulation ===
CPU 0 runs /local-ssd/ben/dpc4-traces/gtraces_v2/sierra.a.6_0001.champsim.gz

Region of Interest Statistics

CPU 0 cumulative IPC: 0.471 instructions: 200000003 cycles: 424672265
CPU 0 Branch Prediction Accuracy: 87.58% MPKI: 24.53 Average ROB Occupancy at Mispredict: 19.51
Branch type MPKI
BRANCH_DIRECT_JUMP: 1.721
BRANCH_INDIRECT: 0.233
BRANCH_CONDITIONAL: 20.08
BRANCH_DIRECT_CALL: 1.197
BRANCH_INDIRECT_CALL: 0.3042
BRANCH_RETURN: 0.9903

cpu0->cpu0_STLB TOTAL        ACCESS:    3214179 HIT:    2397051 MISS:     817128 MSHR_MERGE:          0
cpu0->cpu0_STLB LOAD         ACCESS:    3214179 HIT:    2397051 MISS:     817128 MSHR_MERGE:          0
cpu0->cpu0_STLB RFO          ACCESS:          0 HIT:          0 MISS:          0 MSHR_MERGE:          0
cpu0->cpu0_STLB PREFETCH     ACCESS:          0 HIT:          0 MISS:          0 MSHR_MERGE:          0
cpu0->cpu0_STLB WRITE        ACCESS:          0 HIT:          0 MISS:          0 MSHR_MERGE:          0
cpu0->cpu0_STLB TRANSLATION  ACCESS:          0 HIT:          0 MISS:          0 MSHR_MERGE:          0
cpu0->cpu0_STLB PREFETCH REQUESTED:          0 ISSUED:          0 USEFUL:          0 USELESS:          0
cpu0->cpu0_STLB AVERAGE MISS LATENCY: 145.7 cycles
cpu0->cpu0_L2C TOTAL        ACCESS:   44838231 HIT:   34560160 MISS:   10278071 MSHR_MERGE:    3680118
cpu0->cpu0_L2C LOAD         ACCESS:    9580371 HIT:    8007869 MISS:    1572502 MSHR_MERGE:     223638
cpu0->cpu0_L2C RFO          ACCESS:     890425 HIT:     522695 MISS:     367730 MSHR_MERGE:       4886
cpu0->cpu0_L2C PREFETCH     ACCESS:   31714600 HIT:   23759651 MISS:    7954949 MSHR_MERGE:    3451594
cpu0->cpu0_L2C WRITE        ACCESS:    1782716 HIT:    1782584 MISS:        132 MSHR_MERGE:          0
cpu0->cpu0_L2C TRANSLATION  ACCESS:     870119 HIT:     487361 MISS:     382758 MSHR_MERGE:          0
cpu0->cpu0_L2C PREFETCH REQUESTED:   35399023 ISSUED:   29757746 USEFUL:    1801991 USELESS:    1804045
cpu0->cpu0_L2C AVERAGE MISS LATENCY: 198.8 cycles
cpu0->cpu0_L1I TOTAL        ACCESS:   21130449 HIT:   12279490 MISS:    8850959 MSHR_MERGE:    2205770
cpu0->cpu0_L1I LOAD         ACCESS:   21130449 HIT:   12279490 MISS:    8850959 MSHR_MERGE:    2205770
cpu0->cpu0_L1I RFO          ACCESS:          0 HIT:          0 MISS:          0 MSHR_MERGE:          0
cpu0->cpu0_L1I PREFETCH     ACCESS:          0 HIT:          0 MISS:          0 MSHR_MERGE:          0
cpu0->cpu0_L1I WRITE        ACCESS:          0 HIT:          0 MISS:          0 MSHR_MERGE:          0
cpu0->cpu0_L1I TRANSLATION  ACCESS:          0 HIT:          0 MISS:          0 MSHR_MERGE:          0
cpu0->cpu0_L1I PREFETCH REQUESTED:          0 ISSUED:          0 USEFUL:          0 USELESS:          0
cpu0->cpu0_L1I AVERAGE MISS LATENCY: 22.17 cycles
cpu0->cpu0_L1D TOTAL        ACCESS:   62903733 HIT:   53224770 MISS:    9678963 MSHR_MERGE:    3026337
cpu0->cpu0_L1D LOAD         ACCESS:   33908263 HIT:   30049573 MISS:    3858690 MSHR_MERGE:     923478
cpu0->cpu0_L1D RFO          ACCESS:          0 HIT:          0 MISS:          0 MSHR_MERGE:          0
cpu0->cpu0_L1D PREFETCH     ACCESS:    3172409 HIT:    1100744 MISS:    2071665 MSHR_MERGE:     114823
cpu0->cpu0_L1D WRITE        ACCESS:   23704763 HIT:   20832314 MISS:    2872449 MSHR_MERGE:    1981996
cpu0->cpu0_L1D TRANSLATION  ACCESS:    2118298 HIT:    1242139 MISS:     876159 MSHR_MERGE:       6040
cpu0->cpu0_L1D PREFETCH REQUESTED:    3195456 ISSUED:    3172401 USEFUL:     804810 USELESS:    1151980
cpu0->cpu0_L1D AVERAGE MISS LATENCY: 86.24 cycles
cpu0->cpu0_ITLB TOTAL        ACCESS:   17251217 HIT:   16313684 MISS:     937533 MSHR_MERGE:     440501
cpu0->cpu0_ITLB LOAD         ACCESS:   17251217 HIT:   16313684 MISS:     937533 MSHR_MERGE:     440501
cpu0->cpu0_ITLB RFO          ACCESS:          0 HIT:          0 MISS:          0 MSHR_MERGE:          0
cpu0->cpu0_ITLB PREFETCH     ACCESS:          0 HIT:          0 MISS:          0 MSHR_MERGE:          0
cpu0->cpu0_ITLB WRITE        ACCESS:          0 HIT:          0 MISS:          0 MSHR_MERGE:          0
cpu0->cpu0_ITLB TRANSLATION  ACCESS:          0 HIT:          0 MISS:          0 MSHR_MERGE:          0
cpu0->cpu0_ITLB PREFETCH REQUESTED:          0 ISSUED:          0 USEFUL:          0 USELESS:          0
cpu0->cpu0_ITLB AVERAGE MISS LATENCY: 21.26 cycles
cpu0->cpu0_DTLB TOTAL        ACCESS:   57617359 HIT:   53169427 MISS:    4447932 MSHR_MERGE:    1730786
cpu0->cpu0_DTLB LOAD         ACCESS:   57617359 HIT:   53169427 MISS:    4447932 MSHR_MERGE:    1730786
cpu0->cpu0_DTLB RFO          ACCESS:          0 HIT:          0 MISS:          0 MSHR_MERGE:          0
cpu0->cpu0_DTLB PREFETCH     ACCESS:          0 HIT:          0 MISS:          0 MSHR_MERGE:          0
cpu0->cpu0_DTLB WRITE        ACCESS:          0 HIT:          0 MISS:          0 MSHR_MERGE:          0
cpu0->cpu0_DTLB TRANSLATION  ACCESS:          0 HIT:          0 MISS:          0 MSHR_MERGE:          0
cpu0->cpu0_DTLB PREFETCH REQUESTED:          0 ISSUED:          0 USEFUL:          0 USELESS:          0
cpu0->cpu0_DTLB AVERAGE MISS LATENCY: 46.14 cycles
cpu0->LLC TOTAL        ACCESS:   10584909 HIT:    2489486 MISS:    8095423 MSHR_MERGE:    1237723
cpu0->LLC LOAD         ACCESS:    1348864 HIT:     324442 MISS:    1024422 MSHR_MERGE:      23752
cpu0->LLC RFO          ACCESS:     362844 HIT:      33602 MISS:     329242 MSHR_MERGE:        390
cpu0->LLC PREFETCH     ACCESS:    7571284 HIT:    1563121 MISS:    6008163 MSHR_MERGE:    1213581
cpu0->LLC WRITE        ACCESS:     919159 HIT:     508323 MISS:     410836 MSHR_MERGE:          0
cpu0->LLC TRANSLATION  ACCESS:     382758 HIT:      59998 MISS:     322760 MSHR_MERGE:          0
cpu0->LLC PREFETCH REQUESTED:    3078077 ISSUED:    3067929 USEFUL:     719341 USELESS:    1364280
cpu0->LLC AVERAGE MISS LATENCY: 188 cycles

DRAM Statistics

Channel 0 RQ ROW_BUFFER_HIT:     790115
  ROW_BUFFER_MISS:    5656626
  AVG DBUS CONGESTED CYCLE: 16.38
Channel 0 WQ ROW_BUFFER_HIT:     222832
  ROW_BUFFER_MISS:     614075
  FULL:          0
Channel 0 REFRESHES ISSUED:      35387
