[VMEM] WARNING: physical memory size is smaller than virtual memory size.

*** ChampSim Multicore Out-of-Order Simulator ***
Warmup Instructions: 50000000
Simulation Instructions: 200000000
Number of CPUs: 1
Page size: 4096
Core 0: /local-ssd/ben/dpc4-traces/gtraces_v2/tahoe_0000.champsim.gz
 L1D Berti prefetcher
Off-chip DRAM Size: 64 GiB Channels: 1 Width: 64-bit Data Rate: 4807 MT/s
[BTB] WARNING: target of return is a lower address than the corresponding call. This is usually a problem with your trace.
[BTB] WARNING: target of return is a lower address than the corresponding call. This is usually a problem with your trace.
[BTB] WARNING: target of return is a lower address than the corresponding call. This is usually a problem with your trace.
[BTB] WARNING: target of return is a lower address than the corresponding call. This is usually a problem with your trace.
[BTB] WARNING: target of return is a lower address than the corresponding call. This is usually a problem with your trace.
Heartbeat CPU 0 instructions: 500007 cycles: 298620 heartbeat IPC: 1.674 cumulative IPC: 1.674 (Simulation time: 00 hr 00 min 04 sec)
[BTB] WARNING: target of return is a lower address than the corresponding call. This is usually a problem with your trace.
Heartbeat CPU 0 instructions: 1000012 cycles: 695511 heartbeat IPC: 1.26 cumulative IPC: 1.438 (Simulation time: 00 hr 00 min 10 sec)
Heartbeat CPU 0 instructions: 1500019 cycles: 976020 heartbeat IPC: 1.782 cumulative IPC: 1.537 (Simulation time: 00 hr 00 min 15 sec)
Heartbeat CPU 0 instructions: 2000022 cycles: 1196930 heartbeat IPC: 2.263 cumulative IPC: 1.671 (Simulation time: 00 hr 00 min 19 sec)
Heartbeat CPU 0 instructions: 2500024 cycles: 1386545 heartbeat IPC: 2.637 cumulative IPC: 1.803 (Simulation time: 00 hr 00 min 22 sec)
Heartbeat CPU 0 instructions: 3000028 cycles: 1594932 heartbeat IPC: 2.399 cumulative IPC: 1.881 (Simulation time: 00 hr 00 min 26 sec)
[BTB] WARNING: target of return is a lower address than the corresponding call. This is usually a problem with your trace.
[BTB] WARNING: target of return is a lower address than the corresponding call. This is usually a problem with your trace.
[BTB] WARNING: target of return is a lower address than the corresponding call. This is usually a problem with your trace.
[BTB] WARNING: target of return is a lower address than the corresponding call. This is usually a problem with your trace.
Heartbeat CPU 0 instructions: 3500033 cycles: 1728677 heartbeat IPC: 3.738 cumulative IPC: 2.025 (Simulation time: 00 hr 00 min 29 sec)
Heartbeat CPU 0 instructions: 4000035 cycles: 1841741 heartbeat IPC: 4.422 cumulative IPC: 2.172 (Simulation time: 00 hr 00 min 31 sec)
Heartbeat CPU 0 instructions: 4500042 cycles: 1953365 heartbeat IPC: 4.479 cumulative IPC: 2.304 (Simulation time: 00 hr 00 min 34 sec)
Heartbeat CPU 0 instructions: 5000043 cycles: 2063993 heartbeat IPC: 4.52 cumulative IPC: 2.423 (Simulation time: 00 hr 00 min 36 sec)
Heartbeat CPU 0 instructions: 5500049 cycles: 2173412 heartbeat IPC: 4.57 cumulative IPC: 2.531 (Simulation time: 00 hr 00 min 38 sec)
Heartbeat CPU 0 instructions: 6000052 cycles: 2285143 heartbeat IPC: 4.475 cumulative IPC: 2.626 (Simulation time: 00 hr 00 min 40 sec)
Heartbeat CPU 0 instructions: 6500059 cycles: 2394919 heartbeat IPC: 4.555 cumulative IPC: 2.714 (Simulation time: 00 hr 00 min 43 sec)
Heartbeat CPU 0 instructions: 7000065 cycles: 2503179 heartbeat IPC: 4.619 cumulative IPC: 2.796 (Simulation time: 00 hr 00 min 45 sec)
Heartbeat CPU 0 instructions: 7500065 cycles: 2610676 heartbeat IPC: 4.651 cumulative IPC: 2.873 (Simulation time: 00 hr 00 min 47 sec)
Heartbeat CPU 0 instructions: 8000069 cycles: 2721889 heartbeat IPC: 4.496 cumulative IPC: 2.939 (Simulation time: 00 hr 00 min 49 sec)
Heartbeat CPU 0 instructions: 8500075 cycles: 2828227 heartbeat IPC: 4.702 cumulative IPC: 3.005 (Simulation time: 00 hr 00 min 52 sec)
Heartbeat CPU 0 instructions: 9000076 cycles: 2936462 heartbeat IPC: 4.62 cumulative IPC: 3.065 (Simulation time: 00 hr 00 min 54 sec)
Heartbeat CPU 0 instructions: 9500077 cycles: 3046342 heartbeat IPC: 4.55 cumulative IPC: 3.119 (Simulation time: 00 hr 00 min 56 sec)
Heartbeat CPU 0 instructions: 10000083 cycles: 3225809 heartbeat IPC: 2.786 cumulative IPC: 3.1 (Simulation time: 00 hr 00 min 59 sec)
Heartbeat CPU 0 instructions: 10500083 cycles: 3518297 heartbeat IPC: 1.709 cumulative IPC: 2.984 (Simulation time: 00 hr 01 min 03 sec)
Heartbeat CPU 0 instructions: 11000086 cycles: 3730353 heartbeat IPC: 2.358 cumulative IPC: 2.949 (Simulation time: 00 hr 01 min 07 sec)
Heartbeat CPU 0 instructions: 11500090 cycles: 3892780 heartbeat IPC: 3.078 cumulative IPC: 2.954 (Simulation time: 00 hr 01 min 09 sec)
Heartbeat CPU 0 instructions: 12000093 cycles: 4028901 heartbeat IPC: 3.673 cumulative IPC: 2.979 (Simulation time: 00 hr 01 min 12 sec)
Heartbeat CPU 0 instructions: 12500095 cycles: 4227840 heartbeat IPC: 2.513 cumulative IPC: 2.957 (Simulation time: 00 hr 01 min 15 sec)
Heartbeat CPU 0 instructions: 13000096 cycles: 4409060 heartbeat IPC: 2.759 cumulative IPC: 2.948 (Simulation time: 00 hr 01 min 18 sec)
Heartbeat CPU 0 instructions: 13500101 cycles: 4566331 heartbeat IPC: 3.179 cumulative IPC: 2.956 (Simulation time: 00 hr 01 min 20 sec)
Heartbeat CPU 0 instructions: 14000106 cycles: 4736473 heartbeat IPC: 2.939 cumulative IPC: 2.956 (Simulation time: 00 hr 01 min 23 sec)
Heartbeat CPU 0 instructions: 14500112 cycles: 4891023 heartbeat IPC: 3.235 cumulative IPC: 2.965 (Simulation time: 00 hr 01 min 26 sec)
Heartbeat CPU 0 instructions: 15000113 cycles: 5047918 heartbeat IPC: 3.187 cumulative IPC: 2.972 (Simulation time: 00 hr 01 min 29 sec)
Heartbeat CPU 0 instructions: 15500120 cycles: 5151623 heartbeat IPC: 4.821 cumulative IPC: 3.009 (Simulation time: 00 hr 01 min 30 sec)
Heartbeat CPU 0 instructions: 16000120 cycles: 5289752 heartbeat IPC: 3.62 cumulative IPC: 3.025 (Simulation time: 00 hr 01 min 33 sec)
Heartbeat CPU 0 instructions: 16500123 cycles: 5419491 heartbeat IPC: 3.854 cumulative IPC: 3.045 (Simulation time: 00 hr 01 min 35 sec)
Heartbeat CPU 0 instructions: 17000126 cycles: 5580707 heartbeat IPC: 3.101 cumulative IPC: 3.046 (Simulation time: 00 hr 01 min 38 sec)
Heartbeat CPU 0 instructions: 17500129 cycles: 5730951 heartbeat IPC: 3.328 cumulative IPC: 3.054 (Simulation time: 00 hr 01 min 40 sec)
Heartbeat CPU 0 instructions: 18000131 cycles: 5864055 heartbeat IPC: 3.756 cumulative IPC: 3.07 (Simulation time: 00 hr 01 min 43 sec)
Heartbeat CPU 0 instructions: 18500136 cycles: 5989261 heartbeat IPC: 3.993 cumulative IPC: 3.089 (Simulation time: 00 hr 01 min 45 sec)
Heartbeat CPU 0 instructions: 19000140 cycles: 6157357 heartbeat IPC: 2.975 cumulative IPC: 3.086 (Simulation time: 00 hr 01 min 47 sec)
Heartbeat CPU 0 instructions: 19500146 cycles: 6327821 heartbeat IPC: 2.933 cumulative IPC: 3.082 (Simulation time: 00 hr 01 min 50 sec)
Heartbeat CPU 0 instructions: 20000148 cycles: 6488047 heartbeat IPC: 3.121 cumulative IPC: 3.083 (Simulation time: 00 hr 01 min 53 sec)
Heartbeat CPU 0 instructions: 20500148 cycles: 6660657 heartbeat IPC: 2.897 cumulative IPC: 3.078 (Simulation time: 00 hr 01 min 55 sec)
Heartbeat CPU 0 instructions: 21000154 cycles: 6823586 heartbeat IPC: 3.069 cumulative IPC: 3.078 (Simulation time: 00 hr 01 min 58 sec)
Heartbeat CPU 0 instructions: 21500155 cycles: 6948930 heartbeat IPC: 3.989 cumulative IPC: 3.094 (Simulation time: 00 hr 02 min 00 sec)
Heartbeat CPU 0 instructions: 22000157 cycles: 7083274 heartbeat IPC: 3.722 cumulative IPC: 3.106 (Simulation time: 00 hr 02 min 02 sec)
Heartbeat CPU 0 instructions: 22500164 cycles: 7241362 heartbeat IPC: 3.163 cumulative IPC: 3.107 (Simulation time: 00 hr 02 min 05 sec)
Heartbeat CPU 0 instructions: 23000170 cycles: 7395783 heartbeat IPC: 3.238 cumulative IPC: 3.11 (Simulation time: 00 hr 02 min 08 sec)
Heartbeat CPU 0 instructions: 23500172 cycles: 7524914 heartbeat IPC: 3.872 cumulative IPC: 3.123 (Simulation time: 00 hr 02 min 10 sec)
Heartbeat CPU 0 instructions: 24000176 cycles: 7627357 heartbeat IPC: 4.881 cumulative IPC: 3.147 (Simulation time: 00 hr 02 min 12 sec)
Heartbeat CPU 0 instructions: 24500177 cycles: 7731942 heartbeat IPC: 4.781 cumulative IPC: 3.169 (Simulation time: 00 hr 02 min 13 sec)
Heartbeat CPU 0 instructions: 25000180 cycles: 7835146 heartbeat IPC: 4.845 cumulative IPC: 3.191 (Simulation time: 00 hr 02 min 15 sec)
Heartbeat CPU 0 instructions: 25500184 cycles: 7937239 heartbeat IPC: 4.898 cumulative IPC: 3.213 (Simulation time: 00 hr 02 min 16 sec)
Heartbeat CPU 0 instructions: 26000186 cycles: 8039181 heartbeat IPC: 4.905 cumulative IPC: 3.234 (Simulation time: 00 hr 02 min 18 sec)
Heartbeat CPU 0 instructions: 26500188 cycles: 8141265 heartbeat IPC: 4.898 cumulative IPC: 3.255 (Simulation time: 00 hr 02 min 19 sec)
Heartbeat CPU 0 instructions: 27000188 cycles: 8243646 heartbeat IPC: 4.884 cumulative IPC: 3.275 (Simulation time: 00 hr 02 min 21 sec)
Heartbeat CPU 0 instructions: 27500190 cycles: 8346073 heartbeat IPC: 4.882 cumulative IPC: 3.295 (Simulation time: 00 hr 02 min 23 sec)
Heartbeat CPU 0 instructions: 28000190 cycles: 8447954 heartbeat IPC: 4.908 cumulative IPC: 3.314 (Simulation time: 00 hr 02 min 24 sec)
Heartbeat CPU 0 instructions: 28500194 cycles: 8550409 heartbeat IPC: 4.88 cumulative IPC: 3.333 (Simulation time: 00 hr 02 min 26 sec)
Heartbeat CPU 0 instructions: 29000199 cycles: 8652976 heartbeat IPC: 4.875 cumulative IPC: 3.351 (Simulation time: 00 hr 02 min 27 sec)
Heartbeat CPU 0 instructions: 29500205 cycles: 8755613 heartbeat IPC: 4.872 cumulative IPC: 3.369 (Simulation time: 00 hr 02 min 29 sec)
Heartbeat CPU 0 instructions: 30000209 cycles: 8857492 heartbeat IPC: 4.908 cumulative IPC: 3.387 (Simulation time: 00 hr 02 min 31 sec)
Heartbeat CPU 0 instructions: 30500215 cycles: 8959260 heartbeat IPC: 4.913 cumulative IPC: 3.404 (Simulation time: 00 hr 02 min 32 sec)
Heartbeat CPU 0 instructions: 31000220 cycles: 9061639 heartbeat IPC: 4.884 cumulative IPC: 3.421 (Simulation time: 00 hr 02 min 34 sec)
Heartbeat CPU 0 instructions: 31500226 cycles: 9163555 heartbeat IPC: 4.906 cumulative IPC: 3.438 (Simulation time: 00 hr 02 min 35 sec)
Heartbeat CPU 0 instructions: 32000227 cycles: 9266818 heartbeat IPC: 4.842 cumulative IPC: 3.453 (Simulation time: 00 hr 02 min 37 sec)
Heartbeat CPU 0 instructions: 32500232 cycles: 9376199 heartbeat IPC: 4.571 cumulative IPC: 3.466 (Simulation time: 00 hr 02 min 39 sec)
Heartbeat CPU 0 instructions: 33000235 cycles: 9479253 heartbeat IPC: 4.852 cumulative IPC: 3.481 (Simulation time: 00 hr 02 min 40 sec)
Heartbeat CPU 0 instructions: 33500240 cycles: 9582836 heartbeat IPC: 4.827 cumulative IPC: 3.496 (Simulation time: 00 hr 02 min 42 sec)
Heartbeat CPU 0 instructions: 34000245 cycles: 9686817 heartbeat IPC: 4.809 cumulative IPC: 3.51 (Simulation time: 00 hr 02 min 43 sec)
Heartbeat CPU 0 instructions: 34500248 cycles: 9820734 heartbeat IPC: 3.734 cumulative IPC: 3.513 (Simulation time: 00 hr 02 min 45 sec)
Heartbeat CPU 0 instructions: 35000248 cycles: 9952697 heartbeat IPC: 3.789 cumulative IPC: 3.517 (Simulation time: 00 hr 02 min 48 sec)
Heartbeat CPU 0 instructions: 35500248 cycles: 10099507 heartbeat IPC: 3.406 cumulative IPC: 3.515 (Simulation time: 00 hr 02 min 50 sec)
Heartbeat CPU 0 instructions: 36000251 cycles: 10245438 heartbeat IPC: 3.426 cumulative IPC: 3.514 (Simulation time: 00 hr 02 min 53 sec)
Heartbeat CPU 0 instructions: 36500257 cycles: 10382559 heartbeat IPC: 3.646 cumulative IPC: 3.516 (Simulation time: 00 hr 02 min 56 sec)
Heartbeat CPU 0 instructions: 37000263 cycles: 10561339 heartbeat IPC: 2.797 cumulative IPC: 3.503 (Simulation time: 00 hr 02 min 59 sec)
Heartbeat CPU 0 instructions: 37500265 cycles: 10703727 heartbeat IPC: 3.512 cumulative IPC: 3.503 (Simulation time: 00 hr 03 min 01 sec)
Heartbeat CPU 0 instructions: 38000270 cycles: 10837962 heartbeat IPC: 3.725 cumulative IPC: 3.506 (Simulation time: 00 hr 03 min 03 sec)
Heartbeat CPU 0 instructions: 38500271 cycles: 11002822 heartbeat IPC: 3.033 cumulative IPC: 3.499 (Simulation time: 00 hr 03 min 06 sec)
Heartbeat CPU 0 instructions: 39000278 cycles: 11124393 heartbeat IPC: 4.113 cumulative IPC: 3.506 (Simulation time: 00 hr 03 min 08 sec)
Heartbeat CPU 0 instructions: 39500281 cycles: 11276075 heartbeat IPC: 3.296 cumulative IPC: 3.503 (Simulation time: 00 hr 03 min 11 sec)
Heartbeat CPU 0 instructions: 40000288 cycles: 11424269 heartbeat IPC: 3.374 cumulative IPC: 3.501 (Simulation time: 00 hr 03 min 14 sec)
Heartbeat CPU 0 instructions: 40500292 cycles: 11571827 heartbeat IPC: 3.389 cumulative IPC: 3.5 (Simulation time: 00 hr 03 min 16 sec)
Heartbeat CPU 0 instructions: 41000298 cycles: 11715233 heartbeat IPC: 3.487 cumulative IPC: 3.5 (Simulation time: 00 hr 03 min 19 sec)
Heartbeat CPU 0 instructions: 41500302 cycles: 11860385 heartbeat IPC: 3.445 cumulative IPC: 3.499 (Simulation time: 00 hr 03 min 21 sec)
Heartbeat CPU 0 instructions: 42000304 cycles: 11998342 heartbeat IPC: 3.624 cumulative IPC: 3.501 (Simulation time: 00 hr 03 min 23 sec)
Heartbeat CPU 0 instructions: 42500309 cycles: 12141469 heartbeat IPC: 3.493 cumulative IPC: 3.5 (Simulation time: 00 hr 03 min 26 sec)
Heartbeat CPU 0 instructions: 43000316 cycles: 12298154 heartbeat IPC: 3.191 cumulative IPC: 3.496 (Simulation time: 00 hr 03 min 28 sec)
Heartbeat CPU 0 instructions: 43500316 cycles: 12439372 heartbeat IPC: 3.541 cumulative IPC: 3.497 (Simulation time: 00 hr 03 min 31 sec)
Heartbeat CPU 0 instructions: 44000316 cycles: 12588208 heartbeat IPC: 3.359 cumulative IPC: 3.495 (Simulation time: 00 hr 03 min 33 sec)
Heartbeat CPU 0 instructions: 44500317 cycles: 12723243 heartbeat IPC: 3.703 cumulative IPC: 3.498 (Simulation time: 00 hr 03 min 35 sec)
Heartbeat CPU 0 instructions: 45000321 cycles: 12891847 heartbeat IPC: 2.966 cumulative IPC: 3.491 (Simulation time: 00 hr 03 min 38 sec)
Heartbeat CPU 0 instructions: 45500328 cycles: 13017553 heartbeat IPC: 3.978 cumulative IPC: 3.495 (Simulation time: 00 hr 03 min 40 sec)
Heartbeat CPU 0 instructions: 46000330 cycles: 13166598 heartbeat IPC: 3.355 cumulative IPC: 3.494 (Simulation time: 00 hr 03 min 43 sec)
Heartbeat CPU 0 instructions: 46500337 cycles: 13319476 heartbeat IPC: 3.271 cumulative IPC: 3.491 (Simulation time: 00 hr 03 min 45 sec)
Heartbeat CPU 0 instructions: 47000341 cycles: 13470470 heartbeat IPC: 3.311 cumulative IPC: 3.489 (Simulation time: 00 hr 03 min 48 sec)
Heartbeat CPU 0 instructions: 47500347 cycles: 13616821 heartbeat IPC: 3.416 cumulative IPC: 3.488 (Simulation time: 00 hr 03 min 50 sec)
Heartbeat CPU 0 instructions: 48000350 cycles: 13758414 heartbeat IPC: 3.531 cumulative IPC: 3.489 (Simulation time: 00 hr 03 min 53 sec)
Heartbeat CPU 0 instructions: 48500352 cycles: 13887838 heartbeat IPC: 3.863 cumulative IPC: 3.492 (Simulation time: 00 hr 03 min 55 sec)
Heartbeat CPU 0 instructions: 49000355 cycles: 13989483 heartbeat IPC: 4.919 cumulative IPC: 3.503 (Simulation time: 00 hr 03 min 57 sec)
Heartbeat CPU 0 instructions: 49500357 cycles: 14092333 heartbeat IPC: 4.861 cumulative IPC: 3.513 (Simulation time: 00 hr 03 min 58 sec)
Warmup halting CPU 0 at instruction 50000004 cycle 14192971 for remainder of phase
Warmup finished CPU 0 instructions: 50000004 cycles: 14192971 cumulative IPC: 3.523 (Simulation time: 00 hr 04 min 00 sec)
Warmup complete CPU 0 instructions: 50000004 cycles: 14192971 cumulative IPC: 3.523 (Simulation time: 00 hr 04 min 00 sec)
Heartbeat CPU 0 instructions: 50000357 cycles: 14193055 heartbeat IPC: 4.964 cumulative IPC: 4.202 (Simulation time: 00 hr 04 min 00 sec)
Heartbeat CPU 0 instructions: 50500359 cycles: 15437164 heartbeat IPC: 0.4019 cumulative IPC: 0.4022 (Simulation time: 00 hr 04 min 10 sec)
Heartbeat CPU 0 instructions: 51000359 cycles: 16254674 heartbeat IPC: 0.6116 cumulative IPC: 0.4852 (Simulation time: 00 hr 04 min 17 sec)
Heartbeat CPU 0 instructions: 51500366 cycles: 17343816 heartbeat IPC: 0.4591 cumulative IPC: 0.4762 (Simulation time: 00 hr 04 min 27 sec)
Heartbeat CPU 0 instructions: 52000367 cycles: 18329640 heartbeat IPC: 0.5072 cumulative IPC: 0.4836 (Simulation time: 00 hr 04 min 35 sec)
Heartbeat CPU 0 instructions: 52500370 cycles: 19278089 heartbeat IPC: 0.5272 cumulative IPC: 0.4917 (Simulation time: 00 hr 04 min 43 sec)
Heartbeat CPU 0 instructions: 53000370 cycles: 20167411 heartbeat IPC: 0.5622 cumulative IPC: 0.5022 (Simulation time: 00 hr 04 min 51 sec)
Heartbeat CPU 0 instructions: 53500374 cycles: 20988029 heartbeat IPC: 0.6093 cumulative IPC: 0.5151 (Simulation time: 00 hr 04 min 59 sec)
Heartbeat CPU 0 instructions: 54000376 cycles: 21922084 heartbeat IPC: 0.5353 cumulative IPC: 0.5176 (Simulation time: 00 hr 05 min 07 sec)
Heartbeat CPU 0 instructions: 54500381 cycles: 22951996 heartbeat IPC: 0.4855 cumulative IPC: 0.5138 (Simulation time: 00 hr 05 min 16 sec)
Heartbeat CPU 0 instructions: 55000381 cycles: 23671932 heartbeat IPC: 0.6945 cumulative IPC: 0.5275 (Simulation time: 00 hr 05 min 23 sec)
Heartbeat CPU 0 instructions: 55500388 cycles: 24851736 heartbeat IPC: 0.4238 cumulative IPC: 0.516 (Simulation time: 00 hr 05 min 33 sec)
Heartbeat CPU 0 instructions: 56000389 cycles: 25766010 heartbeat IPC: 0.5469 cumulative IPC: 0.5185 (Simulation time: 00 hr 05 min 41 sec)
Heartbeat CPU 0 instructions: 56500396 cycles: 26533260 heartbeat IPC: 0.6517 cumulative IPC: 0.5268 (Simulation time: 00 hr 05 min 47 sec)
Heartbeat CPU 0 instructions: 57000397 cycles: 27534447 heartbeat IPC: 0.4994 cumulative IPC: 0.5247 (Simulation time: 00 hr 05 min 56 sec)
Heartbeat CPU 0 instructions: 57500401 cycles: 28297097 heartbeat IPC: 0.6556 cumulative IPC: 0.5318 (Simulation time: 00 hr 06 min 03 sec)
Heartbeat CPU 0 instructions: 58000401 cycles: 29155821 heartbeat IPC: 0.5823 cumulative IPC: 0.5347 (Simulation time: 00 hr 06 min 10 sec)
Heartbeat CPU 0 instructions: 58500404 cycles: 30790640 heartbeat IPC: 0.3058 cumulative IPC: 0.5121 (Simulation time: 00 hr 06 min 21 sec)
Heartbeat CPU 0 instructions: 59000411 cycles: 31677745 heartbeat IPC: 0.5636 cumulative IPC: 0.5148 (Simulation time: 00 hr 06 min 29 sec)
Heartbeat CPU 0 instructions: 59500412 cycles: 33072351 heartbeat IPC: 0.3585 cumulative IPC: 0.5032 (Simulation time: 00 hr 06 min 40 sec)
Heartbeat CPU 0 instructions: 60000418 cycles: 33664821 heartbeat IPC: 0.8439 cumulative IPC: 0.5136 (Simulation time: 00 hr 06 min 45 sec)
Heartbeat CPU 0 instructions: 60500418 cycles: 35114070 heartbeat IPC: 0.345 cumulative IPC: 0.5019 (Simulation time: 00 hr 06 min 55 sec)
Heartbeat CPU 0 instructions: 61000418 cycles: 36644407 heartbeat IPC: 0.3267 cumulative IPC: 0.49 (Simulation time: 00 hr 07 min 05 sec)
Heartbeat CPU 0 instructions: 61500421 cycles: 37537411 heartbeat IPC: 0.5599 cumulative IPC: 0.4926 (Simulation time: 00 hr 07 min 12 sec)
Heartbeat CPU 0 instructions: 62000428 cycles: 38584365 heartbeat IPC: 0.4776 cumulative IPC: 0.492 (Simulation time: 00 hr 07 min 19 sec)
Heartbeat CPU 0 instructions: 62500430 cycles: 39517992 heartbeat IPC: 0.5355 cumulative IPC: 0.4936 (Simulation time: 00 hr 07 min 27 sec)
Heartbeat CPU 0 instructions: 63000430 cycles: 40843160 heartbeat IPC: 0.3773 cumulative IPC: 0.4878 (Simulation time: 00 hr 07 min 36 sec)
Heartbeat CPU 0 instructions: 63500430 cycles: 42218649 heartbeat IPC: 0.3635 cumulative IPC: 0.4817 (Simulation time: 00 hr 07 min 46 sec)
Heartbeat CPU 0 instructions: 64000430 cycles: 43340909 heartbeat IPC: 0.4455 cumulative IPC: 0.4803 (Simulation time: 00 hr 07 min 55 sec)
Heartbeat CPU 0 instructions: 64500433 cycles: 44645325 heartbeat IPC: 0.3833 cumulative IPC: 0.4762 (Simulation time: 00 hr 08 min 03 sec)
Heartbeat CPU 0 instructions: 65000437 cycles: 45775602 heartbeat IPC: 0.4424 cumulative IPC: 0.475 (Simulation time: 00 hr 08 min 11 sec)
Heartbeat CPU 0 instructions: 65500437 cycles: 46037551 heartbeat IPC: 1.909 cumulative IPC: 0.4868 (Simulation time: 00 hr 08 min 14 sec)
Heartbeat CPU 0 instructions: 66000441 cycles: 46267599 heartbeat IPC: 2.173 cumulative IPC: 0.4989 (Simulation time: 00 hr 08 min 17 sec)
Heartbeat CPU 0 instructions: 66500441 cycles: 47144883 heartbeat IPC: 0.5699 cumulative IPC: 0.5007 (Simulation time: 00 hr 08 min 23 sec)
Heartbeat CPU 0 instructions: 67000447 cycles: 49321825 heartbeat IPC: 0.2297 cumulative IPC: 0.4839 (Simulation time: 00 hr 08 min 38 sec)
Heartbeat CPU 0 instructions: 67500447 cycles: 50273517 heartbeat IPC: 0.5254 cumulative IPC: 0.485 (Simulation time: 00 hr 08 min 45 sec)
Heartbeat CPU 0 instructions: 68000454 cycles: 50925449 heartbeat IPC: 0.767 cumulative IPC: 0.49 (Simulation time: 00 hr 08 min 50 sec)
Heartbeat CPU 0 instructions: 68500454 cycles: 52181282 heartbeat IPC: 0.3981 cumulative IPC: 0.487 (Simulation time: 00 hr 08 min 59 sec)
Heartbeat CPU 0 instructions: 69000454 cycles: 53433347 heartbeat IPC: 0.3993 cumulative IPC: 0.4842 (Simulation time: 00 hr 09 min 08 sec)
Heartbeat CPU 0 instructions: 69500454 cycles: 54370584 heartbeat IPC: 0.5335 cumulative IPC: 0.4854 (Simulation time: 00 hr 09 min 15 sec)
Heartbeat CPU 0 instructions: 70000456 cycles: 55734359 heartbeat IPC: 0.3666 cumulative IPC: 0.4815 (Simulation time: 00 hr 09 min 24 sec)
Heartbeat CPU 0 instructions: 70500462 cycles: 56188093 heartbeat IPC: 1.102 cumulative IPC: 0.4882 (Simulation time: 00 hr 09 min 28 sec)
Heartbeat CPU 0 instructions: 71000465 cycles: 57153635 heartbeat IPC: 0.5178 cumulative IPC: 0.4888 (Simulation time: 00 hr 09 min 35 sec)
Heartbeat CPU 0 instructions: 71500468 cycles: 57865971 heartbeat IPC: 0.7019 cumulative IPC: 0.4923 (Simulation time: 00 hr 09 min 40 sec)
Heartbeat CPU 0 instructions: 72000468 cycles: 58597870 heartbeat IPC: 0.6832 cumulative IPC: 0.4955 (Simulation time: 00 hr 09 min 46 sec)
Heartbeat CPU 0 instructions: 72500472 cycles: 59818766 heartbeat IPC: 0.4095 cumulative IPC: 0.4932 (Simulation time: 00 hr 09 min 54 sec)
Heartbeat CPU 0 instructions: 73000472 cycles: 60249845 heartbeat IPC: 1.16 cumulative IPC: 0.4994 (Simulation time: 00 hr 09 min 58 sec)
Heartbeat CPU 0 instructions: 73500473 cycles: 61783928 heartbeat IPC: 0.3259 cumulative IPC: 0.4938 (Simulation time: 00 hr 10 min 08 sec)
Heartbeat CPU 0 instructions: 74000477 cycles: 62778251 heartbeat IPC: 0.5029 cumulative IPC: 0.494 (Simulation time: 00 hr 10 min 15 sec)
Heartbeat CPU 0 instructions: 74500479 cycles: 63134690 heartbeat IPC: 1.403 cumulative IPC: 0.5006 (Simulation time: 00 hr 10 min 19 sec)
Heartbeat CPU 0 instructions: 75000480 cycles: 63350329 heartbeat IPC: 2.319 cumulative IPC: 0.5086 (Simulation time: 00 hr 10 min 21 sec)
Heartbeat CPU 0 instructions: 75500483 cycles: 63530149 heartbeat IPC: 2.781 cumulative IPC: 0.5169 (Simulation time: 00 hr 10 min 23 sec)
Heartbeat CPU 0 instructions: 76000483 cycles: 64174531 heartbeat IPC: 0.7759 cumulative IPC: 0.5202 (Simulation time: 00 hr 10 min 28 sec)
Heartbeat CPU 0 instructions: 76500485 cycles: 65093964 heartbeat IPC: 0.5438 cumulative IPC: 0.5206 (Simulation time: 00 hr 10 min 35 sec)
Heartbeat CPU 0 instructions: 77000492 cycles: 66399700 heartbeat IPC: 0.3829 cumulative IPC: 0.5172 (Simulation time: 00 hr 10 min 44 sec)
Heartbeat CPU 0 instructions: 77500494 cycles: 67507240 heartbeat IPC: 0.4515 cumulative IPC: 0.5158 (Simulation time: 00 hr 10 min 52 sec)
Heartbeat CPU 0 instructions: 78000494 cycles: 69094565 heartbeat IPC: 0.315 cumulative IPC: 0.51 (Simulation time: 00 hr 11 min 02 sec)
Heartbeat CPU 0 instructions: 78500495 cycles: 70967846 heartbeat IPC: 0.2669 cumulative IPC: 0.502 (Simulation time: 00 hr 11 min 14 sec)
Heartbeat CPU 0 instructions: 79000498 cycles: 72218798 heartbeat IPC: 0.3997 cumulative IPC: 0.4998 (Simulation time: 00 hr 11 min 23 sec)
Heartbeat CPU 0 instructions: 79500498 cycles: 73575771 heartbeat IPC: 0.3685 cumulative IPC: 0.4968 (Simulation time: 00 hr 11 min 32 sec)
Heartbeat CPU 0 instructions: 80000501 cycles: 74307258 heartbeat IPC: 0.6835 cumulative IPC: 0.4991 (Simulation time: 00 hr 11 min 38 sec)
Heartbeat CPU 0 instructions: 80500501 cycles: 74723756 heartbeat IPC: 1.2 cumulative IPC: 0.5039 (Simulation time: 00 hr 11 min 42 sec)
Heartbeat CPU 0 instructions: 81000501 cycles: 75102476 heartbeat IPC: 1.32 cumulative IPC: 0.509 (Simulation time: 00 hr 11 min 45 sec)
Heartbeat CPU 0 instructions: 81500508 cycles: 76466323 heartbeat IPC: 0.3666 cumulative IPC: 0.5058 (Simulation time: 00 hr 11 min 54 sec)
Heartbeat CPU 0 instructions: 82000509 cycles: 77865571 heartbeat IPC: 0.3573 cumulative IPC: 0.5026 (Simulation time: 00 hr 12 min 04 sec)
Heartbeat CPU 0 instructions: 82500509 cycles: 78315552 heartbeat IPC: 1.111 cumulative IPC: 0.5068 (Simulation time: 00 hr 12 min 08 sec)
Heartbeat CPU 0 instructions: 83000509 cycles: 79517240 heartbeat IPC: 0.4161 cumulative IPC: 0.5052 (Simulation time: 00 hr 12 min 16 sec)
Heartbeat CPU 0 instructions: 83500509 cycles: 80201546 heartbeat IPC: 0.7307 cumulative IPC: 0.5075 (Simulation time: 00 hr 12 min 22 sec)
Heartbeat CPU 0 instructions: 84000509 cycles: 80788373 heartbeat IPC: 0.852 cumulative IPC: 0.5106 (Simulation time: 00 hr 12 min 27 sec)
Heartbeat CPU 0 instructions: 84500510 cycles: 82143970 heartbeat IPC: 0.3688 cumulative IPC: 0.5077 (Simulation time: 00 hr 12 min 36 sec)
Heartbeat CPU 0 instructions: 85000517 cycles: 83245618 heartbeat IPC: 0.4539 cumulative IPC: 0.5069 (Simulation time: 00 hr 12 min 44 sec)
Heartbeat CPU 0 instructions: 85500523 cycles: 84052744 heartbeat IPC: 0.6195 cumulative IPC: 0.5082 (Simulation time: 00 hr 12 min 51 sec)
Heartbeat CPU 0 instructions: 86000525 cycles: 84727772 heartbeat IPC: 0.7407 cumulative IPC: 0.5104 (Simulation time: 00 hr 12 min 56 sec)
Heartbeat CPU 0 instructions: 86500527 cycles: 85309721 heartbeat IPC: 0.8592 cumulative IPC: 0.5132 (Simulation time: 00 hr 13 min 01 sec)
Heartbeat CPU 0 instructions: 87000528 cycles: 85722056 heartbeat IPC: 1.213 cumulative IPC: 0.5173 (Simulation time: 00 hr 13 min 05 sec)
Heartbeat CPU 0 instructions: 87500534 cycles: 86019676 heartbeat IPC: 1.68 cumulative IPC: 0.5221 (Simulation time: 00 hr 13 min 08 sec)
Heartbeat CPU 0 instructions: 88000537 cycles: 86293982 heartbeat IPC: 1.823 cumulative IPC: 0.527 (Simulation time: 00 hr 13 min 10 sec)
Heartbeat CPU 0 instructions: 88500544 cycles: 86611495 heartbeat IPC: 1.575 cumulative IPC: 0.5316 (Simulation time: 00 hr 13 min 13 sec)
Heartbeat CPU 0 instructions: 89000544 cycles: 87203837 heartbeat IPC: 0.8441 cumulative IPC: 0.5342 (Simulation time: 00 hr 13 min 18 sec)
Heartbeat CPU 0 instructions: 89500544 cycles: 88829696 heartbeat IPC: 0.3075 cumulative IPC: 0.5292 (Simulation time: 00 hr 13 min 29 sec)
Heartbeat CPU 0 instructions: 90000551 cycles: 89526817 heartbeat IPC: 0.7172 cumulative IPC: 0.531 (Simulation time: 00 hr 13 min 34 sec)
Heartbeat CPU 0 instructions: 90500557 cycles: 89762509 heartbeat IPC: 2.121 cumulative IPC: 0.5359 (Simulation time: 00 hr 13 min 36 sec)
Heartbeat CPU 0 instructions: 91000558 cycles: 90742432 heartbeat IPC: 0.5102 cumulative IPC: 0.5356 (Simulation time: 00 hr 13 min 43 sec)
Heartbeat CPU 0 instructions: 91500561 cycles: 91950262 heartbeat IPC: 0.414 cumulative IPC: 0.5337 (Simulation time: 00 hr 13 min 51 sec)
Heartbeat CPU 0 instructions: 92000563 cycles: 92877408 heartbeat IPC: 0.5393 cumulative IPC: 0.5338 (Simulation time: 00 hr 13 min 58 sec)
Heartbeat CPU 0 instructions: 92500568 cycles: 93424411 heartbeat IPC: 0.9141 cumulative IPC: 0.5364 (Simulation time: 00 hr 14 min 03 sec)
Heartbeat CPU 0 instructions: 93000571 cycles: 95428786 heartbeat IPC: 0.2495 cumulative IPC: 0.5293 (Simulation time: 00 hr 14 min 16 sec)
Heartbeat CPU 0 instructions: 93500576 cycles: 96172733 heartbeat IPC: 0.6721 cumulative IPC: 0.5306 (Simulation time: 00 hr 14 min 22 sec)
Heartbeat CPU 0 instructions: 94000576 cycles: 97210612 heartbeat IPC: 0.4818 cumulative IPC: 0.53 (Simulation time: 00 hr 14 min 30 sec)
Heartbeat CPU 0 instructions: 94500583 cycles: 98091083 heartbeat IPC: 0.5679 cumulative IPC: 0.5304 (Simulation time: 00 hr 14 min 37 sec)
Heartbeat CPU 0 instructions: 95000586 cycles: 98849233 heartbeat IPC: 0.6595 cumulative IPC: 0.5316 (Simulation time: 00 hr 14 min 42 sec)
Heartbeat CPU 0 instructions: 95500589 cycles: 99790085 heartbeat IPC: 0.5314 cumulative IPC: 0.5316 (Simulation time: 00 hr 14 min 49 sec)
Heartbeat CPU 0 instructions: 96000592 cycles: 100676020 heartbeat IPC: 0.5644 cumulative IPC: 0.5319 (Simulation time: 00 hr 14 min 56 sec)
Heartbeat CPU 0 instructions: 96500599 cycles: 101020938 heartbeat IPC: 1.45 cumulative IPC: 0.5355 (Simulation time: 00 hr 14 min 59 sec)
Heartbeat CPU 0 instructions: 97000601 cycles: 101365922 heartbeat IPC: 1.449 cumulative IPC: 0.5392 (Simulation time: 00 hr 15 min 03 sec)
Heartbeat CPU 0 instructions: 97500602 cycles: 101719376 heartbeat IPC: 1.415 cumulative IPC: 0.5427 (Simulation time: 00 hr 15 min 06 sec)
Heartbeat CPU 0 instructions: 98000605 cycles: 102065791 heartbeat IPC: 1.443 cumulative IPC: 0.5463 (Simulation time: 00 hr 15 min 09 sec)
Heartbeat CPU 0 instructions: 98500611 cycles: 102410682 heartbeat IPC: 1.45 cumulative IPC: 0.5498 (Simulation time: 00 hr 15 min 12 sec)
Heartbeat CPU 0 instructions: 99000611 cycles: 102757842 heartbeat IPC: 1.44 cumulative IPC: 0.5533 (Simulation time: 00 hr 15 min 15 sec)
Heartbeat CPU 0 instructions: 99500611 cycles: 103101449 heartbeat IPC: 1.455 cumulative IPC: 0.5568 (Simulation time: 00 hr 15 min 18 sec)
Heartbeat CPU 0 instructions: 100000613 cycles: 103446980 heartbeat IPC: 1.447 cumulative IPC: 0.5602 (Simulation time: 00 hr 15 min 21 sec)
Heartbeat CPU 0 instructions: 100500614 cycles: 103785568 heartbeat IPC: 1.477 cumulative IPC: 0.5637 (Simulation time: 00 hr 15 min 24 sec)
Heartbeat CPU 0 instructions: 101000617 cycles: 104131339 heartbeat IPC: 1.446 cumulative IPC: 0.5671 (Simulation time: 00 hr 15 min 27 sec)
Heartbeat CPU 0 instructions: 101500617 cycles: 104462868 heartbeat IPC: 1.508 cumulative IPC: 0.5705 (Simulation time: 00 hr 15 min 30 sec)
Heartbeat CPU 0 instructions: 102000621 cycles: 104799953 heartbeat IPC: 1.483 cumulative IPC: 0.5739 (Simulation time: 00 hr 15 min 33 sec)
Heartbeat CPU 0 instructions: 102500625 cycles: 105141331 heartbeat IPC: 1.465 cumulative IPC: 0.5773 (Simulation time: 00 hr 15 min 36 sec)
Heartbeat CPU 0 instructions: 103000625 cycles: 105483843 heartbeat IPC: 1.46 cumulative IPC: 0.5806 (Simulation time: 00 hr 15 min 39 sec)
Heartbeat CPU 0 instructions: 103500625 cycles: 106555517 heartbeat IPC: 0.4666 cumulative IPC: 0.5792 (Simulation time: 00 hr 15 min 47 sec)
Heartbeat CPU 0 instructions: 104000626 cycles: 107622701 heartbeat IPC: 0.4685 cumulative IPC: 0.578 (Simulation time: 00 hr 15 min 54 sec)
Heartbeat CPU 0 instructions: 104500632 cycles: 109525144 heartbeat IPC: 0.2628 cumulative IPC: 0.5717 (Simulation time: 00 hr 16 min 06 sec)
Heartbeat CPU 0 instructions: 105000634 cycles: 110517346 heartbeat IPC: 0.5039 cumulative IPC: 0.571 (Simulation time: 00 hr 16 min 15 sec)
Heartbeat CPU 0 instructions: 105500638 cycles: 111385631 heartbeat IPC: 0.5759 cumulative IPC: 0.571 (Simulation time: 00 hr 16 min 22 sec)
Heartbeat CPU 0 instructions: 106000645 cycles: 112590687 heartbeat IPC: 0.4149 cumulative IPC: 0.5691 (Simulation time: 00 hr 16 min 30 sec)
Heartbeat CPU 0 instructions: 106500648 cycles: 113529335 heartbeat IPC: 0.5327 cumulative IPC: 0.5688 (Simulation time: 00 hr 16 min 38 sec)
Heartbeat CPU 0 instructions: 107000649 cycles: 114702555 heartbeat IPC: 0.4262 cumulative IPC: 0.5671 (Simulation time: 00 hr 16 min 46 sec)
Heartbeat CPU 0 instructions: 107500650 cycles: 115929805 heartbeat IPC: 0.4074 cumulative IPC: 0.5652 (Simulation time: 00 hr 16 min 55 sec)
Heartbeat CPU 0 instructions: 108000650 cycles: 116627221 heartbeat IPC: 0.7169 cumulative IPC: 0.5662 (Simulation time: 00 hr 17 min 00 sec)
Heartbeat CPU 0 instructions: 108500653 cycles: 117423823 heartbeat IPC: 0.6277 cumulative IPC: 0.5667 (Simulation time: 00 hr 17 min 05 sec)
Heartbeat CPU 0 instructions: 109000656 cycles: 118312472 heartbeat IPC: 0.5627 cumulative IPC: 0.5667 (Simulation time: 00 hr 17 min 13 sec)
Heartbeat CPU 0 instructions: 109500661 cycles: 119079305 heartbeat IPC: 0.652 cumulative IPC: 0.5673 (Simulation time: 00 hr 17 min 19 sec)
Heartbeat CPU 0 instructions: 110000662 cycles: 119611659 heartbeat IPC: 0.9392 cumulative IPC: 0.5692 (Simulation time: 00 hr 17 min 25 sec)
Heartbeat CPU 0 instructions: 110500662 cycles: 120763010 heartbeat IPC: 0.4343 cumulative IPC: 0.5677 (Simulation time: 00 hr 17 min 34 sec)
Heartbeat CPU 0 instructions: 111000666 cycles: 121745890 heartbeat IPC: 0.5087 cumulative IPC: 0.5672 (Simulation time: 00 hr 17 min 41 sec)
Heartbeat CPU 0 instructions: 111500666 cycles: 122874152 heartbeat IPC: 0.4432 cumulative IPC: 0.5659 (Simulation time: 00 hr 17 min 49 sec)
Heartbeat CPU 0 instructions: 112000667 cycles: 123893541 heartbeat IPC: 0.4905 cumulative IPC: 0.5652 (Simulation time: 00 hr 17 min 57 sec)
Heartbeat CPU 0 instructions: 112500674 cycles: 124487783 heartbeat IPC: 0.8414 cumulative IPC: 0.5667 (Simulation time: 00 hr 18 min 03 sec)
Heartbeat CPU 0 instructions: 113000675 cycles: 125471264 heartbeat IPC: 0.5084 cumulative IPC: 0.5662 (Simulation time: 00 hr 18 min 11 sec)
Heartbeat CPU 0 instructions: 113500677 cycles: 126670579 heartbeat IPC: 0.4169 cumulative IPC: 0.5646 (Simulation time: 00 hr 18 min 19 sec)
Heartbeat CPU 0 instructions: 114000682 cycles: 127706284 heartbeat IPC: 0.4828 cumulative IPC: 0.5638 (Simulation time: 00 hr 18 min 27 sec)
Heartbeat CPU 0 instructions: 114500682 cycles: 129215317 heartbeat IPC: 0.3313 cumulative IPC: 0.5608 (Simulation time: 00 hr 18 min 37 sec)
Heartbeat CPU 0 instructions: 115000684 cycles: 130122673 heartbeat IPC: 0.5511 cumulative IPC: 0.5607 (Simulation time: 00 hr 18 min 45 sec)
Heartbeat CPU 0 instructions: 115500689 cycles: 131048137 heartbeat IPC: 0.5403 cumulative IPC: 0.5605 (Simulation time: 00 hr 18 min 51 sec)
Heartbeat CPU 0 instructions: 116000691 cycles: 132282174 heartbeat IPC: 0.4052 cumulative IPC: 0.5589 (Simulation time: 00 hr 19 min 00 sec)
Heartbeat CPU 0 instructions: 116500693 cycles: 133111926 heartbeat IPC: 0.6026 cumulative IPC: 0.5592 (Simulation time: 00 hr 19 min 07 sec)
Heartbeat CPU 0 instructions: 117000696 cycles: 134295895 heartbeat IPC: 0.4223 cumulative IPC: 0.5579 (Simulation time: 00 hr 19 min 15 sec)
Heartbeat CPU 0 instructions: 117500697 cycles: 135362284 heartbeat IPC: 0.4689 cumulative IPC: 0.5571 (Simulation time: 00 hr 19 min 23 sec)
Heartbeat CPU 0 instructions: 118000698 cycles: 136143169 heartbeat IPC: 0.6403 cumulative IPC: 0.5576 (Simulation time: 00 hr 19 min 29 sec)
Heartbeat CPU 0 instructions: 118500698 cycles: 137159019 heartbeat IPC: 0.4922 cumulative IPC: 0.5571 (Simulation time: 00 hr 19 min 36 sec)
Heartbeat CPU 0 instructions: 119000700 cycles: 137720673 heartbeat IPC: 0.8902 cumulative IPC: 0.5586 (Simulation time: 00 hr 19 min 42 sec)
Heartbeat CPU 0 instructions: 119500703 cycles: 138842925 heartbeat IPC: 0.4455 cumulative IPC: 0.5576 (Simulation time: 00 hr 19 min 50 sec)
Heartbeat CPU 0 instructions: 120000706 cycles: 140259055 heartbeat IPC: 0.3531 cumulative IPC: 0.5553 (Simulation time: 00 hr 19 min 59 sec)
Heartbeat CPU 0 instructions: 120500713 cycles: 141306057 heartbeat IPC: 0.4776 cumulative IPC: 0.5546 (Simulation time: 00 hr 20 min 06 sec)
Heartbeat CPU 0 instructions: 121000713 cycles: 143364546 heartbeat IPC: 0.2429 cumulative IPC: 0.5497 (Simulation time: 00 hr 20 min 19 sec)
Heartbeat CPU 0 instructions: 121500715 cycles: 145063004 heartbeat IPC: 0.2944 cumulative IPC: 0.5463 (Simulation time: 00 hr 20 min 30 sec)
Heartbeat CPU 0 instructions: 122000715 cycles: 145532642 heartbeat IPC: 1.065 cumulative IPC: 0.5482 (Simulation time: 00 hr 20 min 34 sec)
Heartbeat CPU 0 instructions: 122500722 cycles: 146294570 heartbeat IPC: 0.6562 cumulative IPC: 0.5488 (Simulation time: 00 hr 20 min 40 sec)
Heartbeat CPU 0 instructions: 123000724 cycles: 147432008 heartbeat IPC: 0.4396 cumulative IPC: 0.5479 (Simulation time: 00 hr 20 min 48 sec)
Heartbeat CPU 0 instructions: 123500726 cycles: 149399274 heartbeat IPC: 0.2542 cumulative IPC: 0.5436 (Simulation time: 00 hr 21 min 01 sec)
Heartbeat CPU 0 instructions: 124000728 cycles: 150181716 heartbeat IPC: 0.639 cumulative IPC: 0.5442 (Simulation time: 00 hr 21 min 07 sec)
Heartbeat CPU 0 instructions: 124500728 cycles: 151178291 heartbeat IPC: 0.5017 cumulative IPC: 0.5439 (Simulation time: 00 hr 21 min 13 sec)
Heartbeat CPU 0 instructions: 125000728 cycles: 151602266 heartbeat IPC: 1.179 cumulative IPC: 0.5458 (Simulation time: 00 hr 21 min 17 sec)
Heartbeat CPU 0 instructions: 125500729 cycles: 152307086 heartbeat IPC: 0.7094 cumulative IPC: 0.5467 (Simulation time: 00 hr 21 min 22 sec)
Heartbeat CPU 0 instructions: 126000732 cycles: 152909008 heartbeat IPC: 0.8307 cumulative IPC: 0.5479 (Simulation time: 00 hr 21 min 27 sec)
Heartbeat CPU 0 instructions: 126500732 cycles: 154111892 heartbeat IPC: 0.4157 cumulative IPC: 0.5468 (Simulation time: 00 hr 21 min 35 sec)
Heartbeat CPU 0 instructions: 127000733 cycles: 155683549 heartbeat IPC: 0.3181 cumulative IPC: 0.5442 (Simulation time: 00 hr 21 min 45 sec)
Heartbeat CPU 0 instructions: 127500733 cycles: 156751104 heartbeat IPC: 0.4684 cumulative IPC: 0.5436 (Simulation time: 00 hr 21 min 53 sec)
Heartbeat CPU 0 instructions: 128000733 cycles: 157372511 heartbeat IPC: 0.8046 cumulative IPC: 0.5448 (Simulation time: 00 hr 21 min 57 sec)
Heartbeat CPU 0 instructions: 128500733 cycles: 157709168 heartbeat IPC: 1.485 cumulative IPC: 0.547 (Simulation time: 00 hr 22 min 00 sec)
Heartbeat CPU 0 instructions: 129000736 cycles: 157934483 heartbeat IPC: 2.219 cumulative IPC: 0.5496 (Simulation time: 00 hr 22 min 03 sec)
Heartbeat CPU 0 instructions: 129500738 cycles: 158409588 heartbeat IPC: 1.052 cumulative IPC: 0.5513 (Simulation time: 00 hr 22 min 07 sec)
Heartbeat CPU 0 instructions: 130000739 cycles: 159005024 heartbeat IPC: 0.8397 cumulative IPC: 0.5524 (Simulation time: 00 hr 22 min 11 sec)
Heartbeat CPU 0 instructions: 130500741 cycles: 159664223 heartbeat IPC: 0.7585 cumulative IPC: 0.5534 (Simulation time: 00 hr 22 min 16 sec)
Heartbeat CPU 0 instructions: 131000741 cycles: 160192063 heartbeat IPC: 0.9473 cumulative IPC: 0.5548 (Simulation time: 00 hr 22 min 20 sec)
Heartbeat CPU 0 instructions: 131500747 cycles: 160700750 heartbeat IPC: 0.9829 cumulative IPC: 0.5563 (Simulation time: 00 hr 22 min 24 sec)
Heartbeat CPU 0 instructions: 132000748 cycles: 161073248 heartbeat IPC: 1.342 cumulative IPC: 0.5583 (Simulation time: 00 hr 22 min 27 sec)
Heartbeat CPU 0 instructions: 132500753 cycles: 161486935 heartbeat IPC: 1.209 cumulative IPC: 0.5601 (Simulation time: 00 hr 22 min 30 sec)
Heartbeat CPU 0 instructions: 133000758 cycles: 162829372 heartbeat IPC: 0.3725 cumulative IPC: 0.5584 (Simulation time: 00 hr 22 min 39 sec)
Heartbeat CPU 0 instructions: 133500760 cycles: 164572822 heartbeat IPC: 0.2868 cumulative IPC: 0.5553 (Simulation time: 00 hr 22 min 51 sec)
Heartbeat CPU 0 instructions: 134000761 cycles: 165519876 heartbeat IPC: 0.528 cumulative IPC: 0.5551 (Simulation time: 00 hr 22 min 57 sec)
Heartbeat CPU 0 instructions: 134500762 cycles: 167178691 heartbeat IPC: 0.3014 cumulative IPC: 0.5523 (Simulation time: 00 hr 23 min 08 sec)
Heartbeat CPU 0 instructions: 135000764 cycles: 168307843 heartbeat IPC: 0.4428 cumulative IPC: 0.5515 (Simulation time: 00 hr 23 min 15 sec)
Heartbeat CPU 0 instructions: 135500766 cycles: 168646511 heartbeat IPC: 1.476 cumulative IPC: 0.5536 (Simulation time: 00 hr 23 min 18 sec)
Heartbeat CPU 0 instructions: 136000766 cycles: 169182137 heartbeat IPC: 0.9335 cumulative IPC: 0.5549 (Simulation time: 00 hr 23 min 22 sec)
Heartbeat CPU 0 instructions: 136500768 cycles: 169748666 heartbeat IPC: 0.8826 cumulative IPC: 0.5561 (Simulation time: 00 hr 23 min 26 sec)
Heartbeat CPU 0 instructions: 137000775 cycles: 170401007 heartbeat IPC: 0.7665 cumulative IPC: 0.557 (Simulation time: 00 hr 23 min 31 sec)
Heartbeat CPU 0 instructions: 137500779 cycles: 170944719 heartbeat IPC: 0.9196 cumulative IPC: 0.5582 (Simulation time: 00 hr 23 min 35 sec)
Heartbeat CPU 0 instructions: 138000781 cycles: 171438773 heartbeat IPC: 1.012 cumulative IPC: 0.5596 (Simulation time: 00 hr 23 min 39 sec)
Heartbeat CPU 0 instructions: 138500783 cycles: 172065002 heartbeat IPC: 0.7984 cumulative IPC: 0.5606 (Simulation time: 00 hr 23 min 43 sec)
Heartbeat CPU 0 instructions: 139000787 cycles: 173673978 heartbeat IPC: 0.3108 cumulative IPC: 0.5581 (Simulation time: 00 hr 23 min 54 sec)
Heartbeat CPU 0 instructions: 139500787 cycles: 174915263 heartbeat IPC: 0.4028 cumulative IPC: 0.5569 (Simulation time: 00 hr 24 min 02 sec)
Heartbeat CPU 0 instructions: 140000787 cycles: 176002449 heartbeat IPC: 0.4599 cumulative IPC: 0.5562 (Simulation time: 00 hr 24 min 10 sec)
Heartbeat CPU 0 instructions: 140500787 cycles: 177150521 heartbeat IPC: 0.4355 cumulative IPC: 0.5554 (Simulation time: 00 hr 24 min 17 sec)
Heartbeat CPU 0 instructions: 141000790 cycles: 178373787 heartbeat IPC: 0.4087 cumulative IPC: 0.5543 (Simulation time: 00 hr 24 min 25 sec)
Heartbeat CPU 0 instructions: 141500794 cycles: 179240555 heartbeat IPC: 0.5769 cumulative IPC: 0.5544 (Simulation time: 00 hr 24 min 32 sec)
Heartbeat CPU 0 instructions: 142000801 cycles: 180659042 heartbeat IPC: 0.3525 cumulative IPC: 0.5527 (Simulation time: 00 hr 24 min 41 sec)
Heartbeat CPU 0 instructions: 142500802 cycles: 181778053 heartbeat IPC: 0.4468 cumulative IPC: 0.552 (Simulation time: 00 hr 24 min 48 sec)
Heartbeat CPU 0 instructions: 143000803 cycles: 183023191 heartbeat IPC: 0.4016 cumulative IPC: 0.5509 (Simulation time: 00 hr 24 min 56 sec)
Heartbeat CPU 0 instructions: 143500803 cycles: 183846209 heartbeat IPC: 0.6075 cumulative IPC: 0.5511 (Simulation time: 00 hr 25 min 02 sec)
Heartbeat CPU 0 instructions: 144000806 cycles: 184277339 heartbeat IPC: 1.16 cumulative IPC: 0.5527 (Simulation time: 00 hr 25 min 07 sec)
Heartbeat CPU 0 instructions: 144500810 cycles: 185357686 heartbeat IPC: 0.4628 cumulative IPC: 0.5521 (Simulation time: 00 hr 25 min 15 sec)
Heartbeat CPU 0 instructions: 145000816 cycles: 186541927 heartbeat IPC: 0.4222 cumulative IPC: 0.5512 (Simulation time: 00 hr 25 min 23 sec)
Heartbeat CPU 0 instructions: 145500818 cycles: 187639696 heartbeat IPC: 0.4555 cumulative IPC: 0.5506 (Simulation time: 00 hr 25 min 30 sec)
Heartbeat CPU 0 instructions: 146000823 cycles: 188707852 heartbeat IPC: 0.4681 cumulative IPC: 0.5501 (Simulation time: 00 hr 25 min 37 sec)
Heartbeat CPU 0 instructions: 146500830 cycles: 189552596 heartbeat IPC: 0.5919 cumulative IPC: 0.5503 (Simulation time: 00 hr 25 min 43 sec)
Heartbeat CPU 0 instructions: 147000834 cycles: 190591310 heartbeat IPC: 0.4814 cumulative IPC: 0.5499 (Simulation time: 00 hr 25 min 50 sec)
Heartbeat CPU 0 instructions: 147500841 cycles: 191562093 heartbeat IPC: 0.5151 cumulative IPC: 0.5497 (Simulation time: 00 hr 25 min 57 sec)
Heartbeat CPU 0 instructions: 148000841 cycles: 192936160 heartbeat IPC: 0.3639 cumulative IPC: 0.5483 (Simulation time: 00 hr 26 min 06 sec)
Heartbeat CPU 0 instructions: 148500841 cycles: 194332929 heartbeat IPC: 0.358 cumulative IPC: 0.5468 (Simulation time: 00 hr 26 min 15 sec)
Heartbeat CPU 0 instructions: 149000842 cycles: 194738071 heartbeat IPC: 1.234 cumulative IPC: 0.5483 (Simulation time: 00 hr 26 min 18 sec)
Heartbeat CPU 0 instructions: 149500842 cycles: 195520434 heartbeat IPC: 0.6391 cumulative IPC: 0.5487 (Simulation time: 00 hr 26 min 24 sec)
Heartbeat CPU 0 instructions: 150000843 cycles: 196861056 heartbeat IPC: 0.373 cumulative IPC: 0.5474 (Simulation time: 00 hr 26 min 33 sec)
Heartbeat CPU 0 instructions: 150500850 cycles: 197511639 heartbeat IPC: 0.7686 cumulative IPC: 0.5482 (Simulation time: 00 hr 26 min 38 sec)
Heartbeat CPU 0 instructions: 151000850 cycles: 198387111 heartbeat IPC: 0.5711 cumulative IPC: 0.5483 (Simulation time: 00 hr 26 min 43 sec)
Heartbeat CPU 0 instructions: 151500850 cycles: 200046265 heartbeat IPC: 0.3014 cumulative IPC: 0.5461 (Simulation time: 00 hr 26 min 53 sec)
Heartbeat CPU 0 instructions: 152000850 cycles: 201072106 heartbeat IPC: 0.4874 cumulative IPC: 0.5458 (Simulation time: 00 hr 27 min 00 sec)
Heartbeat CPU 0 instructions: 152500850 cycles: 202715188 heartbeat IPC: 0.3043 cumulative IPC: 0.5437 (Simulation time: 00 hr 27 min 10 sec)
Heartbeat CPU 0 instructions: 153000854 cycles: 204056164 heartbeat IPC: 0.3729 cumulative IPC: 0.5425 (Simulation time: 00 hr 27 min 18 sec)
Heartbeat CPU 0 instructions: 153500860 cycles: 205237800 heartbeat IPC: 0.4231 cumulative IPC: 0.5418 (Simulation time: 00 hr 27 min 26 sec)
Heartbeat CPU 0 instructions: 154000860 cycles: 206156205 heartbeat IPC: 0.5444 cumulative IPC: 0.5418 (Simulation time: 00 hr 27 min 32 sec)
Heartbeat CPU 0 instructions: 154500862 cycles: 207757470 heartbeat IPC: 0.3123 cumulative IPC: 0.5399 (Simulation time: 00 hr 27 min 41 sec)
Heartbeat CPU 0 instructions: 155000866 cycles: 208746932 heartbeat IPC: 0.5053 cumulative IPC: 0.5397 (Simulation time: 00 hr 27 min 48 sec)
Heartbeat CPU 0 instructions: 155500869 cycles: 210174247 heartbeat IPC: 0.3503 cumulative IPC: 0.5383 (Simulation time: 00 hr 27 min 57 sec)
Heartbeat CPU 0 instructions: 156000870 cycles: 210978789 heartbeat IPC: 0.6215 cumulative IPC: 0.5387 (Simulation time: 00 hr 28 min 02 sec)
Heartbeat CPU 0 instructions: 156500872 cycles: 212065328 heartbeat IPC: 0.4602 cumulative IPC: 0.5382 (Simulation time: 00 hr 28 min 09 sec)
Heartbeat CPU 0 instructions: 157000872 cycles: 213307294 heartbeat IPC: 0.4026 cumulative IPC: 0.5374 (Simulation time: 00 hr 28 min 17 sec)
Heartbeat CPU 0 instructions: 157500872 cycles: 214384734 heartbeat IPC: 0.4641 cumulative IPC: 0.537 (Simulation time: 00 hr 28 min 23 sec)
Heartbeat CPU 0 instructions: 158000872 cycles: 215957157 heartbeat IPC: 0.318 cumulative IPC: 0.5353 (Simulation time: 00 hr 28 min 32 sec)
Heartbeat CPU 0 instructions: 158500874 cycles: 217644870 heartbeat IPC: 0.2963 cumulative IPC: 0.5333 (Simulation time: 00 hr 28 min 42 sec)
Heartbeat CPU 0 instructions: 159000874 cycles: 218384978 heartbeat IPC: 0.6756 cumulative IPC: 0.5338 (Simulation time: 00 hr 28 min 47 sec)
Heartbeat CPU 0 instructions: 159500876 cycles: 219388595 heartbeat IPC: 0.4982 cumulative IPC: 0.5336 (Simulation time: 00 hr 28 min 53 sec)
Heartbeat CPU 0 instructions: 160000876 cycles: 220795925 heartbeat IPC: 0.3553 cumulative IPC: 0.5324 (Simulation time: 00 hr 29 min 02 sec)
Heartbeat CPU 0 instructions: 160500881 cycles: 221680156 heartbeat IPC: 0.5655 cumulative IPC: 0.5326 (Simulation time: 00 hr 29 min 08 sec)
Heartbeat CPU 0 instructions: 161000881 cycles: 223091083 heartbeat IPC: 0.3544 cumulative IPC: 0.5314 (Simulation time: 00 hr 29 min 17 sec)
Heartbeat CPU 0 instructions: 161500881 cycles: 224300887 heartbeat IPC: 0.4133 cumulative IPC: 0.5307 (Simulation time: 00 hr 29 min 25 sec)
Heartbeat CPU 0 instructions: 162000886 cycles: 224886041 heartbeat IPC: 0.8545 cumulative IPC: 0.5316 (Simulation time: 00 hr 29 min 29 sec)
Heartbeat CPU 0 instructions: 162500893 cycles: 225278633 heartbeat IPC: 1.274 cumulative IPC: 0.533 (Simulation time: 00 hr 29 min 34 sec)
Heartbeat CPU 0 instructions: 163000893 cycles: 226183132 heartbeat IPC: 0.5528 cumulative IPC: 0.533 (Simulation time: 00 hr 29 min 40 sec)
Heartbeat CPU 0 instructions: 163500895 cycles: 227587544 heartbeat IPC: 0.356 cumulative IPC: 0.5319 (Simulation time: 00 hr 29 min 48 sec)
Heartbeat CPU 0 instructions: 164000895 cycles: 229368632 heartbeat IPC: 0.2807 cumulative IPC: 0.5298 (Simulation time: 00 hr 29 min 58 sec)
Heartbeat CPU 0 instructions: 164500896 cycles: 230554626 heartbeat IPC: 0.4216 cumulative IPC: 0.5292 (Simulation time: 00 hr 30 min 06 sec)
Heartbeat CPU 0 instructions: 165000898 cycles: 231477789 heartbeat IPC: 0.5416 cumulative IPC: 0.5293 (Simulation time: 00 hr 30 min 12 sec)
Heartbeat CPU 0 instructions: 165500901 cycles: 232416809 heartbeat IPC: 0.5325 cumulative IPC: 0.5293 (Simulation time: 00 hr 30 min 18 sec)
Heartbeat CPU 0 instructions: 166000901 cycles: 233238614 heartbeat IPC: 0.6084 cumulative IPC: 0.5296 (Simulation time: 00 hr 30 min 23 sec)
Heartbeat CPU 0 instructions: 166500902 cycles: 233470867 heartbeat IPC: 2.153 cumulative IPC: 0.5313 (Simulation time: 00 hr 30 min 25 sec)
Heartbeat CPU 0 instructions: 167000905 cycles: 233669932 heartbeat IPC: 2.512 cumulative IPC: 0.5331 (Simulation time: 00 hr 30 min 27 sec)
Heartbeat CPU 0 instructions: 167500909 cycles: 234788504 heartbeat IPC: 0.447 cumulative IPC: 0.5327 (Simulation time: 00 hr 30 min 34 sec)
Heartbeat CPU 0 instructions: 168000909 cycles: 235846784 heartbeat IPC: 0.4725 cumulative IPC: 0.5324 (Simulation time: 00 hr 30 min 41 sec)
Heartbeat CPU 0 instructions: 168500915 cycles: 236744552 heartbeat IPC: 0.5569 cumulative IPC: 0.5325 (Simulation time: 00 hr 30 min 46 sec)
Heartbeat CPU 0 instructions: 169000921 cycles: 237965954 heartbeat IPC: 0.4094 cumulative IPC: 0.5318 (Simulation time: 00 hr 30 min 54 sec)
Heartbeat CPU 0 instructions: 169500921 cycles: 240331718 heartbeat IPC: 0.2113 cumulative IPC: 0.5284 (Simulation time: 00 hr 31 min 09 sec)
Heartbeat CPU 0 instructions: 170000921 cycles: 241502328 heartbeat IPC: 0.4271 cumulative IPC: 0.5279 (Simulation time: 00 hr 31 min 17 sec)
Heartbeat CPU 0 instructions: 170500924 cycles: 242952097 heartbeat IPC: 0.3449 cumulative IPC: 0.5268 (Simulation time: 00 hr 31 min 25 sec)
Heartbeat CPU 0 instructions: 171000927 cycles: 244342878 heartbeat IPC: 0.3595 cumulative IPC: 0.5257 (Simulation time: 00 hr 31 min 33 sec)
Heartbeat CPU 0 instructions: 171500927 cycles: 245756378 heartbeat IPC: 0.3537 cumulative IPC: 0.5247 (Simulation time: 00 hr 31 min 42 sec)
Heartbeat CPU 0 instructions: 172000928 cycles: 246671248 heartbeat IPC: 0.5465 cumulative IPC: 0.5248 (Simulation time: 00 hr 31 min 47 sec)
Heartbeat CPU 0 instructions: 172500930 cycles: 247697533 heartbeat IPC: 0.4872 cumulative IPC: 0.5246 (Simulation time: 00 hr 31 min 54 sec)
Heartbeat CPU 0 instructions: 173000932 cycles: 248834822 heartbeat IPC: 0.4396 cumulative IPC: 0.5242 (Simulation time: 00 hr 32 min 01 sec)
Heartbeat CPU 0 instructions: 173500932 cycles: 249116232 heartbeat IPC: 1.777 cumulative IPC: 0.5257 (Simulation time: 00 hr 32 min 04 sec)
Heartbeat CPU 0 instructions: 174000936 cycles: 249266296 heartbeat IPC: 3.332 cumulative IPC: 0.5275 (Simulation time: 00 hr 32 min 06 sec)
Heartbeat CPU 0 instructions: 174500937 cycles: 249419827 heartbeat IPC: 3.257 cumulative IPC: 0.5293 (Simulation time: 00 hr 32 min 08 sec)
Heartbeat CPU 0 instructions: 175000944 cycles: 249998168 heartbeat IPC: 0.8646 cumulative IPC: 0.5301 (Simulation time: 00 hr 32 min 12 sec)
Heartbeat CPU 0 instructions: 175500946 cycles: 250340536 heartbeat IPC: 1.46 cumulative IPC: 0.5315 (Simulation time: 00 hr 32 min 15 sec)
Heartbeat CPU 0 instructions: 176000947 cycles: 250491216 heartbeat IPC: 3.318 cumulative IPC: 0.5332 (Simulation time: 00 hr 32 min 17 sec)
Heartbeat CPU 0 instructions: 176500947 cycles: 250644123 heartbeat IPC: 3.27 cumulative IPC: 0.535 (Simulation time: 00 hr 32 min 18 sec)
Heartbeat CPU 0 instructions: 177000949 cycles: 250803434 heartbeat IPC: 3.139 cumulative IPC: 0.5368 (Simulation time: 00 hr 32 min 20 sec)
Heartbeat CPU 0 instructions: 177500950 cycles: 250959313 heartbeat IPC: 3.208 cumulative IPC: 0.5385 (Simulation time: 00 hr 32 min 22 sec)
Heartbeat CPU 0 instructions: 178000951 cycles: 251114970 heartbeat IPC: 3.212 cumulative IPC: 0.5403 (Simulation time: 00 hr 32 min 24 sec)
Heartbeat CPU 0 instructions: 178500953 cycles: 251279214 heartbeat IPC: 3.044 cumulative IPC: 0.542 (Simulation time: 00 hr 32 min 26 sec)
Heartbeat CPU 0 instructions: 179000954 cycles: 251439201 heartbeat IPC: 3.125 cumulative IPC: 0.5437 (Simulation time: 00 hr 32 min 28 sec)
Heartbeat CPU 0 instructions: 179500960 cycles: 251595187 heartbeat IPC: 3.205 cumulative IPC: 0.5455 (Simulation time: 00 hr 32 min 30 sec)
Heartbeat CPU 0 instructions: 180000962 cycles: 251751641 heartbeat IPC: 3.196 cumulative IPC: 0.5472 (Simulation time: 00 hr 32 min 32 sec)
Heartbeat CPU 0 instructions: 180500962 cycles: 251914313 heartbeat IPC: 3.074 cumulative IPC: 0.549 (Simulation time: 00 hr 32 min 33 sec)
Heartbeat CPU 0 instructions: 181000962 cycles: 252069876 heartbeat IPC: 3.214 cumulative IPC: 0.5507 (Simulation time: 00 hr 32 min 35 sec)
Heartbeat CPU 0 instructions: 181500962 cycles: 252228752 heartbeat IPC: 3.147 cumulative IPC: 0.5524 (Simulation time: 00 hr 32 min 37 sec)
Heartbeat CPU 0 instructions: 182000965 cycles: 252404624 heartbeat IPC: 2.843 cumulative IPC: 0.5541 (Simulation time: 00 hr 32 min 39 sec)
Heartbeat CPU 0 instructions: 182500966 cycles: 253271036 heartbeat IPC: 0.5771 cumulative IPC: 0.5542 (Simulation time: 00 hr 32 min 46 sec)
Heartbeat CPU 0 instructions: 183000972 cycles: 254386648 heartbeat IPC: 0.4482 cumulative IPC: 0.5537 (Simulation time: 00 hr 32 min 53 sec)
Heartbeat CPU 0 instructions: 183500973 cycles: 254787311 heartbeat IPC: 1.248 cumulative IPC: 0.5549 (Simulation time: 00 hr 32 min 56 sec)
Heartbeat CPU 0 instructions: 184000973 cycles: 254937813 heartbeat IPC: 3.322 cumulative IPC: 0.5566 (Simulation time: 00 hr 32 min 58 sec)
Heartbeat CPU 0 instructions: 184500973 cycles: 255096263 heartbeat IPC: 3.156 cumulative IPC: 0.5583 (Simulation time: 00 hr 33 min 00 sec)
Heartbeat CPU 0 instructions: 185000974 cycles: 255247082 heartbeat IPC: 3.315 cumulative IPC: 0.56 (Simulation time: 00 hr 33 min 02 sec)
Heartbeat CPU 0 instructions: 185500977 cycles: 255406068 heartbeat IPC: 3.145 cumulative IPC: 0.5617 (Simulation time: 00 hr 33 min 03 sec)
Heartbeat CPU 0 instructions: 186000977 cycles: 255564315 heartbeat IPC: 3.16 cumulative IPC: 0.5635 (Simulation time: 00 hr 33 min 05 sec)
Heartbeat CPU 0 instructions: 186500978 cycles: 255718103 heartbeat IPC: 3.251 cumulative IPC: 0.5652 (Simulation time: 00 hr 33 min 07 sec)
Heartbeat CPU 0 instructions: 187000979 cycles: 255876794 heartbeat IPC: 3.151 cumulative IPC: 0.5669 (Simulation time: 00 hr 33 min 09 sec)
Heartbeat CPU 0 instructions: 187500981 cycles: 256035360 heartbeat IPC: 3.153 cumulative IPC: 0.5686 (Simulation time: 00 hr 33 min 11 sec)
Heartbeat CPU 0 instructions: 188000984 cycles: 256191471 heartbeat IPC: 3.203 cumulative IPC: 0.5703 (Simulation time: 00 hr 33 min 13 sec)
Heartbeat CPU 0 instructions: 188500986 cycles: 256356568 heartbeat IPC: 3.029 cumulative IPC: 0.5719 (Simulation time: 00 hr 33 min 15 sec)
Heartbeat CPU 0 instructions: 189000988 cycles: 256521736 heartbeat IPC: 3.027 cumulative IPC: 0.5736 (Simulation time: 00 hr 33 min 17 sec)
Heartbeat CPU 0 instructions: 189500988 cycles: 256682190 heartbeat IPC: 3.116 cumulative IPC: 0.5753 (Simulation time: 00 hr 33 min 18 sec)
Heartbeat CPU 0 instructions: 190000988 cycles: 256841654 heartbeat IPC: 3.136 cumulative IPC: 0.577 (Simulation time: 00 hr 33 min 20 sec)
Heartbeat CPU 0 instructions: 190500988 cycles: 257008535 heartbeat IPC: 2.996 cumulative IPC: 0.5786 (Simulation time: 00 hr 33 min 22 sec)
Heartbeat CPU 0 instructions: 191000988 cycles: 257174746 heartbeat IPC: 3.008 cumulative IPC: 0.5803 (Simulation time: 00 hr 33 min 24 sec)
Heartbeat CPU 0 instructions: 191500988 cycles: 257342832 heartbeat IPC: 2.975 cumulative IPC: 0.5819 (Simulation time: 00 hr 33 min 26 sec)
Heartbeat CPU 0 instructions: 192000990 cycles: 257511940 heartbeat IPC: 2.957 cumulative IPC: 0.5836 (Simulation time: 00 hr 33 min 28 sec)
Heartbeat CPU 0 instructions: 192500990 cycles: 257682566 heartbeat IPC: 2.93 cumulative IPC: 0.5852 (Simulation time: 00 hr 33 min 30 sec)
Heartbeat CPU 0 instructions: 193000996 cycles: 257846919 heartbeat IPC: 3.042 cumulative IPC: 0.5869 (Simulation time: 00 hr 33 min 32 sec)
Heartbeat CPU 0 instructions: 193500999 cycles: 258025163 heartbeat IPC: 2.805 cumulative IPC: 0.5885 (Simulation time: 00 hr 33 min 34 sec)
Heartbeat CPU 0 instructions: 194001002 cycles: 258195224 heartbeat IPC: 2.94 cumulative IPC: 0.5902 (Simulation time: 00 hr 33 min 36 sec)
Heartbeat CPU 0 instructions: 194501008 cycles: 258719960 heartbeat IPC: 0.9529 cumulative IPC: 0.5909 (Simulation time: 00 hr 33 min 40 sec)
Heartbeat CPU 0 instructions: 195001009 cycles: 259953341 heartbeat IPC: 0.4054 cumulative IPC: 0.59 (Simulation time: 00 hr 33 min 48 sec)
Heartbeat CPU 0 instructions: 195501010 cycles: 261111876 heartbeat IPC: 0.4316 cumulative IPC: 0.5893 (Simulation time: 00 hr 33 min 55 sec)
Heartbeat CPU 0 instructions: 196001011 cycles: 262105012 heartbeat IPC: 0.5035 cumulative IPC: 0.5889 (Simulation time: 00 hr 34 min 01 sec)
Heartbeat CPU 0 instructions: 196501013 cycles: 263198603 heartbeat IPC: 0.4572 cumulative IPC: 0.5883 (Simulation time: 00 hr 34 min 09 sec)
Heartbeat CPU 0 instructions: 197001013 cycles: 264086134 heartbeat IPC: 0.5634 cumulative IPC: 0.5883 (Simulation time: 00 hr 34 min 14 sec)
Heartbeat CPU 0 instructions: 197501015 cycles: 265675741 heartbeat IPC: 0.3145 cumulative IPC: 0.5865 (Simulation time: 00 hr 34 min 24 sec)
Heartbeat CPU 0 instructions: 198001022 cycles: 266394270 heartbeat IPC: 0.6959 cumulative IPC: 0.5868 (Simulation time: 00 hr 34 min 28 sec)
Heartbeat CPU 0 instructions: 198501022 cycles: 267619317 heartbeat IPC: 0.4081 cumulative IPC: 0.586 (Simulation time: 00 hr 34 min 36 sec)
Heartbeat CPU 0 instructions: 199001023 cycles: 268371478 heartbeat IPC: 0.6648 cumulative IPC: 0.5862 (Simulation time: 00 hr 34 min 41 sec)
Heartbeat CPU 0 instructions: 199501024 cycles: 269221462 heartbeat IPC: 0.5882 cumulative IPC: 0.5862 (Simulation time: 00 hr 34 min 47 sec)
Heartbeat CPU 0 instructions: 200001024 cycles: 270735544 heartbeat IPC: 0.3302 cumulative IPC: 0.5847 (Simulation time: 00 hr 34 min 56 sec)
Heartbeat CPU 0 instructions: 200501027 cycles: 271639899 heartbeat IPC: 0.5529 cumulative IPC: 0.5846 (Simulation time: 00 hr 35 min 01 sec)
Heartbeat CPU 0 instructions: 201001027 cycles: 273661309 heartbeat IPC: 0.2474 cumulative IPC: 0.582 (Simulation time: 00 hr 35 min 13 sec)
Heartbeat CPU 0 instructions: 201501027 cycles: 275269853 heartbeat IPC: 0.3108 cumulative IPC: 0.5803 (Simulation time: 00 hr 35 min 23 sec)
Heartbeat CPU 0 instructions: 202001030 cycles: 276214797 heartbeat IPC: 0.5291 cumulative IPC: 0.5801 (Simulation time: 00 hr 35 min 29 sec)
Heartbeat CPU 0 instructions: 202501035 cycles: 277479264 heartbeat IPC: 0.3954 cumulative IPC: 0.5792 (Simulation time: 00 hr 35 min 36 sec)
Heartbeat CPU 0 instructions: 203001039 cycles: 278141235 heartbeat IPC: 0.7553 cumulative IPC: 0.5797 (Simulation time: 00 hr 35 min 41 sec)
Heartbeat CPU 0 instructions: 203501039 cycles: 279452001 heartbeat IPC: 0.3815 cumulative IPC: 0.5787 (Simulation time: 00 hr 35 min 49 sec)
Heartbeat CPU 0 instructions: 204001045 cycles: 281041560 heartbeat IPC: 0.3146 cumulative IPC: 0.5771 (Simulation time: 00 hr 35 min 58 sec)
Heartbeat CPU 0 instructions: 204501045 cycles: 281813555 heartbeat IPC: 0.6477 cumulative IPC: 0.5773 (Simulation time: 00 hr 36 min 04 sec)
Heartbeat CPU 0 instructions: 205001048 cycles: 282356995 heartbeat IPC: 0.9201 cumulative IPC: 0.578 (Simulation time: 00 hr 36 min 09 sec)
Heartbeat CPU 0 instructions: 205501053 cycles: 282868358 heartbeat IPC: 0.9778 cumulative IPC: 0.5788 (Simulation time: 00 hr 36 min 14 sec)
Heartbeat CPU 0 instructions: 206001054 cycles: 284298943 heartbeat IPC: 0.3495 cumulative IPC: 0.5776 (Simulation time: 00 hr 36 min 22 sec)
Heartbeat CPU 0 instructions: 206501058 cycles: 285154163 heartbeat IPC: 0.5846 cumulative IPC: 0.5776 (Simulation time: 00 hr 36 min 28 sec)
Heartbeat CPU 0 instructions: 207001060 cycles: 286069065 heartbeat IPC: 0.5465 cumulative IPC: 0.5775 (Simulation time: 00 hr 36 min 34 sec)
Heartbeat CPU 0 instructions: 207501061 cycles: 286442145 heartbeat IPC: 1.34 cumulative IPC: 0.5785 (Simulation time: 00 hr 36 min 36 sec)
Heartbeat CPU 0 instructions: 208001066 cycles: 286851886 heartbeat IPC: 1.22 cumulative IPC: 0.5795 (Simulation time: 00 hr 36 min 39 sec)
Heartbeat CPU 0 instructions: 208501067 cycles: 287268909 heartbeat IPC: 1.199 cumulative IPC: 0.5804 (Simulation time: 00 hr 36 min 42 sec)
Heartbeat CPU 0 instructions: 209001070 cycles: 288299193 heartbeat IPC: 0.4853 cumulative IPC: 0.5801 (Simulation time: 00 hr 36 min 49 sec)
Heartbeat CPU 0 instructions: 209501070 cycles: 288672531 heartbeat IPC: 1.339 cumulative IPC: 0.5811 (Simulation time: 00 hr 36 min 51 sec)
Heartbeat CPU 0 instructions: 210001070 cycles: 289056032 heartbeat IPC: 1.304 cumulative IPC: 0.5821 (Simulation time: 00 hr 36 min 54 sec)
Heartbeat CPU 0 instructions: 210501072 cycles: 289448079 heartbeat IPC: 1.275 cumulative IPC: 0.5831 (Simulation time: 00 hr 36 min 57 sec)
Heartbeat CPU 0 instructions: 211001073 cycles: 289807023 heartbeat IPC: 1.393 cumulative IPC: 0.5842 (Simulation time: 00 hr 37 min 00 sec)
Heartbeat CPU 0 instructions: 211501075 cycles: 290970134 heartbeat IPC: 0.4299 cumulative IPC: 0.5835 (Simulation time: 00 hr 37 min 06 sec)
Heartbeat CPU 0 instructions: 212001075 cycles: 291342527 heartbeat IPC: 1.343 cumulative IPC: 0.5845 (Simulation time: 00 hr 37 min 09 sec)
Heartbeat CPU 0 instructions: 212501076 cycles: 291695049 heartbeat IPC: 1.418 cumulative IPC: 0.5856 (Simulation time: 00 hr 37 min 12 sec)
Heartbeat CPU 0 instructions: 213001082 cycles: 292049107 heartbeat IPC: 1.412 cumulative IPC: 0.5866 (Simulation time: 00 hr 37 min 14 sec)
Heartbeat CPU 0 instructions: 213501082 cycles: 292411547 heartbeat IPC: 1.38 cumulative IPC: 0.5877 (Simulation time: 00 hr 37 min 17 sec)
Heartbeat CPU 0 instructions: 214001083 cycles: 292762993 heartbeat IPC: 1.423 cumulative IPC: 0.5887 (Simulation time: 00 hr 37 min 20 sec)
Heartbeat CPU 0 instructions: 214501084 cycles: 293117631 heartbeat IPC: 1.41 cumulative IPC: 0.5898 (Simulation time: 00 hr 37 min 22 sec)
Heartbeat CPU 0 instructions: 215001084 cycles: 293469034 heartbeat IPC: 1.423 cumulative IPC: 0.5908 (Simulation time: 00 hr 37 min 25 sec)
Heartbeat CPU 0 instructions: 215501086 cycles: 293825137 heartbeat IPC: 1.404 cumulative IPC: 0.5919 (Simulation time: 00 hr 37 min 27 sec)
Heartbeat CPU 0 instructions: 216001086 cycles: 294176844 heartbeat IPC: 1.422 cumulative IPC: 0.5929 (Simulation time: 00 hr 37 min 30 sec)
Heartbeat CPU 0 instructions: 216501088 cycles: 294527808 heartbeat IPC: 1.425 cumulative IPC: 0.5939 (Simulation time: 00 hr 37 min 32 sec)
Heartbeat CPU 0 instructions: 217001089 cycles: 294878168 heartbeat IPC: 1.427 cumulative IPC: 0.595 (Simulation time: 00 hr 37 min 35 sec)
Heartbeat CPU 0 instructions: 217501092 cycles: 295256844 heartbeat IPC: 1.32 cumulative IPC: 0.596 (Simulation time: 00 hr 37 min 38 sec)
Heartbeat CPU 0 instructions: 218001093 cycles: 295616485 heartbeat IPC: 1.39 cumulative IPC: 0.597 (Simulation time: 00 hr 37 min 40 sec)
Heartbeat CPU 0 instructions: 218501098 cycles: 295972076 heartbeat IPC: 1.406 cumulative IPC: 0.598 (Simulation time: 00 hr 37 min 43 sec)
Heartbeat CPU 0 instructions: 219001099 cycles: 296328710 heartbeat IPC: 1.402 cumulative IPC: 0.599 (Simulation time: 00 hr 37 min 46 sec)
Heartbeat CPU 0 instructions: 219501100 cycles: 296690952 heartbeat IPC: 1.38 cumulative IPC: 0.6 (Simulation time: 00 hr 37 min 48 sec)
Heartbeat CPU 0 instructions: 220001103 cycles: 297044245 heartbeat IPC: 1.415 cumulative IPC: 0.601 (Simulation time: 00 hr 37 min 51 sec)
Heartbeat CPU 0 instructions: 220501107 cycles: 297403383 heartbeat IPC: 1.392 cumulative IPC: 0.602 (Simulation time: 00 hr 37 min 53 sec)
Heartbeat CPU 0 instructions: 221001107 cycles: 297755769 heartbeat IPC: 1.419 cumulative IPC: 0.603 (Simulation time: 00 hr 37 min 56 sec)
Heartbeat CPU 0 instructions: 221501107 cycles: 298302387 heartbeat IPC: 0.9147 cumulative IPC: 0.6036 (Simulation time: 00 hr 38 min 00 sec)
Heartbeat CPU 0 instructions: 222001109 cycles: 299029387 heartbeat IPC: 0.6878 cumulative IPC: 0.6039 (Simulation time: 00 hr 38 min 04 sec)
Heartbeat CPU 0 instructions: 222501109 cycles: 299378267 heartbeat IPC: 1.433 cumulative IPC: 0.6049 (Simulation time: 00 hr 38 min 07 sec)
Heartbeat CPU 0 instructions: 223001109 cycles: 299735272 heartbeat IPC: 1.401 cumulative IPC: 0.6059 (Simulation time: 00 hr 38 min 10 sec)
Heartbeat CPU 0 instructions: 223501109 cycles: 300091576 heartbeat IPC: 1.403 cumulative IPC: 0.6069 (Simulation time: 00 hr 38 min 12 sec)
Heartbeat CPU 0 instructions: 224001109 cycles: 300454373 heartbeat IPC: 1.378 cumulative IPC: 0.6078 (Simulation time: 00 hr 38 min 15 sec)
Heartbeat CPU 0 instructions: 224501109 cycles: 300812110 heartbeat IPC: 1.398 cumulative IPC: 0.6088 (Simulation time: 00 hr 38 min 17 sec)
Heartbeat CPU 0 instructions: 225001113 cycles: 301168045 heartbeat IPC: 1.405 cumulative IPC: 0.6098 (Simulation time: 00 hr 38 min 20 sec)
Heartbeat CPU 0 instructions: 225501118 cycles: 301525270 heartbeat IPC: 1.4 cumulative IPC: 0.6108 (Simulation time: 00 hr 38 min 23 sec)
Heartbeat CPU 0 instructions: 226001118 cycles: 301879968 heartbeat IPC: 1.41 cumulative IPC: 0.6118 (Simulation time: 00 hr 38 min 25 sec)
Heartbeat CPU 0 instructions: 226501118 cycles: 302234339 heartbeat IPC: 1.411 cumulative IPC: 0.6128 (Simulation time: 00 hr 38 min 28 sec)
Heartbeat CPU 0 instructions: 227001125 cycles: 302586978 heartbeat IPC: 1.418 cumulative IPC: 0.6137 (Simulation time: 00 hr 38 min 30 sec)
Heartbeat CPU 0 instructions: 227501125 cycles: 302940998 heartbeat IPC: 1.412 cumulative IPC: 0.6147 (Simulation time: 00 hr 38 min 33 sec)
Heartbeat CPU 0 instructions: 228001128 cycles: 303301113 heartbeat IPC: 1.388 cumulative IPC: 0.6157 (Simulation time: 00 hr 38 min 36 sec)
Heartbeat CPU 0 instructions: 228501129 cycles: 303664503 heartbeat IPC: 1.376 cumulative IPC: 0.6166 (Simulation time: 00 hr 38 min 38 sec)
Heartbeat CPU 0 instructions: 229001129 cycles: 304021200 heartbeat IPC: 1.402 cumulative IPC: 0.6176 (Simulation time: 00 hr 38 min 41 sec)
Heartbeat CPU 0 instructions: 229501133 cycles: 304383192 heartbeat IPC: 1.381 cumulative IPC: 0.6186 (Simulation time: 00 hr 38 min 43 sec)
Heartbeat CPU 0 instructions: 230001133 cycles: 304745954 heartbeat IPC: 1.378 cumulative IPC: 0.6195 (Simulation time: 00 hr 38 min 46 sec)
Heartbeat CPU 0 instructions: 230501135 cycles: 305106275 heartbeat IPC: 1.388 cumulative IPC: 0.6205 (Simulation time: 00 hr 38 min 49 sec)
Heartbeat CPU 0 instructions: 231001138 cycles: 305461904 heartbeat IPC: 1.406 cumulative IPC: 0.6214 (Simulation time: 00 hr 38 min 51 sec)
Heartbeat CPU 0 instructions: 231501144 cycles: 305818281 heartbeat IPC: 1.403 cumulative IPC: 0.6224 (Simulation time: 00 hr 38 min 54 sec)
Heartbeat CPU 0 instructions: 232001145 cycles: 306451652 heartbeat IPC: 0.7894 cumulative IPC: 0.6227 (Simulation time: 00 hr 38 min 58 sec)
Heartbeat CPU 0 instructions: 232501145 cycles: 306860170 heartbeat IPC: 1.224 cumulative IPC: 0.6236 (Simulation time: 00 hr 39 min 01 sec)
Heartbeat CPU 0 instructions: 233001146 cycles: 307229793 heartbeat IPC: 1.353 cumulative IPC: 0.6245 (Simulation time: 00 hr 39 min 04 sec)
Heartbeat CPU 0 instructions: 233501152 cycles: 307575096 heartbeat IPC: 1.448 cumulative IPC: 0.6255 (Simulation time: 00 hr 39 min 06 sec)
Heartbeat CPU 0 instructions: 234001155 cycles: 307917245 heartbeat IPC: 1.461 cumulative IPC: 0.6264 (Simulation time: 00 hr 39 min 09 sec)
Heartbeat CPU 0 instructions: 234501156 cycles: 308269072 heartbeat IPC: 1.421 cumulative IPC: 0.6274 (Simulation time: 00 hr 39 min 11 sec)
Heartbeat CPU 0 instructions: 235001156 cycles: 308626574 heartbeat IPC: 1.399 cumulative IPC: 0.6283 (Simulation time: 00 hr 39 min 14 sec)
Heartbeat CPU 0 instructions: 235501157 cycles: 308978140 heartbeat IPC: 1.422 cumulative IPC: 0.6293 (Simulation time: 00 hr 39 min 17 sec)
Heartbeat CPU 0 instructions: 236001157 cycles: 309324963 heartbeat IPC: 1.442 cumulative IPC: 0.6302 (Simulation time: 00 hr 39 min 19 sec)
Heartbeat CPU 0 instructions: 236501157 cycles: 309682599 heartbeat IPC: 1.398 cumulative IPC: 0.6312 (Simulation time: 00 hr 39 min 22 sec)
Heartbeat CPU 0 instructions: 237001159 cycles: 310040211 heartbeat IPC: 1.398 cumulative IPC: 0.6321 (Simulation time: 00 hr 39 min 24 sec)
Heartbeat CPU 0 instructions: 237501159 cycles: 310394161 heartbeat IPC: 1.413 cumulative IPC: 0.633 (Simulation time: 00 hr 39 min 27 sec)
Heartbeat CPU 0 instructions: 238001161 cycles: 310746880 heartbeat IPC: 1.418 cumulative IPC: 0.634 (Simulation time: 00 hr 39 min 30 sec)
Heartbeat CPU 0 instructions: 238501161 cycles: 311089794 heartbeat IPC: 1.458 cumulative IPC: 0.6349 (Simulation time: 00 hr 39 min 32 sec)
Heartbeat CPU 0 instructions: 239001162 cycles: 311435473 heartbeat IPC: 1.446 cumulative IPC: 0.6358 (Simulation time: 00 hr 39 min 35 sec)
Heartbeat CPU 0 instructions: 239501164 cycles: 311786846 heartbeat IPC: 1.423 cumulative IPC: 0.6368 (Simulation time: 00 hr 39 min 37 sec)
Heartbeat CPU 0 instructions: 240001165 cycles: 312134726 heartbeat IPC: 1.437 cumulative IPC: 0.6377 (Simulation time: 00 hr 39 min 40 sec)
Heartbeat CPU 0 instructions: 240501170 cycles: 312480493 heartbeat IPC: 1.446 cumulative IPC: 0.6386 (Simulation time: 00 hr 39 min 42 sec)
Heartbeat CPU 0 instructions: 241001170 cycles: 312831559 heartbeat IPC: 1.424 cumulative IPC: 0.6396 (Simulation time: 00 hr 39 min 45 sec)
Heartbeat CPU 0 instructions: 241501174 cycles: 313182651 heartbeat IPC: 1.424 cumulative IPC: 0.6405 (Simulation time: 00 hr 39 min 47 sec)
Heartbeat CPU 0 instructions: 242001178 cycles: 313531755 heartbeat IPC: 1.432 cumulative IPC: 0.6414 (Simulation time: 00 hr 39 min 50 sec)
Heartbeat CPU 0 instructions: 242501180 cycles: 313881439 heartbeat IPC: 1.43 cumulative IPC: 0.6423 (Simulation time: 00 hr 39 min 53 sec)
Heartbeat CPU 0 instructions: 243001180 cycles: 314294284 heartbeat IPC: 1.211 cumulative IPC: 0.6431 (Simulation time: 00 hr 39 min 56 sec)
Heartbeat CPU 0 instructions: 243501186 cycles: 314676593 heartbeat IPC: 1.308 cumulative IPC: 0.644 (Simulation time: 00 hr 39 min 58 sec)
Heartbeat CPU 0 instructions: 244001187 cycles: 315030425 heartbeat IPC: 1.413 cumulative IPC: 0.6449 (Simulation time: 00 hr 40 min 01 sec)
Heartbeat CPU 0 instructions: 244501187 cycles: 315393280 heartbeat IPC: 1.378 cumulative IPC: 0.6458 (Simulation time: 00 hr 40 min 04 sec)
Heartbeat CPU 0 instructions: 245001187 cycles: 315771477 heartbeat IPC: 1.322 cumulative IPC: 0.6466 (Simulation time: 00 hr 40 min 06 sec)
Heartbeat CPU 0 instructions: 245501187 cycles: 316132497 heartbeat IPC: 1.385 cumulative IPC: 0.6475 (Simulation time: 00 hr 40 min 09 sec)
Heartbeat CPU 0 instructions: 246001191 cycles: 316489295 heartbeat IPC: 1.401 cumulative IPC: 0.6484 (Simulation time: 00 hr 40 min 12 sec)
Heartbeat CPU 0 instructions: 246501198 cycles: 316838587 heartbeat IPC: 1.431 cumulative IPC: 0.6493 (Simulation time: 00 hr 40 min 14 sec)
Heartbeat CPU 0 instructions: 247001198 cycles: 317191343 heartbeat IPC: 1.417 cumulative IPC: 0.6502 (Simulation time: 00 hr 40 min 17 sec)
Heartbeat CPU 0 instructions: 247501198 cycles: 317543637 heartbeat IPC: 1.419 cumulative IPC: 0.6511 (Simulation time: 00 hr 40 min 19 sec)
Heartbeat CPU 0 instructions: 248001198 cycles: 317895521 heartbeat IPC: 1.421 cumulative IPC: 0.652 (Simulation time: 00 hr 40 min 22 sec)
Heartbeat CPU 0 instructions: 248501198 cycles: 318246808 heartbeat IPC: 1.423 cumulative IPC: 0.6528 (Simulation time: 00 hr 40 min 24 sec)
Heartbeat CPU 0 instructions: 249001198 cycles: 318595323 heartbeat IPC: 1.435 cumulative IPC: 0.6537 (Simulation time: 00 hr 40 min 27 sec)
Heartbeat CPU 0 instructions: 249501198 cycles: 318950330 heartbeat IPC: 1.408 cumulative IPC: 0.6546 (Simulation time: 00 hr 40 min 30 sec)
Simulation finished CPU 0 instructions: 200000001 cycles: 305109622 cumulative IPC: 0.6555 (Simulation time: 00 hr 40 min 32 sec)
Simulation complete CPU 0 instructions: 200000001 cycles: 305109622 cumulative IPC: 0.6555 (Simulation time: 00 hr 40 min 32 sec)

ChampSim completed all CPUs

=== Simulation ===
CPU 0 runs /local-ssd/ben/dpc4-traces/gtraces_v2/tahoe_0000.champsim.gz

Region of Interest Statistics

CPU 0 cumulative IPC: 0.6555 instructions: 200000001 cycles: 305109622
CPU 0 Branch Prediction Accuracy: 91.57% MPKI: 17.21 Average ROB Occupancy at Mispredict: 27.45
Branch type MPKI
BRANCH_DIRECT_JUMP: 0.5547
BRANCH_INDIRECT: 0.2599
BRANCH_CONDITIONAL: 14.62
BRANCH_DIRECT_CALL: 0.6872
BRANCH_INDIRECT_CALL: 0.4285
BRANCH_RETURN: 0.6621

cpu0->cpu0_STLB TOTAL        ACCESS:    1576928 HIT:    1085733 MISS:     491195 MSHR_MERGE:          0
cpu0->cpu0_STLB LOAD         ACCESS:    1576928 HIT:    1085733 MISS:     491195 MSHR_MERGE:          0
cpu0->cpu0_STLB RFO          ACCESS:          0 HIT:          0 MISS:          0 MSHR_MERGE:          0
cpu0->cpu0_STLB PREFETCH     ACCESS:          0 HIT:          0 MISS:          0 MSHR_MERGE:          0
cpu0->cpu0_STLB WRITE        ACCESS:          0 HIT:          0 MISS:          0 MSHR_MERGE:          0
cpu0->cpu0_STLB TRANSLATION  ACCESS:          0 HIT:          0 MISS:          0 MSHR_MERGE:          0
cpu0->cpu0_STLB PREFETCH REQUESTED:          0 ISSUED:          0 USEFUL:          0 USELESS:          0
cpu0->cpu0_STLB AVERAGE MISS LATENCY: 156.8 cycles
cpu0->cpu0_L2C TOTAL        ACCESS:   15159265 HIT:    9814206 MISS:    5345059 MSHR_MERGE:    1730583
cpu0->cpu0_L2C LOAD         ACCESS:    2926140 HIT:    2011368 MISS:     914772 MSHR_MERGE:     119394
cpu0->cpu0_L2C RFO          ACCESS:     466224 HIT:     149040 MISS:     317184 MSHR_MERGE:       2478
cpu0->cpu0_L2C PREFETCH     ACCESS:   10483221 HIT:    6597273 MISS:    3885948 MSHR_MERGE:    1608711
cpu0->cpu0_L2C WRITE        ACCESS:     770759 HIT:     770736 MISS:         23 MSHR_MERGE:          0
cpu0->cpu0_L2C TRANSLATION  ACCESS:     512921 HIT:     285789 MISS:     227132 MSHR_MERGE:          0
cpu0->cpu0_L2C PREFETCH REQUESTED:   10441766 ISSUED:    9684111 USEFUL:     945892 USELESS:    1044566
cpu0->cpu0_L2C AVERAGE MISS LATENCY: 209 cycles
cpu0->cpu0_L1I TOTAL        ACCESS:   12797046 HIT:   10763331 MISS:    2033715 MSHR_MERGE:     383937
cpu0->cpu0_L1I LOAD         ACCESS:   12797046 HIT:   10763331 MISS:    2033715 MSHR_MERGE:     383937
cpu0->cpu0_L1I RFO          ACCESS:          0 HIT:          0 MISS:          0 MSHR_MERGE:          0
cpu0->cpu0_L1I PREFETCH     ACCESS:          0 HIT:          0 MISS:          0 MSHR_MERGE:          0
cpu0->cpu0_L1I WRITE        ACCESS:          0 HIT:          0 MISS:          0 MSHR_MERGE:          0
cpu0->cpu0_L1I TRANSLATION  ACCESS:          0 HIT:          0 MISS:          0 MSHR_MERGE:          0
cpu0->cpu0_L1I PREFETCH REQUESTED:          0 ISSUED:          0 USEFUL:          0 USELESS:          0
cpu0->cpu0_L1I AVERAGE MISS LATENCY: 43.73 cycles
cpu0->cpu0_L1D TOTAL        ACCESS:   61212565 HIT:   56424217 MISS:    4788348 MSHR_MERGE:    1733706
cpu0->cpu0_L1D LOAD         ACCESS:   36411425 HIT:   34635018 MISS:    1776407 MSHR_MERGE:     500032
cpu0->cpu0_L1D RFO          ACCESS:          0 HIT:          0 MISS:          0 MSHR_MERGE:          0
cpu0->cpu0_L1D PREFETCH     ACCESS:    1478609 HIT:     636069 MISS:     842540 MSHR_MERGE:      43430
cpu0->cpu0_L1D WRITE        ACCESS:   22070679 HIT:   20417877 MISS:    1652802 MSHR_MERGE:    1186566
cpu0->cpu0_L1D TRANSLATION  ACCESS:    1251852 HIT:     735253 MISS:     516599 MSHR_MERGE:       3678
cpu0->cpu0_L1D PREFETCH REQUESTED:    1518777 ISSUED:    1478609 USEFUL:     377464 USELESS:     421668
cpu0->cpu0_L1D AVERAGE MISS LATENCY: 116.7 cycles
cpu0->cpu0_ITLB TOTAL        ACCESS:   10738275 HIT:   10426267 MISS:     312008 MSHR_MERGE:     135441
cpu0->cpu0_ITLB LOAD         ACCESS:   10738275 HIT:   10426267 MISS:     312008 MSHR_MERGE:     135441
cpu0->cpu0_ITLB RFO          ACCESS:          0 HIT:          0 MISS:          0 MSHR_MERGE:          0
cpu0->cpu0_ITLB PREFETCH     ACCESS:          0 HIT:          0 MISS:          0 MSHR_MERGE:          0
cpu0->cpu0_ITLB WRITE        ACCESS:          0 HIT:          0 MISS:          0 MSHR_MERGE:          0
cpu0->cpu0_ITLB TRANSLATION  ACCESS:          0 HIT:          0 MISS:          0 MSHR_MERGE:          0
cpu0->cpu0_ITLB PREFETCH REQUESTED:          0 ISSUED:          0 USEFUL:          0 USELESS:          0
cpu0->cpu0_ITLB AVERAGE MISS LATENCY: 43.26 cycles
cpu0->cpu0_DTLB TOTAL        ACCESS:   56710523 HIT:   54384401 MISS:    2326122 MSHR_MERGE:     925761
cpu0->cpu0_DTLB LOAD         ACCESS:   56710523 HIT:   54384401 MISS:    2326122 MSHR_MERGE:     925761
cpu0->cpu0_DTLB RFO          ACCESS:          0 HIT:          0 MISS:          0 MSHR_MERGE:          0
cpu0->cpu0_DTLB PREFETCH     ACCESS:          0 HIT:          0 MISS:          0 MSHR_MERGE:          0
cpu0->cpu0_DTLB WRITE        ACCESS:          0 HIT:          0 MISS:          0 MSHR_MERGE:          0
cpu0->cpu0_DTLB TRANSLATION  ACCESS:          0 HIT:          0 MISS:          0 MSHR_MERGE:          0
cpu0->cpu0_DTLB PREFETCH REQUESTED:          0 ISSUED:          0 USEFUL:          0 USELESS:          0
cpu0->cpu0_DTLB AVERAGE MISS LATENCY: 55.51 cycles
cpu0->LLC TOTAL        ACCESS:    5483079 HIT:    1288500 MISS:    4194579 MSHR_MERGE:     282134
cpu0->LLC LOAD         ACCESS:     795377 HIT:     178062 MISS:     617315 MSHR_MERGE:       3197
cpu0->LLC RFO          ACCESS:     314706 HIT:      14122 MISS:     300584 MSHR_MERGE:        228
cpu0->LLC PREFETCH     ACCESS:    3628861 HIT:     947702 MISS:    2681159 MSHR_MERGE:     278709
cpu0->LLC WRITE        ACCESS:     517003 HIT:     123204 MISS:     393799 MSHR_MERGE:          0
cpu0->LLC TRANSLATION  ACCESS:     227132 HIT:      25410 MISS:     201722 MSHR_MERGE:          0
cpu0->LLC PREFETCH REQUESTED:    1370332 ISSUED:    1351624 USEFUL:     193952 USELESS:     613499
cpu0->LLC AVERAGE MISS LATENCY: 174.3 cycles

DRAM Statistics

Channel 0 RQ ROW_BUFFER_HIT:     112664
  ROW_BUFFER_MISS:    3405937
  AVG DBUS CONGESTED CYCLE: 18.67
Channel 0 WQ ROW_BUFFER_HIT:     126654
  ROW_BUFFER_MISS:     352262
  FULL:          0
Channel 0 REFRESHES ISSUED:      25424
