[VMEM] WARNING: physical memory size is smaller than virtual memory size.

*** ChampSim Multicore Out-of-Order Simulator ***
Warmup Instructions: 50000000
Simulation Instructions: 200000000
Number of CPUs: 1
Page size: 4096
Core 0: /local-ssd/ben/dpc4-traces/SPEC17/619.lbm_s-2676B.champsimtrace.xz
 L1D Berti prefetcher
Off-chip DRAM Size: 64 GiB Channels: 1 Width: 64-bit Data Rate: 4807 MT/s
Heartbeat CPU 0 instructions: 500003 cycles: 129805 heartbeat IPC: 3.852 cumulative IPC: 3.852 (Simulation time: 00 hr 00 min 03 sec)
Heartbeat CPU 0 instructions: 1000003 cycles: 242955 heartbeat IPC: 4.419 cumulative IPC: 4.116 (Simulation time: 00 hr 00 min 04 sec)
Heartbeat CPU 0 instructions: 1500006 cycles: 360831 heartbeat IPC: 4.242 cumulative IPC: 4.157 (Simulation time: 00 hr 00 min 06 sec)
Heartbeat CPU 0 instructions: 2000012 cycles: 487860 heartbeat IPC: 3.936 cumulative IPC: 4.1 (Simulation time: 00 hr 00 min 08 sec)
Heartbeat CPU 0 instructions: 2500012 cycles: 619243 heartbeat IPC: 3.806 cumulative IPC: 4.037 (Simulation time: 00 hr 00 min 10 sec)
Heartbeat CPU 0 instructions: 3000014 cycles: 751434 heartbeat IPC: 3.782 cumulative IPC: 3.992 (Simulation time: 00 hr 00 min 12 sec)
Heartbeat CPU 0 instructions: 3500014 cycles: 891436 heartbeat IPC: 3.571 cumulative IPC: 3.926 (Simulation time: 00 hr 00 min 15 sec)
Heartbeat CPU 0 instructions: 4000018 cycles: 1022716 heartbeat IPC: 3.809 cumulative IPC: 3.911 (Simulation time: 00 hr 00 min 17 sec)
Heartbeat CPU 0 instructions: 4500023 cycles: 1151847 heartbeat IPC: 3.872 cumulative IPC: 3.907 (Simulation time: 00 hr 00 min 19 sec)
Heartbeat CPU 0 instructions: 5000028 cycles: 1281106 heartbeat IPC: 3.868 cumulative IPC: 3.903 (Simulation time: 00 hr 00 min 21 sec)
Heartbeat CPU 0 instructions: 5500033 cycles: 1413627 heartbeat IPC: 3.773 cumulative IPC: 3.891 (Simulation time: 00 hr 00 min 23 sec)
Heartbeat CPU 0 instructions: 6000034 cycles: 1546332 heartbeat IPC: 3.768 cumulative IPC: 3.88 (Simulation time: 00 hr 00 min 25 sec)
Heartbeat CPU 0 instructions: 6500041 cycles: 1680517 heartbeat IPC: 3.726 cumulative IPC: 3.868 (Simulation time: 00 hr 00 min 27 sec)
Heartbeat CPU 0 instructions: 7000047 cycles: 1810421 heartbeat IPC: 3.849 cumulative IPC: 3.867 (Simulation time: 00 hr 00 min 30 sec)
Heartbeat CPU 0 instructions: 7500049 cycles: 1945503 heartbeat IPC: 3.701 cumulative IPC: 3.855 (Simulation time: 00 hr 00 min 32 sec)
Heartbeat CPU 0 instructions: 8000053 cycles: 2072654 heartbeat IPC: 3.932 cumulative IPC: 3.86 (Simulation time: 00 hr 00 min 34 sec)
Heartbeat CPU 0 instructions: 8500060 cycles: 2212450 heartbeat IPC: 3.577 cumulative IPC: 3.842 (Simulation time: 00 hr 00 min 36 sec)
Heartbeat CPU 0 instructions: 9000063 cycles: 2330346 heartbeat IPC: 4.241 cumulative IPC: 3.862 (Simulation time: 00 hr 00 min 38 sec)
Heartbeat CPU 0 instructions: 9500064 cycles: 2456064 heartbeat IPC: 3.977 cumulative IPC: 3.868 (Simulation time: 00 hr 00 min 40 sec)
Heartbeat CPU 0 instructions: 10000069 cycles: 2574592 heartbeat IPC: 4.218 cumulative IPC: 3.884 (Simulation time: 00 hr 00 min 42 sec)
Heartbeat CPU 0 instructions: 10500075 cycles: 2686538 heartbeat IPC: 4.466 cumulative IPC: 3.908 (Simulation time: 00 hr 00 min 44 sec)
Heartbeat CPU 0 instructions: 11000081 cycles: 2818120 heartbeat IPC: 3.8 cumulative IPC: 3.903 (Simulation time: 00 hr 00 min 46 sec)
Heartbeat CPU 0 instructions: 11500081 cycles: 2947137 heartbeat IPC: 3.875 cumulative IPC: 3.902 (Simulation time: 00 hr 00 min 48 sec)
Heartbeat CPU 0 instructions: 12000086 cycles: 3077179 heartbeat IPC: 3.845 cumulative IPC: 3.9 (Simulation time: 00 hr 00 min 50 sec)
Heartbeat CPU 0 instructions: 12500089 cycles: 3213916 heartbeat IPC: 3.657 cumulative IPC: 3.889 (Simulation time: 00 hr 00 min 52 sec)
Heartbeat CPU 0 instructions: 13000091 cycles: 3332955 heartbeat IPC: 4.2 cumulative IPC: 3.9 (Simulation time: 00 hr 00 min 54 sec)
Heartbeat CPU 0 instructions: 13500092 cycles: 3460957 heartbeat IPC: 3.906 cumulative IPC: 3.901 (Simulation time: 00 hr 00 min 57 sec)
Heartbeat CPU 0 instructions: 14000094 cycles: 3588881 heartbeat IPC: 3.909 cumulative IPC: 3.901 (Simulation time: 00 hr 00 min 59 sec)
Heartbeat CPU 0 instructions: 14500098 cycles: 3717294 heartbeat IPC: 3.894 cumulative IPC: 3.901 (Simulation time: 00 hr 01 min 01 sec)
Heartbeat CPU 0 instructions: 15000102 cycles: 3845444 heartbeat IPC: 3.902 cumulative IPC: 3.901 (Simulation time: 00 hr 01 min 03 sec)
Heartbeat CPU 0 instructions: 15500102 cycles: 3974033 heartbeat IPC: 3.888 cumulative IPC: 3.9 (Simulation time: 00 hr 01 min 05 sec)
Heartbeat CPU 0 instructions: 16000108 cycles: 4098485 heartbeat IPC: 4.018 cumulative IPC: 3.904 (Simulation time: 00 hr 01 min 07 sec)
Heartbeat CPU 0 instructions: 16500108 cycles: 4231098 heartbeat IPC: 3.77 cumulative IPC: 3.9 (Simulation time: 00 hr 01 min 09 sec)
Heartbeat CPU 0 instructions: 17000109 cycles: 4353016 heartbeat IPC: 4.101 cumulative IPC: 3.905 (Simulation time: 00 hr 01 min 11 sec)
Heartbeat CPU 0 instructions: 17500112 cycles: 4487090 heartbeat IPC: 3.729 cumulative IPC: 3.9 (Simulation time: 00 hr 01 min 13 sec)
Heartbeat CPU 0 instructions: 18000113 cycles: 4603812 heartbeat IPC: 4.284 cumulative IPC: 3.91 (Simulation time: 00 hr 01 min 15 sec)
Heartbeat CPU 0 instructions: 18500114 cycles: 4730847 heartbeat IPC: 3.936 cumulative IPC: 3.911 (Simulation time: 00 hr 01 min 17 sec)
Heartbeat CPU 0 instructions: 19000116 cycles: 4849235 heartbeat IPC: 4.223 cumulative IPC: 3.918 (Simulation time: 00 hr 01 min 19 sec)
Heartbeat CPU 0 instructions: 19500120 cycles: 4961158 heartbeat IPC: 4.467 cumulative IPC: 3.931 (Simulation time: 00 hr 01 min 21 sec)
Heartbeat CPU 0 instructions: 20000122 cycles: 5090165 heartbeat IPC: 3.876 cumulative IPC: 3.929 (Simulation time: 00 hr 01 min 23 sec)
Heartbeat CPU 0 instructions: 20500129 cycles: 5217615 heartbeat IPC: 3.923 cumulative IPC: 3.929 (Simulation time: 00 hr 01 min 25 sec)
Heartbeat CPU 0 instructions: 21000134 cycles: 5341878 heartbeat IPC: 4.024 cumulative IPC: 3.931 (Simulation time: 00 hr 01 min 27 sec)
Heartbeat CPU 0 instructions: 21500140 cycles: 5472388 heartbeat IPC: 3.831 cumulative IPC: 3.929 (Simulation time: 00 hr 01 min 30 sec)
Heartbeat CPU 0 instructions: 22000143 cycles: 5596224 heartbeat IPC: 4.038 cumulative IPC: 3.931 (Simulation time: 00 hr 01 min 32 sec)
Heartbeat CPU 0 instructions: 22500147 cycles: 5719663 heartbeat IPC: 4.051 cumulative IPC: 3.934 (Simulation time: 00 hr 01 min 34 sec)
Heartbeat CPU 0 instructions: 23000153 cycles: 5847451 heartbeat IPC: 3.913 cumulative IPC: 3.933 (Simulation time: 00 hr 01 min 36 sec)
Heartbeat CPU 0 instructions: 23500154 cycles: 5972501 heartbeat IPC: 3.998 cumulative IPC: 3.935 (Simulation time: 00 hr 01 min 38 sec)
Heartbeat CPU 0 instructions: 24000154 cycles: 6093824 heartbeat IPC: 4.121 cumulative IPC: 3.938 (Simulation time: 00 hr 01 min 40 sec)
Heartbeat CPU 0 instructions: 24500161 cycles: 6224248 heartbeat IPC: 3.834 cumulative IPC: 3.936 (Simulation time: 00 hr 01 min 42 sec)
Heartbeat CPU 0 instructions: 25000164 cycles: 6347897 heartbeat IPC: 4.044 cumulative IPC: 3.938 (Simulation time: 00 hr 01 min 44 sec)
Heartbeat CPU 0 instructions: 25500164 cycles: 6466630 heartbeat IPC: 4.211 cumulative IPC: 3.943 (Simulation time: 00 hr 01 min 46 sec)
Heartbeat CPU 0 instructions: 26000169 cycles: 6598861 heartbeat IPC: 3.781 cumulative IPC: 3.94 (Simulation time: 00 hr 01 min 48 sec)
Heartbeat CPU 0 instructions: 26500171 cycles: 6726954 heartbeat IPC: 3.903 cumulative IPC: 3.939 (Simulation time: 00 hr 01 min 50 sec)
Heartbeat CPU 0 instructions: 27000174 cycles: 6855784 heartbeat IPC: 3.881 cumulative IPC: 3.938 (Simulation time: 00 hr 01 min 52 sec)
Heartbeat CPU 0 instructions: 27500174 cycles: 6981880 heartbeat IPC: 3.965 cumulative IPC: 3.939 (Simulation time: 00 hr 01 min 54 sec)
Heartbeat CPU 0 instructions: 28000181 cycles: 7097599 heartbeat IPC: 4.321 cumulative IPC: 3.945 (Simulation time: 00 hr 01 min 56 sec)
Heartbeat CPU 0 instructions: 28500188 cycles: 7214952 heartbeat IPC: 4.261 cumulative IPC: 3.95 (Simulation time: 00 hr 01 min 58 sec)
Heartbeat CPU 0 instructions: 29000192 cycles: 7337962 heartbeat IPC: 4.065 cumulative IPC: 3.952 (Simulation time: 00 hr 02 min 00 sec)
Heartbeat CPU 0 instructions: 29500199 cycles: 7462157 heartbeat IPC: 4.026 cumulative IPC: 3.953 (Simulation time: 00 hr 02 min 02 sec)
Heartbeat CPU 0 instructions: 30000203 cycles: 7584449 heartbeat IPC: 4.089 cumulative IPC: 3.955 (Simulation time: 00 hr 02 min 04 sec)
Heartbeat CPU 0 instructions: 30500204 cycles: 7705962 heartbeat IPC: 4.115 cumulative IPC: 3.958 (Simulation time: 00 hr 02 min 06 sec)
Heartbeat CPU 0 instructions: 31000207 cycles: 7835392 heartbeat IPC: 3.863 cumulative IPC: 3.956 (Simulation time: 00 hr 02 min 08 sec)
Heartbeat CPU 0 instructions: 31500208 cycles: 7955306 heartbeat IPC: 4.17 cumulative IPC: 3.96 (Simulation time: 00 hr 02 min 10 sec)
Heartbeat CPU 0 instructions: 32000209 cycles: 8076854 heartbeat IPC: 4.114 cumulative IPC: 3.962 (Simulation time: 00 hr 02 min 12 sec)
Heartbeat CPU 0 instructions: 32500211 cycles: 8201300 heartbeat IPC: 4.018 cumulative IPC: 3.963 (Simulation time: 00 hr 02 min 14 sec)
Heartbeat CPU 0 instructions: 33000211 cycles: 8327569 heartbeat IPC: 3.96 cumulative IPC: 3.963 (Simulation time: 00 hr 02 min 17 sec)
Heartbeat CPU 0 instructions: 33500211 cycles: 8444852 heartbeat IPC: 4.263 cumulative IPC: 3.967 (Simulation time: 00 hr 02 min 18 sec)
Heartbeat CPU 0 instructions: 34000212 cycles: 8571159 heartbeat IPC: 3.959 cumulative IPC: 3.967 (Simulation time: 00 hr 02 min 21 sec)
Heartbeat CPU 0 instructions: 34500217 cycles: 8694666 heartbeat IPC: 4.048 cumulative IPC: 3.968 (Simulation time: 00 hr 02 min 23 sec)
Heartbeat CPU 0 instructions: 35000219 cycles: 8811659 heartbeat IPC: 4.274 cumulative IPC: 3.972 (Simulation time: 00 hr 02 min 25 sec)
Heartbeat CPU 0 instructions: 35500223 cycles: 8941063 heartbeat IPC: 3.864 cumulative IPC: 3.97 (Simulation time: 00 hr 02 min 27 sec)
Heartbeat CPU 0 instructions: 36000224 cycles: 9057888 heartbeat IPC: 4.28 cumulative IPC: 3.974 (Simulation time: 00 hr 02 min 29 sec)
Heartbeat CPU 0 instructions: 36500226 cycles: 9193944 heartbeat IPC: 3.675 cumulative IPC: 3.97 (Simulation time: 00 hr 02 min 31 sec)
Heartbeat CPU 0 instructions: 37000233 cycles: 9313458 heartbeat IPC: 4.184 cumulative IPC: 3.973 (Simulation time: 00 hr 02 min 33 sec)
Heartbeat CPU 0 instructions: 37500237 cycles: 9440447 heartbeat IPC: 3.937 cumulative IPC: 3.972 (Simulation time: 00 hr 02 min 35 sec)
Heartbeat CPU 0 instructions: 38000239 cycles: 9558906 heartbeat IPC: 4.221 cumulative IPC: 3.975 (Simulation time: 00 hr 02 min 37 sec)
Heartbeat CPU 0 instructions: 38500243 cycles: 9670468 heartbeat IPC: 4.482 cumulative IPC: 3.981 (Simulation time: 00 hr 02 min 39 sec)
Heartbeat CPU 0 instructions: 39000244 cycles: 9796897 heartbeat IPC: 3.955 cumulative IPC: 3.981 (Simulation time: 00 hr 02 min 41 sec)
Heartbeat CPU 0 instructions: 39500248 cycles: 9917845 heartbeat IPC: 4.134 cumulative IPC: 3.983 (Simulation time: 00 hr 02 min 43 sec)
Heartbeat CPU 0 instructions: 40000255 cycles: 10035882 heartbeat IPC: 4.236 cumulative IPC: 3.986 (Simulation time: 00 hr 02 min 45 sec)
Heartbeat CPU 0 instructions: 40500260 cycles: 10153277 heartbeat IPC: 4.259 cumulative IPC: 3.989 (Simulation time: 00 hr 02 min 47 sec)
Heartbeat CPU 0 instructions: 41000263 cycles: 10279162 heartbeat IPC: 3.972 cumulative IPC: 3.989 (Simulation time: 00 hr 02 min 49 sec)
Heartbeat CPU 0 instructions: 41500263 cycles: 10394635 heartbeat IPC: 4.33 cumulative IPC: 3.992 (Simulation time: 00 hr 02 min 51 sec)
Heartbeat CPU 0 instructions: 42000268 cycles: 10514716 heartbeat IPC: 4.164 cumulative IPC: 3.994 (Simulation time: 00 hr 02 min 53 sec)
Heartbeat CPU 0 instructions: 42500270 cycles: 10638808 heartbeat IPC: 4.029 cumulative IPC: 3.995 (Simulation time: 00 hr 02 min 55 sec)
Heartbeat CPU 0 instructions: 43000276 cycles: 10766043 heartbeat IPC: 3.93 cumulative IPC: 3.994 (Simulation time: 00 hr 02 min 57 sec)
Heartbeat CPU 0 instructions: 43500283 cycles: 10881145 heartbeat IPC: 4.344 cumulative IPC: 3.998 (Simulation time: 00 hr 02 min 59 sec)
Heartbeat CPU 0 instructions: 44000284 cycles: 11001364 heartbeat IPC: 4.159 cumulative IPC: 4 (Simulation time: 00 hr 03 min 01 sec)
Heartbeat CPU 0 instructions: 44500284 cycles: 11122376 heartbeat IPC: 4.132 cumulative IPC: 4.001 (Simulation time: 00 hr 03 min 03 sec)
Heartbeat CPU 0 instructions: 45000290 cycles: 11240767 heartbeat IPC: 4.223 cumulative IPC: 4.003 (Simulation time: 00 hr 03 min 04 sec)
Heartbeat CPU 0 instructions: 45500296 cycles: 11360985 heartbeat IPC: 4.159 cumulative IPC: 4.005 (Simulation time: 00 hr 03 min 06 sec)
Heartbeat CPU 0 instructions: 46000302 cycles: 11478408 heartbeat IPC: 4.258 cumulative IPC: 4.008 (Simulation time: 00 hr 03 min 08 sec)
Heartbeat CPU 0 instructions: 46500305 cycles: 11606457 heartbeat IPC: 3.905 cumulative IPC: 4.006 (Simulation time: 00 hr 03 min 11 sec)
Heartbeat CPU 0 instructions: 47000307 cycles: 11731073 heartbeat IPC: 4.012 cumulative IPC: 4.006 (Simulation time: 00 hr 03 min 13 sec)
Heartbeat CPU 0 instructions: 47500309 cycles: 11856816 heartbeat IPC: 3.976 cumulative IPC: 4.006 (Simulation time: 00 hr 03 min 15 sec)
Heartbeat CPU 0 instructions: 48000311 cycles: 11971008 heartbeat IPC: 4.379 cumulative IPC: 4.01 (Simulation time: 00 hr 03 min 17 sec)
Heartbeat CPU 0 instructions: 48500314 cycles: 12088257 heartbeat IPC: 4.264 cumulative IPC: 4.012 (Simulation time: 00 hr 03 min 18 sec)
Heartbeat CPU 0 instructions: 49000321 cycles: 12208869 heartbeat IPC: 4.146 cumulative IPC: 4.014 (Simulation time: 00 hr 03 min 20 sec)
Heartbeat CPU 0 instructions: 49500321 cycles: 12328963 heartbeat IPC: 4.163 cumulative IPC: 4.015 (Simulation time: 00 hr 03 min 22 sec)
Warmup halting CPU 0 at instruction 50000000 cycle 12448412 for remainder of phase
Warmup finished CPU 0 instructions: 50000000 cycles: 12448412 cumulative IPC: 4.017 (Simulation time: 00 hr 03 min 24 sec)
Warmup complete CPU 0 instructions: 50000000 cycles: 12448412 cumulative IPC: 4.017 (Simulation time: 00 hr 03 min 24 sec)
Heartbeat CPU 0 instructions: 50000324 cycles: 12448466 heartbeat IPC: 4.184 cumulative IPC: 6 (Simulation time: 00 hr 03 min 24 sec)
Heartbeat CPU 0 instructions: 50500324 cycles: 13040209 heartbeat IPC: 0.845 cumulative IPC: 0.8454 (Simulation time: 00 hr 03 min 33 sec)
Heartbeat CPU 0 instructions: 51000325 cycles: 13625131 heartbeat IPC: 0.8548 cumulative IPC: 0.8501 (Simulation time: 00 hr 03 min 43 sec)
Heartbeat CPU 0 instructions: 51500327 cycles: 14335039 heartbeat IPC: 0.7043 cumulative IPC: 0.7952 (Simulation time: 00 hr 03 min 53 sec)
Heartbeat CPU 0 instructions: 52000332 cycles: 14875319 heartbeat IPC: 0.9255 cumulative IPC: 0.8242 (Simulation time: 00 hr 04 min 02 sec)
Heartbeat CPU 0 instructions: 52500335 cycles: 15520588 heartbeat IPC: 0.7749 cumulative IPC: 0.8139 (Simulation time: 00 hr 04 min 12 sec)
Heartbeat CPU 0 instructions: 53000342 cycles: 16230157 heartbeat IPC: 0.7047 cumulative IPC: 0.7934 (Simulation time: 00 hr 04 min 23 sec)
Heartbeat CPU 0 instructions: 53500347 cycles: 16979039 heartbeat IPC: 0.6677 cumulative IPC: 0.7726 (Simulation time: 00 hr 04 min 34 sec)
Heartbeat CPU 0 instructions: 54000347 cycles: 17513139 heartbeat IPC: 0.9362 cumulative IPC: 0.7898 (Simulation time: 00 hr 04 min 43 sec)
Heartbeat CPU 0 instructions: 54500352 cycles: 18105178 heartbeat IPC: 0.8445 cumulative IPC: 0.7956 (Simulation time: 00 hr 04 min 52 sec)
Heartbeat CPU 0 instructions: 55000358 cycles: 18761522 heartbeat IPC: 0.7618 cumulative IPC: 0.7921 (Simulation time: 00 hr 05 min 02 sec)
Heartbeat CPU 0 instructions: 55500359 cycles: 19384295 heartbeat IPC: 0.8029 cumulative IPC: 0.793 (Simulation time: 00 hr 05 min 12 sec)
Heartbeat CPU 0 instructions: 56000365 cycles: 19974249 heartbeat IPC: 0.8475 cumulative IPC: 0.7973 (Simulation time: 00 hr 05 min 21 sec)
Heartbeat CPU 0 instructions: 56500372 cycles: 20591841 heartbeat IPC: 0.8096 cumulative IPC: 0.7982 (Simulation time: 00 hr 05 min 31 sec)
Heartbeat CPU 0 instructions: 57000372 cycles: 21114647 heartbeat IPC: 0.9564 cumulative IPC: 0.8078 (Simulation time: 00 hr 05 min 39 sec)
Heartbeat CPU 0 instructions: 57500374 cycles: 21949194 heartbeat IPC: 0.5991 cumulative IPC: 0.7894 (Simulation time: 00 hr 05 min 51 sec)
Heartbeat CPU 0 instructions: 58000375 cycles: 22599452 heartbeat IPC: 0.7689 cumulative IPC: 0.7881 (Simulation time: 00 hr 06 min 02 sec)
Heartbeat CPU 0 instructions: 58500380 cycles: 23352662 heartbeat IPC: 0.6638 cumulative IPC: 0.7795 (Simulation time: 00 hr 06 min 13 sec)
Heartbeat CPU 0 instructions: 59000381 cycles: 23767951 heartbeat IPC: 1.204 cumulative IPC: 0.7951 (Simulation time: 00 hr 06 min 20 sec)
Heartbeat CPU 0 instructions: 59500388 cycles: 24328385 heartbeat IPC: 0.8922 cumulative IPC: 0.7997 (Simulation time: 00 hr 06 min 29 sec)
Heartbeat CPU 0 instructions: 60000394 cycles: 25040032 heartbeat IPC: 0.7026 cumulative IPC: 0.7942 (Simulation time: 00 hr 06 min 40 sec)
Heartbeat CPU 0 instructions: 60500396 cycles: 25600325 heartbeat IPC: 0.8924 cumulative IPC: 0.7984 (Simulation time: 00 hr 06 min 48 sec)
Heartbeat CPU 0 instructions: 61000403 cycles: 26200313 heartbeat IPC: 0.8334 cumulative IPC: 0.7999 (Simulation time: 00 hr 06 min 58 sec)
Heartbeat CPU 0 instructions: 61500405 cycles: 26748440 heartbeat IPC: 0.9122 cumulative IPC: 0.8042 (Simulation time: 00 hr 07 min 06 sec)
Heartbeat CPU 0 instructions: 62000407 cycles: 27308528 heartbeat IPC: 0.8927 cumulative IPC: 0.8076 (Simulation time: 00 hr 07 min 15 sec)
Heartbeat CPU 0 instructions: 62500411 cycles: 27955945 heartbeat IPC: 0.7723 cumulative IPC: 0.8061 (Simulation time: 00 hr 07 min 25 sec)
Heartbeat CPU 0 instructions: 63000411 cycles: 28460574 heartbeat IPC: 0.9908 cumulative IPC: 0.8119 (Simulation time: 00 hr 07 min 33 sec)
Heartbeat CPU 0 instructions: 63500416 cycles: 29050144 heartbeat IPC: 0.8481 cumulative IPC: 0.8132 (Simulation time: 00 hr 07 min 42 sec)
Heartbeat CPU 0 instructions: 64000418 cycles: 29737850 heartbeat IPC: 0.7271 cumulative IPC: 0.8098 (Simulation time: 00 hr 07 min 53 sec)
Heartbeat CPU 0 instructions: 64500418 cycles: 30465534 heartbeat IPC: 0.6871 cumulative IPC: 0.8048 (Simulation time: 00 hr 08 min 04 sec)
Heartbeat CPU 0 instructions: 65000423 cycles: 31030447 heartbeat IPC: 0.8851 cumulative IPC: 0.8073 (Simulation time: 00 hr 08 min 13 sec)
Heartbeat CPU 0 instructions: 65500428 cycles: 31525987 heartbeat IPC: 1.009 cumulative IPC: 0.8125 (Simulation time: 00 hr 08 min 21 sec)
Heartbeat CPU 0 instructions: 66000431 cycles: 32133821 heartbeat IPC: 0.8226 cumulative IPC: 0.8128 (Simulation time: 00 hr 08 min 30 sec)
Heartbeat CPU 0 instructions: 66500436 cycles: 32716582 heartbeat IPC: 0.858 cumulative IPC: 0.8141 (Simulation time: 00 hr 08 min 40 sec)
Heartbeat CPU 0 instructions: 67000440 cycles: 33265979 heartbeat IPC: 0.9101 cumulative IPC: 0.8166 (Simulation time: 00 hr 08 min 48 sec)
Heartbeat CPU 0 instructions: 67500440 cycles: 33836501 heartbeat IPC: 0.8764 cumulative IPC: 0.8182 (Simulation time: 00 hr 08 min 57 sec)
Heartbeat CPU 0 instructions: 68000444 cycles: 34341423 heartbeat IPC: 0.9903 cumulative IPC: 0.8222 (Simulation time: 00 hr 09 min 05 sec)
Heartbeat CPU 0 instructions: 68500451 cycles: 34917381 heartbeat IPC: 0.8681 cumulative IPC: 0.8234 (Simulation time: 00 hr 09 min 14 sec)
Heartbeat CPU 0 instructions: 69000456 cycles: 35683653 heartbeat IPC: 0.6525 cumulative IPC: 0.8177 (Simulation time: 00 hr 09 min 26 sec)
Heartbeat CPU 0 instructions: 69500461 cycles: 36316315 heartbeat IPC: 0.7903 cumulative IPC: 0.817 (Simulation time: 00 hr 09 min 36 sec)
Heartbeat CPU 0 instructions: 70000467 cycles: 37021952 heartbeat IPC: 0.7086 cumulative IPC: 0.8139 (Simulation time: 00 hr 09 min 46 sec)
Heartbeat CPU 0 instructions: 70500473 cycles: 37421263 heartbeat IPC: 1.252 cumulative IPC: 0.8209 (Simulation time: 00 hr 09 min 53 sec)
Heartbeat CPU 0 instructions: 71000474 cycles: 37956544 heartbeat IPC: 0.9341 cumulative IPC: 0.8233 (Simulation time: 00 hr 10 min 01 sec)
Heartbeat CPU 0 instructions: 71500475 cycles: 38604884 heartbeat IPC: 0.7712 cumulative IPC: 0.822 (Simulation time: 00 hr 10 min 12 sec)
Heartbeat CPU 0 instructions: 72000479 cycles: 39154104 heartbeat IPC: 0.9104 cumulative IPC: 0.8238 (Simulation time: 00 hr 10 min 20 sec)
Heartbeat CPU 0 instructions: 72500481 cycles: 39713113 heartbeat IPC: 0.8944 cumulative IPC: 0.8253 (Simulation time: 00 hr 10 min 29 sec)
Heartbeat CPU 0 instructions: 73000483 cycles: 40255214 heartbeat IPC: 0.9223 cumulative IPC: 0.8272 (Simulation time: 00 hr 10 min 37 sec)
Heartbeat CPU 0 instructions: 73500483 cycles: 40765990 heartbeat IPC: 0.9789 cumulative IPC: 0.8299 (Simulation time: 00 hr 10 min 46 sec)
Heartbeat CPU 0 instructions: 74000483 cycles: 41364894 heartbeat IPC: 0.8349 cumulative IPC: 0.83 (Simulation time: 00 hr 10 min 55 sec)
Heartbeat CPU 0 instructions: 74500485 cycles: 41891736 heartbeat IPC: 0.9491 cumulative IPC: 0.8321 (Simulation time: 00 hr 11 min 03 sec)
Heartbeat CPU 0 instructions: 75000485 cycles: 42378067 heartbeat IPC: 1.028 cumulative IPC: 0.8353 (Simulation time: 00 hr 11 min 11 sec)
Heartbeat CPU 0 instructions: 75500486 cycles: 43032198 heartbeat IPC: 0.7644 cumulative IPC: 0.8338 (Simulation time: 00 hr 11 min 21 sec)
Heartbeat CPU 0 instructions: 76000491 cycles: 43656951 heartbeat IPC: 0.8003 cumulative IPC: 0.8331 (Simulation time: 00 hr 11 min 31 sec)
Heartbeat CPU 0 instructions: 76500493 cycles: 44344687 heartbeat IPC: 0.727 cumulative IPC: 0.8308 (Simulation time: 00 hr 11 min 41 sec)
Heartbeat CPU 0 instructions: 77000494 cycles: 44828624 heartbeat IPC: 1.033 cumulative IPC: 0.8339 (Simulation time: 00 hr 11 min 49 sec)
Heartbeat CPU 0 instructions: 77500498 cycles: 45312922 heartbeat IPC: 1.032 cumulative IPC: 0.8368 (Simulation time: 00 hr 11 min 57 sec)
Heartbeat CPU 0 instructions: 78000502 cycles: 45889942 heartbeat IPC: 0.8665 cumulative IPC: 0.8373 (Simulation time: 00 hr 12 min 06 sec)
Heartbeat CPU 0 instructions: 78500502 cycles: 46450110 heartbeat IPC: 0.8926 cumulative IPC: 0.8382 (Simulation time: 00 hr 12 min 15 sec)
Heartbeat CPU 0 instructions: 79000502 cycles: 46957355 heartbeat IPC: 0.9857 cumulative IPC: 0.8404 (Simulation time: 00 hr 12 min 23 sec)
Heartbeat CPU 0 instructions: 79500509 cycles: 47482872 heartbeat IPC: 0.9515 cumulative IPC: 0.842 (Simulation time: 00 hr 12 min 31 sec)
Heartbeat CPU 0 instructions: 80000513 cycles: 47950592 heartbeat IPC: 1.069 cumulative IPC: 0.845 (Simulation time: 00 hr 12 min 39 sec)
Heartbeat CPU 0 instructions: 80500518 cycles: 48453680 heartbeat IPC: 0.9939 cumulative IPC: 0.8471 (Simulation time: 00 hr 12 min 47 sec)
Heartbeat CPU 0 instructions: 81000518 cycles: 49187055 heartbeat IPC: 0.6818 cumulative IPC: 0.8438 (Simulation time: 00 hr 12 min 58 sec)
Heartbeat CPU 0 instructions: 81500522 cycles: 49775824 heartbeat IPC: 0.8492 cumulative IPC: 0.8439 (Simulation time: 00 hr 13 min 07 sec)
Heartbeat CPU 0 instructions: 82000526 cycles: 50444752 heartbeat IPC: 0.7475 cumulative IPC: 0.8422 (Simulation time: 00 hr 13 min 17 sec)
Heartbeat CPU 0 instructions: 82500531 cycles: 50936848 heartbeat IPC: 1.016 cumulative IPC: 0.8444 (Simulation time: 00 hr 13 min 25 sec)
Heartbeat CPU 0 instructions: 83000533 cycles: 51441911 heartbeat IPC: 0.99 cumulative IPC: 0.8463 (Simulation time: 00 hr 13 min 33 sec)
Heartbeat CPU 0 instructions: 83500536 cycles: 51949881 heartbeat IPC: 0.9843 cumulative IPC: 0.8481 (Simulation time: 00 hr 13 min 41 sec)
Heartbeat CPU 0 instructions: 84000538 cycles: 52516841 heartbeat IPC: 0.8819 cumulative IPC: 0.8486 (Simulation time: 00 hr 13 min 50 sec)
Heartbeat CPU 0 instructions: 84500538 cycles: 53018885 heartbeat IPC: 0.9959 cumulative IPC: 0.8504 (Simulation time: 00 hr 13 min 58 sec)
Heartbeat CPU 0 instructions: 85000538 cycles: 53549726 heartbeat IPC: 0.9419 cumulative IPC: 0.8516 (Simulation time: 00 hr 14 min 07 sec)
Heartbeat CPU 0 instructions: 85500544 cycles: 54035552 heartbeat IPC: 1.029 cumulative IPC: 0.8536 (Simulation time: 00 hr 14 min 14 sec)
Heartbeat CPU 0 instructions: 86000544 cycles: 54524638 heartbeat IPC: 1.022 cumulative IPC: 0.8556 (Simulation time: 00 hr 14 min 22 sec)
Heartbeat CPU 0 instructions: 86500551 cycles: 55071420 heartbeat IPC: 0.9145 cumulative IPC: 0.8564 (Simulation time: 00 hr 14 min 31 sec)
Heartbeat CPU 0 instructions: 87000556 cycles: 55580018 heartbeat IPC: 0.9831 cumulative IPC: 0.8579 (Simulation time: 00 hr 14 min 39 sec)
Heartbeat CPU 0 instructions: 87500561 cycles: 56046623 heartbeat IPC: 1.072 cumulative IPC: 0.8601 (Simulation time: 00 hr 14 min 46 sec)
Heartbeat CPU 0 instructions: 88000563 cycles: 56689331 heartbeat IPC: 0.778 cumulative IPC: 0.8589 (Simulation time: 00 hr 14 min 56 sec)
Heartbeat CPU 0 instructions: 88500569 cycles: 57271677 heartbeat IPC: 0.8586 cumulative IPC: 0.8589 (Simulation time: 00 hr 15 min 05 sec)
Heartbeat CPU 0 instructions: 89000572 cycles: 57894428 heartbeat IPC: 0.8029 cumulative IPC: 0.8582 (Simulation time: 00 hr 15 min 15 sec)
Heartbeat CPU 0 instructions: 89500573 cycles: 58407194 heartbeat IPC: 0.9751 cumulative IPC: 0.8595 (Simulation time: 00 hr 15 min 23 sec)
Heartbeat CPU 0 instructions: 90000578 cycles: 58860970 heartbeat IPC: 1.102 cumulative IPC: 0.8618 (Simulation time: 00 hr 15 min 31 sec)
Heartbeat CPU 0 instructions: 90500581 cycles: 59377791 heartbeat IPC: 0.9675 cumulative IPC: 0.863 (Simulation time: 00 hr 15 min 39 sec)
Heartbeat CPU 0 instructions: 91000581 cycles: 59933927 heartbeat IPC: 0.8991 cumulative IPC: 0.8634 (Simulation time: 00 hr 15 min 48 sec)
Heartbeat CPU 0 instructions: 91500585 cycles: 60438093 heartbeat IPC: 0.9917 cumulative IPC: 0.8648 (Simulation time: 00 hr 15 min 56 sec)
Heartbeat CPU 0 instructions: 92000592 cycles: 60938359 heartbeat IPC: 0.9995 cumulative IPC: 0.8662 (Simulation time: 00 hr 16 min 04 sec)
Heartbeat CPU 0 instructions: 92500598 cycles: 61400837 heartbeat IPC: 1.081 cumulative IPC: 0.8682 (Simulation time: 00 hr 16 min 11 sec)
Heartbeat CPU 0 instructions: 93000604 cycles: 61826379 heartbeat IPC: 1.175 cumulative IPC: 0.8708 (Simulation time: 00 hr 16 min 18 sec)
Heartbeat CPU 0 instructions: 93500609 cycles: 62400087 heartbeat IPC: 0.8715 cumulative IPC: 0.8709 (Simulation time: 00 hr 16 min 27 sec)
Heartbeat CPU 0 instructions: 94000615 cycles: 63027731 heartbeat IPC: 0.7966 cumulative IPC: 0.8699 (Simulation time: 00 hr 16 min 37 sec)
Heartbeat CPU 0 instructions: 94500621 cycles: 63572804 heartbeat IPC: 0.9173 cumulative IPC: 0.8704 (Simulation time: 00 hr 16 min 45 sec)
Heartbeat CPU 0 instructions: 95000623 cycles: 64220554 heartbeat IPC: 0.7719 cumulative IPC: 0.8692 (Simulation time: 00 hr 16 min 55 sec)
Heartbeat CPU 0 instructions: 95500626 cycles: 64652414 heartbeat IPC: 1.158 cumulative IPC: 0.8716 (Simulation time: 00 hr 17 min 02 sec)
Heartbeat CPU 0 instructions: 96000629 cycles: 65149512 heartbeat IPC: 1.006 cumulative IPC: 0.8729 (Simulation time: 00 hr 17 min 10 sec)
Heartbeat CPU 0 instructions: 96500630 cycles: 65625913 heartbeat IPC: 1.05 cumulative IPC: 0.8744 (Simulation time: 00 hr 17 min 18 sec)
Heartbeat CPU 0 instructions: 97000632 cycles: 66149767 heartbeat IPC: 0.9545 cumulative IPC: 0.8752 (Simulation time: 00 hr 17 min 26 sec)
Heartbeat CPU 0 instructions: 97500634 cycles: 66637671 heartbeat IPC: 1.025 cumulative IPC: 0.8766 (Simulation time: 00 hr 17 min 34 sec)
Heartbeat CPU 0 instructions: 98000638 cycles: 67116964 heartbeat IPC: 1.043 cumulative IPC: 0.878 (Simulation time: 00 hr 17 min 42 sec)
Heartbeat CPU 0 instructions: 98500640 cycles: 67591320 heartbeat IPC: 1.054 cumulative IPC: 0.8795 (Simulation time: 00 hr 17 min 49 sec)
Heartbeat CPU 0 instructions: 99000646 cycles: 68049775 heartbeat IPC: 1.091 cumulative IPC: 0.8813 (Simulation time: 00 hr 17 min 56 sec)
Heartbeat CPU 0 instructions: 99500648 cycles: 68569767 heartbeat IPC: 0.9616 cumulative IPC: 0.882 (Simulation time: 00 hr 18 min 05 sec)
Heartbeat CPU 0 instructions: 100000652 cycles: 69080903 heartbeat IPC: 0.9782 cumulative IPC: 0.8829 (Simulation time: 00 hr 18 min 13 sec)
Heartbeat CPU 0 instructions: 100500656 cycles: 69510671 heartbeat IPC: 1.163 cumulative IPC: 0.885 (Simulation time: 00 hr 18 min 20 sec)
Heartbeat CPU 0 instructions: 101000660 cycles: 70031063 heartbeat IPC: 0.9608 cumulative IPC: 0.8857 (Simulation time: 00 hr 18 min 28 sec)
Heartbeat CPU 0 instructions: 101500664 cycles: 70624697 heartbeat IPC: 0.8423 cumulative IPC: 0.8853 (Simulation time: 00 hr 18 min 37 sec)
Heartbeat CPU 0 instructions: 102000666 cycles: 71203139 heartbeat IPC: 0.8644 cumulative IPC: 0.885 (Simulation time: 00 hr 18 min 46 sec)
Heartbeat CPU 0 instructions: 102500669 cycles: 71758893 heartbeat IPC: 0.8997 cumulative IPC: 0.8852 (Simulation time: 00 hr 18 min 55 sec)
Heartbeat CPU 0 instructions: 103000673 cycles: 72234965 heartbeat IPC: 1.05 cumulative IPC: 0.8865 (Simulation time: 00 hr 19 min 02 sec)
Heartbeat CPU 0 instructions: 103500678 cycles: 72654862 heartbeat IPC: 1.191 cumulative IPC: 0.8886 (Simulation time: 00 hr 19 min 09 sec)
Heartbeat CPU 0 instructions: 104000678 cycles: 73154856 heartbeat IPC: 1 cumulative IPC: 0.8895 (Simulation time: 00 hr 19 min 17 sec)
Heartbeat CPU 0 instructions: 104500681 cycles: 73678792 heartbeat IPC: 0.9543 cumulative IPC: 0.8901 (Simulation time: 00 hr 19 min 25 sec)
Heartbeat CPU 0 instructions: 105000686 cycles: 74173903 heartbeat IPC: 1.01 cumulative IPC: 0.8911 (Simulation time: 00 hr 19 min 33 sec)
Heartbeat CPU 0 instructions: 105500688 cycles: 74671253 heartbeat IPC: 1.005 cumulative IPC: 0.892 (Simulation time: 00 hr 19 min 41 sec)
Heartbeat CPU 0 instructions: 106000691 cycles: 75115450 heartbeat IPC: 1.126 cumulative IPC: 0.8936 (Simulation time: 00 hr 19 min 48 sec)
Heartbeat CPU 0 instructions: 106500698 cycles: 75522514 heartbeat IPC: 1.228 cumulative IPC: 0.8958 (Simulation time: 00 hr 19 min 54 sec)
Heartbeat CPU 0 instructions: 107000702 cycles: 76039977 heartbeat IPC: 0.9663 cumulative IPC: 0.8964 (Simulation time: 00 hr 20 min 02 sec)
Heartbeat CPU 0 instructions: 107500706 cycles: 76603704 heartbeat IPC: 0.887 cumulative IPC: 0.8963 (Simulation time: 00 hr 20 min 11 sec)
Heartbeat CPU 0 instructions: 108000708 cycles: 77097570 heartbeat IPC: 1.012 cumulative IPC: 0.8972 (Simulation time: 00 hr 20 min 19 sec)
Heartbeat CPU 0 instructions: 108500709 cycles: 77692882 heartbeat IPC: 0.8399 cumulative IPC: 0.8966 (Simulation time: 00 hr 20 min 28 sec)
Heartbeat CPU 0 instructions: 109000710 cycles: 78174443 heartbeat IPC: 1.038 cumulative IPC: 0.8977 (Simulation time: 00 hr 20 min 36 sec)
Heartbeat CPU 0 instructions: 109500717 cycles: 78676221 heartbeat IPC: 0.9965 cumulative IPC: 0.8984 (Simulation time: 00 hr 20 min 43 sec)
Heartbeat CPU 0 instructions: 110000724 cycles: 79092461 heartbeat IPC: 1.201 cumulative IPC: 0.9003 (Simulation time: 00 hr 20 min 50 sec)
Heartbeat CPU 0 instructions: 110500727 cycles: 79591105 heartbeat IPC: 1.003 cumulative IPC: 0.9011 (Simulation time: 00 hr 20 min 58 sec)
Heartbeat CPU 0 instructions: 111000733 cycles: 80056092 heartbeat IPC: 1.075 cumulative IPC: 0.9023 (Simulation time: 00 hr 21 min 05 sec)
Heartbeat CPU 0 instructions: 111500735 cycles: 80521143 heartbeat IPC: 1.075 cumulative IPC: 0.9035 (Simulation time: 00 hr 21 min 12 sec)
Heartbeat CPU 0 instructions: 112000742 cycles: 80976229 heartbeat IPC: 1.099 cumulative IPC: 0.9048 (Simulation time: 00 hr 21 min 20 sec)
Heartbeat CPU 0 instructions: 112500747 cycles: 81436930 heartbeat IPC: 1.085 cumulative IPC: 0.906 (Simulation time: 00 hr 21 min 27 sec)
Heartbeat CPU 0 instructions: 113000752 cycles: 81892430 heartbeat IPC: 1.098 cumulative IPC: 0.9072 (Simulation time: 00 hr 21 min 34 sec)
Heartbeat CPU 0 instructions: 113500755 cycles: 82369723 heartbeat IPC: 1.048 cumulative IPC: 0.9082 (Simulation time: 00 hr 21 min 41 sec)
Heartbeat CPU 0 instructions: 114000757 cycles: 82843104 heartbeat IPC: 1.056 cumulative IPC: 0.9092 (Simulation time: 00 hr 21 min 49 sec)
Heartbeat CPU 0 instructions: 114500758 cycles: 83246453 heartbeat IPC: 1.24 cumulative IPC: 0.9111 (Simulation time: 00 hr 21 min 55 sec)
Heartbeat CPU 0 instructions: 115000760 cycles: 83780519 heartbeat IPC: 0.9362 cumulative IPC: 0.9112 (Simulation time: 00 hr 22 min 03 sec)
Heartbeat CPU 0 instructions: 115500765 cycles: 84312970 heartbeat IPC: 0.9391 cumulative IPC: 0.9114 (Simulation time: 00 hr 22 min 11 sec)
Heartbeat CPU 0 instructions: 116000765 cycles: 84867233 heartbeat IPC: 0.9021 cumulative IPC: 0.9114 (Simulation time: 00 hr 22 min 20 sec)
Heartbeat CPU 0 instructions: 116500772 cycles: 85399872 heartbeat IPC: 0.9387 cumulative IPC: 0.9116 (Simulation time: 00 hr 22 min 28 sec)
Heartbeat CPU 0 instructions: 117000779 cycles: 85850528 heartbeat IPC: 1.11 cumulative IPC: 0.9128 (Simulation time: 00 hr 22 min 35 sec)
Heartbeat CPU 0 instructions: 117500785 cycles: 86257308 heartbeat IPC: 1.229 cumulative IPC: 0.9145 (Simulation time: 00 hr 22 min 41 sec)
Heartbeat CPU 0 instructions: 118000787 cycles: 86713513 heartbeat IPC: 1.096 cumulative IPC: 0.9156 (Simulation time: 00 hr 22 min 48 sec)
Heartbeat CPU 0 instructions: 118500792 cycles: 87219040 heartbeat IPC: 0.9891 cumulative IPC: 0.9161 (Simulation time: 00 hr 22 min 56 sec)
Heartbeat CPU 0 instructions: 119000793 cycles: 87697188 heartbeat IPC: 1.046 cumulative IPC: 0.917 (Simulation time: 00 hr 23 min 03 sec)
Heartbeat CPU 0 instructions: 119500793 cycles: 88180346 heartbeat IPC: 1.035 cumulative IPC: 0.9177 (Simulation time: 00 hr 23 min 10 sec)
Heartbeat CPU 0 instructions: 120000799 cycles: 88636893 heartbeat IPC: 1.095 cumulative IPC: 0.9188 (Simulation time: 00 hr 23 min 17 sec)
Heartbeat CPU 0 instructions: 120500805 cycles: 89025303 heartbeat IPC: 1.287 cumulative IPC: 0.9207 (Simulation time: 00 hr 23 min 23 sec)
Heartbeat CPU 0 instructions: 121000812 cycles: 89462531 heartbeat IPC: 1.144 cumulative IPC: 0.9219 (Simulation time: 00 hr 23 min 30 sec)
Heartbeat CPU 0 instructions: 121500813 cycles: 90012745 heartbeat IPC: 0.9087 cumulative IPC: 0.9218 (Simulation time: 00 hr 23 min 38 sec)
Heartbeat CPU 0 instructions: 122000813 cycles: 90478825 heartbeat IPC: 1.073 cumulative IPC: 0.9227 (Simulation time: 00 hr 23 min 45 sec)
Heartbeat CPU 0 instructions: 122500813 cycles: 90959054 heartbeat IPC: 1.041 cumulative IPC: 0.9235 (Simulation time: 00 hr 23 min 53 sec)
Heartbeat CPU 0 instructions: 123000818 cycles: 91520284 heartbeat IPC: 0.8909 cumulative IPC: 0.9232 (Simulation time: 00 hr 24 min 01 sec)
Heartbeat CPU 0 instructions: 123500818 cycles: 91942037 heartbeat IPC: 1.186 cumulative IPC: 0.9246 (Simulation time: 00 hr 24 min 07 sec)
Heartbeat CPU 0 instructions: 124000823 cycles: 92434629 heartbeat IPC: 1.015 cumulative IPC: 0.9252 (Simulation time: 00 hr 24 min 15 sec)
Heartbeat CPU 0 instructions: 124500829 cycles: 92854123 heartbeat IPC: 1.192 cumulative IPC: 0.9266 (Simulation time: 00 hr 24 min 21 sec)
Heartbeat CPU 0 instructions: 125000835 cycles: 93299382 heartbeat IPC: 1.123 cumulative IPC: 0.9276 (Simulation time: 00 hr 24 min 28 sec)
Heartbeat CPU 0 instructions: 125500839 cycles: 93765129 heartbeat IPC: 1.074 cumulative IPC: 0.9285 (Simulation time: 00 hr 24 min 35 sec)
Heartbeat CPU 0 instructions: 126000841 cycles: 94198005 heartbeat IPC: 1.155 cumulative IPC: 0.9297 (Simulation time: 00 hr 24 min 41 sec)
Heartbeat CPU 0 instructions: 126500848 cycles: 94633376 heartbeat IPC: 1.148 cumulative IPC: 0.9308 (Simulation time: 00 hr 24 min 48 sec)
Heartbeat CPU 0 instructions: 127000850 cycles: 95077338 heartbeat IPC: 1.126 cumulative IPC: 0.9319 (Simulation time: 00 hr 24 min 55 sec)
Heartbeat CPU 0 instructions: 127500850 cycles: 95518666 heartbeat IPC: 1.133 cumulative IPC: 0.933 (Simulation time: 00 hr 25 min 01 sec)
Heartbeat CPU 0 instructions: 128000853 cycles: 95974469 heartbeat IPC: 1.097 cumulative IPC: 0.9339 (Simulation time: 00 hr 25 min 08 sec)
Heartbeat CPU 0 instructions: 128500856 cycles: 96423984 heartbeat IPC: 1.112 cumulative IPC: 0.9348 (Simulation time: 00 hr 25 min 15 sec)
Heartbeat CPU 0 instructions: 129000858 cycles: 96819721 heartbeat IPC: 1.263 cumulative IPC: 0.9363 (Simulation time: 00 hr 25 min 21 sec)
Heartbeat CPU 0 instructions: 129500863 cycles: 97282196 heartbeat IPC: 1.081 cumulative IPC: 0.9371 (Simulation time: 00 hr 25 min 28 sec)
Heartbeat CPU 0 instructions: 130000870 cycles: 97769246 heartbeat IPC: 1.027 cumulative IPC: 0.9376 (Simulation time: 00 hr 25 min 35 sec)
Heartbeat CPU 0 instructions: 130500871 cycles: 98265999 heartbeat IPC: 1.007 cumulative IPC: 0.938 (Simulation time: 00 hr 25 min 42 sec)
Heartbeat CPU 0 instructions: 131000877 cycles: 98796723 heartbeat IPC: 0.9421 cumulative IPC: 0.9381 (Simulation time: 00 hr 25 min 50 sec)
Heartbeat CPU 0 instructions: 131500884 cycles: 99266111 heartbeat IPC: 1.065 cumulative IPC: 0.9388 (Simulation time: 00 hr 25 min 57 sec)
Heartbeat CPU 0 instructions: 132000891 cycles: 99695930 heartbeat IPC: 1.163 cumulative IPC: 0.9399 (Simulation time: 00 hr 26 min 03 sec)
Heartbeat CPU 0 instructions: 132500896 cycles: 100101762 heartbeat IPC: 1.232 cumulative IPC: 0.9412 (Simulation time: 00 hr 26 min 09 sec)
Heartbeat CPU 0 instructions: 133000898 cycles: 100572936 heartbeat IPC: 1.061 cumulative IPC: 0.9419 (Simulation time: 00 hr 26 min 16 sec)
Heartbeat CPU 0 instructions: 133500901 cycles: 101030439 heartbeat IPC: 1.093 cumulative IPC: 0.9426 (Simulation time: 00 hr 26 min 23 sec)
Heartbeat CPU 0 instructions: 134000907 cycles: 101492891 heartbeat IPC: 1.081 cumulative IPC: 0.9434 (Simulation time: 00 hr 26 min 30 sec)
Heartbeat CPU 0 instructions: 134500914 cycles: 101952412 heartbeat IPC: 1.088 cumulative IPC: 0.9441 (Simulation time: 00 hr 26 min 36 sec)
Heartbeat CPU 0 instructions: 135000921 cycles: 102377265 heartbeat IPC: 1.177 cumulative IPC: 0.9452 (Simulation time: 00 hr 26 min 43 sec)
Heartbeat CPU 0 instructions: 135500921 cycles: 102752665 heartbeat IPC: 1.332 cumulative IPC: 0.9468 (Simulation time: 00 hr 26 min 48 sec)
Heartbeat CPU 0 instructions: 136000923 cycles: 103182153 heartbeat IPC: 1.164 cumulative IPC: 0.9478 (Simulation time: 00 hr 26 min 55 sec)
Heartbeat CPU 0 instructions: 136500925 cycles: 103666805 heartbeat IPC: 1.032 cumulative IPC: 0.9483 (Simulation time: 00 hr 27 min 01 sec)
Heartbeat CPU 0 instructions: 137000930 cycles: 104092113 heartbeat IPC: 1.176 cumulative IPC: 0.9493 (Simulation time: 00 hr 27 min 08 sec)
Heartbeat CPU 0 instructions: 137500937 cycles: 104538316 heartbeat IPC: 1.121 cumulative IPC: 0.9502 (Simulation time: 00 hr 27 min 14 sec)
Heartbeat CPU 0 instructions: 138000942 cycles: 105052154 heartbeat IPC: 0.9731 cumulative IPC: 0.9503 (Simulation time: 00 hr 27 min 21 sec)
Heartbeat CPU 0 instructions: 138500947 cycles: 105500428 heartbeat IPC: 1.115 cumulative IPC: 0.9511 (Simulation time: 00 hr 27 min 28 sec)
Heartbeat CPU 0 instructions: 139000947 cycles: 105992729 heartbeat IPC: 1.016 cumulative IPC: 0.9514 (Simulation time: 00 hr 27 min 35 sec)
Heartbeat CPU 0 instructions: 139500949 cycles: 106386187 heartbeat IPC: 1.271 cumulative IPC: 0.9528 (Simulation time: 00 hr 27 min 41 sec)
Heartbeat CPU 0 instructions: 140000950 cycles: 106816976 heartbeat IPC: 1.161 cumulative IPC: 0.9537 (Simulation time: 00 hr 27 min 47 sec)
Heartbeat CPU 0 instructions: 140500950 cycles: 107253414 heartbeat IPC: 1.146 cumulative IPC: 0.9546 (Simulation time: 00 hr 27 min 53 sec)
Heartbeat CPU 0 instructions: 141000955 cycles: 107675673 heartbeat IPC: 1.184 cumulative IPC: 0.9556 (Simulation time: 00 hr 27 min 59 sec)
Heartbeat CPU 0 instructions: 141500959 cycles: 108074361 heartbeat IPC: 1.254 cumulative IPC: 0.9569 (Simulation time: 00 hr 28 min 05 sec)
Heartbeat CPU 0 instructions: 142000962 cycles: 108486350 heartbeat IPC: 1.214 cumulative IPC: 0.958 (Simulation time: 00 hr 28 min 11 sec)
Heartbeat CPU 0 instructions: 142500965 cycles: 108915010 heartbeat IPC: 1.166 cumulative IPC: 0.9589 (Simulation time: 00 hr 28 min 17 sec)
Heartbeat CPU 0 instructions: 143000972 cycles: 109343833 heartbeat IPC: 1.166 cumulative IPC: 0.9598 (Simulation time: 00 hr 28 min 23 sec)
Heartbeat CPU 0 instructions: 143500972 cycles: 109780671 heartbeat IPC: 1.145 cumulative IPC: 0.9606 (Simulation time: 00 hr 28 min 29 sec)
Heartbeat CPU 0 instructions: 144000976 cycles: 110192788 heartbeat IPC: 1.213 cumulative IPC: 0.9617 (Simulation time: 00 hr 28 min 35 sec)
Heartbeat CPU 0 instructions: 144500978 cycles: 110583941 heartbeat IPC: 1.278 cumulative IPC: 0.963 (Simulation time: 00 hr 28 min 41 sec)
Heartbeat CPU 0 instructions: 145000982 cycles: 111022597 heartbeat IPC: 1.14 cumulative IPC: 0.9638 (Simulation time: 00 hr 28 min 47 sec)
Heartbeat CPU 0 instructions: 145500983 cycles: 111485671 heartbeat IPC: 1.08 cumulative IPC: 0.9643 (Simulation time: 00 hr 28 min 54 sec)
Heartbeat CPU 0 instructions: 146000983 cycles: 111970081 heartbeat IPC: 1.032 cumulative IPC: 0.9646 (Simulation time: 00 hr 29 min 01 sec)
Heartbeat CPU 0 instructions: 146500987 cycles: 112466166 heartbeat IPC: 1.008 cumulative IPC: 0.9648 (Simulation time: 00 hr 29 min 08 sec)
Heartbeat CPU 0 instructions: 147000988 cycles: 112929596 heartbeat IPC: 1.079 cumulative IPC: 0.9654 (Simulation time: 00 hr 29 min 14 sec)
Heartbeat CPU 0 instructions: 147500994 cycles: 113350099 heartbeat IPC: 1.189 cumulative IPC: 0.9663 (Simulation time: 00 hr 29 min 21 sec)
Heartbeat CPU 0 instructions: 148000994 cycles: 113739632 heartbeat IPC: 1.284 cumulative IPC: 0.9675 (Simulation time: 00 hr 29 min 26 sec)
Heartbeat CPU 0 instructions: 148500996 cycles: 114182342 heartbeat IPC: 1.129 cumulative IPC: 0.9682 (Simulation time: 00 hr 29 min 32 sec)
Heartbeat CPU 0 instructions: 149000996 cycles: 114616054 heartbeat IPC: 1.153 cumulative IPC: 0.969 (Simulation time: 00 hr 29 min 39 sec)
Heartbeat CPU 0 instructions: 149500997 cycles: 115053324 heartbeat IPC: 1.143 cumulative IPC: 0.9697 (Simulation time: 00 hr 29 min 45 sec)
Heartbeat CPU 0 instructions: 150001003 cycles: 115495168 heartbeat IPC: 1.132 cumulative IPC: 0.9704 (Simulation time: 00 hr 29 min 51 sec)
Heartbeat CPU 0 instructions: 150501005 cycles: 115926144 heartbeat IPC: 1.16 cumulative IPC: 0.9712 (Simulation time: 00 hr 29 min 57 sec)
Heartbeat CPU 0 instructions: 151001008 cycles: 116302722 heartbeat IPC: 1.328 cumulative IPC: 0.9725 (Simulation time: 00 hr 30 min 03 sec)
Heartbeat CPU 0 instructions: 151501012 cycles: 116695662 heartbeat IPC: 1.272 cumulative IPC: 0.9737 (Simulation time: 00 hr 30 min 08 sec)
Heartbeat CPU 0 instructions: 152001017 cycles: 117133424 heartbeat IPC: 1.142 cumulative IPC: 0.9744 (Simulation time: 00 hr 30 min 15 sec)
Heartbeat CPU 0 instructions: 152501018 cycles: 117540258 heartbeat IPC: 1.229 cumulative IPC: 0.9753 (Simulation time: 00 hr 30 min 21 sec)
Heartbeat CPU 0 instructions: 153001020 cycles: 117934496 heartbeat IPC: 1.268 cumulative IPC: 0.9764 (Simulation time: 00 hr 30 min 26 sec)
Heartbeat CPU 0 instructions: 153501027 cycles: 118390118 heartbeat IPC: 1.097 cumulative IPC: 0.977 (Simulation time: 00 hr 30 min 33 sec)
Heartbeat CPU 0 instructions: 154001032 cycles: 118878988 heartbeat IPC: 1.023 cumulative IPC: 0.9772 (Simulation time: 00 hr 30 min 40 sec)
Heartbeat CPU 0 instructions: 154501039 cycles: 119264886 heartbeat IPC: 1.296 cumulative IPC: 0.9783 (Simulation time: 00 hr 30 min 45 sec)
Heartbeat CPU 0 instructions: 155001040 cycles: 119748691 heartbeat IPC: 1.033 cumulative IPC: 0.9786 (Simulation time: 00 hr 30 min 52 sec)
Heartbeat CPU 0 instructions: 155501041 cycles: 120146667 heartbeat IPC: 1.256 cumulative IPC: 0.9796 (Simulation time: 00 hr 30 min 58 sec)
Heartbeat CPU 0 instructions: 156001044 cycles: 120569653 heartbeat IPC: 1.182 cumulative IPC: 0.9804 (Simulation time: 00 hr 31 min 04 sec)
Heartbeat CPU 0 instructions: 156501045 cycles: 120993393 heartbeat IPC: 1.18 cumulative IPC: 0.9812 (Simulation time: 00 hr 31 min 10 sec)
Heartbeat CPU 0 instructions: 157001046 cycles: 121398590 heartbeat IPC: 1.234 cumulative IPC: 0.9821 (Simulation time: 00 hr 31 min 16 sec)
Heartbeat CPU 0 instructions: 157501050 cycles: 121773767 heartbeat IPC: 1.333 cumulative IPC: 0.9833 (Simulation time: 00 hr 31 min 21 sec)
Heartbeat CPU 0 instructions: 158001053 cycles: 122172326 heartbeat IPC: 1.255 cumulative IPC: 0.9843 (Simulation time: 00 hr 31 min 27 sec)
Heartbeat CPU 0 instructions: 158501058 cycles: 122589853 heartbeat IPC: 1.198 cumulative IPC: 0.9851 (Simulation time: 00 hr 31 min 33 sec)
Heartbeat CPU 0 instructions: 159001065 cycles: 123002262 heartbeat IPC: 1.212 cumulative IPC: 0.986 (Simulation time: 00 hr 31 min 39 sec)
Heartbeat CPU 0 instructions: 159501066 cycles: 123425033 heartbeat IPC: 1.183 cumulative IPC: 0.9867 (Simulation time: 00 hr 31 min 45 sec)
Heartbeat CPU 0 instructions: 160001066 cycles: 123826593 heartbeat IPC: 1.245 cumulative IPC: 0.9876 (Simulation time: 00 hr 31 min 51 sec)
Heartbeat CPU 0 instructions: 160501066 cycles: 124204347 heartbeat IPC: 1.324 cumulative IPC: 0.9888 (Simulation time: 00 hr 31 min 56 sec)
Heartbeat CPU 0 instructions: 161001068 cycles: 124611144 heartbeat IPC: 1.229 cumulative IPC: 0.9896 (Simulation time: 00 hr 32 min 02 sec)
Heartbeat CPU 0 instructions: 161501073 cycles: 125052794 heartbeat IPC: 1.132 cumulative IPC: 0.9902 (Simulation time: 00 hr 32 min 08 sec)
Heartbeat CPU 0 instructions: 162001080 cycles: 125512154 heartbeat IPC: 1.088 cumulative IPC: 0.9906 (Simulation time: 00 hr 32 min 15 sec)
Heartbeat CPU 0 instructions: 162501087 cycles: 125979275 heartbeat IPC: 1.07 cumulative IPC: 0.9909 (Simulation time: 00 hr 32 min 21 sec)
Heartbeat CPU 0 instructions: 163001092 cycles: 126444097 heartbeat IPC: 1.076 cumulative IPC: 0.9913 (Simulation time: 00 hr 32 min 28 sec)
Heartbeat CPU 0 instructions: 163501094 cycles: 126871057 heartbeat IPC: 1.171 cumulative IPC: 0.9919 (Simulation time: 00 hr 32 min 34 sec)
Heartbeat CPU 0 instructions: 164001095 cycles: 127256150 heartbeat IPC: 1.298 cumulative IPC: 0.993 (Simulation time: 00 hr 32 min 40 sec)
Heartbeat CPU 0 instructions: 164501100 cycles: 127663392 heartbeat IPC: 1.228 cumulative IPC: 0.9938 (Simulation time: 00 hr 32 min 46 sec)
Heartbeat CPU 0 instructions: 165001107 cycles: 128091165 heartbeat IPC: 1.169 cumulative IPC: 0.9945 (Simulation time: 00 hr 32 min 52 sec)
Heartbeat CPU 0 instructions: 165501113 cycles: 128506357 heartbeat IPC: 1.204 cumulative IPC: 0.9952 (Simulation time: 00 hr 32 min 58 sec)
Heartbeat CPU 0 instructions: 166001120 cycles: 128932111 heartbeat IPC: 1.174 cumulative IPC: 0.9959 (Simulation time: 00 hr 33 min 04 sec)
Heartbeat CPU 0 instructions: 166501121 cycles: 129371356 heartbeat IPC: 1.138 cumulative IPC: 0.9964 (Simulation time: 00 hr 33 min 10 sec)
Heartbeat CPU 0 instructions: 167001124 cycles: 129769849 heartbeat IPC: 1.255 cumulative IPC: 0.9973 (Simulation time: 00 hr 33 min 16 sec)
Heartbeat CPU 0 instructions: 167501126 cycles: 130135697 heartbeat IPC: 1.367 cumulative IPC: 0.9984 (Simulation time: 00 hr 33 min 21 sec)
Heartbeat CPU 0 instructions: 168001126 cycles: 130518595 heartbeat IPC: 1.306 cumulative IPC: 0.9994 (Simulation time: 00 hr 33 min 27 sec)
Heartbeat CPU 0 instructions: 168501132 cycles: 130904276 heartbeat IPC: 1.296 cumulative IPC: 1 (Simulation time: 00 hr 33 min 32 sec)
Heartbeat CPU 0 instructions: 169001132 cycles: 131281338 heartbeat IPC: 1.326 cumulative IPC: 1.001 (Simulation time: 00 hr 33 min 38 sec)
Heartbeat CPU 0 instructions: 169501135 cycles: 131667170 heartbeat IPC: 1.296 cumulative IPC: 1.002 (Simulation time: 00 hr 33 min 43 sec)
Heartbeat CPU 0 instructions: 170001142 cycles: 132103058 heartbeat IPC: 1.147 cumulative IPC: 1.003 (Simulation time: 00 hr 33 min 49 sec)
Heartbeat CPU 0 instructions: 170501143 cycles: 132559539 heartbeat IPC: 1.095 cumulative IPC: 1.003 (Simulation time: 00 hr 33 min 56 sec)
Heartbeat CPU 0 instructions: 171001149 cycles: 132942311 heartbeat IPC: 1.306 cumulative IPC: 1.004 (Simulation time: 00 hr 34 min 02 sec)
Heartbeat CPU 0 instructions: 171501152 cycles: 133437980 heartbeat IPC: 1.009 cumulative IPC: 1.004 (Simulation time: 00 hr 34 min 09 sec)
Heartbeat CPU 0 instructions: 172001159 cycles: 133836879 heartbeat IPC: 1.253 cumulative IPC: 1.005 (Simulation time: 00 hr 34 min 14 sec)
Heartbeat CPU 0 instructions: 172501163 cycles: 134250635 heartbeat IPC: 1.208 cumulative IPC: 1.006 (Simulation time: 00 hr 34 min 20 sec)
Heartbeat CPU 0 instructions: 173001167 cycles: 134670952 heartbeat IPC: 1.19 cumulative IPC: 1.006 (Simulation time: 00 hr 34 min 26 sec)
Heartbeat CPU 0 instructions: 173501171 cycles: 135063000 heartbeat IPC: 1.275 cumulative IPC: 1.007 (Simulation time: 00 hr 34 min 32 sec)
Heartbeat CPU 0 instructions: 174001172 cycles: 135437180 heartbeat IPC: 1.336 cumulative IPC: 1.008 (Simulation time: 00 hr 34 min 37 sec)
Heartbeat CPU 0 instructions: 174501172 cycles: 135814306 heartbeat IPC: 1.326 cumulative IPC: 1.009 (Simulation time: 00 hr 34 min 43 sec)
Heartbeat CPU 0 instructions: 175001177 cycles: 136225645 heartbeat IPC: 1.216 cumulative IPC: 1.01 (Simulation time: 00 hr 34 min 49 sec)
Heartbeat CPU 0 instructions: 175501178 cycles: 136627875 heartbeat IPC: 1.243 cumulative IPC: 1.011 (Simulation time: 00 hr 34 min 55 sec)
Heartbeat CPU 0 instructions: 176001178 cycles: 137022762 heartbeat IPC: 1.266 cumulative IPC: 1.011 (Simulation time: 00 hr 35 min 00 sec)
Heartbeat CPU 0 instructions: 176501182 cycles: 137411649 heartbeat IPC: 1.286 cumulative IPC: 1.012 (Simulation time: 00 hr 35 min 06 sec)
Heartbeat CPU 0 instructions: 177001184 cycles: 137788645 heartbeat IPC: 1.326 cumulative IPC: 1.013 (Simulation time: 00 hr 35 min 11 sec)
Heartbeat CPU 0 instructions: 177501184 cycles: 138183120 heartbeat IPC: 1.268 cumulative IPC: 1.014 (Simulation time: 00 hr 35 min 17 sec)
Heartbeat CPU 0 instructions: 178001184 cycles: 138601193 heartbeat IPC: 1.196 cumulative IPC: 1.015 (Simulation time: 00 hr 35 min 23 sec)
Heartbeat CPU 0 instructions: 178501186 cycles: 139033431 heartbeat IPC: 1.157 cumulative IPC: 1.015 (Simulation time: 00 hr 35 min 29 sec)
Heartbeat CPU 0 instructions: 179001193 cycles: 139481834 heartbeat IPC: 1.115 cumulative IPC: 1.015 (Simulation time: 00 hr 35 min 36 sec)
Heartbeat CPU 0 instructions: 179501200 cycles: 139936988 heartbeat IPC: 1.099 cumulative IPC: 1.016 (Simulation time: 00 hr 35 min 42 sec)
Heartbeat CPU 0 instructions: 180001200 cycles: 140382761 heartbeat IPC: 1.122 cumulative IPC: 1.016 (Simulation time: 00 hr 35 min 48 sec)
Heartbeat CPU 0 instructions: 180501203 cycles: 140772469 heartbeat IPC: 1.283 cumulative IPC: 1.017 (Simulation time: 00 hr 35 min 54 sec)
Heartbeat CPU 0 instructions: 181001203 cycles: 141152126 heartbeat IPC: 1.317 cumulative IPC: 1.018 (Simulation time: 00 hr 36 min 00 sec)
Heartbeat CPU 0 instructions: 181501203 cycles: 141577952 heartbeat IPC: 1.174 cumulative IPC: 1.018 (Simulation time: 00 hr 36 min 06 sec)
Heartbeat CPU 0 instructions: 182001209 cycles: 141975288 heartbeat IPC: 1.258 cumulative IPC: 1.019 (Simulation time: 00 hr 36 min 11 sec)
Heartbeat CPU 0 instructions: 182501215 cycles: 142392665 heartbeat IPC: 1.198 cumulative IPC: 1.02 (Simulation time: 00 hr 36 min 17 sec)
Heartbeat CPU 0 instructions: 183001220 cycles: 142805497 heartbeat IPC: 1.211 cumulative IPC: 1.02 (Simulation time: 00 hr 36 min 23 sec)
Heartbeat CPU 0 instructions: 183501220 cycles: 143212539 heartbeat IPC: 1.228 cumulative IPC: 1.021 (Simulation time: 00 hr 36 min 29 sec)
Heartbeat CPU 0 instructions: 184001221 cycles: 143591091 heartbeat IPC: 1.321 cumulative IPC: 1.022 (Simulation time: 00 hr 36 min 35 sec)
Heartbeat CPU 0 instructions: 184501226 cycles: 143956420 heartbeat IPC: 1.369 cumulative IPC: 1.023 (Simulation time: 00 hr 36 min 40 sec)
Heartbeat CPU 0 instructions: 185001228 cycles: 144326121 heartbeat IPC: 1.352 cumulative IPC: 1.024 (Simulation time: 00 hr 36 min 46 sec)
Heartbeat CPU 0 instructions: 185501230 cycles: 144697203 heartbeat IPC: 1.347 cumulative IPC: 1.025 (Simulation time: 00 hr 36 min 51 sec)
Heartbeat CPU 0 instructions: 186001237 cycles: 145075024 heartbeat IPC: 1.323 cumulative IPC: 1.025 (Simulation time: 00 hr 36 min 56 sec)
Heartbeat CPU 0 instructions: 186501239 cycles: 145465070 heartbeat IPC: 1.282 cumulative IPC: 1.026 (Simulation time: 00 hr 37 min 02 sec)
Heartbeat CPU 0 instructions: 187001239 cycles: 145889987 heartbeat IPC: 1.177 cumulative IPC: 1.027 (Simulation time: 00 hr 37 min 08 sec)
Heartbeat CPU 0 instructions: 187501242 cycles: 146314788 heartbeat IPC: 1.177 cumulative IPC: 1.027 (Simulation time: 00 hr 37 min 14 sec)
Heartbeat CPU 0 instructions: 188001243 cycles: 146689421 heartbeat IPC: 1.335 cumulative IPC: 1.028 (Simulation time: 00 hr 37 min 20 sec)
Heartbeat CPU 0 instructions: 188501243 cycles: 147179848 heartbeat IPC: 1.02 cumulative IPC: 1.028 (Simulation time: 00 hr 37 min 27 sec)
Heartbeat CPU 0 instructions: 189001247 cycles: 147567156 heartbeat IPC: 1.291 cumulative IPC: 1.029 (Simulation time: 00 hr 37 min 32 sec)
Heartbeat CPU 0 instructions: 189501250 cycles: 147965497 heartbeat IPC: 1.255 cumulative IPC: 1.029 (Simulation time: 00 hr 37 min 38 sec)
Heartbeat CPU 0 instructions: 190001252 cycles: 148379474 heartbeat IPC: 1.208 cumulative IPC: 1.03 (Simulation time: 00 hr 37 min 44 sec)
Heartbeat CPU 0 instructions: 190501255 cycles: 148761536 heartbeat IPC: 1.309 cumulative IPC: 1.031 (Simulation time: 00 hr 37 min 49 sec)
Heartbeat CPU 0 instructions: 191001255 cycles: 149128349 heartbeat IPC: 1.363 cumulative IPC: 1.032 (Simulation time: 00 hr 37 min 55 sec)
Heartbeat CPU 0 instructions: 191501258 cycles: 149497260 heartbeat IPC: 1.355 cumulative IPC: 1.032 (Simulation time: 00 hr 38 min 00 sec)
Heartbeat CPU 0 instructions: 192001264 cycles: 149900809 heartbeat IPC: 1.239 cumulative IPC: 1.033 (Simulation time: 00 hr 38 min 06 sec)
Heartbeat CPU 0 instructions: 192501268 cycles: 150289868 heartbeat IPC: 1.285 cumulative IPC: 1.034 (Simulation time: 00 hr 38 min 12 sec)
Heartbeat CPU 0 instructions: 193001270 cycles: 150664250 heartbeat IPC: 1.336 cumulative IPC: 1.035 (Simulation time: 00 hr 38 min 17 sec)
Heartbeat CPU 0 instructions: 193501277 cycles: 151049678 heartbeat IPC: 1.297 cumulative IPC: 1.035 (Simulation time: 00 hr 38 min 22 sec)
Heartbeat CPU 0 instructions: 194001283 cycles: 151417195 heartbeat IPC: 1.36 cumulative IPC: 1.036 (Simulation time: 00 hr 38 min 28 sec)
Heartbeat CPU 0 instructions: 194501290 cycles: 151805164 heartbeat IPC: 1.289 cumulative IPC: 1.037 (Simulation time: 00 hr 38 min 34 sec)
Heartbeat CPU 0 instructions: 195001295 cycles: 152203884 heartbeat IPC: 1.254 cumulative IPC: 1.038 (Simulation time: 00 hr 38 min 39 sec)
Heartbeat CPU 0 instructions: 195501296 cycles: 152621257 heartbeat IPC: 1.198 cumulative IPC: 1.038 (Simulation time: 00 hr 38 min 45 sec)
Heartbeat CPU 0 instructions: 196001300 cycles: 153054910 heartbeat IPC: 1.153 cumulative IPC: 1.038 (Simulation time: 00 hr 38 min 52 sec)
Heartbeat CPU 0 instructions: 196501302 cycles: 153500011 heartbeat IPC: 1.123 cumulative IPC: 1.039 (Simulation time: 00 hr 38 min 58 sec)
Heartbeat CPU 0 instructions: 197001303 cycles: 153947652 heartbeat IPC: 1.117 cumulative IPC: 1.039 (Simulation time: 00 hr 39 min 04 sec)
Heartbeat CPU 0 instructions: 197501306 cycles: 154345216 heartbeat IPC: 1.258 cumulative IPC: 1.039 (Simulation time: 00 hr 39 min 10 sec)
Heartbeat CPU 0 instructions: 198001311 cycles: 154710370 heartbeat IPC: 1.369 cumulative IPC: 1.04 (Simulation time: 00 hr 39 min 15 sec)
Heartbeat CPU 0 instructions: 198501315 cycles: 155112290 heartbeat IPC: 1.244 cumulative IPC: 1.041 (Simulation time: 00 hr 39 min 21 sec)
Heartbeat CPU 0 instructions: 199001319 cycles: 155513763 heartbeat IPC: 1.245 cumulative IPC: 1.041 (Simulation time: 00 hr 39 min 27 sec)
Heartbeat CPU 0 instructions: 199501321 cycles: 155901780 heartbeat IPC: 1.289 cumulative IPC: 1.042 (Simulation time: 00 hr 39 min 32 sec)
Heartbeat CPU 0 instructions: 200001324 cycles: 156303797 heartbeat IPC: 1.244 cumulative IPC: 1.043 (Simulation time: 00 hr 39 min 38 sec)
Heartbeat CPU 0 instructions: 200501324 cycles: 156700553 heartbeat IPC: 1.26 cumulative IPC: 1.043 (Simulation time: 00 hr 39 min 44 sec)
Heartbeat CPU 0 instructions: 201001328 cycles: 157095163 heartbeat IPC: 1.267 cumulative IPC: 1.044 (Simulation time: 00 hr 39 min 50 sec)
Heartbeat CPU 0 instructions: 201501329 cycles: 157463715 heartbeat IPC: 1.357 cumulative IPC: 1.045 (Simulation time: 00 hr 39 min 55 sec)
Heartbeat CPU 0 instructions: 202001331 cycles: 157825194 heartbeat IPC: 1.383 cumulative IPC: 1.046 (Simulation time: 00 hr 40 min 00 sec)
Heartbeat CPU 0 instructions: 202501332 cycles: 158195667 heartbeat IPC: 1.35 cumulative IPC: 1.046 (Simulation time: 00 hr 40 min 06 sec)
Heartbeat CPU 0 instructions: 203001337 cycles: 158562690 heartbeat IPC: 1.362 cumulative IPC: 1.047 (Simulation time: 00 hr 40 min 11 sec)
Heartbeat CPU 0 instructions: 203501339 cycles: 158925118 heartbeat IPC: 1.38 cumulative IPC: 1.048 (Simulation time: 00 hr 40 min 16 sec)
Heartbeat CPU 0 instructions: 204001342 cycles: 159320982 heartbeat IPC: 1.263 cumulative IPC: 1.049 (Simulation time: 00 hr 40 min 22 sec)
Heartbeat CPU 0 instructions: 204501342 cycles: 159736040 heartbeat IPC: 1.205 cumulative IPC: 1.049 (Simulation time: 00 hr 40 min 28 sec)
Heartbeat CPU 0 instructions: 205001345 cycles: 160121350 heartbeat IPC: 1.298 cumulative IPC: 1.05 (Simulation time: 00 hr 40 min 33 sec)
Heartbeat CPU 0 instructions: 205501348 cycles: 160489380 heartbeat IPC: 1.359 cumulative IPC: 1.05 (Simulation time: 00 hr 40 min 39 sec)
Heartbeat CPU 0 instructions: 206001351 cycles: 160985686 heartbeat IPC: 1.007 cumulative IPC: 1.05 (Simulation time: 00 hr 40 min 46 sec)
Heartbeat CPU 0 instructions: 206501351 cycles: 161377593 heartbeat IPC: 1.276 cumulative IPC: 1.051 (Simulation time: 00 hr 40 min 52 sec)
Heartbeat CPU 0 instructions: 207001355 cycles: 161777757 heartbeat IPC: 1.249 cumulative IPC: 1.051 (Simulation time: 00 hr 40 min 57 sec)
Heartbeat CPU 0 instructions: 207501355 cycles: 162163913 heartbeat IPC: 1.295 cumulative IPC: 1.052 (Simulation time: 00 hr 41 min 03 sec)
Heartbeat CPU 0 instructions: 208001358 cycles: 162531097 heartbeat IPC: 1.362 cumulative IPC: 1.053 (Simulation time: 00 hr 41 min 08 sec)
Heartbeat CPU 0 instructions: 208501358 cycles: 162896097 heartbeat IPC: 1.37 cumulative IPC: 1.054 (Simulation time: 00 hr 41 min 13 sec)
Heartbeat CPU 0 instructions: 209001359 cycles: 163267614 heartbeat IPC: 1.346 cumulative IPC: 1.054 (Simulation time: 00 hr 41 min 19 sec)
Heartbeat CPU 0 instructions: 209501361 cycles: 163642068 heartbeat IPC: 1.335 cumulative IPC: 1.055 (Simulation time: 00 hr 41 min 24 sec)
Heartbeat CPU 0 instructions: 210001362 cycles: 164017619 heartbeat IPC: 1.331 cumulative IPC: 1.056 (Simulation time: 00 hr 41 min 30 sec)
Heartbeat CPU 0 instructions: 210501363 cycles: 164382446 heartbeat IPC: 1.371 cumulative IPC: 1.056 (Simulation time: 00 hr 41 min 35 sec)
Heartbeat CPU 0 instructions: 211001367 cycles: 164754277 heartbeat IPC: 1.345 cumulative IPC: 1.057 (Simulation time: 00 hr 41 min 41 sec)
Heartbeat CPU 0 instructions: 211501371 cycles: 165117366 heartbeat IPC: 1.377 cumulative IPC: 1.058 (Simulation time: 00 hr 41 min 46 sec)
Heartbeat CPU 0 instructions: 212001377 cycles: 165499484 heartbeat IPC: 1.309 cumulative IPC: 1.058 (Simulation time: 00 hr 41 min 51 sec)
Heartbeat CPU 0 instructions: 212501377 cycles: 165888172 heartbeat IPC: 1.286 cumulative IPC: 1.059 (Simulation time: 00 hr 41 min 57 sec)
Heartbeat CPU 0 instructions: 213001379 cycles: 166288675 heartbeat IPC: 1.248 cumulative IPC: 1.06 (Simulation time: 00 hr 42 min 03 sec)
Heartbeat CPU 0 instructions: 213501386 cycles: 166705231 heartbeat IPC: 1.2 cumulative IPC: 1.06 (Simulation time: 00 hr 42 min 09 sec)
Heartbeat CPU 0 instructions: 214001390 cycles: 167134521 heartbeat IPC: 1.165 cumulative IPC: 1.06 (Simulation time: 00 hr 42 min 15 sec)
Heartbeat CPU 0 instructions: 214501394 cycles: 167569378 heartbeat IPC: 1.15 cumulative IPC: 1.06 (Simulation time: 00 hr 42 min 21 sec)
Heartbeat CPU 0 instructions: 215001395 cycles: 167965776 heartbeat IPC: 1.261 cumulative IPC: 1.061 (Simulation time: 00 hr 42 min 27 sec)
Heartbeat CPU 0 instructions: 215501402 cycles: 168329181 heartbeat IPC: 1.376 cumulative IPC: 1.062 (Simulation time: 00 hr 42 min 32 sec)
Heartbeat CPU 0 instructions: 216001404 cycles: 168709953 heartbeat IPC: 1.313 cumulative IPC: 1.062 (Simulation time: 00 hr 42 min 38 sec)
Heartbeat CPU 0 instructions: 216501409 cycles: 169104909 heartbeat IPC: 1.266 cumulative IPC: 1.063 (Simulation time: 00 hr 42 min 43 sec)
Heartbeat CPU 0 instructions: 217001409 cycles: 169498356 heartbeat IPC: 1.271 cumulative IPC: 1.063 (Simulation time: 00 hr 42 min 49 sec)
Heartbeat CPU 0 instructions: 217501410 cycles: 169886494 heartbeat IPC: 1.288 cumulative IPC: 1.064 (Simulation time: 00 hr 42 min 55 sec)
Heartbeat CPU 0 instructions: 218001411 cycles: 170290473 heartbeat IPC: 1.238 cumulative IPC: 1.064 (Simulation time: 00 hr 43 min 01 sec)
Heartbeat CPU 0 instructions: 218501415 cycles: 170685187 heartbeat IPC: 1.267 cumulative IPC: 1.065 (Simulation time: 00 hr 43 min 06 sec)
Heartbeat CPU 0 instructions: 219001415 cycles: 171056892 heartbeat IPC: 1.345 cumulative IPC: 1.066 (Simulation time: 00 hr 43 min 12 sec)
Heartbeat CPU 0 instructions: 219501420 cycles: 171423506 heartbeat IPC: 1.364 cumulative IPC: 1.066 (Simulation time: 00 hr 43 min 17 sec)
Heartbeat CPU 0 instructions: 220001421 cycles: 171790579 heartbeat IPC: 1.362 cumulative IPC: 1.067 (Simulation time: 00 hr 43 min 22 sec)
Heartbeat CPU 0 instructions: 220501423 cycles: 172155855 heartbeat IPC: 1.369 cumulative IPC: 1.068 (Simulation time: 00 hr 43 min 28 sec)
Heartbeat CPU 0 instructions: 221001424 cycles: 172519516 heartbeat IPC: 1.375 cumulative IPC: 1.068 (Simulation time: 00 hr 43 min 33 sec)
Heartbeat CPU 0 instructions: 221501428 cycles: 172898681 heartbeat IPC: 1.319 cumulative IPC: 1.069 (Simulation time: 00 hr 43 min 39 sec)
Heartbeat CPU 0 instructions: 222001432 cycles: 173300336 heartbeat IPC: 1.245 cumulative IPC: 1.069 (Simulation time: 00 hr 43 min 44 sec)
Heartbeat CPU 0 instructions: 222501439 cycles: 173695156 heartbeat IPC: 1.266 cumulative IPC: 1.07 (Simulation time: 00 hr 43 min 50 sec)
Heartbeat CPU 0 instructions: 223001441 cycles: 174063946 heartbeat IPC: 1.356 cumulative IPC: 1.07 (Simulation time: 00 hr 43 min 56 sec)
Heartbeat CPU 0 instructions: 223501444 cycles: 174546900 heartbeat IPC: 1.035 cumulative IPC: 1.07 (Simulation time: 00 hr 44 min 02 sec)
Heartbeat CPU 0 instructions: 224001449 cycles: 174938829 heartbeat IPC: 1.276 cumulative IPC: 1.071 (Simulation time: 00 hr 44 min 08 sec)
Heartbeat CPU 0 instructions: 224501450 cycles: 175345224 heartbeat IPC: 1.23 cumulative IPC: 1.071 (Simulation time: 00 hr 44 min 14 sec)
Heartbeat CPU 0 instructions: 225001455 cycles: 175731059 heartbeat IPC: 1.296 cumulative IPC: 1.072 (Simulation time: 00 hr 44 min 19 sec)
Heartbeat CPU 0 instructions: 225501458 cycles: 176097733 heartbeat IPC: 1.364 cumulative IPC: 1.072 (Simulation time: 00 hr 44 min 25 sec)
Heartbeat CPU 0 instructions: 226001459 cycles: 176466230 heartbeat IPC: 1.357 cumulative IPC: 1.073 (Simulation time: 00 hr 44 min 30 sec)
Heartbeat CPU 0 instructions: 226501465 cycles: 176838929 heartbeat IPC: 1.342 cumulative IPC: 1.074 (Simulation time: 00 hr 44 min 35 sec)
Heartbeat CPU 0 instructions: 227001466 cycles: 177198165 heartbeat IPC: 1.392 cumulative IPC: 1.074 (Simulation time: 00 hr 44 min 41 sec)
Heartbeat CPU 0 instructions: 227501468 cycles: 177565261 heartbeat IPC: 1.362 cumulative IPC: 1.075 (Simulation time: 00 hr 44 min 46 sec)
Heartbeat CPU 0 instructions: 228001473 cycles: 177937809 heartbeat IPC: 1.342 cumulative IPC: 1.076 (Simulation time: 00 hr 44 min 51 sec)
Heartbeat CPU 0 instructions: 228501474 cycles: 178299470 heartbeat IPC: 1.383 cumulative IPC: 1.076 (Simulation time: 00 hr 44 min 57 sec)
Heartbeat CPU 0 instructions: 229001475 cycles: 178665882 heartbeat IPC: 1.365 cumulative IPC: 1.077 (Simulation time: 00 hr 45 min 02 sec)
Heartbeat CPU 0 instructions: 229501477 cycles: 179036867 heartbeat IPC: 1.348 cumulative IPC: 1.078 (Simulation time: 00 hr 45 min 08 sec)
Heartbeat CPU 0 instructions: 230001477 cycles: 179411208 heartbeat IPC: 1.336 cumulative IPC: 1.078 (Simulation time: 00 hr 45 min 13 sec)
Heartbeat CPU 0 instructions: 230501482 cycles: 179779896 heartbeat IPC: 1.356 cumulative IPC: 1.079 (Simulation time: 00 hr 45 min 18 sec)
Heartbeat CPU 0 instructions: 231001486 cycles: 180175406 heartbeat IPC: 1.264 cumulative IPC: 1.079 (Simulation time: 00 hr 45 min 24 sec)
Heartbeat CPU 0 instructions: 231501487 cycles: 180586010 heartbeat IPC: 1.218 cumulative IPC: 1.079 (Simulation time: 00 hr 45 min 30 sec)
Heartbeat CPU 0 instructions: 232001491 cycles: 181029091 heartbeat IPC: 1.128 cumulative IPC: 1.08 (Simulation time: 00 hr 45 min 36 sec)
Heartbeat CPU 0 instructions: 232501498 cycles: 181439712 heartbeat IPC: 1.218 cumulative IPC: 1.08 (Simulation time: 00 hr 45 min 42 sec)
Heartbeat CPU 0 instructions: 233001498 cycles: 181814175 heartbeat IPC: 1.335 cumulative IPC: 1.081 (Simulation time: 00 hr 45 min 48 sec)
Heartbeat CPU 0 instructions: 233501501 cycles: 182179212 heartbeat IPC: 1.37 cumulative IPC: 1.081 (Simulation time: 00 hr 45 min 53 sec)
Heartbeat CPU 0 instructions: 234001507 cycles: 182557661 heartbeat IPC: 1.321 cumulative IPC: 1.082 (Simulation time: 00 hr 45 min 59 sec)
Heartbeat CPU 0 instructions: 234501508 cycles: 182945782 heartbeat IPC: 1.288 cumulative IPC: 1.082 (Simulation time: 00 hr 46 min 04 sec)
Heartbeat CPU 0 instructions: 235001515 cycles: 183321617 heartbeat IPC: 1.33 cumulative IPC: 1.083 (Simulation time: 00 hr 46 min 10 sec)
Heartbeat CPU 0 instructions: 235501516 cycles: 183715637 heartbeat IPC: 1.269 cumulative IPC: 1.083 (Simulation time: 00 hr 46 min 15 sec)
Heartbeat CPU 0 instructions: 236001516 cycles: 184112211 heartbeat IPC: 1.261 cumulative IPC: 1.084 (Simulation time: 00 hr 46 min 21 sec)
Heartbeat CPU 0 instructions: 236501523 cycles: 184506477 heartbeat IPC: 1.268 cumulative IPC: 1.084 (Simulation time: 00 hr 46 min 27 sec)
Heartbeat CPU 0 instructions: 237001526 cycles: 184873288 heartbeat IPC: 1.363 cumulative IPC: 1.085 (Simulation time: 00 hr 46 min 32 sec)
Heartbeat CPU 0 instructions: 237501527 cycles: 185246297 heartbeat IPC: 1.34 cumulative IPC: 1.085 (Simulation time: 00 hr 46 min 38 sec)
Heartbeat CPU 0 instructions: 238001531 cycles: 185610308 heartbeat IPC: 1.374 cumulative IPC: 1.086 (Simulation time: 00 hr 46 min 43 sec)
Heartbeat CPU 0 instructions: 238501534 cycles: 185974154 heartbeat IPC: 1.374 cumulative IPC: 1.086 (Simulation time: 00 hr 46 min 48 sec)
Heartbeat CPU 0 instructions: 239001535 cycles: 186346029 heartbeat IPC: 1.345 cumulative IPC: 1.087 (Simulation time: 00 hr 46 min 54 sec)
Heartbeat CPU 0 instructions: 239501540 cycles: 186715351 heartbeat IPC: 1.354 cumulative IPC: 1.087 (Simulation time: 00 hr 46 min 59 sec)
Heartbeat CPU 0 instructions: 240001546 cycles: 187118197 heartbeat IPC: 1.241 cumulative IPC: 1.088 (Simulation time: 00 hr 47 min 05 sec)
Heartbeat CPU 0 instructions: 240501552 cycles: 187486292 heartbeat IPC: 1.358 cumulative IPC: 1.088 (Simulation time: 00 hr 47 min 10 sec)
Heartbeat CPU 0 instructions: 241001558 cycles: 187851140 heartbeat IPC: 1.37 cumulative IPC: 1.089 (Simulation time: 00 hr 47 min 15 sec)
Heartbeat CPU 0 instructions: 241501563 cycles: 188344417 heartbeat IPC: 1.014 cumulative IPC: 1.089 (Simulation time: 00 hr 47 min 22 sec)
Heartbeat CPU 0 instructions: 242001565 cycles: 188732240 heartbeat IPC: 1.289 cumulative IPC: 1.089 (Simulation time: 00 hr 47 min 28 sec)
Heartbeat CPU 0 instructions: 242501567 cycles: 189134637 heartbeat IPC: 1.243 cumulative IPC: 1.09 (Simulation time: 00 hr 47 min 34 sec)
Heartbeat CPU 0 instructions: 243001570 cycles: 189520125 heartbeat IPC: 1.297 cumulative IPC: 1.09 (Simulation time: 00 hr 47 min 39 sec)
Heartbeat CPU 0 instructions: 243501574 cycles: 189887121 heartbeat IPC: 1.362 cumulative IPC: 1.091 (Simulation time: 00 hr 47 min 45 sec)
Heartbeat CPU 0 instructions: 244001576 cycles: 190251085 heartbeat IPC: 1.374 cumulative IPC: 1.091 (Simulation time: 00 hr 47 min 50 sec)
Heartbeat CPU 0 instructions: 244501580 cycles: 190615099 heartbeat IPC: 1.374 cumulative IPC: 1.092 (Simulation time: 00 hr 47 min 55 sec)
Heartbeat CPU 0 instructions: 245001582 cycles: 190979984 heartbeat IPC: 1.37 cumulative IPC: 1.092 (Simulation time: 00 hr 48 min 01 sec)
Heartbeat CPU 0 instructions: 245501585 cycles: 191344234 heartbeat IPC: 1.373 cumulative IPC: 1.093 (Simulation time: 00 hr 48 min 06 sec)
Heartbeat CPU 0 instructions: 246001588 cycles: 191716424 heartbeat IPC: 1.343 cumulative IPC: 1.093 (Simulation time: 00 hr 48 min 12 sec)
Heartbeat CPU 0 instructions: 246501595 cycles: 192079191 heartbeat IPC: 1.378 cumulative IPC: 1.094 (Simulation time: 00 hr 48 min 17 sec)
Heartbeat CPU 0 instructions: 247001600 cycles: 192445727 heartbeat IPC: 1.364 cumulative IPC: 1.094 (Simulation time: 00 hr 48 min 22 sec)
Heartbeat CPU 0 instructions: 247501603 cycles: 192808993 heartbeat IPC: 1.376 cumulative IPC: 1.095 (Simulation time: 00 hr 48 min 27 sec)
Heartbeat CPU 0 instructions: 248001606 cycles: 193171199 heartbeat IPC: 1.38 cumulative IPC: 1.096 (Simulation time: 00 hr 48 min 33 sec)
Heartbeat CPU 0 instructions: 248501608 cycles: 193541841 heartbeat IPC: 1.349 cumulative IPC: 1.096 (Simulation time: 00 hr 48 min 38 sec)
Heartbeat CPU 0 instructions: 249001610 cycles: 193920484 heartbeat IPC: 1.321 cumulative IPC: 1.097 (Simulation time: 00 hr 48 min 44 sec)
Heartbeat CPU 0 instructions: 249501615 cycles: 194318534 heartbeat IPC: 1.256 cumulative IPC: 1.097 (Simulation time: 00 hr 48 min 49 sec)
Simulation finished CPU 0 instructions: 200000001 cycles: 182294448 cumulative IPC: 1.097 (Simulation time: 00 hr 48 min 55 sec)
Simulation complete CPU 0 instructions: 200000001 cycles: 182294448 cumulative IPC: 1.097 (Simulation time: 00 hr 48 min 55 sec)

ChampSim completed all CPUs

=== Simulation ===
CPU 0 runs /local-ssd/ben/dpc4-traces/SPEC17/619.lbm_s-2676B.champsimtrace.xz

Region of Interest Statistics

CPU 0 cumulative IPC: 1.097 instructions: 200000001 cycles: 182294448
CPU 0 Branch Prediction Accuracy: 99.05% MPKI: 0.1154 Average ROB Occupancy at Mispredict: 344.3
Branch type MPKI
BRANCH_DIRECT_JUMP: 0
BRANCH_INDIRECT: 0
BRANCH_CONDITIONAL: 0.1154
BRANCH_DIRECT_CALL: 0
BRANCH_INDIRECT_CALL: 0
BRANCH_RETURN: 0

cpu0->cpu0_STLB TOTAL        ACCESS:     153529 HIT:      70223 MISS:      83306 MSHR_MERGE:          0
cpu0->cpu0_STLB LOAD         ACCESS:     153529 HIT:      70223 MISS:      83306 MSHR_MERGE:          0
cpu0->cpu0_STLB RFO          ACCESS:          0 HIT:          0 MISS:          0 MSHR_MERGE:          0
cpu0->cpu0_STLB PREFETCH     ACCESS:          0 HIT:          0 MISS:          0 MSHR_MERGE:          0
cpu0->cpu0_STLB WRITE        ACCESS:          0 HIT:          0 MISS:          0 MSHR_MERGE:          0
cpu0->cpu0_STLB TRANSLATION  ACCESS:          0 HIT:          0 MISS:          0 MSHR_MERGE:          0
cpu0->cpu0_STLB PREFETCH REQUESTED:          0 ISSUED:          0 USEFUL:          0 USELESS:          0
cpu0->cpu0_STLB AVERAGE MISS LATENCY: 281.7 cycles
cpu0->cpu0_L2C TOTAL        ACCESS:   21515809 HIT:   15665602 MISS:    5850207 MSHR_MERGE:     509686
cpu0->cpu0_L2C LOAD         ACCESS:     389828 HIT:     268141 MISS:     121687 MSHR_MERGE:      37385
cpu0->cpu0_L2C RFO          ACCESS:    7514612 HIT:    3517162 MISS:    3997450 MSHR_MERGE:          0
cpu0->cpu0_L2C PREFETCH     ACCESS:    6084009 HIT:    4363457 MISS:    1720552 MSHR_MERGE:     472301
cpu0->cpu0_L2C WRITE        ACCESS:    7516842 HIT:    7516842 MISS:          0 MSHR_MERGE:          0
cpu0->cpu0_L2C TRANSLATION  ACCESS:      10518 HIT:          0 MISS:      10518 MSHR_MERGE:          0
cpu0->cpu0_L2C PREFETCH REQUESTED:    5353044 ISSUED:    5141307 USEFUL:    1155415 USELESS:      31862
cpu0->cpu0_L2C AVERAGE MISS LATENCY: 608.6 cycles
cpu0->cpu0_L1I TOTAL        ACCESS:   34248074 HIT:   34248074 MISS:          0 MSHR_MERGE:          0
cpu0->cpu0_L1I LOAD         ACCESS:   34248074 HIT:   34248074 MISS:          0 MSHR_MERGE:          0
cpu0->cpu0_L1I RFO          ACCESS:          0 HIT:          0 MISS:          0 MSHR_MERGE:          0
cpu0->cpu0_L1I PREFETCH     ACCESS:          0 HIT:          0 MISS:          0 MSHR_MERGE:          0
cpu0->cpu0_L1I WRITE        ACCESS:          0 HIT:          0 MISS:          0 MSHR_MERGE:          0
cpu0->cpu0_L1I TRANSLATION  ACCESS:          0 HIT:          0 MISS:          0 MSHR_MERGE:          0
cpu0->cpu0_L1I PREFETCH REQUESTED:          0 ISSUED:          0 USEFUL:          0 USELESS:          0
cpu0->cpu0_L1I AVERAGE MISS LATENCY: - cycles
cpu0->cpu0_L1D TOTAL        ACCESS:   38444521 HIT:   28963740 MISS:    9480781 MSHR_MERGE:     620879
cpu0->cpu0_L1D LOAD         ACCESS:    7101490 HIT:    6644299 MISS:     457191 MSHR_MERGE:      67363
cpu0->cpu0_L1D RFO          ACCESS:          0 HIT:          0 MISS:          0 MSHR_MERGE:          0
cpu0->cpu0_L1D PREFETCH     ACCESS:    1105659 HIT:     129195 MISS:     976464 MSHR_MERGE:      33762
cpu0->cpu0_L1D WRITE        ACCESS:   30070679 HIT:   22034071 MISS:    8036608 MSHR_MERGE:     519754
cpu0->cpu0_L1D TRANSLATION  ACCESS:     166693 HIT:     156175 MISS:      10518 MSHR_MERGE:          0
cpu0->cpu0_L1D PREFETCH REQUESTED:    1260769 ISSUED:    1105660 USEFUL:     942701 USELESS:          0
cpu0->cpu0_L1D AVERAGE MISS LATENCY: 327 cycles
cpu0->cpu0_ITLB TOTAL        ACCESS:   23951737 HIT:   23951737 MISS:          0 MSHR_MERGE:          0
cpu0->cpu0_ITLB LOAD         ACCESS:   23951737 HIT:   23951737 MISS:          0 MSHR_MERGE:          0
cpu0->cpu0_ITLB RFO          ACCESS:          0 HIT:          0 MISS:          0 MSHR_MERGE:          0
cpu0->cpu0_ITLB PREFETCH     ACCESS:          0 HIT:          0 MISS:          0 MSHR_MERGE:          0
cpu0->cpu0_ITLB WRITE        ACCESS:          0 HIT:          0 MISS:          0 MSHR_MERGE:          0
cpu0->cpu0_ITLB TRANSLATION  ACCESS:          0 HIT:          0 MISS:          0 MSHR_MERGE:          0
cpu0->cpu0_ITLB PREFETCH REQUESTED:          0 ISSUED:          0 USEFUL:          0 USELESS:          0
cpu0->cpu0_ITLB AVERAGE MISS LATENCY: - cycles
cpu0->cpu0_DTLB TOTAL        ACCESS:   34920145 HIT:   34638447 MISS:     281698 MSHR_MERGE:     128169
cpu0->cpu0_DTLB LOAD         ACCESS:   34920145 HIT:   34638447 MISS:     281698 MSHR_MERGE:     128169
cpu0->cpu0_DTLB RFO          ACCESS:          0 HIT:          0 MISS:          0 MSHR_MERGE:          0
cpu0->cpu0_DTLB PREFETCH     ACCESS:          0 HIT:          0 MISS:          0 MSHR_MERGE:          0
cpu0->cpu0_DTLB WRITE        ACCESS:          0 HIT:          0 MISS:          0 MSHR_MERGE:          0
cpu0->cpu0_DTLB TRANSLATION  ACCESS:          0 HIT:          0 MISS:          0 MSHR_MERGE:          0
cpu0->cpu0_DTLB PREFETCH REQUESTED:          0 ISSUED:          0 USEFUL:          0 USELESS:          0
cpu0->cpu0_DTLB AVERAGE MISS LATENCY: 158.4 cycles
cpu0->LLC TOTAL        ACCESS:   10626882 HIT:    1214196 MISS:    9412686 MSHR_MERGE:     335145
cpu0->LLC LOAD         ACCESS:      84302 HIT:      26486 MISS:      57816 MSHR_MERGE:       9955
cpu0->LLC RFO          ACCESS:    3997450 HIT:          0 MISS:    3997450 MSHR_MERGE:          0
cpu0->LLC PREFETCH     ACCESS:    2537531 HIT:     925561 MISS:    1611970 MSHR_MERGE:     325190
cpu0->LLC WRITE        ACCESS:    3997081 HIT:     262149 MISS:    3734932 MSHR_MERGE:          0
cpu0->LLC TRANSLATION  ACCESS:      10518 HIT:          0 MISS:      10518 MSHR_MERGE:          0
cpu0->LLC PREFETCH REQUESTED:    1289452 ISSUED:    1289280 USEFUL:     961999 USELESS:     196270
cpu0->LLC AVERAGE MISS LATENCY: 316.1 cycles

DRAM Statistics

Channel 0 RQ ROW_BUFFER_HIT:     353513
  ROW_BUFFER_MISS:    4989085
  AVG DBUS CONGESTED CYCLE: 13.56
Channel 0 WQ ROW_BUFFER_HIT:     398253
  ROW_BUFFER_MISS:    3597818
  FULL:     294425
Channel 0 REFRESHES ISSUED:      15190
