[VMEM] WARNING: physical memory size is smaller than virtual memory size.

*** ChampSim Multicore Out-of-Order Simulator ***
Warmup Instructions: 50000000
Simulation Instructions: 200000000
Number of CPUs: 1
Page size: 4096
Core 0: /local-ssd/ben/dpc4-traces/ai-ml/clip_trace_1.champsimtrace.gz
 L1D Berti prefetcher
Off-chip DRAM Size: 64 GiB Channels: 1 Width: 64-bit Data Rate: 800 MT/s
Heartbeat CPU 0 instructions: 500000 cycles: 129603 heartbeat IPC: 3.858 cumulative IPC: 3.858 (Simulation time: 00 hr 00 min 05 sec)
Heartbeat CPU 0 instructions: 1000004 cycles: 253423 heartbeat IPC: 4.038 cumulative IPC: 3.946 (Simulation time: 00 hr 00 min 09 sec)
Heartbeat CPU 0 instructions: 1500004 cycles: 378259 heartbeat IPC: 4.005 cumulative IPC: 3.966 (Simulation time: 00 hr 00 min 13 sec)
Heartbeat CPU 0 instructions: 2000009 cycles: 503272 heartbeat IPC: 4 cumulative IPC: 3.974 (Simulation time: 00 hr 00 min 17 sec)
Heartbeat CPU 0 instructions: 2500013 cycles: 628818 heartbeat IPC: 3.983 cumulative IPC: 3.976 (Simulation time: 00 hr 00 min 21 sec)
Heartbeat CPU 0 instructions: 3000017 cycles: 754274 heartbeat IPC: 3.985 cumulative IPC: 3.977 (Simulation time: 00 hr 00 min 24 sec)
Heartbeat CPU 0 instructions: 3500018 cycles: 879457 heartbeat IPC: 3.994 cumulative IPC: 3.98 (Simulation time: 00 hr 00 min 28 sec)
Heartbeat CPU 0 instructions: 4000025 cycles: 1003393 heartbeat IPC: 4.034 cumulative IPC: 3.986 (Simulation time: 00 hr 00 min 32 sec)
Heartbeat CPU 0 instructions: 4500029 cycles: 1128720 heartbeat IPC: 3.99 cumulative IPC: 3.987 (Simulation time: 00 hr 00 min 36 sec)
Heartbeat CPU 0 instructions: 5000033 cycles: 1253803 heartbeat IPC: 3.997 cumulative IPC: 3.988 (Simulation time: 00 hr 00 min 40 sec)
Heartbeat CPU 0 instructions: 5500033 cycles: 1378682 heartbeat IPC: 4.004 cumulative IPC: 3.989 (Simulation time: 00 hr 00 min 44 sec)
Heartbeat CPU 0 instructions: 6000038 cycles: 1503667 heartbeat IPC: 4.001 cumulative IPC: 3.99 (Simulation time: 00 hr 00 min 48 sec)
Heartbeat CPU 0 instructions: 6500039 cycles: 1628811 heartbeat IPC: 3.995 cumulative IPC: 3.991 (Simulation time: 00 hr 00 min 50 sec)
Heartbeat CPU 0 instructions: 7000042 cycles: 1753216 heartbeat IPC: 4.019 cumulative IPC: 3.993 (Simulation time: 00 hr 00 min 53 sec)
Heartbeat CPU 0 instructions: 7500046 cycles: 1878192 heartbeat IPC: 4.001 cumulative IPC: 3.993 (Simulation time: 00 hr 00 min 55 sec)
Heartbeat CPU 0 instructions: 8000051 cycles: 2003496 heartbeat IPC: 3.99 cumulative IPC: 3.993 (Simulation time: 00 hr 00 min 58 sec)
Heartbeat CPU 0 instructions: 8500056 cycles: 2128954 heartbeat IPC: 3.985 cumulative IPC: 3.993 (Simulation time: 00 hr 01 min 00 sec)
Heartbeat CPU 0 instructions: 9000059 cycles: 2253732 heartbeat IPC: 4.007 cumulative IPC: 3.993 (Simulation time: 00 hr 01 min 03 sec)
Heartbeat CPU 0 instructions: 9500063 cycles: 2379091 heartbeat IPC: 3.989 cumulative IPC: 3.993 (Simulation time: 00 hr 01 min 05 sec)
Heartbeat CPU 0 instructions: 10000064 cycles: 2504426 heartbeat IPC: 3.989 cumulative IPC: 3.993 (Simulation time: 00 hr 01 min 08 sec)
Heartbeat CPU 0 instructions: 10500064 cycles: 2628792 heartbeat IPC: 4.02 cumulative IPC: 3.994 (Simulation time: 00 hr 01 min 10 sec)
Heartbeat CPU 0 instructions: 11000067 cycles: 2754213 heartbeat IPC: 3.987 cumulative IPC: 3.994 (Simulation time: 00 hr 01 min 13 sec)
Heartbeat CPU 0 instructions: 11500071 cycles: 2879493 heartbeat IPC: 3.991 cumulative IPC: 3.994 (Simulation time: 00 hr 01 min 16 sec)
Heartbeat CPU 0 instructions: 12000072 cycles: 3004805 heartbeat IPC: 3.99 cumulative IPC: 3.994 (Simulation time: 00 hr 01 min 18 sec)
Heartbeat CPU 0 instructions: 12500076 cycles: 3130167 heartbeat IPC: 3.988 cumulative IPC: 3.993 (Simulation time: 00 hr 01 min 21 sec)
Heartbeat CPU 0 instructions: 13000077 cycles: 3254904 heartbeat IPC: 4.008 cumulative IPC: 3.994 (Simulation time: 00 hr 01 min 23 sec)
Heartbeat CPU 0 instructions: 13500081 cycles: 3378781 heartbeat IPC: 4.036 cumulative IPC: 3.996 (Simulation time: 00 hr 01 min 26 sec)
Heartbeat CPU 0 instructions: 14000085 cycles: 3504245 heartbeat IPC: 3.985 cumulative IPC: 3.995 (Simulation time: 00 hr 01 min 28 sec)
Heartbeat CPU 0 instructions: 14500089 cycles: 3629313 heartbeat IPC: 3.998 cumulative IPC: 3.995 (Simulation time: 00 hr 01 min 31 sec)
Heartbeat CPU 0 instructions: 15000090 cycles: 3754638 heartbeat IPC: 3.99 cumulative IPC: 3.995 (Simulation time: 00 hr 01 min 33 sec)
Heartbeat CPU 0 instructions: 15500094 cycles: 3879903 heartbeat IPC: 3.992 cumulative IPC: 3.995 (Simulation time: 00 hr 01 min 36 sec)
Heartbeat CPU 0 instructions: 16000098 cycles: 4005068 heartbeat IPC: 3.995 cumulative IPC: 3.995 (Simulation time: 00 hr 01 min 39 sec)
Heartbeat CPU 0 instructions: 16500105 cycles: 4129052 heartbeat IPC: 4.033 cumulative IPC: 3.996 (Simulation time: 00 hr 01 min 41 sec)
Heartbeat CPU 0 instructions: 17000110 cycles: 4254191 heartbeat IPC: 3.996 cumulative IPC: 3.996 (Simulation time: 00 hr 01 min 44 sec)
Heartbeat CPU 0 instructions: 17500110 cycles: 4379267 heartbeat IPC: 3.998 cumulative IPC: 3.996 (Simulation time: 00 hr 01 min 46 sec)
Heartbeat CPU 0 instructions: 18000115 cycles: 4504764 heartbeat IPC: 3.984 cumulative IPC: 3.996 (Simulation time: 00 hr 01 min 49 sec)
Heartbeat CPU 0 instructions: 18500115 cycles: 4629893 heartbeat IPC: 3.996 cumulative IPC: 3.996 (Simulation time: 00 hr 01 min 51 sec)
Heartbeat CPU 0 instructions: 19000119 cycles: 4754961 heartbeat IPC: 3.998 cumulative IPC: 3.996 (Simulation time: 00 hr 01 min 54 sec)
Heartbeat CPU 0 instructions: 19500119 cycles: 4878710 heartbeat IPC: 4.04 cumulative IPC: 3.997 (Simulation time: 00 hr 01 min 56 sec)
Heartbeat CPU 0 instructions: 20000119 cycles: 5003476 heartbeat IPC: 4.008 cumulative IPC: 3.997 (Simulation time: 00 hr 01 min 59 sec)
Heartbeat CPU 0 instructions: 20500119 cycles: 5128627 heartbeat IPC: 3.995 cumulative IPC: 3.997 (Simulation time: 00 hr 02 min 02 sec)
Heartbeat CPU 0 instructions: 21000119 cycles: 5253629 heartbeat IPC: 4 cumulative IPC: 3.997 (Simulation time: 00 hr 02 min 04 sec)
Heartbeat CPU 0 instructions: 21500119 cycles: 5378897 heartbeat IPC: 3.991 cumulative IPC: 3.997 (Simulation time: 00 hr 02 min 07 sec)
Heartbeat CPU 0 instructions: 22000124 cycles: 5504148 heartbeat IPC: 3.992 cumulative IPC: 3.997 (Simulation time: 00 hr 02 min 09 sec)
Heartbeat CPU 0 instructions: 22500124 cycles: 5628845 heartbeat IPC: 4.01 cumulative IPC: 3.997 (Simulation time: 00 hr 02 min 12 sec)
Heartbeat CPU 0 instructions: 23000131 cycles: 5753795 heartbeat IPC: 4.002 cumulative IPC: 3.997 (Simulation time: 00 hr 02 min 15 sec)
Heartbeat CPU 0 instructions: 23500134 cycles: 5878907 heartbeat IPC: 3.996 cumulative IPC: 3.997 (Simulation time: 00 hr 02 min 17 sec)
Heartbeat CPU 0 instructions: 24000137 cycles: 6004319 heartbeat IPC: 3.987 cumulative IPC: 3.997 (Simulation time: 00 hr 02 min 20 sec)
Heartbeat CPU 0 instructions: 24500141 cycles: 6129592 heartbeat IPC: 3.991 cumulative IPC: 3.997 (Simulation time: 00 hr 02 min 22 sec)
Heartbeat CPU 0 instructions: 25000144 cycles: 6254327 heartbeat IPC: 4.009 cumulative IPC: 3.997 (Simulation time: 00 hr 02 min 25 sec)
Heartbeat CPU 0 instructions: 25500148 cycles: 6379159 heartbeat IPC: 4.005 cumulative IPC: 3.997 (Simulation time: 00 hr 02 min 27 sec)
Heartbeat CPU 0 instructions: 26000152 cycles: 6503431 heartbeat IPC: 4.023 cumulative IPC: 3.998 (Simulation time: 00 hr 02 min 30 sec)
Heartbeat CPU 0 instructions: 26500156 cycles: 6628522 heartbeat IPC: 3.997 cumulative IPC: 3.998 (Simulation time: 00 hr 02 min 33 sec)
Heartbeat CPU 0 instructions: 27000160 cycles: 6753642 heartbeat IPC: 3.996 cumulative IPC: 3.998 (Simulation time: 00 hr 02 min 35 sec)
Heartbeat CPU 0 instructions: 27500165 cycles: 6878721 heartbeat IPC: 3.998 cumulative IPC: 3.998 (Simulation time: 00 hr 02 min 38 sec)
Heartbeat CPU 0 instructions: 28000165 cycles: 7003825 heartbeat IPC: 3.997 cumulative IPC: 3.998 (Simulation time: 00 hr 02 min 40 sec)
Heartbeat CPU 0 instructions: 28500166 cycles: 7129059 heartbeat IPC: 3.993 cumulative IPC: 3.998 (Simulation time: 00 hr 02 min 43 sec)
Heartbeat CPU 0 instructions: 29000172 cycles: 7253111 heartbeat IPC: 4.031 cumulative IPC: 3.998 (Simulation time: 00 hr 02 min 45 sec)
Heartbeat CPU 0 instructions: 29500174 cycles: 7378222 heartbeat IPC: 3.996 cumulative IPC: 3.998 (Simulation time: 00 hr 02 min 48 sec)
Heartbeat CPU 0 instructions: 30000178 cycles: 7503280 heartbeat IPC: 3.998 cumulative IPC: 3.998 (Simulation time: 00 hr 02 min 51 sec)
Heartbeat CPU 0 instructions: 30500179 cycles: 7628303 heartbeat IPC: 3.999 cumulative IPC: 3.998 (Simulation time: 00 hr 02 min 53 sec)
Heartbeat CPU 0 instructions: 31000179 cycles: 7753627 heartbeat IPC: 3.99 cumulative IPC: 3.998 (Simulation time: 00 hr 02 min 56 sec)
Heartbeat CPU 0 instructions: 31500181 cycles: 7878831 heartbeat IPC: 3.993 cumulative IPC: 3.998 (Simulation time: 00 hr 02 min 58 sec)
Heartbeat CPU 0 instructions: 32000186 cycles: 8002679 heartbeat IPC: 4.037 cumulative IPC: 3.999 (Simulation time: 00 hr 03 min 01 sec)
Heartbeat CPU 0 instructions: 32500190 cycles: 8127789 heartbeat IPC: 3.997 cumulative IPC: 3.999 (Simulation time: 00 hr 03 min 03 sec)
Heartbeat CPU 0 instructions: 33000190 cycles: 8253395 heartbeat IPC: 3.981 cumulative IPC: 3.998 (Simulation time: 00 hr 03 min 06 sec)
Heartbeat CPU 0 instructions: 33500190 cycles: 8378235 heartbeat IPC: 4.005 cumulative IPC: 3.998 (Simulation time: 00 hr 03 min 09 sec)
Heartbeat CPU 0 instructions: 34000195 cycles: 8503445 heartbeat IPC: 3.993 cumulative IPC: 3.998 (Simulation time: 00 hr 03 min 11 sec)
Heartbeat CPU 0 instructions: 34500197 cycles: 8628618 heartbeat IPC: 3.994 cumulative IPC: 3.998 (Simulation time: 00 hr 03 min 14 sec)
Heartbeat CPU 0 instructions: 35000199 cycles: 8752518 heartbeat IPC: 4.036 cumulative IPC: 3.999 (Simulation time: 00 hr 03 min 16 sec)
Heartbeat CPU 0 instructions: 35500203 cycles: 8877375 heartbeat IPC: 4.005 cumulative IPC: 3.999 (Simulation time: 00 hr 03 min 19 sec)
Heartbeat CPU 0 instructions: 36000207 cycles: 9002661 heartbeat IPC: 3.991 cumulative IPC: 3.999 (Simulation time: 00 hr 03 min 22 sec)
Heartbeat CPU 0 instructions: 36500212 cycles: 9127963 heartbeat IPC: 3.99 cumulative IPC: 3.999 (Simulation time: 00 hr 03 min 24 sec)
Heartbeat CPU 0 instructions: 37000217 cycles: 9252904 heartbeat IPC: 4.002 cumulative IPC: 3.999 (Simulation time: 00 hr 03 min 27 sec)
Heartbeat CPU 0 instructions: 37500221 cycles: 9378161 heartbeat IPC: 3.992 cumulative IPC: 3.999 (Simulation time: 00 hr 03 min 29 sec)
Heartbeat CPU 0 instructions: 38000225 cycles: 9502100 heartbeat IPC: 4.034 cumulative IPC: 3.999 (Simulation time: 00 hr 03 min 32 sec)
Heartbeat CPU 0 instructions: 38500232 cycles: 9626918 heartbeat IPC: 4.006 cumulative IPC: 3.999 (Simulation time: 00 hr 03 min 35 sec)
Heartbeat CPU 0 instructions: 39000237 cycles: 9752369 heartbeat IPC: 3.986 cumulative IPC: 3.999 (Simulation time: 00 hr 03 min 37 sec)
Heartbeat CPU 0 instructions: 39500241 cycles: 9877470 heartbeat IPC: 3.997 cumulative IPC: 3.999 (Simulation time: 00 hr 03 min 40 sec)
Heartbeat CPU 0 instructions: 40000246 cycles: 10002781 heartbeat IPC: 3.99 cumulative IPC: 3.999 (Simulation time: 00 hr 03 min 42 sec)
Heartbeat CPU 0 instructions: 40500250 cycles: 10128023 heartbeat IPC: 3.992 cumulative IPC: 3.999 (Simulation time: 00 hr 03 min 45 sec)
Heartbeat CPU 0 instructions: 41000254 cycles: 10252990 heartbeat IPC: 4.001 cumulative IPC: 3.999 (Simulation time: 00 hr 03 min 48 sec)
Heartbeat CPU 0 instructions: 41500260 cycles: 10377565 heartbeat IPC: 4.014 cumulative IPC: 3.999 (Simulation time: 00 hr 03 min 50 sec)
Heartbeat CPU 0 instructions: 42000264 cycles: 10503227 heartbeat IPC: 3.979 cumulative IPC: 3.999 (Simulation time: 00 hr 03 min 53 sec)
Heartbeat CPU 0 instructions: 42500266 cycles: 10628569 heartbeat IPC: 3.989 cumulative IPC: 3.999 (Simulation time: 00 hr 03 min 55 sec)
Heartbeat CPU 0 instructions: 43000267 cycles: 10753801 heartbeat IPC: 3.993 cumulative IPC: 3.999 (Simulation time: 00 hr 03 min 58 sec)
Heartbeat CPU 0 instructions: 43500268 cycles: 10879210 heartbeat IPC: 3.987 cumulative IPC: 3.998 (Simulation time: 00 hr 04 min 00 sec)
Heartbeat CPU 0 instructions: 44000275 cycles: 11004135 heartbeat IPC: 4.002 cumulative IPC: 3.999 (Simulation time: 00 hr 04 min 03 sec)
Heartbeat CPU 0 instructions: 44500275 cycles: 11128389 heartbeat IPC: 4.024 cumulative IPC: 3.999 (Simulation time: 00 hr 04 min 06 sec)
Heartbeat CPU 0 instructions: 45000275 cycles: 11253847 heartbeat IPC: 3.985 cumulative IPC: 3.999 (Simulation time: 00 hr 04 min 08 sec)
Heartbeat CPU 0 instructions: 45500275 cycles: 11379219 heartbeat IPC: 3.988 cumulative IPC: 3.999 (Simulation time: 00 hr 04 min 11 sec)
Heartbeat CPU 0 instructions: 46000280 cycles: 11504487 heartbeat IPC: 3.991 cumulative IPC: 3.998 (Simulation time: 00 hr 04 min 13 sec)
Heartbeat CPU 0 instructions: 46500284 cycles: 11629761 heartbeat IPC: 3.991 cumulative IPC: 3.998 (Simulation time: 00 hr 04 min 16 sec)
Heartbeat CPU 0 instructions: 47000288 cycles: 11755250 heartbeat IPC: 3.984 cumulative IPC: 3.998 (Simulation time: 00 hr 04 min 18 sec)
Heartbeat CPU 0 instructions: 47500295 cycles: 11879070 heartbeat IPC: 4.038 cumulative IPC: 3.999 (Simulation time: 00 hr 04 min 21 sec)
Heartbeat CPU 0 instructions: 48000296 cycles: 12004550 heartbeat IPC: 3.985 cumulative IPC: 3.999 (Simulation time: 00 hr 04 min 24 sec)
Heartbeat CPU 0 instructions: 48500300 cycles: 12130012 heartbeat IPC: 3.985 cumulative IPC: 3.998 (Simulation time: 00 hr 04 min 26 sec)
Heartbeat CPU 0 instructions: 49000304 cycles: 12255485 heartbeat IPC: 3.985 cumulative IPC: 3.998 (Simulation time: 00 hr 04 min 29 sec)
Heartbeat CPU 0 instructions: 49500305 cycles: 12380800 heartbeat IPC: 3.99 cumulative IPC: 3.998 (Simulation time: 00 hr 04 min 31 sec)
Warmup halting CPU 0 at instruction 50000006 cycle 12505610 for remainder of phase
Warmup finished CPU 0 instructions: 50000006 cycles: 12505610 cumulative IPC: 3.998 (Simulation time: 00 hr 04 min 34 sec)
Warmup complete CPU 0 instructions: 50000006 cycles: 12505610 cumulative IPC: 3.998 (Simulation time: 00 hr 04 min 34 sec)
Heartbeat CPU 0 instructions: 50000305 cycles: 12505699 heartbeat IPC: 4.003 cumulative IPC: 3.36 (Simulation time: 00 hr 04 min 34 sec)
Heartbeat CPU 0 instructions: 50500309 cycles: 12684385 heartbeat IPC: 2.798 cumulative IPC: 2.799 (Simulation time: 00 hr 04 min 37 sec)
Heartbeat CPU 0 instructions: 51000314 cycles: 12888174 heartbeat IPC: 2.454 cumulative IPC: 2.615 (Simulation time: 00 hr 04 min 40 sec)
Heartbeat CPU 0 instructions: 51500314 cycles: 13090265 heartbeat IPC: 2.474 cumulative IPC: 2.566 (Simulation time: 00 hr 04 min 43 sec)
Heartbeat CPU 0 instructions: 52000318 cycles: 13294919 heartbeat IPC: 2.443 cumulative IPC: 2.534 (Simulation time: 00 hr 04 min 45 sec)
Heartbeat CPU 0 instructions: 52500322 cycles: 13498313 heartbeat IPC: 2.458 cumulative IPC: 2.519 (Simulation time: 00 hr 04 min 48 sec)
Heartbeat CPU 0 instructions: 53000323 cycles: 13702678 heartbeat IPC: 2.447 cumulative IPC: 2.506 (Simulation time: 00 hr 04 min 51 sec)
Heartbeat CPU 0 instructions: 53500327 cycles: 13881522 heartbeat IPC: 2.796 cumulative IPC: 2.544 (Simulation time: 00 hr 04 min 54 sec)
Heartbeat CPU 0 instructions: 54000334 cycles: 14082986 heartbeat IPC: 2.482 cumulative IPC: 2.536 (Simulation time: 00 hr 04 min 57 sec)
Heartbeat CPU 0 instructions: 54500339 cycles: 14287084 heartbeat IPC: 2.45 cumulative IPC: 2.526 (Simulation time: 00 hr 05 min 00 sec)
Heartbeat CPU 0 instructions: 55000339 cycles: 14491915 heartbeat IPC: 2.441 cumulative IPC: 2.517 (Simulation time: 00 hr 05 min 03 sec)
Heartbeat CPU 0 instructions: 55500343 cycles: 14696237 heartbeat IPC: 2.447 cumulative IPC: 2.511 (Simulation time: 00 hr 05 min 06 sec)
Heartbeat CPU 0 instructions: 56000344 cycles: 14898310 heartbeat IPC: 2.474 cumulative IPC: 2.508 (Simulation time: 00 hr 05 min 09 sec)
Heartbeat CPU 0 instructions: 56500348 cycles: 15078645 heartbeat IPC: 2.773 cumulative IPC: 2.526 (Simulation time: 00 hr 05 min 11 sec)
Heartbeat CPU 0 instructions: 57000355 cycles: 15258876 heartbeat IPC: 2.774 cumulative IPC: 2.543 (Simulation time: 00 hr 05 min 14 sec)
Heartbeat CPU 0 instructions: 57500362 cycles: 15455547 heartbeat IPC: 2.542 cumulative IPC: 2.543 (Simulation time: 00 hr 05 min 17 sec)
Heartbeat CPU 0 instructions: 58000368 cycles: 15651552 heartbeat IPC: 2.551 cumulative IPC: 2.543 (Simulation time: 00 hr 05 min 20 sec)
Heartbeat CPU 0 instructions: 58500368 cycles: 15832910 heartbeat IPC: 2.757 cumulative IPC: 2.555 (Simulation time: 00 hr 05 min 23 sec)
Heartbeat CPU 0 instructions: 59000373 cycles: 16029539 heartbeat IPC: 2.543 cumulative IPC: 2.554 (Simulation time: 00 hr 05 min 25 sec)
Heartbeat CPU 0 instructions: 59500377 cycles: 16222590 heartbeat IPC: 2.59 cumulative IPC: 2.556 (Simulation time: 00 hr 05 min 28 sec)
Heartbeat CPU 0 instructions: 60000384 cycles: 16378357 heartbeat IPC: 3.21 cumulative IPC: 2.582 (Simulation time: 00 hr 05 min 31 sec)
Heartbeat CPU 0 instructions: 60500385 cycles: 16571465 heartbeat IPC: 2.589 cumulative IPC: 2.583 (Simulation time: 00 hr 05 min 34 sec)
Heartbeat CPU 0 instructions: 61000390 cycles: 16764990 heartbeat IPC: 2.584 cumulative IPC: 2.583 (Simulation time: 00 hr 05 min 36 sec)
Heartbeat CPU 0 instructions: 61500392 cycles: 16940040 heartbeat IPC: 2.856 cumulative IPC: 2.593 (Simulation time: 00 hr 05 min 39 sec)
Heartbeat CPU 0 instructions: 62000392 cycles: 17132192 heartbeat IPC: 2.602 cumulative IPC: 2.594 (Simulation time: 00 hr 05 min 42 sec)
Heartbeat CPU 0 instructions: 62500398 cycles: 17322940 heartbeat IPC: 2.621 cumulative IPC: 2.595 (Simulation time: 00 hr 05 min 45 sec)
Heartbeat CPU 0 instructions: 63000405 cycles: 17478513 heartbeat IPC: 3.214 cumulative IPC: 2.614 (Simulation time: 00 hr 05 min 47 sec)
Heartbeat CPU 0 instructions: 63500406 cycles: 17669181 heartbeat IPC: 2.622 cumulative IPC: 2.615 (Simulation time: 00 hr 05 min 50 sec)
Heartbeat CPU 0 instructions: 64000406 cycles: 17855072 heartbeat IPC: 2.69 cumulative IPC: 2.617 (Simulation time: 00 hr 05 min 53 sec)
Heartbeat CPU 0 instructions: 64500407 cycles: 18044052 heartbeat IPC: 2.646 cumulative IPC: 2.618 (Simulation time: 00 hr 05 min 56 sec)
Heartbeat CPU 0 instructions: 65000413 cycles: 18220982 heartbeat IPC: 2.826 cumulative IPC: 2.625 (Simulation time: 00 hr 05 min 58 sec)
Heartbeat CPU 0 instructions: 65500419 cycles: 18408135 heartbeat IPC: 2.672 cumulative IPC: 2.626 (Simulation time: 00 hr 06 min 01 sec)
Heartbeat CPU 0 instructions: 66000424 cycles: 18579330 heartbeat IPC: 2.921 cumulative IPC: 2.634 (Simulation time: 00 hr 06 min 04 sec)
Heartbeat CPU 0 instructions: 66500428 cycles: 18750600 heartbeat IPC: 2.919 cumulative IPC: 2.642 (Simulation time: 00 hr 06 min 06 sec)
Heartbeat CPU 0 instructions: 67000431 cycles: 18938416 heartbeat IPC: 2.662 cumulative IPC: 2.643 (Simulation time: 00 hr 06 min 09 sec)
Heartbeat CPU 0 instructions: 67500435 cycles: 19130162 heartbeat IPC: 2.608 cumulative IPC: 2.642 (Simulation time: 00 hr 06 min 12 sec)
Heartbeat CPU 0 instructions: 68000436 cycles: 19309565 heartbeat IPC: 2.787 cumulative IPC: 2.646 (Simulation time: 00 hr 06 min 15 sec)
Heartbeat CPU 0 instructions: 68500440 cycles: 19496075 heartbeat IPC: 2.681 cumulative IPC: 2.647 (Simulation time: 00 hr 06 min 17 sec)
Heartbeat CPU 0 instructions: 69000447 cycles: 19665186 heartbeat IPC: 2.957 cumulative IPC: 2.654 (Simulation time: 00 hr 06 min 20 sec)
Heartbeat CPU 0 instructions: 69500448 cycles: 19838520 heartbeat IPC: 2.885 cumulative IPC: 2.659 (Simulation time: 00 hr 06 min 23 sec)
Heartbeat CPU 0 instructions: 70000450 cycles: 20031021 heartbeat IPC: 2.597 cumulative IPC: 2.658 (Simulation time: 00 hr 06 min 26 sec)
Heartbeat CPU 0 instructions: 70500454 cycles: 20225604 heartbeat IPC: 2.57 cumulative IPC: 2.656 (Simulation time: 00 hr 06 min 28 sec)
Heartbeat CPU 0 instructions: 71000457 cycles: 20411968 heartbeat IPC: 2.683 cumulative IPC: 2.656 (Simulation time: 00 hr 06 min 31 sec)
Heartbeat CPU 0 instructions: 71500461 cycles: 20604076 heartbeat IPC: 2.603 cumulative IPC: 2.655 (Simulation time: 00 hr 06 min 34 sec)
Heartbeat CPU 0 instructions: 72000463 cycles: 20783656 heartbeat IPC: 2.784 cumulative IPC: 2.658 (Simulation time: 00 hr 06 min 37 sec)
Heartbeat CPU 0 instructions: 72500464 cycles: 20971931 heartbeat IPC: 2.656 cumulative IPC: 2.658 (Simulation time: 00 hr 06 min 39 sec)
Heartbeat CPU 0 instructions: 73000471 cycles: 21159324 heartbeat IPC: 2.668 cumulative IPC: 2.658 (Simulation time: 00 hr 06 min 42 sec)
Heartbeat CPU 0 instructions: 73500473 cycles: 21357853 heartbeat IPC: 2.519 cumulative IPC: 2.655 (Simulation time: 00 hr 06 min 45 sec)
Heartbeat CPU 0 instructions: 74000478 cycles: 21556805 heartbeat IPC: 2.513 cumulative IPC: 2.652 (Simulation time: 00 hr 06 min 48 sec)
Heartbeat CPU 0 instructions: 74500482 cycles: 21743524 heartbeat IPC: 2.678 cumulative IPC: 2.652 (Simulation time: 00 hr 06 min 51 sec)
Heartbeat CPU 0 instructions: 75000486 cycles: 21940903 heartbeat IPC: 2.533 cumulative IPC: 2.65 (Simulation time: 00 hr 06 min 54 sec)
Heartbeat CPU 0 instructions: 75500490 cycles: 22118989 heartbeat IPC: 2.808 cumulative IPC: 2.653 (Simulation time: 00 hr 06 min 56 sec)
Heartbeat CPU 0 instructions: 76000494 cycles: 22313338 heartbeat IPC: 2.573 cumulative IPC: 2.651 (Simulation time: 00 hr 06 min 59 sec)
Heartbeat CPU 0 instructions: 76500497 cycles: 22514270 heartbeat IPC: 2.488 cumulative IPC: 2.648 (Simulation time: 00 hr 07 min 02 sec)
Heartbeat CPU 0 instructions: 77000499 cycles: 22713576 heartbeat IPC: 2.509 cumulative IPC: 2.645 (Simulation time: 00 hr 07 min 05 sec)
Heartbeat CPU 0 instructions: 77500501 cycles: 22906992 heartbeat IPC: 2.585 cumulative IPC: 2.644 (Simulation time: 00 hr 07 min 08 sec)
Heartbeat CPU 0 instructions: 78000504 cycles: 23107628 heartbeat IPC: 2.492 cumulative IPC: 2.641 (Simulation time: 00 hr 07 min 11 sec)
Heartbeat CPU 0 instructions: 78500511 cycles: 23283412 heartbeat IPC: 2.844 cumulative IPC: 2.644 (Simulation time: 00 hr 07 min 14 sec)
Heartbeat CPU 0 instructions: 79000514 cycles: 23508462 heartbeat IPC: 2.222 cumulative IPC: 2.636 (Simulation time: 00 hr 07 min 17 sec)
Heartbeat CPU 0 instructions: 79500515 cycles: 23705467 heartbeat IPC: 2.538 cumulative IPC: 2.634 (Simulation time: 00 hr 07 min 20 sec)
Heartbeat CPU 0 instructions: 80000519 cycles: 23907162 heartbeat IPC: 2.479 cumulative IPC: 2.631 (Simulation time: 00 hr 07 min 23 sec)
Heartbeat CPU 0 instructions: 80500521 cycles: 24109901 heartbeat IPC: 2.466 cumulative IPC: 2.628 (Simulation time: 00 hr 07 min 26 sec)
Heartbeat CPU 0 instructions: 81000524 cycles: 24302933 heartbeat IPC: 2.59 cumulative IPC: 2.628 (Simulation time: 00 hr 07 min 28 sec)
Heartbeat CPU 0 instructions: 81500529 cycles: 24479095 heartbeat IPC: 2.838 cumulative IPC: 2.631 (Simulation time: 00 hr 07 min 31 sec)
Heartbeat CPU 0 instructions: 82000533 cycles: 24681260 heartbeat IPC: 2.473 cumulative IPC: 2.628 (Simulation time: 00 hr 07 min 34 sec)
Heartbeat CPU 0 instructions: 82500536 cycles: 24873192 heartbeat IPC: 2.605 cumulative IPC: 2.628 (Simulation time: 00 hr 07 min 37 sec)
Heartbeat CPU 0 instructions: 83000540 cycles: 25074895 heartbeat IPC: 2.479 cumulative IPC: 2.625 (Simulation time: 00 hr 07 min 40 sec)
Heartbeat CPU 0 instructions: 83500544 cycles: 25275735 heartbeat IPC: 2.49 cumulative IPC: 2.623 (Simulation time: 00 hr 07 min 43 sec)
Heartbeat CPU 0 instructions: 84000545 cycles: 25467451 heartbeat IPC: 2.608 cumulative IPC: 2.623 (Simulation time: 00 hr 07 min 46 sec)
Heartbeat CPU 0 instructions: 84500552 cycles: 25644042 heartbeat IPC: 2.831 cumulative IPC: 2.626 (Simulation time: 00 hr 07 min 48 sec)
Heartbeat CPU 0 instructions: 85000555 cycles: 25846751 heartbeat IPC: 2.467 cumulative IPC: 2.624 (Simulation time: 00 hr 07 min 51 sec)
Heartbeat CPU 0 instructions: 85500557 cycles: 26038862 heartbeat IPC: 2.603 cumulative IPC: 2.623 (Simulation time: 00 hr 07 min 54 sec)
Heartbeat CPU 0 instructions: 86000559 cycles: 26241861 heartbeat IPC: 2.463 cumulative IPC: 2.621 (Simulation time: 00 hr 07 min 57 sec)
Heartbeat CPU 0 instructions: 86500565 cycles: 26443638 heartbeat IPC: 2.478 cumulative IPC: 2.619 (Simulation time: 00 hr 08 min 00 sec)
Heartbeat CPU 0 instructions: 87000566 cycles: 26644895 heartbeat IPC: 2.484 cumulative IPC: 2.617 (Simulation time: 00 hr 08 min 03 sec)
Heartbeat CPU 0 instructions: 87500568 cycles: 26819104 heartbeat IPC: 2.87 cumulative IPC: 2.62 (Simulation time: 00 hr 08 min 07 sec)
Heartbeat CPU 0 instructions: 88000568 cycles: 27012711 heartbeat IPC: 2.583 cumulative IPC: 2.619 (Simulation time: 00 hr 08 min 10 sec)
Heartbeat CPU 0 instructions: 88500570 cycles: 27213488 heartbeat IPC: 2.49 cumulative IPC: 2.618 (Simulation time: 00 hr 08 min 13 sec)
Heartbeat CPU 0 instructions: 89000572 cycles: 27401432 heartbeat IPC: 2.66 cumulative IPC: 2.618 (Simulation time: 00 hr 08 min 16 sec)
Heartbeat CPU 0 instructions: 89500578 cycles: 27602103 heartbeat IPC: 2.492 cumulative IPC: 2.617 (Simulation time: 00 hr 08 min 19 sec)
Heartbeat CPU 0 instructions: 90000579 cycles: 27803217 heartbeat IPC: 2.486 cumulative IPC: 2.615 (Simulation time: 00 hr 08 min 22 sec)
Heartbeat CPU 0 instructions: 90500583 cycles: 27992350 heartbeat IPC: 2.644 cumulative IPC: 2.615 (Simulation time: 00 hr 08 min 25 sec)
Heartbeat CPU 0 instructions: 91000590 cycles: 28171786 heartbeat IPC: 2.787 cumulative IPC: 2.617 (Simulation time: 00 hr 08 min 27 sec)
Heartbeat CPU 0 instructions: 91500591 cycles: 28374249 heartbeat IPC: 2.47 cumulative IPC: 2.615 (Simulation time: 00 hr 08 min 30 sec)
Heartbeat CPU 0 instructions: 92000596 cycles: 28565265 heartbeat IPC: 2.618 cumulative IPC: 2.615 (Simulation time: 00 hr 08 min 33 sec)
Heartbeat CPU 0 instructions: 92500600 cycles: 28767672 heartbeat IPC: 2.47 cumulative IPC: 2.613 (Simulation time: 00 hr 08 min 36 sec)
Heartbeat CPU 0 instructions: 93000600 cycles: 28969782 heartbeat IPC: 2.474 cumulative IPC: 2.612 (Simulation time: 00 hr 08 min 39 sec)
Heartbeat CPU 0 instructions: 93500602 cycles: 29156990 heartbeat IPC: 2.671 cumulative IPC: 2.612 (Simulation time: 00 hr 08 min 42 sec)
Heartbeat CPU 0 instructions: 94000603 cycles: 29334197 heartbeat IPC: 2.822 cumulative IPC: 2.615 (Simulation time: 00 hr 08 min 44 sec)
Heartbeat CPU 0 instructions: 94500608 cycles: 29535838 heartbeat IPC: 2.48 cumulative IPC: 2.613 (Simulation time: 00 hr 08 min 47 sec)
Heartbeat CPU 0 instructions: 95000612 cycles: 29738170 heartbeat IPC: 2.471 cumulative IPC: 2.611 (Simulation time: 00 hr 08 min 50 sec)
Heartbeat CPU 0 instructions: 95500612 cycles: 29925492 heartbeat IPC: 2.669 cumulative IPC: 2.612 (Simulation time: 00 hr 08 min 53 sec)
Heartbeat CPU 0 instructions: 96000613 cycles: 30126946 heartbeat IPC: 2.482 cumulative IPC: 2.611 (Simulation time: 00 hr 08 min 56 sec)
Heartbeat CPU 0 instructions: 96500618 cycles: 30329012 heartbeat IPC: 2.474 cumulative IPC: 2.609 (Simulation time: 00 hr 08 min 59 sec)
Heartbeat CPU 0 instructions: 97000624 cycles: 30491951 heartbeat IPC: 3.069 cumulative IPC: 2.613 (Simulation time: 00 hr 09 min 01 sec)
Heartbeat CPU 0 instructions: 97500625 cycles: 30693063 heartbeat IPC: 2.486 cumulative IPC: 2.612 (Simulation time: 00 hr 09 min 04 sec)
Heartbeat CPU 0 instructions: 98000629 cycles: 30894821 heartbeat IPC: 2.478 cumulative IPC: 2.61 (Simulation time: 00 hr 09 min 07 sec)
Heartbeat CPU 0 instructions: 98500634 cycles: 31082933 heartbeat IPC: 2.658 cumulative IPC: 2.611 (Simulation time: 00 hr 09 min 10 sec)
Heartbeat CPU 0 instructions: 99000634 cycles: 31286352 heartbeat IPC: 2.458 cumulative IPC: 2.609 (Simulation time: 00 hr 09 min 13 sec)
Heartbeat CPU 0 instructions: 99500634 cycles: 31487012 heartbeat IPC: 2.492 cumulative IPC: 2.608 (Simulation time: 00 hr 09 min 16 sec)
Heartbeat CPU 0 instructions: 100000636 cycles: 31664152 heartbeat IPC: 2.823 cumulative IPC: 2.61 (Simulation time: 00 hr 09 min 19 sec)
Heartbeat CPU 0 instructions: 100500638 cycles: 31851559 heartbeat IPC: 2.668 cumulative IPC: 2.61 (Simulation time: 00 hr 09 min 21 sec)
Heartbeat CPU 0 instructions: 101000642 cycles: 32055089 heartbeat IPC: 2.457 cumulative IPC: 2.609 (Simulation time: 00 hr 09 min 24 sec)
Heartbeat CPU 0 instructions: 101500646 cycles: 32256552 heartbeat IPC: 2.482 cumulative IPC: 2.608 (Simulation time: 00 hr 09 min 27 sec)
Heartbeat CPU 0 instructions: 102000647 cycles: 32445942 heartbeat IPC: 2.64 cumulative IPC: 2.608 (Simulation time: 00 hr 09 min 30 sec)
Heartbeat CPU 0 instructions: 102500649 cycles: 32648665 heartbeat IPC: 2.466 cumulative IPC: 2.606 (Simulation time: 00 hr 09 min 33 sec)
Heartbeat CPU 0 instructions: 103000655 cycles: 32831433 heartbeat IPC: 2.736 cumulative IPC: 2.608 (Simulation time: 00 hr 09 min 36 sec)
Heartbeat CPU 0 instructions: 103500659 cycles: 33014092 heartbeat IPC: 2.737 cumulative IPC: 2.609 (Simulation time: 00 hr 09 min 38 sec)
Heartbeat CPU 0 instructions: 104000661 cycles: 33214657 heartbeat IPC: 2.493 cumulative IPC: 2.608 (Simulation time: 00 hr 09 min 41 sec)
Heartbeat CPU 0 instructions: 104500667 cycles: 33384233 heartbeat IPC: 2.949 cumulative IPC: 2.61 (Simulation time: 00 hr 09 min 44 sec)
Heartbeat CPU 0 instructions: 105000668 cycles: 33541911 heartbeat IPC: 3.171 cumulative IPC: 2.615 (Simulation time: 00 hr 09 min 47 sec)
Heartbeat CPU 0 instructions: 105500672 cycles: 33701096 heartbeat IPC: 3.141 cumulative IPC: 2.619 (Simulation time: 00 hr 09 min 49 sec)
Heartbeat CPU 0 instructions: 106000675 cycles: 33854121 heartbeat IPC: 3.267 cumulative IPC: 2.623 (Simulation time: 00 hr 09 min 51 sec)
Heartbeat CPU 0 instructions: 106500680 cycles: 34001501 heartbeat IPC: 3.393 cumulative IPC: 2.628 (Simulation time: 00 hr 09 min 54 sec)
Heartbeat CPU 0 instructions: 107000685 cycles: 34203944 heartbeat IPC: 2.47 cumulative IPC: 2.627 (Simulation time: 00 hr 09 min 57 sec)
Heartbeat CPU 0 instructions: 107500686 cycles: 34389343 heartbeat IPC: 2.697 cumulative IPC: 2.628 (Simulation time: 00 hr 10 min 00 sec)
Heartbeat CPU 0 instructions: 108000689 cycles: 34572015 heartbeat IPC: 2.737 cumulative IPC: 2.628 (Simulation time: 00 hr 10 min 02 sec)
Heartbeat CPU 0 instructions: 108500693 cycles: 34772726 heartbeat IPC: 2.491 cumulative IPC: 2.627 (Simulation time: 00 hr 10 min 05 sec)
Heartbeat CPU 0 instructions: 109000696 cycles: 34973648 heartbeat IPC: 2.489 cumulative IPC: 2.626 (Simulation time: 00 hr 10 min 08 sec)
Heartbeat CPU 0 instructions: 109500701 cycles: 35150497 heartbeat IPC: 2.827 cumulative IPC: 2.628 (Simulation time: 00 hr 10 min 11 sec)
Heartbeat CPU 0 instructions: 110000704 cycles: 35319166 heartbeat IPC: 2.964 cumulative IPC: 2.63 (Simulation time: 00 hr 10 min 13 sec)
Heartbeat CPU 0 instructions: 110500707 cycles: 35475662 heartbeat IPC: 3.195 cumulative IPC: 2.634 (Simulation time: 00 hr 10 min 16 sec)
Heartbeat CPU 0 instructions: 111000710 cycles: 35634460 heartbeat IPC: 3.149 cumulative IPC: 2.637 (Simulation time: 00 hr 10 min 18 sec)
Heartbeat CPU 0 instructions: 111500714 cycles: 35786307 heartbeat IPC: 3.293 cumulative IPC: 2.642 (Simulation time: 00 hr 10 min 21 sec)
Heartbeat CPU 0 instructions: 112000714 cycles: 35936198 heartbeat IPC: 3.336 cumulative IPC: 2.646 (Simulation time: 00 hr 10 min 23 sec)
Heartbeat CPU 0 instructions: 112500714 cycles: 36079103 heartbeat IPC: 3.499 cumulative IPC: 2.651 (Simulation time: 00 hr 10 min 26 sec)
Heartbeat CPU 0 instructions: 113000719 cycles: 36228102 heartbeat IPC: 3.356 cumulative IPC: 2.656 (Simulation time: 00 hr 10 min 28 sec)
Heartbeat CPU 0 instructions: 113500721 cycles: 36428103 heartbeat IPC: 2.5 cumulative IPC: 2.654 (Simulation time: 00 hr 10 min 31 sec)
Heartbeat CPU 0 instructions: 114000721 cycles: 36627470 heartbeat IPC: 2.508 cumulative IPC: 2.653 (Simulation time: 00 hr 10 min 34 sec)
Heartbeat CPU 0 instructions: 114500727 cycles: 36809885 heartbeat IPC: 2.741 cumulative IPC: 2.654 (Simulation time: 00 hr 10 min 37 sec)
Heartbeat CPU 0 instructions: 115000727 cycles: 37004550 heartbeat IPC: 2.569 cumulative IPC: 2.653 (Simulation time: 00 hr 10 min 39 sec)
Heartbeat CPU 0 instructions: 115500727 cycles: 37178567 heartbeat IPC: 2.873 cumulative IPC: 2.655 (Simulation time: 00 hr 10 min 42 sec)
Heartbeat CPU 0 instructions: 116000730 cycles: 37372790 heartbeat IPC: 2.574 cumulative IPC: 2.654 (Simulation time: 00 hr 10 min 45 sec)
Heartbeat CPU 0 instructions: 116500733 cycles: 37550084 heartbeat IPC: 2.82 cumulative IPC: 2.655 (Simulation time: 00 hr 10 min 48 sec)
Heartbeat CPU 0 instructions: 117000736 cycles: 37745342 heartbeat IPC: 2.561 cumulative IPC: 2.655 (Simulation time: 00 hr 10 min 51 sec)
Heartbeat CPU 0 instructions: 117500740 cycles: 37938237 heartbeat IPC: 2.592 cumulative IPC: 2.654 (Simulation time: 00 hr 10 min 53 sec)
Heartbeat CPU 0 instructions: 118000741 cycles: 38113989 heartbeat IPC: 2.845 cumulative IPC: 2.655 (Simulation time: 00 hr 10 min 56 sec)
Heartbeat CPU 0 instructions: 118500743 cycles: 38287618 heartbeat IPC: 2.88 cumulative IPC: 2.657 (Simulation time: 00 hr 10 min 59 sec)
Heartbeat CPU 0 instructions: 119000744 cycles: 38475174 heartbeat IPC: 2.666 cumulative IPC: 2.657 (Simulation time: 00 hr 11 min 01 sec)
Heartbeat CPU 0 instructions: 119500746 cycles: 38648806 heartbeat IPC: 2.88 cumulative IPC: 2.658 (Simulation time: 00 hr 11 min 04 sec)
Heartbeat CPU 0 instructions: 120000749 cycles: 38838921 heartbeat IPC: 2.63 cumulative IPC: 2.658 (Simulation time: 00 hr 11 min 07 sec)
Heartbeat CPU 0 instructions: 120500749 cycles: 39028730 heartbeat IPC: 2.634 cumulative IPC: 2.658 (Simulation time: 00 hr 11 min 10 sec)
Heartbeat CPU 0 instructions: 121000754 cycles: 39202594 heartbeat IPC: 2.876 cumulative IPC: 2.66 (Simulation time: 00 hr 11 min 12 sec)
Heartbeat CPU 0 instructions: 121500758 cycles: 39383660 heartbeat IPC: 2.761 cumulative IPC: 2.66 (Simulation time: 00 hr 11 min 15 sec)
Heartbeat CPU 0 instructions: 122000765 cycles: 39559663 heartbeat IPC: 2.841 cumulative IPC: 2.661 (Simulation time: 00 hr 11 min 18 sec)
Heartbeat CPU 0 instructions: 122500767 cycles: 39748159 heartbeat IPC: 2.653 cumulative IPC: 2.661 (Simulation time: 00 hr 11 min 21 sec)
Heartbeat CPU 0 instructions: 123000770 cycles: 39924373 heartbeat IPC: 2.837 cumulative IPC: 2.662 (Simulation time: 00 hr 11 min 23 sec)
Heartbeat CPU 0 instructions: 123500774 cycles: 40110999 heartbeat IPC: 2.679 cumulative IPC: 2.663 (Simulation time: 00 hr 11 min 26 sec)
Heartbeat CPU 0 instructions: 124000775 cycles: 40301345 heartbeat IPC: 2.627 cumulative IPC: 2.662 (Simulation time: 00 hr 11 min 29 sec)
Heartbeat CPU 0 instructions: 124500779 cycles: 40479989 heartbeat IPC: 2.799 cumulative IPC: 2.663 (Simulation time: 00 hr 11 min 32 sec)
Heartbeat CPU 0 instructions: 125000784 cycles: 40648383 heartbeat IPC: 2.969 cumulative IPC: 2.665 (Simulation time: 00 hr 11 min 34 sec)
Heartbeat CPU 0 instructions: 125500784 cycles: 40838803 heartbeat IPC: 2.626 cumulative IPC: 2.665 (Simulation time: 00 hr 11 min 37 sec)
Heartbeat CPU 0 instructions: 126000791 cycles: 41014952 heartbeat IPC: 2.839 cumulative IPC: 2.666 (Simulation time: 00 hr 11 min 40 sec)
Heartbeat CPU 0 instructions: 126500795 cycles: 41204883 heartbeat IPC: 2.633 cumulative IPC: 2.666 (Simulation time: 00 hr 11 min 43 sec)
Heartbeat CPU 0 instructions: 127000796 cycles: 41404012 heartbeat IPC: 2.511 cumulative IPC: 2.665 (Simulation time: 00 hr 11 min 45 sec)
Heartbeat CPU 0 instructions: 127500800 cycles: 41588296 heartbeat IPC: 2.713 cumulative IPC: 2.665 (Simulation time: 00 hr 11 min 48 sec)
Heartbeat CPU 0 instructions: 128000803 cycles: 41759245 heartbeat IPC: 2.925 cumulative IPC: 2.666 (Simulation time: 00 hr 11 min 51 sec)
Heartbeat CPU 0 instructions: 128500809 cycles: 41952069 heartbeat IPC: 2.593 cumulative IPC: 2.666 (Simulation time: 00 hr 11 min 54 sec)
Heartbeat CPU 0 instructions: 129000812 cycles: 42137731 heartbeat IPC: 2.693 cumulative IPC: 2.666 (Simulation time: 00 hr 11 min 56 sec)
Heartbeat CPU 0 instructions: 129500816 cycles: 42335524 heartbeat IPC: 2.528 cumulative IPC: 2.665 (Simulation time: 00 hr 11 min 59 sec)
Heartbeat CPU 0 instructions: 130000818 cycles: 42533667 heartbeat IPC: 2.523 cumulative IPC: 2.664 (Simulation time: 00 hr 12 min 02 sec)
Heartbeat CPU 0 instructions: 130500821 cycles: 42719004 heartbeat IPC: 2.698 cumulative IPC: 2.664 (Simulation time: 00 hr 12 min 05 sec)
Heartbeat CPU 0 instructions: 131000823 cycles: 42893282 heartbeat IPC: 2.869 cumulative IPC: 2.666 (Simulation time: 00 hr 12 min 08 sec)
Heartbeat CPU 0 instructions: 131500825 cycles: 43091425 heartbeat IPC: 2.523 cumulative IPC: 2.665 (Simulation time: 00 hr 12 min 11 sec)
Heartbeat CPU 0 instructions: 132000825 cycles: 43291774 heartbeat IPC: 2.496 cumulative IPC: 2.664 (Simulation time: 00 hr 12 min 14 sec)
Heartbeat CPU 0 instructions: 132500827 cycles: 43488131 heartbeat IPC: 2.546 cumulative IPC: 2.663 (Simulation time: 00 hr 12 min 16 sec)
Heartbeat CPU 0 instructions: 133000830 cycles: 43690473 heartbeat IPC: 2.471 cumulative IPC: 2.662 (Simulation time: 00 hr 12 min 19 sec)
Heartbeat CPU 0 instructions: 133500834 cycles: 43890887 heartbeat IPC: 2.495 cumulative IPC: 2.661 (Simulation time: 00 hr 12 min 22 sec)
Heartbeat CPU 0 instructions: 134000838 cycles: 44059096 heartbeat IPC: 2.973 cumulative IPC: 2.662 (Simulation time: 00 hr 12 min 25 sec)
Heartbeat CPU 0 instructions: 134500842 cycles: 44260146 heartbeat IPC: 2.487 cumulative IPC: 2.661 (Simulation time: 00 hr 12 min 28 sec)
Heartbeat CPU 0 instructions: 135000842 cycles: 44462035 heartbeat IPC: 2.477 cumulative IPC: 2.66 (Simulation time: 00 hr 12 min 31 sec)
Heartbeat CPU 0 instructions: 135500847 cycles: 44682971 heartbeat IPC: 2.263 cumulative IPC: 2.657 (Simulation time: 00 hr 12 min 34 sec)
Heartbeat CPU 0 instructions: 136000850 cycles: 44884522 heartbeat IPC: 2.481 cumulative IPC: 2.656 (Simulation time: 00 hr 12 min 37 sec)
Heartbeat CPU 0 instructions: 136500854 cycles: 45084801 heartbeat IPC: 2.497 cumulative IPC: 2.655 (Simulation time: 00 hr 12 min 40 sec)
Heartbeat CPU 0 instructions: 137000858 cycles: 45271250 heartbeat IPC: 2.682 cumulative IPC: 2.655 (Simulation time: 00 hr 12 min 42 sec)
Heartbeat CPU 0 instructions: 137500858 cycles: 45455814 heartbeat IPC: 2.709 cumulative IPC: 2.656 (Simulation time: 00 hr 12 min 45 sec)
Heartbeat CPU 0 instructions: 138000858 cycles: 45657903 heartbeat IPC: 2.474 cumulative IPC: 2.654 (Simulation time: 00 hr 12 min 48 sec)
Heartbeat CPU 0 instructions: 138500862 cycles: 45859373 heartbeat IPC: 2.482 cumulative IPC: 2.653 (Simulation time: 00 hr 12 min 51 sec)
Heartbeat CPU 0 instructions: 139000863 cycles: 46051292 heartbeat IPC: 2.605 cumulative IPC: 2.653 (Simulation time: 00 hr 12 min 54 sec)
Heartbeat CPU 0 instructions: 139500867 cycles: 46254139 heartbeat IPC: 2.465 cumulative IPC: 2.652 (Simulation time: 00 hr 12 min 57 sec)
Heartbeat CPU 0 instructions: 140000868 cycles: 46454453 heartbeat IPC: 2.496 cumulative IPC: 2.651 (Simulation time: 00 hr 13 min 00 sec)
Heartbeat CPU 0 instructions: 140500875 cycles: 46621064 heartbeat IPC: 3.001 cumulative IPC: 2.653 (Simulation time: 00 hr 13 min 02 sec)
Heartbeat CPU 0 instructions: 141000877 cycles: 46822272 heartbeat IPC: 2.485 cumulative IPC: 2.652 (Simulation time: 00 hr 13 min 05 sec)
Heartbeat CPU 0 instructions: 141500883 cycles: 47023107 heartbeat IPC: 2.49 cumulative IPC: 2.651 (Simulation time: 00 hr 13 min 08 sec)
Heartbeat CPU 0 instructions: 142000884 cycles: 47215745 heartbeat IPC: 2.596 cumulative IPC: 2.651 (Simulation time: 00 hr 13 min 11 sec)
Heartbeat CPU 0 instructions: 142500887 cycles: 47417311 heartbeat IPC: 2.481 cumulative IPC: 2.65 (Simulation time: 00 hr 13 min 14 sec)
Heartbeat CPU 0 instructions: 143000893 cycles: 47620619 heartbeat IPC: 2.459 cumulative IPC: 2.648 (Simulation time: 00 hr 13 min 17 sec)
Heartbeat CPU 0 instructions: 143500896 cycles: 47798424 heartbeat IPC: 2.812 cumulative IPC: 2.649 (Simulation time: 00 hr 13 min 20 sec)
Heartbeat CPU 0 instructions: 144000900 cycles: 47989450 heartbeat IPC: 2.617 cumulative IPC: 2.649 (Simulation time: 00 hr 13 min 22 sec)
Heartbeat CPU 0 instructions: 144500900 cycles: 48190680 heartbeat IPC: 2.485 cumulative IPC: 2.648 (Simulation time: 00 hr 13 min 25 sec)
Heartbeat CPU 0 instructions: 145000906 cycles: 48392014 heartbeat IPC: 2.483 cumulative IPC: 2.647 (Simulation time: 00 hr 13 min 28 sec)
Heartbeat CPU 0 instructions: 145500913 cycles: 48579207 heartbeat IPC: 2.671 cumulative IPC: 2.647 (Simulation time: 00 hr 13 min 31 sec)
Heartbeat CPU 0 instructions: 146000918 cycles: 48780635 heartbeat IPC: 2.482 cumulative IPC: 2.646 (Simulation time: 00 hr 13 min 34 sec)
Heartbeat CPU 0 instructions: 146500925 cycles: 48957214 heartbeat IPC: 2.832 cumulative IPC: 2.647 (Simulation time: 00 hr 13 min 37 sec)
Heartbeat CPU 0 instructions: 147000929 cycles: 49149849 heartbeat IPC: 2.596 cumulative IPC: 2.647 (Simulation time: 00 hr 13 min 40 sec)
Heartbeat CPU 0 instructions: 147500930 cycles: 49351502 heartbeat IPC: 2.48 cumulative IPC: 2.646 (Simulation time: 00 hr 13 min 42 sec)
Heartbeat CPU 0 instructions: 148000930 cycles: 49554602 heartbeat IPC: 2.462 cumulative IPC: 2.645 (Simulation time: 00 hr 13 min 45 sec)
Heartbeat CPU 0 instructions: 148500931 cycles: 49745769 heartbeat IPC: 2.616 cumulative IPC: 2.645 (Simulation time: 00 hr 13 min 48 sec)
Heartbeat CPU 0 instructions: 149000931 cycles: 49946869 heartbeat IPC: 2.486 cumulative IPC: 2.644 (Simulation time: 00 hr 13 min 51 sec)
Heartbeat CPU 0 instructions: 149500938 cycles: 50123089 heartbeat IPC: 2.837 cumulative IPC: 2.645 (Simulation time: 00 hr 13 min 54 sec)
Heartbeat CPU 0 instructions: 150000942 cycles: 50309597 heartbeat IPC: 2.681 cumulative IPC: 2.645 (Simulation time: 00 hr 13 min 57 sec)
Heartbeat CPU 0 instructions: 150500945 cycles: 50512080 heartbeat IPC: 2.469 cumulative IPC: 2.644 (Simulation time: 00 hr 14 min 00 sec)
Heartbeat CPU 0 instructions: 151000947 cycles: 50713024 heartbeat IPC: 2.488 cumulative IPC: 2.643 (Simulation time: 00 hr 14 min 02 sec)
Heartbeat CPU 0 instructions: 151500951 cycles: 50901530 heartbeat IPC: 2.652 cumulative IPC: 2.644 (Simulation time: 00 hr 14 min 05 sec)
Heartbeat CPU 0 instructions: 152000952 cycles: 51102518 heartbeat IPC: 2.488 cumulative IPC: 2.643 (Simulation time: 00 hr 14 min 08 sec)
Heartbeat CPU 0 instructions: 152500954 cycles: 51292194 heartbeat IPC: 2.636 cumulative IPC: 2.643 (Simulation time: 00 hr 14 min 11 sec)
Heartbeat CPU 0 instructions: 153000955 cycles: 51482831 heartbeat IPC: 2.623 cumulative IPC: 2.643 (Simulation time: 00 hr 14 min 14 sec)
Heartbeat CPU 0 instructions: 153500956 cycles: 51670245 heartbeat IPC: 2.668 cumulative IPC: 2.643 (Simulation time: 00 hr 14 min 17 sec)
Heartbeat CPU 0 instructions: 154000960 cycles: 51871848 heartbeat IPC: 2.48 cumulative IPC: 2.642 (Simulation time: 00 hr 14 min 20 sec)
Heartbeat CPU 0 instructions: 154500964 cycles: 52073885 heartbeat IPC: 2.475 cumulative IPC: 2.641 (Simulation time: 00 hr 14 min 22 sec)
Heartbeat CPU 0 instructions: 155000969 cycles: 52261965 heartbeat IPC: 2.658 cumulative IPC: 2.641 (Simulation time: 00 hr 14 min 25 sec)
Heartbeat CPU 0 instructions: 155500969 cycles: 52462904 heartbeat IPC: 2.488 cumulative IPC: 2.64 (Simulation time: 00 hr 14 min 28 sec)
Heartbeat CPU 0 instructions: 156000976 cycles: 52640236 heartbeat IPC: 2.82 cumulative IPC: 2.641 (Simulation time: 00 hr 14 min 31 sec)
Heartbeat CPU 0 instructions: 156500979 cycles: 52828465 heartbeat IPC: 2.656 cumulative IPC: 2.641 (Simulation time: 00 hr 14 min 34 sec)
Heartbeat CPU 0 instructions: 157000981 cycles: 53030378 heartbeat IPC: 2.476 cumulative IPC: 2.64 (Simulation time: 00 hr 14 min 37 sec)
Heartbeat CPU 0 instructions: 157500985 cycles: 53233416 heartbeat IPC: 2.463 cumulative IPC: 2.639 (Simulation time: 00 hr 14 min 40 sec)
Heartbeat CPU 0 instructions: 158000987 cycles: 53422962 heartbeat IPC: 2.638 cumulative IPC: 2.639 (Simulation time: 00 hr 14 min 42 sec)
Heartbeat CPU 0 instructions: 158500990 cycles: 53623982 heartbeat IPC: 2.487 cumulative IPC: 2.639 (Simulation time: 00 hr 14 min 45 sec)
Heartbeat CPU 0 instructions: 159000997 cycles: 53802303 heartbeat IPC: 2.804 cumulative IPC: 2.639 (Simulation time: 00 hr 14 min 48 sec)
Heartbeat CPU 0 instructions: 159500998 cycles: 54005253 heartbeat IPC: 2.464 cumulative IPC: 2.639 (Simulation time: 00 hr 14 min 51 sec)
Heartbeat CPU 0 instructions: 160001002 cycles: 54193201 heartbeat IPC: 2.66 cumulative IPC: 2.639 (Simulation time: 00 hr 14 min 54 sec)
Heartbeat CPU 0 instructions: 160501004 cycles: 54394262 heartbeat IPC: 2.487 cumulative IPC: 2.638 (Simulation time: 00 hr 14 min 57 sec)
Heartbeat CPU 0 instructions: 161001011 cycles: 54548505 heartbeat IPC: 3.242 cumulative IPC: 2.64 (Simulation time: 00 hr 14 min 59 sec)
Heartbeat CPU 0 instructions: 161501012 cycles: 54704681 heartbeat IPC: 3.202 cumulative IPC: 2.642 (Simulation time: 00 hr 15 min 02 sec)
Heartbeat CPU 0 instructions: 162001018 cycles: 54855453 heartbeat IPC: 3.316 cumulative IPC: 2.645 (Simulation time: 00 hr 15 min 04 sec)
Heartbeat CPU 0 instructions: 162501019 cycles: 55010243 heartbeat IPC: 3.23 cumulative IPC: 2.647 (Simulation time: 00 hr 15 min 06 sec)
Heartbeat CPU 0 instructions: 163001023 cycles: 55182695 heartbeat IPC: 2.899 cumulative IPC: 2.648 (Simulation time: 00 hr 15 min 09 sec)
Heartbeat CPU 0 instructions: 163501027 cycles: 55382770 heartbeat IPC: 2.499 cumulative IPC: 2.647 (Simulation time: 00 hr 15 min 12 sec)
Heartbeat CPU 0 instructions: 164001028 cycles: 55567740 heartbeat IPC: 2.703 cumulative IPC: 2.647 (Simulation time: 00 hr 15 min 15 sec)
Heartbeat CPU 0 instructions: 164501032 cycles: 55749677 heartbeat IPC: 2.748 cumulative IPC: 2.648 (Simulation time: 00 hr 15 min 18 sec)
Heartbeat CPU 0 instructions: 165001039 cycles: 55927444 heartbeat IPC: 2.813 cumulative IPC: 2.648 (Simulation time: 00 hr 15 min 20 sec)
Heartbeat CPU 0 instructions: 165501040 cycles: 56128805 heartbeat IPC: 2.483 cumulative IPC: 2.648 (Simulation time: 00 hr 15 min 23 sec)
Heartbeat CPU 0 instructions: 166001044 cycles: 56330488 heartbeat IPC: 2.479 cumulative IPC: 2.647 (Simulation time: 00 hr 15 min 26 sec)
Heartbeat CPU 0 instructions: 166501048 cycles: 56484922 heartbeat IPC: 3.238 cumulative IPC: 2.649 (Simulation time: 00 hr 15 min 29 sec)
Heartbeat CPU 0 instructions: 167001049 cycles: 56643817 heartbeat IPC: 3.147 cumulative IPC: 2.651 (Simulation time: 00 hr 15 min 31 sec)
Heartbeat CPU 0 instructions: 167501053 cycles: 56798959 heartbeat IPC: 3.223 cumulative IPC: 2.653 (Simulation time: 00 hr 15 min 34 sec)
Heartbeat CPU 0 instructions: 168001057 cycles: 56945069 heartbeat IPC: 3.422 cumulative IPC: 2.655 (Simulation time: 00 hr 15 min 36 sec)
Heartbeat CPU 0 instructions: 168501062 cycles: 57092095 heartbeat IPC: 3.401 cumulative IPC: 2.658 (Simulation time: 00 hr 15 min 38 sec)
Heartbeat CPU 0 instructions: 169001065 cycles: 57242344 heartbeat IPC: 3.328 cumulative IPC: 2.66 (Simulation time: 00 hr 15 min 41 sec)
Heartbeat CPU 0 instructions: 169501069 cycles: 57412473 heartbeat IPC: 2.939 cumulative IPC: 2.661 (Simulation time: 00 hr 15 min 43 sec)
Heartbeat CPU 0 instructions: 170001071 cycles: 57613040 heartbeat IPC: 2.493 cumulative IPC: 2.66 (Simulation time: 00 hr 15 min 46 sec)
Heartbeat CPU 0 instructions: 170501074 cycles: 57809348 heartbeat IPC: 2.547 cumulative IPC: 2.66 (Simulation time: 00 hr 15 min 49 sec)
Heartbeat CPU 0 instructions: 171001078 cycles: 57989350 heartbeat IPC: 2.778 cumulative IPC: 2.66 (Simulation time: 00 hr 15 min 52 sec)
Heartbeat CPU 0 instructions: 171501080 cycles: 58163501 heartbeat IPC: 2.871 cumulative IPC: 2.661 (Simulation time: 00 hr 15 min 55 sec)
Heartbeat CPU 0 instructions: 172001086 cycles: 58359561 heartbeat IPC: 2.55 cumulative IPC: 2.661 (Simulation time: 00 hr 15 min 57 sec)
Heartbeat CPU 0 instructions: 172501090 cycles: 58538437 heartbeat IPC: 2.795 cumulative IPC: 2.661 (Simulation time: 00 hr 16 min 00 sec)
Heartbeat CPU 0 instructions: 173001091 cycles: 58729967 heartbeat IPC: 2.611 cumulative IPC: 2.661 (Simulation time: 00 hr 16 min 03 sec)
Heartbeat CPU 0 instructions: 173501096 cycles: 58923578 heartbeat IPC: 2.583 cumulative IPC: 2.661 (Simulation time: 00 hr 16 min 06 sec)
Heartbeat CPU 0 instructions: 174001097 cycles: 59100641 heartbeat IPC: 2.824 cumulative IPC: 2.661 (Simulation time: 00 hr 16 min 08 sec)
Heartbeat CPU 0 instructions: 174501104 cycles: 59271126 heartbeat IPC: 2.933 cumulative IPC: 2.662 (Simulation time: 00 hr 16 min 11 sec)
Heartbeat CPU 0 instructions: 175001107 cycles: 59463641 heartbeat IPC: 2.597 cumulative IPC: 2.662 (Simulation time: 00 hr 16 min 14 sec)
Heartbeat CPU 0 instructions: 175501111 cycles: 59654808 heartbeat IPC: 2.616 cumulative IPC: 2.662 (Simulation time: 00 hr 16 min 17 sec)
Heartbeat CPU 0 instructions: 176001118 cycles: 59830845 heartbeat IPC: 2.84 cumulative IPC: 2.662 (Simulation time: 00 hr 16 min 19 sec)
Heartbeat CPU 0 instructions: 176501118 cycles: 60020803 heartbeat IPC: 2.632 cumulative IPC: 2.662 (Simulation time: 00 hr 16 min 22 sec)
Heartbeat CPU 0 instructions: 177001118 cycles: 60208483 heartbeat IPC: 2.664 cumulative IPC: 2.662 (Simulation time: 00 hr 16 min 25 sec)
Heartbeat CPU 0 instructions: 177501125 cycles: 60364098 heartbeat IPC: 3.213 cumulative IPC: 2.664 (Simulation time: 00 hr 16 min 27 sec)
Heartbeat CPU 0 instructions: 178001126 cycles: 60552601 heartbeat IPC: 2.652 cumulative IPC: 2.664 (Simulation time: 00 hr 16 min 30 sec)
Heartbeat CPU 0 instructions: 178501128 cycles: 60743399 heartbeat IPC: 2.621 cumulative IPC: 2.664 (Simulation time: 00 hr 16 min 33 sec)
Heartbeat CPU 0 instructions: 179001131 cycles: 60918164 heartbeat IPC: 2.861 cumulative IPC: 2.665 (Simulation time: 00 hr 16 min 36 sec)
Heartbeat CPU 0 instructions: 179501135 cycles: 61107901 heartbeat IPC: 2.635 cumulative IPC: 2.665 (Simulation time: 00 hr 16 min 39 sec)
Heartbeat CPU 0 instructions: 180001141 cycles: 61294480 heartbeat IPC: 2.68 cumulative IPC: 2.665 (Simulation time: 00 hr 16 min 41 sec)
Heartbeat CPU 0 instructions: 180501145 cycles: 61462491 heartbeat IPC: 2.976 cumulative IPC: 2.666 (Simulation time: 00 hr 16 min 44 sec)
Heartbeat CPU 0 instructions: 181001149 cycles: 61640536 heartbeat IPC: 2.808 cumulative IPC: 2.666 (Simulation time: 00 hr 16 min 47 sec)
Heartbeat CPU 0 instructions: 181501152 cycles: 61827296 heartbeat IPC: 2.677 cumulative IPC: 2.666 (Simulation time: 00 hr 16 min 49 sec)
Heartbeat CPU 0 instructions: 182001152 cycles: 62013979 heartbeat IPC: 2.678 cumulative IPC: 2.666 (Simulation time: 00 hr 16 min 52 sec)
Heartbeat CPU 0 instructions: 182501158 cycles: 62192741 heartbeat IPC: 2.797 cumulative IPC: 2.667 (Simulation time: 00 hr 16 min 55 sec)
Heartbeat CPU 0 instructions: 183001159 cycles: 62385850 heartbeat IPC: 2.589 cumulative IPC: 2.666 (Simulation time: 00 hr 16 min 58 sec)
Heartbeat CPU 0 instructions: 183501163 cycles: 62565380 heartbeat IPC: 2.785 cumulative IPC: 2.667 (Simulation time: 00 hr 17 min 00 sec)
Heartbeat CPU 0 instructions: 184001168 cycles: 62744548 heartbeat IPC: 2.791 cumulative IPC: 2.667 (Simulation time: 00 hr 17 min 03 sec)
Heartbeat CPU 0 instructions: 184501171 cycles: 62937433 heartbeat IPC: 2.592 cumulative IPC: 2.667 (Simulation time: 00 hr 17 min 06 sec)
Heartbeat CPU 0 instructions: 185001173 cycles: 63131632 heartbeat IPC: 2.575 cumulative IPC: 2.667 (Simulation time: 00 hr 17 min 09 sec)
Heartbeat CPU 0 instructions: 185501175 cycles: 63316036 heartbeat IPC: 2.711 cumulative IPC: 2.667 (Simulation time: 00 hr 17 min 12 sec)
Heartbeat CPU 0 instructions: 186001182 cycles: 63514094 heartbeat IPC: 2.525 cumulative IPC: 2.666 (Simulation time: 00 hr 17 min 15 sec)
Heartbeat CPU 0 instructions: 186501184 cycles: 63706553 heartbeat IPC: 2.598 cumulative IPC: 2.666 (Simulation time: 00 hr 17 min 17 sec)
Heartbeat CPU 0 instructions: 187001191 cycles: 63876064 heartbeat IPC: 2.95 cumulative IPC: 2.667 (Simulation time: 00 hr 17 min 20 sec)
Heartbeat CPU 0 instructions: 187501194 cycles: 64075820 heartbeat IPC: 2.503 cumulative IPC: 2.666 (Simulation time: 00 hr 17 min 23 sec)
Heartbeat CPU 0 instructions: 188001196 cycles: 64275832 heartbeat IPC: 2.5 cumulative IPC: 2.666 (Simulation time: 00 hr 17 min 26 sec)
Heartbeat CPU 0 instructions: 188501200 cycles: 64476903 heartbeat IPC: 2.487 cumulative IPC: 2.665 (Simulation time: 00 hr 17 min 29 sec)
Heartbeat CPU 0 instructions: 189001201 cycles: 64672915 heartbeat IPC: 2.551 cumulative IPC: 2.665 (Simulation time: 00 hr 17 min 32 sec)
Heartbeat CPU 0 instructions: 189501205 cycles: 64876256 heartbeat IPC: 2.459 cumulative IPC: 2.664 (Simulation time: 00 hr 17 min 35 sec)
Heartbeat CPU 0 instructions: 190001212 cycles: 65051313 heartbeat IPC: 2.856 cumulative IPC: 2.664 (Simulation time: 00 hr 17 min 37 sec)
Heartbeat CPU 0 instructions: 190501213 cycles: 65244624 heartbeat IPC: 2.587 cumulative IPC: 2.664 (Simulation time: 00 hr 17 min 40 sec)
Heartbeat CPU 0 instructions: 191001217 cycles: 65444875 heartbeat IPC: 2.497 cumulative IPC: 2.663 (Simulation time: 00 hr 17 min 43 sec)
Heartbeat CPU 0 instructions: 191501218 cycles: 65660225 heartbeat IPC: 2.322 cumulative IPC: 2.662 (Simulation time: 00 hr 17 min 46 sec)
Heartbeat CPU 0 instructions: 192001223 cycles: 65870794 heartbeat IPC: 2.375 cumulative IPC: 2.661 (Simulation time: 00 hr 17 min 49 sec)
Heartbeat CPU 0 instructions: 192501225 cycles: 66072794 heartbeat IPC: 2.475 cumulative IPC: 2.66 (Simulation time: 00 hr 17 min 52 sec)
Heartbeat CPU 0 instructions: 193001232 cycles: 66249523 heartbeat IPC: 2.829 cumulative IPC: 2.661 (Simulation time: 00 hr 17 min 55 sec)
Heartbeat CPU 0 instructions: 193501239 cycles: 66443895 heartbeat IPC: 2.572 cumulative IPC: 2.66 (Simulation time: 00 hr 17 min 58 sec)
Heartbeat CPU 0 instructions: 194001245 cycles: 66644309 heartbeat IPC: 2.495 cumulative IPC: 2.66 (Simulation time: 00 hr 18 min 01 sec)
Heartbeat CPU 0 instructions: 194501249 cycles: 66845982 heartbeat IPC: 2.479 cumulative IPC: 2.659 (Simulation time: 00 hr 18 min 03 sec)
Heartbeat CPU 0 instructions: 195001254 cycles: 67038988 heartbeat IPC: 2.591 cumulative IPC: 2.659 (Simulation time: 00 hr 18 min 06 sec)
Heartbeat CPU 0 instructions: 195501254 cycles: 67241334 heartbeat IPC: 2.471 cumulative IPC: 2.658 (Simulation time: 00 hr 18 min 09 sec)
Heartbeat CPU 0 instructions: 196001260 cycles: 67418413 heartbeat IPC: 2.824 cumulative IPC: 2.659 (Simulation time: 00 hr 18 min 12 sec)
Heartbeat CPU 0 instructions: 196501262 cycles: 67619636 heartbeat IPC: 2.485 cumulative IPC: 2.658 (Simulation time: 00 hr 18 min 15 sec)
Heartbeat CPU 0 instructions: 197001266 cycles: 67811021 heartbeat IPC: 2.613 cumulative IPC: 2.658 (Simulation time: 00 hr 18 min 18 sec)
Heartbeat CPU 0 instructions: 197501266 cycles: 68014092 heartbeat IPC: 2.462 cumulative IPC: 2.657 (Simulation time: 00 hr 18 min 21 sec)
Heartbeat CPU 0 instructions: 198001271 cycles: 68216263 heartbeat IPC: 2.473 cumulative IPC: 2.657 (Simulation time: 00 hr 18 min 24 sec)
Heartbeat CPU 0 instructions: 198501275 cycles: 68408893 heartbeat IPC: 2.596 cumulative IPC: 2.656 (Simulation time: 00 hr 18 min 26 sec)
Heartbeat CPU 0 instructions: 199001277 cycles: 68591454 heartbeat IPC: 2.739 cumulative IPC: 2.657 (Simulation time: 00 hr 18 min 29 sec)
Heartbeat CPU 0 instructions: 199501277 cycles: 68788320 heartbeat IPC: 2.54 cumulative IPC: 2.656 (Simulation time: 00 hr 18 min 32 sec)
Heartbeat CPU 0 instructions: 200001279 cycles: 68979474 heartbeat IPC: 2.616 cumulative IPC: 2.656 (Simulation time: 00 hr 18 min 35 sec)
Heartbeat CPU 0 instructions: 200501283 cycles: 69180727 heartbeat IPC: 2.484 cumulative IPC: 2.656 (Simulation time: 00 hr 18 min 38 sec)
Heartbeat CPU 0 instructions: 201001284 cycles: 69381062 heartbeat IPC: 2.496 cumulative IPC: 2.655 (Simulation time: 00 hr 18 min 41 sec)
Heartbeat CPU 0 instructions: 201501288 cycles: 69568564 heartbeat IPC: 2.667 cumulative IPC: 2.655 (Simulation time: 00 hr 18 min 44 sec)
Heartbeat CPU 0 instructions: 202001292 cycles: 69762260 heartbeat IPC: 2.581 cumulative IPC: 2.655 (Simulation time: 00 hr 18 min 46 sec)
Heartbeat CPU 0 instructions: 202501296 cycles: 69946394 heartbeat IPC: 2.715 cumulative IPC: 2.655 (Simulation time: 00 hr 18 min 49 sec)
Heartbeat CPU 0 instructions: 203001296 cycles: 70148511 heartbeat IPC: 2.474 cumulative IPC: 2.654 (Simulation time: 00 hr 18 min 52 sec)
Heartbeat CPU 0 instructions: 203501296 cycles: 70340316 heartbeat IPC: 2.607 cumulative IPC: 2.654 (Simulation time: 00 hr 18 min 55 sec)
Heartbeat CPU 0 instructions: 204001297 cycles: 70542411 heartbeat IPC: 2.474 cumulative IPC: 2.654 (Simulation time: 00 hr 18 min 58 sec)
Heartbeat CPU 0 instructions: 204501301 cycles: 70743648 heartbeat IPC: 2.485 cumulative IPC: 2.653 (Simulation time: 00 hr 19 min 01 sec)
Heartbeat CPU 0 instructions: 205001303 cycles: 70935561 heartbeat IPC: 2.605 cumulative IPC: 2.653 (Simulation time: 00 hr 19 min 04 sec)
Heartbeat CPU 0 instructions: 205501309 cycles: 71113639 heartbeat IPC: 2.808 cumulative IPC: 2.653 (Simulation time: 00 hr 19 min 06 sec)
Heartbeat CPU 0 instructions: 206001311 cycles: 71315529 heartbeat IPC: 2.477 cumulative IPC: 2.653 (Simulation time: 00 hr 19 min 09 sec)
Heartbeat CPU 0 instructions: 206501317 cycles: 71502871 heartbeat IPC: 2.669 cumulative IPC: 2.653 (Simulation time: 00 hr 19 min 12 sec)
Heartbeat CPU 0 instructions: 207001324 cycles: 71704861 heartbeat IPC: 2.475 cumulative IPC: 2.652 (Simulation time: 00 hr 19 min 15 sec)
Heartbeat CPU 0 instructions: 207501330 cycles: 71906280 heartbeat IPC: 2.482 cumulative IPC: 2.652 (Simulation time: 00 hr 19 min 18 sec)
Heartbeat CPU 0 instructions: 208001332 cycles: 72097495 heartbeat IPC: 2.615 cumulative IPC: 2.651 (Simulation time: 00 hr 19 min 21 sec)
Heartbeat CPU 0 instructions: 208501334 cycles: 72274164 heartbeat IPC: 2.83 cumulative IPC: 2.652 (Simulation time: 00 hr 19 min 23 sec)
Heartbeat CPU 0 instructions: 209001334 cycles: 72474376 heartbeat IPC: 2.497 cumulative IPC: 2.651 (Simulation time: 00 hr 19 min 26 sec)
Heartbeat CPU 0 instructions: 209501338 cycles: 72662795 heartbeat IPC: 2.654 cumulative IPC: 2.651 (Simulation time: 00 hr 19 min 29 sec)
Heartbeat CPU 0 instructions: 210001343 cycles: 72865203 heartbeat IPC: 2.47 cumulative IPC: 2.651 (Simulation time: 00 hr 19 min 32 sec)
Heartbeat CPU 0 instructions: 210501343 cycles: 73067485 heartbeat IPC: 2.472 cumulative IPC: 2.65 (Simulation time: 00 hr 19 min 35 sec)
Heartbeat CPU 0 instructions: 211001348 cycles: 73269748 heartbeat IPC: 2.472 cumulative IPC: 2.65 (Simulation time: 00 hr 19 min 38 sec)
Heartbeat CPU 0 instructions: 211501349 cycles: 73433102 heartbeat IPC: 3.061 cumulative IPC: 2.651 (Simulation time: 00 hr 19 min 40 sec)
Heartbeat CPU 0 instructions: 212001356 cycles: 73635059 heartbeat IPC: 2.476 cumulative IPC: 2.65 (Simulation time: 00 hr 19 min 43 sec)
Heartbeat CPU 0 instructions: 212501359 cycles: 73836476 heartbeat IPC: 2.482 cumulative IPC: 2.65 (Simulation time: 00 hr 19 min 46 sec)
Heartbeat CPU 0 instructions: 213001366 cycles: 74025128 heartbeat IPC: 2.65 cumulative IPC: 2.65 (Simulation time: 00 hr 19 min 49 sec)
Heartbeat CPU 0 instructions: 213501372 cycles: 74226287 heartbeat IPC: 2.486 cumulative IPC: 2.649 (Simulation time: 00 hr 19 min 52 sec)
Heartbeat CPU 0 instructions: 214001376 cycles: 74428377 heartbeat IPC: 2.474 cumulative IPC: 2.648 (Simulation time: 00 hr 19 min 55 sec)
Heartbeat CPU 0 instructions: 214501377 cycles: 74595582 heartbeat IPC: 2.99 cumulative IPC: 2.649 (Simulation time: 00 hr 19 min 58 sec)
Heartbeat CPU 0 instructions: 215001377 cycles: 74795351 heartbeat IPC: 2.503 cumulative IPC: 2.649 (Simulation time: 00 hr 20 min 00 sec)
Heartbeat CPU 0 instructions: 215501380 cycles: 74996841 heartbeat IPC: 2.482 cumulative IPC: 2.648 (Simulation time: 00 hr 20 min 03 sec)
Heartbeat CPU 0 instructions: 216001381 cycles: 75186382 heartbeat IPC: 2.638 cumulative IPC: 2.648 (Simulation time: 00 hr 20 min 06 sec)
Heartbeat CPU 0 instructions: 216501385 cycles: 75390419 heartbeat IPC: 2.451 cumulative IPC: 2.648 (Simulation time: 00 hr 20 min 09 sec)
Heartbeat CPU 0 instructions: 217001390 cycles: 75576396 heartbeat IPC: 2.689 cumulative IPC: 2.648 (Simulation time: 00 hr 20 min 12 sec)
Heartbeat CPU 0 instructions: 217501390 cycles: 75726218 heartbeat IPC: 3.337 cumulative IPC: 2.649 (Simulation time: 00 hr 20 min 14 sec)
Heartbeat CPU 0 instructions: 218001395 cycles: 75876748 heartbeat IPC: 3.322 cumulative IPC: 2.651 (Simulation time: 00 hr 20 min 17 sec)
Heartbeat CPU 0 instructions: 218501400 cycles: 76037410 heartbeat IPC: 3.112 cumulative IPC: 2.652 (Simulation time: 00 hr 20 min 19 sec)
Heartbeat CPU 0 instructions: 219001402 cycles: 76191608 heartbeat IPC: 3.243 cumulative IPC: 2.654 (Simulation time: 00 hr 20 min 22 sec)
Heartbeat CPU 0 instructions: 219501404 cycles: 76375172 heartbeat IPC: 2.724 cumulative IPC: 2.654 (Simulation time: 00 hr 20 min 25 sec)
Heartbeat CPU 0 instructions: 220001410 cycles: 76566441 heartbeat IPC: 2.614 cumulative IPC: 2.654 (Simulation time: 00 hr 20 min 27 sec)
Heartbeat CPU 0 instructions: 220501411 cycles: 76759013 heartbeat IPC: 2.596 cumulative IPC: 2.654 (Simulation time: 00 hr 20 min 30 sec)
Heartbeat CPU 0 instructions: 221001416 cycles: 76917882 heartbeat IPC: 3.147 cumulative IPC: 2.655 (Simulation time: 00 hr 20 min 33 sec)
Heartbeat CPU 0 instructions: 221501422 cycles: 77118798 heartbeat IPC: 2.489 cumulative IPC: 2.654 (Simulation time: 00 hr 20 min 36 sec)
Heartbeat CPU 0 instructions: 222001423 cycles: 77320838 heartbeat IPC: 2.475 cumulative IPC: 2.654 (Simulation time: 00 hr 20 min 39 sec)
Heartbeat CPU 0 instructions: 222501425 cycles: 77506083 heartbeat IPC: 2.699 cumulative IPC: 2.654 (Simulation time: 00 hr 20 min 41 sec)
Heartbeat CPU 0 instructions: 223001428 cycles: 77662869 heartbeat IPC: 3.189 cumulative IPC: 2.655 (Simulation time: 00 hr 20 min 44 sec)
Heartbeat CPU 0 instructions: 223501432 cycles: 77820779 heartbeat IPC: 3.166 cumulative IPC: 2.656 (Simulation time: 00 hr 20 min 46 sec)
Heartbeat CPU 0 instructions: 224001439 cycles: 77966381 heartbeat IPC: 3.434 cumulative IPC: 2.658 (Simulation time: 00 hr 20 min 49 sec)
Heartbeat CPU 0 instructions: 224501443 cycles: 78116515 heartbeat IPC: 3.33 cumulative IPC: 2.66 (Simulation time: 00 hr 20 min 51 sec)
Heartbeat CPU 0 instructions: 225001444 cycles: 78266969 heartbeat IPC: 3.323 cumulative IPC: 2.661 (Simulation time: 00 hr 20 min 54 sec)
Heartbeat CPU 0 instructions: 225501448 cycles: 78416983 heartbeat IPC: 3.333 cumulative IPC: 2.663 (Simulation time: 00 hr 20 min 56 sec)
Heartbeat CPU 0 instructions: 226001452 cycles: 78598507 heartbeat IPC: 2.754 cumulative IPC: 2.663 (Simulation time: 00 hr 20 min 59 sec)
Heartbeat CPU 0 instructions: 226501453 cycles: 78797441 heartbeat IPC: 2.513 cumulative IPC: 2.662 (Simulation time: 00 hr 21 min 02 sec)
Heartbeat CPU 0 instructions: 227001456 cycles: 78970780 heartbeat IPC: 2.885 cumulative IPC: 2.663 (Simulation time: 00 hr 21 min 04 sec)
Heartbeat CPU 0 instructions: 227501456 cycles: 79153892 heartbeat IPC: 2.731 cumulative IPC: 2.663 (Simulation time: 00 hr 21 min 07 sec)
Heartbeat CPU 0 instructions: 228001457 cycles: 79350653 heartbeat IPC: 2.541 cumulative IPC: 2.663 (Simulation time: 00 hr 21 min 10 sec)
Heartbeat CPU 0 instructions: 228501459 cycles: 79545123 heartbeat IPC: 2.571 cumulative IPC: 2.663 (Simulation time: 00 hr 21 min 13 sec)
Heartbeat CPU 0 instructions: 229001462 cycles: 79724513 heartbeat IPC: 2.787 cumulative IPC: 2.663 (Simulation time: 00 hr 21 min 15 sec)
Heartbeat CPU 0 instructions: 229501466 cycles: 79917683 heartbeat IPC: 2.588 cumulative IPC: 2.663 (Simulation time: 00 hr 21 min 18 sec)
Heartbeat CPU 0 instructions: 230001470 cycles: 80089792 heartbeat IPC: 2.905 cumulative IPC: 2.663 (Simulation time: 00 hr 21 min 21 sec)
Heartbeat CPU 0 instructions: 230501476 cycles: 80266181 heartbeat IPC: 2.835 cumulative IPC: 2.664 (Simulation time: 00 hr 21 min 24 sec)
Heartbeat CPU 0 instructions: 231001482 cycles: 80459017 heartbeat IPC: 2.593 cumulative IPC: 2.664 (Simulation time: 00 hr 21 min 26 sec)
Heartbeat CPU 0 instructions: 231501482 cycles: 80650706 heartbeat IPC: 2.608 cumulative IPC: 2.663 (Simulation time: 00 hr 21 min 29 sec)
Heartbeat CPU 0 instructions: 232001483 cycles: 80824089 heartbeat IPC: 2.884 cumulative IPC: 2.664 (Simulation time: 00 hr 21 min 32 sec)
Heartbeat CPU 0 instructions: 232501485 cycles: 81014916 heartbeat IPC: 2.62 cumulative IPC: 2.664 (Simulation time: 00 hr 21 min 35 sec)
Heartbeat CPU 0 instructions: 233001491 cycles: 81190773 heartbeat IPC: 2.843 cumulative IPC: 2.664 (Simulation time: 00 hr 21 min 37 sec)
Heartbeat CPU 0 instructions: 233501493 cycles: 81369120 heartbeat IPC: 2.804 cumulative IPC: 2.665 (Simulation time: 00 hr 21 min 40 sec)
Heartbeat CPU 0 instructions: 234001499 cycles: 81545253 heartbeat IPC: 2.839 cumulative IPC: 2.665 (Simulation time: 00 hr 21 min 43 sec)
Heartbeat CPU 0 instructions: 234501503 cycles: 81734698 heartbeat IPC: 2.639 cumulative IPC: 2.665 (Simulation time: 00 hr 21 min 46 sec)
Heartbeat CPU 0 instructions: 235001508 cycles: 81926808 heartbeat IPC: 2.603 cumulative IPC: 2.665 (Simulation time: 00 hr 21 min 48 sec)
Heartbeat CPU 0 instructions: 235501508 cycles: 82098906 heartbeat IPC: 2.905 cumulative IPC: 2.666 (Simulation time: 00 hr 21 min 51 sec)
Heartbeat CPU 0 instructions: 236001510 cycles: 82286995 heartbeat IPC: 2.658 cumulative IPC: 2.665 (Simulation time: 00 hr 21 min 54 sec)
Heartbeat CPU 0 instructions: 236501516 cycles: 82458378 heartbeat IPC: 2.917 cumulative IPC: 2.666 (Simulation time: 00 hr 21 min 56 sec)
Heartbeat CPU 0 instructions: 237001520 cycles: 82634674 heartbeat IPC: 2.836 cumulative IPC: 2.667 (Simulation time: 00 hr 21 min 59 sec)
Heartbeat CPU 0 instructions: 237501524 cycles: 82825052 heartbeat IPC: 2.626 cumulative IPC: 2.666 (Simulation time: 00 hr 22 min 02 sec)
Heartbeat CPU 0 instructions: 238001529 cycles: 83013905 heartbeat IPC: 2.648 cumulative IPC: 2.666 (Simulation time: 00 hr 22 min 05 sec)
Heartbeat CPU 0 instructions: 238501529 cycles: 83188111 heartbeat IPC: 2.87 cumulative IPC: 2.667 (Simulation time: 00 hr 22 min 07 sec)
Heartbeat CPU 0 instructions: 239001533 cycles: 83379952 heartbeat IPC: 2.606 cumulative IPC: 2.667 (Simulation time: 00 hr 22 min 10 sec)
Heartbeat CPU 0 instructions: 239501538 cycles: 83551804 heartbeat IPC: 2.91 cumulative IPC: 2.667 (Simulation time: 00 hr 22 min 13 sec)
Heartbeat CPU 0 instructions: 240001541 cycles: 83745801 heartbeat IPC: 2.577 cumulative IPC: 2.667 (Simulation time: 00 hr 22 min 16 sec)
Heartbeat CPU 0 instructions: 240501543 cycles: 83929073 heartbeat IPC: 2.728 cumulative IPC: 2.667 (Simulation time: 00 hr 22 min 18 sec)
Heartbeat CPU 0 instructions: 241001547 cycles: 84120351 heartbeat IPC: 2.614 cumulative IPC: 2.667 (Simulation time: 00 hr 22 min 21 sec)
Heartbeat CPU 0 instructions: 241501548 cycles: 84317870 heartbeat IPC: 2.531 cumulative IPC: 2.667 (Simulation time: 00 hr 22 min 24 sec)
Heartbeat CPU 0 instructions: 242001554 cycles: 84505255 heartbeat IPC: 2.668 cumulative IPC: 2.667 (Simulation time: 00 hr 22 min 27 sec)
Heartbeat CPU 0 instructions: 242501558 cycles: 84679960 heartbeat IPC: 2.862 cumulative IPC: 2.667 (Simulation time: 00 hr 22 min 30 sec)
Heartbeat CPU 0 instructions: 243001560 cycles: 84880365 heartbeat IPC: 2.495 cumulative IPC: 2.667 (Simulation time: 00 hr 22 min 33 sec)
Heartbeat CPU 0 instructions: 243501566 cycles: 85065253 heartbeat IPC: 2.704 cumulative IPC: 2.667 (Simulation time: 00 hr 22 min 35 sec)
Heartbeat CPU 0 instructions: 244001567 cycles: 85263884 heartbeat IPC: 2.517 cumulative IPC: 2.666 (Simulation time: 00 hr 22 min 38 sec)
Heartbeat CPU 0 instructions: 244501571 cycles: 85464235 heartbeat IPC: 2.496 cumulative IPC: 2.666 (Simulation time: 00 hr 22 min 41 sec)
Heartbeat CPU 0 instructions: 245001575 cycles: 85659130 heartbeat IPC: 2.566 cumulative IPC: 2.666 (Simulation time: 00 hr 22 min 44 sec)
Heartbeat CPU 0 instructions: 245501579 cycles: 85835413 heartbeat IPC: 2.836 cumulative IPC: 2.666 (Simulation time: 00 hr 22 min 47 sec)
Heartbeat CPU 0 instructions: 246001583 cycles: 86037517 heartbeat IPC: 2.474 cumulative IPC: 2.666 (Simulation time: 00 hr 22 min 50 sec)
Heartbeat CPU 0 instructions: 246501587 cycles: 86236331 heartbeat IPC: 2.515 cumulative IPC: 2.665 (Simulation time: 00 hr 22 min 53 sec)
Heartbeat CPU 0 instructions: 247001588 cycles: 86430853 heartbeat IPC: 2.57 cumulative IPC: 2.665 (Simulation time: 00 hr 22 min 55 sec)
Heartbeat CPU 0 instructions: 247501590 cycles: 86632775 heartbeat IPC: 2.476 cumulative IPC: 2.664 (Simulation time: 00 hr 22 min 58 sec)
Heartbeat CPU 0 instructions: 248001595 cycles: 86859425 heartbeat IPC: 2.206 cumulative IPC: 2.663 (Simulation time: 00 hr 23 min 01 sec)
Heartbeat CPU 0 instructions: 248501596 cycles: 87041595 heartbeat IPC: 2.745 cumulative IPC: 2.663 (Simulation time: 00 hr 23 min 04 sec)
Heartbeat CPU 0 instructions: 249001603 cycles: 87232012 heartbeat IPC: 2.626 cumulative IPC: 2.663 (Simulation time: 00 hr 23 min 07 sec)
Heartbeat CPU 0 instructions: 249501606 cycles: 87433049 heartbeat IPC: 2.487 cumulative IPC: 2.663 (Simulation time: 00 hr 23 min 10 sec)
Simulation finished CPU 0 instructions: 200000004 cycles: 75119076 cumulative IPC: 2.662 (Simulation time: 00 hr 23 min 13 sec)
Simulation complete CPU 0 instructions: 200000004 cycles: 75119076 cumulative IPC: 2.662 (Simulation time: 00 hr 23 min 13 sec)

ChampSim completed all CPUs

=== Simulation ===
CPU 0 runs /local-ssd/ben/dpc4-traces/ai-ml/clip_trace_1.champsimtrace.gz

Region of Interest Statistics

CPU 0 cumulative IPC: 2.662 instructions: 200000004 cycles: 75119076
CPU 0 Branch Prediction Accuracy: 97.71% MPKI: 1.55 Average ROB Occupancy at Mispredict: 285.9
Branch type MPKI
BRANCH_DIRECT_JUMP: 0
BRANCH_INDIRECT: 0
BRANCH_CONDITIONAL: 1.55
BRANCH_DIRECT_CALL: 0
BRANCH_INDIRECT_CALL: 0
BRANCH_RETURN: 0

cpu0->cpu0_STLB TOTAL        ACCESS:      15212 HIT:       3461 MISS:      11751 MSHR_MERGE:          0
cpu0->cpu0_STLB LOAD         ACCESS:      15212 HIT:       3461 MISS:      11751 MSHR_MERGE:          0
cpu0->cpu0_STLB RFO          ACCESS:          0 HIT:          0 MISS:          0 MSHR_MERGE:          0
cpu0->cpu0_STLB PREFETCH     ACCESS:          0 HIT:          0 MISS:          0 MSHR_MERGE:          0
cpu0->cpu0_STLB WRITE        ACCESS:          0 HIT:          0 MISS:          0 MSHR_MERGE:          0
cpu0->cpu0_STLB TRANSLATION  ACCESS:          0 HIT:          0 MISS:          0 MSHR_MERGE:          0
cpu0->cpu0_STLB PREFETCH REQUESTED:          0 ISSUED:          0 USEFUL:          0 USELESS:          0
cpu0->cpu0_STLB AVERAGE MISS LATENCY: 82.09 cycles
cpu0->cpu0_L2C TOTAL        ACCESS:    9872211 HIT:    6164465 MISS:    3707746 MSHR_MERGE:    2958783
cpu0->cpu0_L2C LOAD         ACCESS:     682450 HIT:     568633 MISS:     113817 MSHR_MERGE:      54374
cpu0->cpu0_L2C RFO          ACCESS:      29755 HIT:      11589 MISS:      18166 MSHR_MERGE:          0
cpu0->cpu0_L2C PREFETCH     ACCESS:    9126349 HIT:    5552178 MISS:    3574171 MSHR_MERGE:    2904409
cpu0->cpu0_L2C WRITE        ACCESS:      31108 HIT:      31102 MISS:          6 MSHR_MERGE:          0
cpu0->cpu0_L2C TRANSLATION  ACCESS:       2549 HIT:        963 MISS:       1586 MSHR_MERGE:          0
cpu0->cpu0_L2C PREFETCH REQUESTED:   10320393 ISSUED:    7528387 USEFUL:     246477 USELESS:     324478
cpu0->cpu0_L2C AVERAGE MISS LATENCY: 429.4 cycles
cpu0->cpu0_L1I TOTAL        ACCESS:   22910393 HIT:   22910393 MISS:          0 MSHR_MERGE:          0
cpu0->cpu0_L1I LOAD         ACCESS:   22910393 HIT:   22910393 MISS:          0 MSHR_MERGE:          0
cpu0->cpu0_L1I RFO          ACCESS:          0 HIT:          0 MISS:          0 MSHR_MERGE:          0
cpu0->cpu0_L1I PREFETCH     ACCESS:          0 HIT:          0 MISS:          0 MSHR_MERGE:          0
cpu0->cpu0_L1I WRITE        ACCESS:          0 HIT:          0 MISS:          0 MSHR_MERGE:          0
cpu0->cpu0_L1I TRANSLATION  ACCESS:          0 HIT:          0 MISS:          0 MSHR_MERGE:          0
cpu0->cpu0_L1I PREFETCH REQUESTED:          0 ISSUED:          0 USEFUL:          0 USELESS:          0
cpu0->cpu0_L1I AVERAGE MISS LATENCY: - cycles
cpu0->cpu0_L1D TOTAL        ACCESS:   59514379 HIT:   55380526 MISS:    4133853 MSHR_MERGE:    1821130
cpu0->cpu0_L1D LOAD         ACCESS:   48232456 HIT:   45938052 MISS:    2294404 MSHR_MERGE:    1611954
cpu0->cpu0_L1D RFO          ACCESS:          0 HIT:          0 MISS:          0 MSHR_MERGE:          0
cpu0->cpu0_L1D PREFETCH     ACCESS:   10504492 HIT:    8715513 MISS:    1788979 MSHR_MERGE:     191010
cpu0->cpu0_L1D WRITE        ACCESS:     753928 HIT:     706007 MISS:      47921 MSHR_MERGE:      18166
cpu0->cpu0_L1D TRANSLATION  ACCESS:      23503 HIT:      20954 MISS:       2549 MSHR_MERGE:          0
cpu0->cpu0_L1D PREFETCH REQUESTED:   11896326 ISSUED:   10504486 USEFUL:    1578731 USELESS:      19230
cpu0->cpu0_L1D AVERAGE MISS LATENCY: 206 cycles
cpu0->cpu0_ITLB TOTAL        ACCESS:   22804306 HIT:   22804306 MISS:          0 MSHR_MERGE:          0
cpu0->cpu0_ITLB LOAD         ACCESS:   22804306 HIT:   22804306 MISS:          0 MSHR_MERGE:          0
cpu0->cpu0_ITLB RFO          ACCESS:          0 HIT:          0 MISS:          0 MSHR_MERGE:          0
cpu0->cpu0_ITLB PREFETCH     ACCESS:          0 HIT:          0 MISS:          0 MSHR_MERGE:          0
cpu0->cpu0_ITLB WRITE        ACCESS:          0 HIT:          0 MISS:          0 MSHR_MERGE:          0
cpu0->cpu0_ITLB TRANSLATION  ACCESS:          0 HIT:          0 MISS:          0 MSHR_MERGE:          0
cpu0->cpu0_ITLB PREFETCH REQUESTED:          0 ISSUED:          0 USEFUL:          0 USELESS:          0
cpu0->cpu0_ITLB AVERAGE MISS LATENCY: - cycles
cpu0->cpu0_DTLB TOTAL        ACCESS:   49872549 HIT:   49807184 MISS:      65365 MSHR_MERGE:      50153
cpu0->cpu0_DTLB LOAD         ACCESS:   49872549 HIT:   49807184 MISS:      65365 MSHR_MERGE:      50153
cpu0->cpu0_DTLB RFO          ACCESS:          0 HIT:          0 MISS:          0 MSHR_MERGE:          0
cpu0->cpu0_DTLB PREFETCH     ACCESS:          0 HIT:          0 MISS:          0 MSHR_MERGE:          0
cpu0->cpu0_DTLB WRITE        ACCESS:          0 HIT:          0 MISS:          0 MSHR_MERGE:          0
cpu0->cpu0_DTLB TRANSLATION  ACCESS:          0 HIT:          0 MISS:          0 MSHR_MERGE:          0
cpu0->cpu0_DTLB PREFETCH REQUESTED:          0 ISSUED:          0 USEFUL:          0 USELESS:          0
cpu0->cpu0_DTLB AVERAGE MISS LATENCY: 69.19 cycles
cpu0->LLC TOTAL        ACCESS:     767156 HIT:     116862 MISS:     650294 MSHR_MERGE:          0
cpu0->LLC LOAD         ACCESS:      59443 HIT:      12047 MISS:      47396 MSHR_MERGE:          0
cpu0->LLC RFO          ACCESS:      18166 HIT:          0 MISS:      18166 MSHR_MERGE:          0
cpu0->LLC PREFETCH     ACCESS:     669762 HIT:     101790 MISS:     567972 MSHR_MERGE:          0
cpu0->LLC WRITE        ACCESS:      18199 HIT:       2748 MISS:      15451 MSHR_MERGE:          0
cpu0->LLC TRANSLATION  ACCESS:       1586 HIT:        277 MISS:       1309 MSHR_MERGE:          0
cpu0->LLC PREFETCH REQUESTED:          0 ISSUED:          0 USEFUL:          0 USELESS:          0
cpu0->LLC AVERAGE MISS LATENCY: 365.4 cycles

DRAM Statistics

Channel 0 RQ ROW_BUFFER_HIT:     234602
  ROW_BUFFER_MISS:     400241
  AVG DBUS CONGESTED CYCLE: 4.026
Channel 0 WQ ROW_BUFFER_HIT:        397
  ROW_BUFFER_MISS:      14790
  FULL:          0
Channel 0 REFRESHES ISSUED:       6260
