[VMEM] WARNING: physical memory size is smaller than virtual memory size.

*** ChampSim Multicore Out-of-Order Simulator ***
Warmup Instructions: 50000000
Simulation Instructions: 200000000
Number of CPUs: 1
Page size: 4096
Core 0: /local-ssd/ben/dpc4-traces/ai-ml/clip_trace_3.champsimtrace.gz
 L1D Berti prefetcher
Off-chip DRAM Size: 64 GiB Channels: 1 Width: 64-bit Data Rate: 800 MT/s
Heartbeat CPU 0 instructions: 500000 cycles: 129665 heartbeat IPC: 3.856 cumulative IPC: 3.856 (Simulation time: 00 hr 00 min 03 sec)
Heartbeat CPU 0 instructions: 1000000 cycles: 255172 heartbeat IPC: 3.984 cumulative IPC: 3.919 (Simulation time: 00 hr 00 min 06 sec)
Heartbeat CPU 0 instructions: 1500004 cycles: 380777 heartbeat IPC: 3.981 cumulative IPC: 3.939 (Simulation time: 00 hr 00 min 08 sec)
Heartbeat CPU 0 instructions: 2000008 cycles: 505766 heartbeat IPC: 4 cumulative IPC: 3.954 (Simulation time: 00 hr 00 min 11 sec)
Heartbeat CPU 0 instructions: 2500012 cycles: 629027 heartbeat IPC: 4.056 cumulative IPC: 3.974 (Simulation time: 00 hr 00 min 13 sec)
Heartbeat CPU 0 instructions: 3000013 cycles: 754259 heartbeat IPC: 3.993 cumulative IPC: 3.977 (Simulation time: 00 hr 00 min 16 sec)
Heartbeat CPU 0 instructions: 3500014 cycles: 879411 heartbeat IPC: 3.995 cumulative IPC: 3.98 (Simulation time: 00 hr 00 min 19 sec)
Heartbeat CPU 0 instructions: 4000021 cycles: 1004647 heartbeat IPC: 3.993 cumulative IPC: 3.982 (Simulation time: 00 hr 00 min 21 sec)
Heartbeat CPU 0 instructions: 4500022 cycles: 1130348 heartbeat IPC: 3.978 cumulative IPC: 3.981 (Simulation time: 00 hr 00 min 24 sec)
Heartbeat CPU 0 instructions: 5000026 cycles: 1255346 heartbeat IPC: 4 cumulative IPC: 3.983 (Simulation time: 00 hr 00 min 26 sec)
Heartbeat CPU 0 instructions: 5500032 cycles: 1379188 heartbeat IPC: 4.037 cumulative IPC: 3.988 (Simulation time: 00 hr 00 min 29 sec)
Heartbeat CPU 0 instructions: 6000034 cycles: 1504127 heartbeat IPC: 4.002 cumulative IPC: 3.989 (Simulation time: 00 hr 00 min 32 sec)
Heartbeat CPU 0 instructions: 6500034 cycles: 1629388 heartbeat IPC: 3.992 cumulative IPC: 3.989 (Simulation time: 00 hr 00 min 34 sec)
Heartbeat CPU 0 instructions: 7000041 cycles: 1754686 heartbeat IPC: 3.991 cumulative IPC: 3.989 (Simulation time: 00 hr 00 min 37 sec)
Heartbeat CPU 0 instructions: 7500043 cycles: 1879866 heartbeat IPC: 3.994 cumulative IPC: 3.99 (Simulation time: 00 hr 00 min 39 sec)
Heartbeat CPU 0 instructions: 8000047 cycles: 2005094 heartbeat IPC: 3.993 cumulative IPC: 3.99 (Simulation time: 00 hr 00 min 42 sec)
Heartbeat CPU 0 instructions: 8500050 cycles: 2129008 heartbeat IPC: 4.035 cumulative IPC: 3.992 (Simulation time: 00 hr 00 min 44 sec)
Heartbeat CPU 0 instructions: 9000051 cycles: 2253879 heartbeat IPC: 4.004 cumulative IPC: 3.993 (Simulation time: 00 hr 00 min 47 sec)
Heartbeat CPU 0 instructions: 9500051 cycles: 2379096 heartbeat IPC: 3.993 cumulative IPC: 3.993 (Simulation time: 00 hr 00 min 50 sec)
Heartbeat CPU 0 instructions: 10000055 cycles: 2504298 heartbeat IPC: 3.994 cumulative IPC: 3.993 (Simulation time: 00 hr 00 min 52 sec)
Heartbeat CPU 0 instructions: 10500057 cycles: 2629825 heartbeat IPC: 3.983 cumulative IPC: 3.993 (Simulation time: 00 hr 00 min 55 sec)
Heartbeat CPU 0 instructions: 11000060 cycles: 2754835 heartbeat IPC: 4 cumulative IPC: 3.993 (Simulation time: 00 hr 00 min 57 sec)
Heartbeat CPU 0 instructions: 11500067 cycles: 2878727 heartbeat IPC: 4.036 cumulative IPC: 3.995 (Simulation time: 00 hr 01 min 00 sec)
Heartbeat CPU 0 instructions: 12000068 cycles: 3004020 heartbeat IPC: 3.991 cumulative IPC: 3.995 (Simulation time: 00 hr 01 min 03 sec)
Heartbeat CPU 0 instructions: 12500072 cycles: 3129133 heartbeat IPC: 3.996 cumulative IPC: 3.995 (Simulation time: 00 hr 01 min 05 sec)
Heartbeat CPU 0 instructions: 13000072 cycles: 3254221 heartbeat IPC: 3.997 cumulative IPC: 3.995 (Simulation time: 00 hr 01 min 08 sec)
Heartbeat CPU 0 instructions: 13500072 cycles: 3379070 heartbeat IPC: 4.005 cumulative IPC: 3.995 (Simulation time: 00 hr 01 min 10 sec)
Heartbeat CPU 0 instructions: 14000074 cycles: 3502571 heartbeat IPC: 4.049 cumulative IPC: 3.997 (Simulation time: 00 hr 01 min 13 sec)
Heartbeat CPU 0 instructions: 14500077 cycles: 3623925 heartbeat IPC: 4.12 cumulative IPC: 4.001 (Simulation time: 00 hr 01 min 16 sec)
Heartbeat CPU 0 instructions: 15000083 cycles: 3745347 heartbeat IPC: 4.118 cumulative IPC: 4.005 (Simulation time: 00 hr 01 min 18 sec)
Heartbeat CPU 0 instructions: 15500084 cycles: 3867597 heartbeat IPC: 4.09 cumulative IPC: 4.008 (Simulation time: 00 hr 01 min 21 sec)
Heartbeat CPU 0 instructions: 16000088 cycles: 3988921 heartbeat IPC: 4.121 cumulative IPC: 4.011 (Simulation time: 00 hr 01 min 23 sec)
Heartbeat CPU 0 instructions: 16500089 cycles: 4110191 heartbeat IPC: 4.123 cumulative IPC: 4.014 (Simulation time: 00 hr 01 min 26 sec)
Heartbeat CPU 0 instructions: 17000092 cycles: 4231588 heartbeat IPC: 4.119 cumulative IPC: 4.017 (Simulation time: 00 hr 01 min 28 sec)
Heartbeat CPU 0 instructions: 17500097 cycles: 4352978 heartbeat IPC: 4.119 cumulative IPC: 4.02 (Simulation time: 00 hr 01 min 31 sec)
Heartbeat CPU 0 instructions: 18000098 cycles: 4474328 heartbeat IPC: 4.12 cumulative IPC: 4.023 (Simulation time: 00 hr 01 min 33 sec)
Heartbeat CPU 0 instructions: 18500105 cycles: 4595581 heartbeat IPC: 4.124 cumulative IPC: 4.026 (Simulation time: 00 hr 01 min 36 sec)
Heartbeat CPU 0 instructions: 19000105 cycles: 4716792 heartbeat IPC: 4.125 cumulative IPC: 4.028 (Simulation time: 00 hr 01 min 38 sec)
Heartbeat CPU 0 instructions: 19500108 cycles: 4838090 heartbeat IPC: 4.122 cumulative IPC: 4.031 (Simulation time: 00 hr 01 min 41 sec)
Heartbeat CPU 0 instructions: 20000114 cycles: 4959326 heartbeat IPC: 4.124 cumulative IPC: 4.033 (Simulation time: 00 hr 01 min 44 sec)
Heartbeat CPU 0 instructions: 20500119 cycles: 5080612 heartbeat IPC: 4.123 cumulative IPC: 4.035 (Simulation time: 00 hr 01 min 46 sec)
Heartbeat CPU 0 instructions: 21000121 cycles: 5201811 heartbeat IPC: 4.125 cumulative IPC: 4.037 (Simulation time: 00 hr 01 min 49 sec)
Heartbeat CPU 0 instructions: 21500122 cycles: 5323091 heartbeat IPC: 4.123 cumulative IPC: 4.039 (Simulation time: 00 hr 01 min 51 sec)
Heartbeat CPU 0 instructions: 22000122 cycles: 5444219 heartbeat IPC: 4.128 cumulative IPC: 4.041 (Simulation time: 00 hr 01 min 54 sec)
Heartbeat CPU 0 instructions: 22500123 cycles: 5565295 heartbeat IPC: 4.13 cumulative IPC: 4.043 (Simulation time: 00 hr 01 min 56 sec)
Heartbeat CPU 0 instructions: 23000124 cycles: 5686651 heartbeat IPC: 4.12 cumulative IPC: 4.045 (Simulation time: 00 hr 01 min 59 sec)
Heartbeat CPU 0 instructions: 23500131 cycles: 5808040 heartbeat IPC: 4.119 cumulative IPC: 4.046 (Simulation time: 00 hr 02 min 01 sec)
Heartbeat CPU 0 instructions: 24000138 cycles: 5929194 heartbeat IPC: 4.127 cumulative IPC: 4.048 (Simulation time: 00 hr 02 min 04 sec)
Heartbeat CPU 0 instructions: 24500139 cycles: 6050294 heartbeat IPC: 4.129 cumulative IPC: 4.049 (Simulation time: 00 hr 02 min 06 sec)
Heartbeat CPU 0 instructions: 25000143 cycles: 6171510 heartbeat IPC: 4.125 cumulative IPC: 4.051 (Simulation time: 00 hr 02 min 09 sec)
Heartbeat CPU 0 instructions: 25500149 cycles: 6292756 heartbeat IPC: 4.124 cumulative IPC: 4.052 (Simulation time: 00 hr 02 min 12 sec)
Heartbeat CPU 0 instructions: 26000152 cycles: 6413994 heartbeat IPC: 4.124 cumulative IPC: 4.054 (Simulation time: 00 hr 02 min 14 sec)
Heartbeat CPU 0 instructions: 26500152 cycles: 6535364 heartbeat IPC: 4.12 cumulative IPC: 4.055 (Simulation time: 00 hr 02 min 17 sec)
Heartbeat CPU 0 instructions: 27000156 cycles: 6656673 heartbeat IPC: 4.122 cumulative IPC: 4.056 (Simulation time: 00 hr 02 min 19 sec)
Heartbeat CPU 0 instructions: 27500160 cycles: 6778036 heartbeat IPC: 4.12 cumulative IPC: 4.057 (Simulation time: 00 hr 02 min 22 sec)
Heartbeat CPU 0 instructions: 28000164 cycles: 6899294 heartbeat IPC: 4.123 cumulative IPC: 4.058 (Simulation time: 00 hr 02 min 24 sec)
Heartbeat CPU 0 instructions: 28500165 cycles: 7020537 heartbeat IPC: 4.124 cumulative IPC: 4.06 (Simulation time: 00 hr 02 min 27 sec)
Heartbeat CPU 0 instructions: 29000167 cycles: 7141825 heartbeat IPC: 4.122 cumulative IPC: 4.061 (Simulation time: 00 hr 02 min 29 sec)
Heartbeat CPU 0 instructions: 29500171 cycles: 7263846 heartbeat IPC: 4.098 cumulative IPC: 4.061 (Simulation time: 00 hr 02 min 32 sec)
Heartbeat CPU 0 instructions: 30000172 cycles: 7384994 heartbeat IPC: 4.127 cumulative IPC: 4.062 (Simulation time: 00 hr 02 min 34 sec)
Heartbeat CPU 0 instructions: 30500172 cycles: 7506207 heartbeat IPC: 4.125 cumulative IPC: 4.063 (Simulation time: 00 hr 02 min 37 sec)
Heartbeat CPU 0 instructions: 31000173 cycles: 7627526 heartbeat IPC: 4.121 cumulative IPC: 4.064 (Simulation time: 00 hr 02 min 39 sec)
Heartbeat CPU 0 instructions: 31500177 cycles: 7748771 heartbeat IPC: 4.124 cumulative IPC: 4.065 (Simulation time: 00 hr 02 min 42 sec)
Heartbeat CPU 0 instructions: 32000178 cycles: 7870044 heartbeat IPC: 4.123 cumulative IPC: 4.066 (Simulation time: 00 hr 02 min 45 sec)
Heartbeat CPU 0 instructions: 32500185 cycles: 7991335 heartbeat IPC: 4.122 cumulative IPC: 4.067 (Simulation time: 00 hr 02 min 47 sec)
Heartbeat CPU 0 instructions: 33000186 cycles: 8112638 heartbeat IPC: 4.122 cumulative IPC: 4.068 (Simulation time: 00 hr 02 min 50 sec)
Heartbeat CPU 0 instructions: 33500192 cycles: 8233910 heartbeat IPC: 4.123 cumulative IPC: 4.069 (Simulation time: 00 hr 02 min 52 sec)
Heartbeat CPU 0 instructions: 34000197 cycles: 8355150 heartbeat IPC: 4.124 cumulative IPC: 4.069 (Simulation time: 00 hr 02 min 55 sec)
Heartbeat CPU 0 instructions: 34500198 cycles: 8476330 heartbeat IPC: 4.126 cumulative IPC: 4.07 (Simulation time: 00 hr 02 min 57 sec)
Heartbeat CPU 0 instructions: 35000202 cycles: 8597580 heartbeat IPC: 4.124 cumulative IPC: 4.071 (Simulation time: 00 hr 03 min 00 sec)
Heartbeat CPU 0 instructions: 35500207 cycles: 8718828 heartbeat IPC: 4.124 cumulative IPC: 4.072 (Simulation time: 00 hr 03 min 02 sec)
Heartbeat CPU 0 instructions: 36000207 cycles: 8840136 heartbeat IPC: 4.122 cumulative IPC: 4.072 (Simulation time: 00 hr 03 min 05 sec)
Heartbeat CPU 0 instructions: 36500214 cycles: 8961463 heartbeat IPC: 4.121 cumulative IPC: 4.073 (Simulation time: 00 hr 03 min 07 sec)
Heartbeat CPU 0 instructions: 37000218 cycles: 9082816 heartbeat IPC: 4.12 cumulative IPC: 4.074 (Simulation time: 00 hr 03 min 10 sec)
Heartbeat CPU 0 instructions: 37500219 cycles: 9204162 heartbeat IPC: 4.12 cumulative IPC: 4.074 (Simulation time: 00 hr 03 min 12 sec)
Heartbeat CPU 0 instructions: 38000223 cycles: 9325356 heartbeat IPC: 4.126 cumulative IPC: 4.075 (Simulation time: 00 hr 03 min 15 sec)
Heartbeat CPU 0 instructions: 38500224 cycles: 9446568 heartbeat IPC: 4.125 cumulative IPC: 4.076 (Simulation time: 00 hr 03 min 17 sec)
Heartbeat CPU 0 instructions: 39000224 cycles: 9567886 heartbeat IPC: 4.121 cumulative IPC: 4.076 (Simulation time: 00 hr 03 min 20 sec)
Heartbeat CPU 0 instructions: 39500227 cycles: 9689058 heartbeat IPC: 4.126 cumulative IPC: 4.077 (Simulation time: 00 hr 03 min 22 sec)
Heartbeat CPU 0 instructions: 40000231 cycles: 9810278 heartbeat IPC: 4.125 cumulative IPC: 4.077 (Simulation time: 00 hr 03 min 25 sec)
Heartbeat CPU 0 instructions: 40500232 cycles: 9931541 heartbeat IPC: 4.123 cumulative IPC: 4.078 (Simulation time: 00 hr 03 min 28 sec)
Heartbeat CPU 0 instructions: 41000236 cycles: 10052875 heartbeat IPC: 4.121 cumulative IPC: 4.078 (Simulation time: 00 hr 03 min 30 sec)
Heartbeat CPU 0 instructions: 41500237 cycles: 10174135 heartbeat IPC: 4.123 cumulative IPC: 4.079 (Simulation time: 00 hr 03 min 33 sec)
Heartbeat CPU 0 instructions: 42000241 cycles: 10295521 heartbeat IPC: 4.119 cumulative IPC: 4.079 (Simulation time: 00 hr 03 min 35 sec)
Heartbeat CPU 0 instructions: 42500247 cycles: 10416891 heartbeat IPC: 4.12 cumulative IPC: 4.08 (Simulation time: 00 hr 03 min 38 sec)
Heartbeat CPU 0 instructions: 43000249 cycles: 10538063 heartbeat IPC: 4.126 cumulative IPC: 4.08 (Simulation time: 00 hr 03 min 40 sec)
Heartbeat CPU 0 instructions: 43500255 cycles: 10660563 heartbeat IPC: 4.082 cumulative IPC: 4.08 (Simulation time: 00 hr 03 min 43 sec)
Heartbeat CPU 0 instructions: 44000256 cycles: 10781867 heartbeat IPC: 4.122 cumulative IPC: 4.081 (Simulation time: 00 hr 03 min 45 sec)
Heartbeat CPU 0 instructions: 44500257 cycles: 10902894 heartbeat IPC: 4.131 cumulative IPC: 4.082 (Simulation time: 00 hr 03 min 48 sec)
Heartbeat CPU 0 instructions: 45000257 cycles: 11024230 heartbeat IPC: 4.121 cumulative IPC: 4.082 (Simulation time: 00 hr 03 min 50 sec)
Heartbeat CPU 0 instructions: 45500259 cycles: 11145311 heartbeat IPC: 4.129 cumulative IPC: 4.082 (Simulation time: 00 hr 03 min 53 sec)
Heartbeat CPU 0 instructions: 46000263 cycles: 11266750 heartbeat IPC: 4.117 cumulative IPC: 4.083 (Simulation time: 00 hr 03 min 55 sec)
Heartbeat CPU 0 instructions: 46500266 cycles: 11387930 heartbeat IPC: 4.126 cumulative IPC: 4.083 (Simulation time: 00 hr 03 min 58 sec)
Heartbeat CPU 0 instructions: 47000273 cycles: 11509174 heartbeat IPC: 4.124 cumulative IPC: 4.084 (Simulation time: 00 hr 04 min 01 sec)
Heartbeat CPU 0 instructions: 47500273 cycles: 11630422 heartbeat IPC: 4.124 cumulative IPC: 4.084 (Simulation time: 00 hr 04 min 03 sec)
Heartbeat CPU 0 instructions: 48000278 cycles: 11751616 heartbeat IPC: 4.126 cumulative IPC: 4.085 (Simulation time: 00 hr 04 min 06 sec)
Heartbeat CPU 0 instructions: 48500278 cycles: 11872861 heartbeat IPC: 4.124 cumulative IPC: 4.085 (Simulation time: 00 hr 04 min 08 sec)
Heartbeat CPU 0 instructions: 49000285 cycles: 11994166 heartbeat IPC: 4.122 cumulative IPC: 4.085 (Simulation time: 00 hr 04 min 11 sec)
Heartbeat CPU 0 instructions: 49500286 cycles: 12115512 heartbeat IPC: 4.12 cumulative IPC: 4.086 (Simulation time: 00 hr 04 min 13 sec)
Warmup halting CPU 0 at instruction 50000006 cycle 12236704 for remainder of phase
Warmup finished CPU 0 instructions: 50000006 cycles: 12236704 cumulative IPC: 4.086 (Simulation time: 00 hr 04 min 16 sec)
Warmup complete CPU 0 instructions: 50000006 cycles: 12236704 cumulative IPC: 4.086 (Simulation time: 00 hr 04 min 16 sec)
Heartbeat CPU 0 instructions: 50000286 cycles: 12236739 heartbeat IPC: 4.124 cumulative IPC: 8 (Simulation time: 00 hr 04 min 16 sec)
Heartbeat CPU 0 instructions: 50500291 cycles: 12376629 heartbeat IPC: 3.574 cumulative IPC: 3.575 (Simulation time: 00 hr 04 min 18 sec)
Heartbeat CPU 0 instructions: 51000296 cycles: 12510967 heartbeat IPC: 3.722 cumulative IPC: 3.647 (Simulation time: 00 hr 04 min 20 sec)
Heartbeat CPU 0 instructions: 51500300 cycles: 12649030 heartbeat IPC: 3.622 cumulative IPC: 3.639 (Simulation time: 00 hr 04 min 23 sec)
Heartbeat CPU 0 instructions: 52000307 cycles: 12781772 heartbeat IPC: 3.767 cumulative IPC: 3.67 (Simulation time: 00 hr 04 min 25 sec)
Heartbeat CPU 0 instructions: 52500308 cycles: 12923038 heartbeat IPC: 3.539 cumulative IPC: 3.643 (Simulation time: 00 hr 04 min 27 sec)
Heartbeat CPU 0 instructions: 53000312 cycles: 13064664 heartbeat IPC: 3.53 cumulative IPC: 3.624 (Simulation time: 00 hr 04 min 30 sec)
Heartbeat CPU 0 instructions: 53500316 cycles: 13202726 heartbeat IPC: 3.622 cumulative IPC: 3.623 (Simulation time: 00 hr 04 min 32 sec)
Heartbeat CPU 0 instructions: 54000317 cycles: 13345308 heartbeat IPC: 3.507 cumulative IPC: 3.608 (Simulation time: 00 hr 04 min 34 sec)
Heartbeat CPU 0 instructions: 54500317 cycles: 13487825 heartbeat IPC: 3.508 cumulative IPC: 3.597 (Simulation time: 00 hr 04 min 37 sec)
Heartbeat CPU 0 instructions: 55000320 cycles: 13623720 heartbeat IPC: 3.679 cumulative IPC: 3.605 (Simulation time: 00 hr 04 min 39 sec)
Heartbeat CPU 0 instructions: 55500321 cycles: 13765322 heartbeat IPC: 3.531 cumulative IPC: 3.598 (Simulation time: 00 hr 04 min 41 sec)
Heartbeat CPU 0 instructions: 56000326 cycles: 13909229 heartbeat IPC: 3.475 cumulative IPC: 3.588 (Simulation time: 00 hr 04 min 43 sec)
Heartbeat CPU 0 instructions: 56500329 cycles: 14067495 heartbeat IPC: 3.159 cumulative IPC: 3.551 (Simulation time: 00 hr 04 min 46 sec)
Heartbeat CPU 0 instructions: 57000331 cycles: 14239947 heartbeat IPC: 2.899 cumulative IPC: 3.494 (Simulation time: 00 hr 04 min 49 sec)
Heartbeat CPU 0 instructions: 57500333 cycles: 14570201 heartbeat IPC: 1.514 cumulative IPC: 3.214 (Simulation time: 00 hr 04 min 53 sec)
Heartbeat CPU 0 instructions: 58000336 cycles: 14955235 heartbeat IPC: 1.299 cumulative IPC: 2.943 (Simulation time: 00 hr 04 min 58 sec)
Heartbeat CPU 0 instructions: 58500338 cycles: 18760394 heartbeat IPC: 0.1314 cumulative IPC: 1.303 (Simulation time: 00 hr 05 min 39 sec)
Heartbeat CPU 0 instructions: 59000344 cycles: 20842337 heartbeat IPC: 0.2402 cumulative IPC: 1.046 (Simulation time: 00 hr 06 min 01 sec)
Heartbeat CPU 0 instructions: 59500347 cycles: 20995500 heartbeat IPC: 3.265 cumulative IPC: 1.085 (Simulation time: 00 hr 06 min 04 sec)
Heartbeat CPU 0 instructions: 60000351 cycles: 21145744 heartbeat IPC: 3.328 cumulative IPC: 1.122 (Simulation time: 00 hr 06 min 06 sec)
Heartbeat CPU 0 instructions: 60500354 cycles: 21295767 heartbeat IPC: 3.333 cumulative IPC: 1.159 (Simulation time: 00 hr 06 min 08 sec)
Heartbeat CPU 0 instructions: 61000361 cycles: 21443085 heartbeat IPC: 3.394 cumulative IPC: 1.195 (Simulation time: 00 hr 06 min 10 sec)
Heartbeat CPU 0 instructions: 61500366 cycles: 21595506 heartbeat IPC: 3.28 cumulative IPC: 1.229 (Simulation time: 00 hr 06 min 12 sec)
Heartbeat CPU 0 instructions: 62000370 cycles: 21735480 heartbeat IPC: 3.572 cumulative IPC: 1.263 (Simulation time: 00 hr 06 min 14 sec)
Heartbeat CPU 0 instructions: 62500374 cycles: 21881479 heartbeat IPC: 3.425 cumulative IPC: 1.296 (Simulation time: 00 hr 06 min 17 sec)
Heartbeat CPU 0 instructions: 63000377 cycles: 22030391 heartbeat IPC: 3.358 cumulative IPC: 1.327 (Simulation time: 00 hr 06 min 19 sec)
Heartbeat CPU 0 instructions: 63500378 cycles: 22528204 heartbeat IPC: 1.004 cumulative IPC: 1.312 (Simulation time: 00 hr 06 min 24 sec)
Heartbeat CPU 0 instructions: 64000378 cycles: 27693513 heartbeat IPC: 0.0968 cumulative IPC: 0.9058 (Simulation time: 00 hr 07 min 19 sec)
Heartbeat CPU 0 instructions: 64500379 cycles: 32922463 heartbeat IPC: 0.09562 cumulative IPC: 0.701 (Simulation time: 00 hr 08 min 14 sec)
Heartbeat CPU 0 instructions: 65000386 cycles: 33832512 heartbeat IPC: 0.5494 cumulative IPC: 0.6946 (Simulation time: 00 hr 08 min 25 sec)
Heartbeat CPU 0 instructions: 65500391 cycles: 34083044 heartbeat IPC: 1.996 cumulative IPC: 0.7095 (Simulation time: 00 hr 08 min 28 sec)
Heartbeat CPU 0 instructions: 66000397 cycles: 34339421 heartbeat IPC: 1.95 cumulative IPC: 0.7239 (Simulation time: 00 hr 08 min 32 sec)
Heartbeat CPU 0 instructions: 66500401 cycles: 34566482 heartbeat IPC: 2.202 cumulative IPC: 0.7389 (Simulation time: 00 hr 08 min 35 sec)
Heartbeat CPU 0 instructions: 67000402 cycles: 34810751 heartbeat IPC: 2.047 cumulative IPC: 0.7531 (Simulation time: 00 hr 08 min 38 sec)
Heartbeat CPU 0 instructions: 67500408 cycles: 35039812 heartbeat IPC: 2.183 cumulative IPC: 0.7675 (Simulation time: 00 hr 08 min 41 sec)
Heartbeat CPU 0 instructions: 68000409 cycles: 35232514 heartbeat IPC: 2.595 cumulative IPC: 0.7828 (Simulation time: 00 hr 08 min 44 sec)
Heartbeat CPU 0 instructions: 68500416 cycles: 35473293 heartbeat IPC: 2.077 cumulative IPC: 0.7962 (Simulation time: 00 hr 08 min 47 sec)
Heartbeat CPU 0 instructions: 69000422 cycles: 35714246 heartbeat IPC: 2.075 cumulative IPC: 0.8093 (Simulation time: 00 hr 08 min 50 sec)
Heartbeat CPU 0 instructions: 69500425 cycles: 35961824 heartbeat IPC: 2.02 cumulative IPC: 0.8219 (Simulation time: 00 hr 08 min 53 sec)
Heartbeat CPU 0 instructions: 70000427 cycles: 36231137 heartbeat IPC: 1.857 cumulative IPC: 0.8335 (Simulation time: 00 hr 08 min 57 sec)
Heartbeat CPU 0 instructions: 70500429 cycles: 36488276 heartbeat IPC: 1.944 cumulative IPC: 0.8453 (Simulation time: 00 hr 09 min 00 sec)
Heartbeat CPU 0 instructions: 71000436 cycles: 36685871 heartbeat IPC: 2.53 cumulative IPC: 0.8589 (Simulation time: 00 hr 09 min 03 sec)
Heartbeat CPU 0 instructions: 71500439 cycles: 36933017 heartbeat IPC: 2.023 cumulative IPC: 0.8706 (Simulation time: 00 hr 09 min 06 sec)
Heartbeat CPU 0 instructions: 72000441 cycles: 37161768 heartbeat IPC: 2.186 cumulative IPC: 0.8827 (Simulation time: 00 hr 09 min 09 sec)
Heartbeat CPU 0 instructions: 72500447 cycles: 37414128 heartbeat IPC: 1.981 cumulative IPC: 0.8937 (Simulation time: 00 hr 09 min 13 sec)
Heartbeat CPU 0 instructions: 73000452 cycles: 37653622 heartbeat IPC: 2.088 cumulative IPC: 0.9049 (Simulation time: 00 hr 09 min 16 sec)
Heartbeat CPU 0 instructions: 73500456 cycles: 37888638 heartbeat IPC: 2.128 cumulative IPC: 0.9161 (Simulation time: 00 hr 09 min 19 sec)
Heartbeat CPU 0 instructions: 74000459 cycles: 38085825 heartbeat IPC: 2.536 cumulative IPC: 0.9285 (Simulation time: 00 hr 09 min 22 sec)
Heartbeat CPU 0 instructions: 74500461 cycles: 38306822 heartbeat IPC: 2.262 cumulative IPC: 0.9398 (Simulation time: 00 hr 09 min 25 sec)
Heartbeat CPU 0 instructions: 75000468 cycles: 38530388 heartbeat IPC: 2.237 cumulative IPC: 0.9508 (Simulation time: 00 hr 09 min 28 sec)
Heartbeat CPU 0 instructions: 75500468 cycles: 38759116 heartbeat IPC: 2.186 cumulative IPC: 0.9615 (Simulation time: 00 hr 09 min 31 sec)
Heartbeat CPU 0 instructions: 76000469 cycles: 38975964 heartbeat IPC: 2.306 cumulative IPC: 0.9724 (Simulation time: 00 hr 09 min 34 sec)
Heartbeat CPU 0 instructions: 76500473 cycles: 39182012 heartbeat IPC: 2.427 cumulative IPC: 0.9835 (Simulation time: 00 hr 09 min 37 sec)
Heartbeat CPU 0 instructions: 77000475 cycles: 39378364 heartbeat IPC: 2.546 cumulative IPC: 0.9948 (Simulation time: 00 hr 09 min 39 sec)
Heartbeat CPU 0 instructions: 77500481 cycles: 39572621 heartbeat IPC: 2.574 cumulative IPC: 1.006 (Simulation time: 00 hr 09 min 42 sec)
Heartbeat CPU 0 instructions: 78000485 cycles: 39789092 heartbeat IPC: 2.31 cumulative IPC: 1.016 (Simulation time: 00 hr 09 min 45 sec)
Heartbeat CPU 0 instructions: 78500489 cycles: 39999573 heartbeat IPC: 2.376 cumulative IPC: 1.027 (Simulation time: 00 hr 09 min 48 sec)
Heartbeat CPU 0 instructions: 79000490 cycles: 40210454 heartbeat IPC: 2.371 cumulative IPC: 1.037 (Simulation time: 00 hr 09 min 51 sec)
Heartbeat CPU 0 instructions: 79500494 cycles: 40414637 heartbeat IPC: 2.449 cumulative IPC: 1.047 (Simulation time: 00 hr 09 min 54 sec)
Heartbeat CPU 0 instructions: 80000498 cycles: 40621383 heartbeat IPC: 2.418 cumulative IPC: 1.057 (Simulation time: 00 hr 09 min 57 sec)
Heartbeat CPU 0 instructions: 80500500 cycles: 40806742 heartbeat IPC: 2.697 cumulative IPC: 1.068 (Simulation time: 00 hr 10 min 00 sec)
Heartbeat CPU 0 instructions: 81000506 cycles: 41014679 heartbeat IPC: 2.405 cumulative IPC: 1.077 (Simulation time: 00 hr 10 min 02 sec)
Heartbeat CPU 0 instructions: 81500510 cycles: 41218736 heartbeat IPC: 2.45 cumulative IPC: 1.087 (Simulation time: 00 hr 10 min 05 sec)
Heartbeat CPU 0 instructions: 82000511 cycles: 41422177 heartbeat IPC: 2.458 cumulative IPC: 1.096 (Simulation time: 00 hr 10 min 08 sec)
Heartbeat CPU 0 instructions: 82500511 cycles: 41629284 heartbeat IPC: 2.414 cumulative IPC: 1.106 (Simulation time: 00 hr 10 min 11 sec)
Heartbeat CPU 0 instructions: 83000517 cycles: 41835709 heartbeat IPC: 2.422 cumulative IPC: 1.115 (Simulation time: 00 hr 10 min 14 sec)
Heartbeat CPU 0 instructions: 83500521 cycles: 42013887 heartbeat IPC: 2.806 cumulative IPC: 1.125 (Simulation time: 00 hr 10 min 17 sec)
Heartbeat CPU 0 instructions: 84000523 cycles: 42217502 heartbeat IPC: 2.456 cumulative IPC: 1.134 (Simulation time: 00 hr 10 min 19 sec)
Heartbeat CPU 0 instructions: 84500527 cycles: 42423578 heartbeat IPC: 2.426 cumulative IPC: 1.143 (Simulation time: 00 hr 10 min 22 sec)
Heartbeat CPU 0 instructions: 85000533 cycles: 42631030 heartbeat IPC: 2.41 cumulative IPC: 1.152 (Simulation time: 00 hr 10 min 25 sec)
Heartbeat CPU 0 instructions: 85500536 cycles: 42834842 heartbeat IPC: 2.453 cumulative IPC: 1.16 (Simulation time: 00 hr 10 min 28 sec)
Heartbeat CPU 0 instructions: 86000540 cycles: 43039960 heartbeat IPC: 2.438 cumulative IPC: 1.169 (Simulation time: 00 hr 10 min 31 sec)
Heartbeat CPU 0 instructions: 86500544 cycles: 43219418 heartbeat IPC: 2.786 cumulative IPC: 1.178 (Simulation time: 00 hr 10 min 34 sec)
Heartbeat CPU 0 instructions: 87000548 cycles: 43425338 heartbeat IPC: 2.428 cumulative IPC: 1.186 (Simulation time: 00 hr 10 min 36 sec)
Heartbeat CPU 0 instructions: 87500552 cycles: 43629189 heartbeat IPC: 2.453 cumulative IPC: 1.195 (Simulation time: 00 hr 10 min 39 sec)
Heartbeat CPU 0 instructions: 88000557 cycles: 43833729 heartbeat IPC: 2.445 cumulative IPC: 1.203 (Simulation time: 00 hr 10 min 42 sec)
Heartbeat CPU 0 instructions: 88500557 cycles: 44037633 heartbeat IPC: 2.452 cumulative IPC: 1.211 (Simulation time: 00 hr 10 min 45 sec)
Heartbeat CPU 0 instructions: 89000561 cycles: 44241380 heartbeat IPC: 2.454 cumulative IPC: 1.219 (Simulation time: 00 hr 10 min 48 sec)
Heartbeat CPU 0 instructions: 89500565 cycles: 44420720 heartbeat IPC: 2.788 cumulative IPC: 1.227 (Simulation time: 00 hr 10 min 51 sec)
Heartbeat CPU 0 instructions: 90000569 cycles: 44623321 heartbeat IPC: 2.468 cumulative IPC: 1.235 (Simulation time: 00 hr 10 min 53 sec)
Heartbeat CPU 0 instructions: 90500573 cycles: 44826769 heartbeat IPC: 2.458 cumulative IPC: 1.243 (Simulation time: 00 hr 10 min 56 sec)
Heartbeat CPU 0 instructions: 91000574 cycles: 45029218 heartbeat IPC: 2.47 cumulative IPC: 1.25 (Simulation time: 00 hr 10 min 59 sec)
Heartbeat CPU 0 instructions: 91500574 cycles: 45233210 heartbeat IPC: 2.451 cumulative IPC: 1.258 (Simulation time: 00 hr 11 min 02 sec)
Heartbeat CPU 0 instructions: 92000574 cycles: 45436029 heartbeat IPC: 2.465 cumulative IPC: 1.265 (Simulation time: 00 hr 11 min 05 sec)
Heartbeat CPU 0 instructions: 92500575 cycles: 45623532 heartbeat IPC: 2.667 cumulative IPC: 1.273 (Simulation time: 00 hr 11 min 08 sec)
Heartbeat CPU 0 instructions: 93000582 cycles: 45821401 heartbeat IPC: 2.527 cumulative IPC: 1.28 (Simulation time: 00 hr 11 min 10 sec)
Heartbeat CPU 0 instructions: 93500582 cycles: 46026678 heartbeat IPC: 2.436 cumulative IPC: 1.287 (Simulation time: 00 hr 11 min 13 sec)
Heartbeat CPU 0 instructions: 94000587 cycles: 46231577 heartbeat IPC: 2.44 cumulative IPC: 1.294 (Simulation time: 00 hr 11 min 16 sec)
Heartbeat CPU 0 instructions: 94500587 cycles: 46435019 heartbeat IPC: 2.458 cumulative IPC: 1.301 (Simulation time: 00 hr 11 min 19 sec)
Heartbeat CPU 0 instructions: 95000591 cycles: 46638853 heartbeat IPC: 2.453 cumulative IPC: 1.308 (Simulation time: 00 hr 11 min 22 sec)
Heartbeat CPU 0 instructions: 95500596 cycles: 46839063 heartbeat IPC: 2.497 cumulative IPC: 1.315 (Simulation time: 00 hr 11 min 25 sec)
Heartbeat CPU 0 instructions: 96000601 cycles: 47022056 heartbeat IPC: 2.732 cumulative IPC: 1.322 (Simulation time: 00 hr 11 min 27 sec)
Heartbeat CPU 0 instructions: 96500606 cycles: 47228039 heartbeat IPC: 2.427 cumulative IPC: 1.329 (Simulation time: 00 hr 11 min 30 sec)
Heartbeat CPU 0 instructions: 97000609 cycles: 47433044 heartbeat IPC: 2.439 cumulative IPC: 1.335 (Simulation time: 00 hr 11 min 33 sec)
Heartbeat CPU 0 instructions: 97500613 cycles: 47636589 heartbeat IPC: 2.456 cumulative IPC: 1.342 (Simulation time: 00 hr 11 min 36 sec)
Heartbeat CPU 0 instructions: 98000616 cycles: 47840208 heartbeat IPC: 2.456 cumulative IPC: 1.348 (Simulation time: 00 hr 11 min 39 sec)
Heartbeat CPU 0 instructions: 98500617 cycles: 48043994 heartbeat IPC: 2.454 cumulative IPC: 1.354 (Simulation time: 00 hr 11 min 42 sec)
Heartbeat CPU 0 instructions: 99000620 cycles: 48223020 heartbeat IPC: 2.793 cumulative IPC: 1.362 (Simulation time: 00 hr 11 min 44 sec)
Heartbeat CPU 0 instructions: 99500625 cycles: 48427454 heartbeat IPC: 2.446 cumulative IPC: 1.368 (Simulation time: 00 hr 11 min 47 sec)
Heartbeat CPU 0 instructions: 100000627 cycles: 48629992 heartbeat IPC: 2.469 cumulative IPC: 1.374 (Simulation time: 00 hr 11 min 50 sec)
Heartbeat CPU 0 instructions: 100500631 cycles: 48834752 heartbeat IPC: 2.442 cumulative IPC: 1.38 (Simulation time: 00 hr 11 min 53 sec)
Heartbeat CPU 0 instructions: 101000635 cycles: 49037591 heartbeat IPC: 2.465 cumulative IPC: 1.386 (Simulation time: 00 hr 11 min 56 sec)
Heartbeat CPU 0 instructions: 101500642 cycles: 49243306 heartbeat IPC: 2.431 cumulative IPC: 1.392 (Simulation time: 00 hr 11 min 59 sec)
Heartbeat CPU 0 instructions: 102000645 cycles: 49424983 heartbeat IPC: 2.752 cumulative IPC: 1.398 (Simulation time: 00 hr 12 min 01 sec)
Heartbeat CPU 0 instructions: 102500648 cycles: 49630839 heartbeat IPC: 2.429 cumulative IPC: 1.404 (Simulation time: 00 hr 12 min 04 sec)
Heartbeat CPU 0 instructions: 103000650 cycles: 49836178 heartbeat IPC: 2.435 cumulative IPC: 1.41 (Simulation time: 00 hr 12 min 07 sec)
Heartbeat CPU 0 instructions: 103500654 cycles: 50040162 heartbeat IPC: 2.451 cumulative IPC: 1.415 (Simulation time: 00 hr 12 min 10 sec)
Heartbeat CPU 0 instructions: 104000654 cycles: 50246587 heartbeat IPC: 2.422 cumulative IPC: 1.421 (Simulation time: 00 hr 12 min 13 sec)
Heartbeat CPU 0 instructions: 104500659 cycles: 50454289 heartbeat IPC: 2.407 cumulative IPC: 1.426 (Simulation time: 00 hr 12 min 16 sec)
Heartbeat CPU 0 instructions: 105000659 cycles: 50636106 heartbeat IPC: 2.75 cumulative IPC: 1.432 (Simulation time: 00 hr 12 min 18 sec)
Heartbeat CPU 0 instructions: 105500661 cycles: 50838615 heartbeat IPC: 2.469 cumulative IPC: 1.438 (Simulation time: 00 hr 12 min 21 sec)
Heartbeat CPU 0 instructions: 106000667 cycles: 51044579 heartbeat IPC: 2.428 cumulative IPC: 1.443 (Simulation time: 00 hr 12 min 24 sec)
Heartbeat CPU 0 instructions: 106500667 cycles: 51252207 heartbeat IPC: 2.408 cumulative IPC: 1.448 (Simulation time: 00 hr 12 min 27 sec)
Heartbeat CPU 0 instructions: 107000670 cycles: 51457289 heartbeat IPC: 2.438 cumulative IPC: 1.453 (Simulation time: 00 hr 12 min 30 sec)
Heartbeat CPU 0 instructions: 107500670 cycles: 51660057 heartbeat IPC: 2.466 cumulative IPC: 1.459 (Simulation time: 00 hr 12 min 33 sec)
Heartbeat CPU 0 instructions: 108000676 cycles: 51846613 heartbeat IPC: 2.68 cumulative IPC: 1.464 (Simulation time: 00 hr 12 min 36 sec)
Heartbeat CPU 0 instructions: 108500682 cycles: 52043152 heartbeat IPC: 2.544 cumulative IPC: 1.47 (Simulation time: 00 hr 12 min 38 sec)
Heartbeat CPU 0 instructions: 109000684 cycles: 52245912 heartbeat IPC: 2.466 cumulative IPC: 1.475 (Simulation time: 00 hr 12 min 41 sec)
Heartbeat CPU 0 instructions: 109500688 cycles: 52451977 heartbeat IPC: 2.426 cumulative IPC: 1.48 (Simulation time: 00 hr 12 min 44 sec)
Heartbeat CPU 0 instructions: 110000691 cycles: 52656336 heartbeat IPC: 2.447 cumulative IPC: 1.484 (Simulation time: 00 hr 12 min 47 sec)
Heartbeat CPU 0 instructions: 110500693 cycles: 52860247 heartbeat IPC: 2.452 cumulative IPC: 1.489 (Simulation time: 00 hr 12 min 50 sec)
Heartbeat CPU 0 instructions: 111000697 cycles: 53058946 heartbeat IPC: 2.516 cumulative IPC: 1.494 (Simulation time: 00 hr 12 min 53 sec)
Heartbeat CPU 0 instructions: 111500701 cycles: 53242840 heartbeat IPC: 2.719 cumulative IPC: 1.5 (Simulation time: 00 hr 12 min 55 sec)
Heartbeat CPU 0 instructions: 112000705 cycles: 53447568 heartbeat IPC: 2.442 cumulative IPC: 1.504 (Simulation time: 00 hr 12 min 58 sec)
Heartbeat CPU 0 instructions: 112500709 cycles: 53654743 heartbeat IPC: 2.413 cumulative IPC: 1.509 (Simulation time: 00 hr 13 min 01 sec)
Heartbeat CPU 0 instructions: 113000714 cycles: 53859544 heartbeat IPC: 2.441 cumulative IPC: 1.514 (Simulation time: 00 hr 13 min 04 sec)
Heartbeat CPU 0 instructions: 113500714 cycles: 54063743 heartbeat IPC: 2.449 cumulative IPC: 1.518 (Simulation time: 00 hr 13 min 07 sec)
Heartbeat CPU 0 instructions: 114000718 cycles: 54269999 heartbeat IPC: 2.424 cumulative IPC: 1.523 (Simulation time: 00 hr 13 min 10 sec)
Heartbeat CPU 0 instructions: 114500724 cycles: 54449752 heartbeat IPC: 2.782 cumulative IPC: 1.528 (Simulation time: 00 hr 13 min 12 sec)
Heartbeat CPU 0 instructions: 115000726 cycles: 54653844 heartbeat IPC: 2.45 cumulative IPC: 1.532 (Simulation time: 00 hr 13 min 15 sec)
Heartbeat CPU 0 instructions: 115500730 cycles: 54857587 heartbeat IPC: 2.454 cumulative IPC: 1.537 (Simulation time: 00 hr 13 min 18 sec)
Heartbeat CPU 0 instructions: 116000731 cycles: 55065310 heartbeat IPC: 2.407 cumulative IPC: 1.541 (Simulation time: 00 hr 13 min 21 sec)
Heartbeat CPU 0 instructions: 116500735 cycles: 55272328 heartbeat IPC: 2.415 cumulative IPC: 1.545 (Simulation time: 00 hr 13 min 24 sec)
Heartbeat CPU 0 instructions: 117000735 cycles: 55477644 heartbeat IPC: 2.435 cumulative IPC: 1.549 (Simulation time: 00 hr 13 min 27 sec)
Heartbeat CPU 0 instructions: 117500739 cycles: 55656524 heartbeat IPC: 2.795 cumulative IPC: 1.555 (Simulation time: 00 hr 13 min 29 sec)
Heartbeat CPU 0 instructions: 118000745 cycles: 55861528 heartbeat IPC: 2.439 cumulative IPC: 1.559 (Simulation time: 00 hr 13 min 32 sec)
Heartbeat CPU 0 instructions: 118500751 cycles: 56066385 heartbeat IPC: 2.441 cumulative IPC: 1.563 (Simulation time: 00 hr 13 min 35 sec)
Heartbeat CPU 0 instructions: 119000752 cycles: 56270487 heartbeat IPC: 2.45 cumulative IPC: 1.567 (Simulation time: 00 hr 13 min 38 sec)
Heartbeat CPU 0 instructions: 119500755 cycles: 56474365 heartbeat IPC: 2.452 cumulative IPC: 1.571 (Simulation time: 00 hr 13 min 41 sec)
Heartbeat CPU 0 instructions: 120000760 cycles: 56677543 heartbeat IPC: 2.461 cumulative IPC: 1.575 (Simulation time: 00 hr 13 min 44 sec)
Heartbeat CPU 0 instructions: 120500762 cycles: 56856452 heartbeat IPC: 2.795 cumulative IPC: 1.58 (Simulation time: 00 hr 13 min 46 sec)
Heartbeat CPU 0 instructions: 121000766 cycles: 57061902 heartbeat IPC: 2.434 cumulative IPC: 1.584 (Simulation time: 00 hr 13 min 49 sec)
Heartbeat CPU 0 instructions: 121500767 cycles: 57279246 heartbeat IPC: 2.301 cumulative IPC: 1.587 (Simulation time: 00 hr 13 min 52 sec)
Heartbeat CPU 0 instructions: 122000773 cycles: 57481072 heartbeat IPC: 2.477 cumulative IPC: 1.591 (Simulation time: 00 hr 13 min 55 sec)
Heartbeat CPU 0 instructions: 122500774 cycles: 57682965 heartbeat IPC: 2.477 cumulative IPC: 1.595 (Simulation time: 00 hr 13 min 58 sec)
Heartbeat CPU 0 instructions: 123000780 cycles: 57884314 heartbeat IPC: 2.483 cumulative IPC: 1.599 (Simulation time: 00 hr 14 min 01 sec)
Heartbeat CPU 0 instructions: 123500781 cycles: 58066359 heartbeat IPC: 2.747 cumulative IPC: 1.604 (Simulation time: 00 hr 14 min 03 sec)
Heartbeat CPU 0 instructions: 124000788 cycles: 58264361 heartbeat IPC: 2.525 cumulative IPC: 1.608 (Simulation time: 00 hr 14 min 06 sec)
Heartbeat CPU 0 instructions: 124500790 cycles: 58466732 heartbeat IPC: 2.471 cumulative IPC: 1.612 (Simulation time: 00 hr 14 min 09 sec)
Heartbeat CPU 0 instructions: 125000791 cycles: 58669294 heartbeat IPC: 2.468 cumulative IPC: 1.615 (Simulation time: 00 hr 14 min 12 sec)
Heartbeat CPU 0 instructions: 125500797 cycles: 58872260 heartbeat IPC: 2.463 cumulative IPC: 1.619 (Simulation time: 00 hr 14 min 15 sec)
Heartbeat CPU 0 instructions: 126000799 cycles: 59075438 heartbeat IPC: 2.461 cumulative IPC: 1.623 (Simulation time: 00 hr 14 min 18 sec)
Heartbeat CPU 0 instructions: 126500802 cycles: 59269678 heartbeat IPC: 2.574 cumulative IPC: 1.627 (Simulation time: 00 hr 14 min 21 sec)
Heartbeat CPU 0 instructions: 127000809 cycles: 59454705 heartbeat IPC: 2.702 cumulative IPC: 1.631 (Simulation time: 00 hr 14 min 23 sec)
Heartbeat CPU 0 instructions: 127500813 cycles: 59659319 heartbeat IPC: 2.444 cumulative IPC: 1.634 (Simulation time: 00 hr 14 min 26 sec)
Heartbeat CPU 0 instructions: 128000820 cycles: 59860263 heartbeat IPC: 2.488 cumulative IPC: 1.638 (Simulation time: 00 hr 14 min 29 sec)
Heartbeat CPU 0 instructions: 128500826 cycles: 60064379 heartbeat IPC: 2.45 cumulative IPC: 1.641 (Simulation time: 00 hr 14 min 32 sec)
Heartbeat CPU 0 instructions: 129000830 cycles: 60265634 heartbeat IPC: 2.484 cumulative IPC: 1.645 (Simulation time: 00 hr 14 min 35 sec)
Heartbeat CPU 0 instructions: 129500830 cycles: 60468451 heartbeat IPC: 2.465 cumulative IPC: 1.648 (Simulation time: 00 hr 14 min 38 sec)
Heartbeat CPU 0 instructions: 130000830 cycles: 60645513 heartbeat IPC: 2.824 cumulative IPC: 1.653 (Simulation time: 00 hr 14 min 40 sec)
Heartbeat CPU 0 instructions: 130500834 cycles: 60849955 heartbeat IPC: 2.446 cumulative IPC: 1.656 (Simulation time: 00 hr 14 min 43 sec)
Heartbeat CPU 0 instructions: 131000834 cycles: 61052259 heartbeat IPC: 2.472 cumulative IPC: 1.659 (Simulation time: 00 hr 14 min 46 sec)
Heartbeat CPU 0 instructions: 131500835 cycles: 61255660 heartbeat IPC: 2.458 cumulative IPC: 1.663 (Simulation time: 00 hr 14 min 49 sec)
Heartbeat CPU 0 instructions: 132000835 cycles: 61458250 heartbeat IPC: 2.468 cumulative IPC: 1.666 (Simulation time: 00 hr 14 min 52 sec)
Heartbeat CPU 0 instructions: 132500835 cycles: 61661023 heartbeat IPC: 2.466 cumulative IPC: 1.669 (Simulation time: 00 hr 14 min 54 sec)
Heartbeat CPU 0 instructions: 133000835 cycles: 61839334 heartbeat IPC: 2.804 cumulative IPC: 1.673 (Simulation time: 00 hr 14 min 57 sec)
Heartbeat CPU 0 instructions: 133500838 cycles: 62040756 heartbeat IPC: 2.482 cumulative IPC: 1.677 (Simulation time: 00 hr 15 min 00 sec)
Heartbeat CPU 0 instructions: 134000840 cycles: 62243349 heartbeat IPC: 2.468 cumulative IPC: 1.68 (Simulation time: 00 hr 15 min 03 sec)
Heartbeat CPU 0 instructions: 134500844 cycles: 62443756 heartbeat IPC: 2.495 cumulative IPC: 1.683 (Simulation time: 00 hr 15 min 06 sec)
Heartbeat CPU 0 instructions: 135000847 cycles: 62645764 heartbeat IPC: 2.475 cumulative IPC: 1.686 (Simulation time: 00 hr 15 min 09 sec)
Heartbeat CPU 0 instructions: 135500849 cycles: 62847722 heartbeat IPC: 2.476 cumulative IPC: 1.689 (Simulation time: 00 hr 15 min 11 sec)
Heartbeat CPU 0 instructions: 136000851 cycles: 63024919 heartbeat IPC: 2.822 cumulative IPC: 1.693 (Simulation time: 00 hr 15 min 14 sec)
Heartbeat CPU 0 instructions: 136500858 cycles: 63226704 heartbeat IPC: 2.478 cumulative IPC: 1.696 (Simulation time: 00 hr 15 min 17 sec)
Heartbeat CPU 0 instructions: 137000860 cycles: 63427944 heartbeat IPC: 2.485 cumulative IPC: 1.7 (Simulation time: 00 hr 15 min 20 sec)
Heartbeat CPU 0 instructions: 137500865 cycles: 63629499 heartbeat IPC: 2.481 cumulative IPC: 1.703 (Simulation time: 00 hr 15 min 23 sec)
Heartbeat CPU 0 instructions: 138000866 cycles: 63831374 heartbeat IPC: 2.477 cumulative IPC: 1.706 (Simulation time: 00 hr 15 min 26 sec)
Heartbeat CPU 0 instructions: 138500868 cycles: 64031936 heartbeat IPC: 2.493 cumulative IPC: 1.709 (Simulation time: 00 hr 15 min 28 sec)
Heartbeat CPU 0 instructions: 139000874 cycles: 64211413 heartbeat IPC: 2.786 cumulative IPC: 1.712 (Simulation time: 00 hr 15 min 31 sec)
Heartbeat CPU 0 instructions: 139500877 cycles: 64411668 heartbeat IPC: 2.497 cumulative IPC: 1.715 (Simulation time: 00 hr 15 min 34 sec)
Heartbeat CPU 0 instructions: 140000880 cycles: 64614399 heartbeat IPC: 2.466 cumulative IPC: 1.718 (Simulation time: 00 hr 15 min 37 sec)
Heartbeat CPU 0 instructions: 140500886 cycles: 64816629 heartbeat IPC: 2.472 cumulative IPC: 1.721 (Simulation time: 00 hr 15 min 40 sec)
Heartbeat CPU 0 instructions: 141000888 cycles: 65019644 heartbeat IPC: 2.463 cumulative IPC: 1.724 (Simulation time: 00 hr 15 min 42 sec)
Heartbeat CPU 0 instructions: 141500891 cycles: 65220910 heartbeat IPC: 2.484 cumulative IPC: 1.727 (Simulation time: 00 hr 15 min 45 sec)
Heartbeat CPU 0 instructions: 142000895 cycles: 65412410 heartbeat IPC: 2.611 cumulative IPC: 1.73 (Simulation time: 00 hr 15 min 48 sec)
Heartbeat CPU 0 instructions: 142500898 cycles: 65599099 heartbeat IPC: 2.678 cumulative IPC: 1.733 (Simulation time: 00 hr 15 min 51 sec)
Heartbeat CPU 0 instructions: 143000898 cycles: 65801904 heartbeat IPC: 2.465 cumulative IPC: 1.736 (Simulation time: 00 hr 15 min 54 sec)
Heartbeat CPU 0 instructions: 143500899 cycles: 66002924 heartbeat IPC: 2.487 cumulative IPC: 1.739 (Simulation time: 00 hr 15 min 56 sec)
Heartbeat CPU 0 instructions: 144000902 cycles: 66204965 heartbeat IPC: 2.475 cumulative IPC: 1.742 (Simulation time: 00 hr 15 min 59 sec)
Heartbeat CPU 0 instructions: 144500905 cycles: 66407246 heartbeat IPC: 2.472 cumulative IPC: 1.745 (Simulation time: 00 hr 16 min 02 sec)
Heartbeat CPU 0 instructions: 145000908 cycles: 66608486 heartbeat IPC: 2.485 cumulative IPC: 1.747 (Simulation time: 00 hr 16 min 05 sec)
Heartbeat CPU 0 instructions: 145500912 cycles: 66786796 heartbeat IPC: 2.804 cumulative IPC: 1.751 (Simulation time: 00 hr 16 min 08 sec)
Heartbeat CPU 0 instructions: 146000917 cycles: 66988724 heartbeat IPC: 2.476 cumulative IPC: 1.753 (Simulation time: 00 hr 16 min 10 sec)
Heartbeat CPU 0 instructions: 146500920 cycles: 67192285 heartbeat IPC: 2.456 cumulative IPC: 1.756 (Simulation time: 00 hr 16 min 13 sec)
Heartbeat CPU 0 instructions: 147000925 cycles: 67394030 heartbeat IPC: 2.478 cumulative IPC: 1.759 (Simulation time: 00 hr 16 min 16 sec)
Heartbeat CPU 0 instructions: 147500929 cycles: 67595846 heartbeat IPC: 2.478 cumulative IPC: 1.761 (Simulation time: 00 hr 16 min 19 sec)
Heartbeat CPU 0 instructions: 148000935 cycles: 67797069 heartbeat IPC: 2.485 cumulative IPC: 1.764 (Simulation time: 00 hr 16 min 22 sec)
Heartbeat CPU 0 instructions: 148500938 cycles: 67974953 heartbeat IPC: 2.811 cumulative IPC: 1.767 (Simulation time: 00 hr 16 min 25 sec)
Heartbeat CPU 0 instructions: 149000945 cycles: 68176236 heartbeat IPC: 2.484 cumulative IPC: 1.77 (Simulation time: 00 hr 16 min 27 sec)
Heartbeat CPU 0 instructions: 149500949 cycles: 68377788 heartbeat IPC: 2.481 cumulative IPC: 1.772 (Simulation time: 00 hr 16 min 30 sec)
Heartbeat CPU 0 instructions: 150000954 cycles: 68578859 heartbeat IPC: 2.487 cumulative IPC: 1.775 (Simulation time: 00 hr 16 min 33 sec)
Heartbeat CPU 0 instructions: 150500960 cycles: 68781759 heartbeat IPC: 2.464 cumulative IPC: 1.777 (Simulation time: 00 hr 16 min 36 sec)
Heartbeat CPU 0 instructions: 151000962 cycles: 68983780 heartbeat IPC: 2.475 cumulative IPC: 1.78 (Simulation time: 00 hr 16 min 39 sec)
Heartbeat CPU 0 instructions: 151500964 cycles: 69163084 heartbeat IPC: 2.789 cumulative IPC: 1.783 (Simulation time: 00 hr 16 min 41 sec)
Heartbeat CPU 0 instructions: 152000966 cycles: 69364848 heartbeat IPC: 2.478 cumulative IPC: 1.785 (Simulation time: 00 hr 16 min 44 sec)
Heartbeat CPU 0 instructions: 152500968 cycles: 69566742 heartbeat IPC: 2.477 cumulative IPC: 1.788 (Simulation time: 00 hr 16 min 47 sec)
Heartbeat CPU 0 instructions: 153000973 cycles: 69768278 heartbeat IPC: 2.481 cumulative IPC: 1.79 (Simulation time: 00 hr 16 min 50 sec)
Heartbeat CPU 0 instructions: 153500975 cycles: 69970855 heartbeat IPC: 2.468 cumulative IPC: 1.793 (Simulation time: 00 hr 16 min 53 sec)
Heartbeat CPU 0 instructions: 154000977 cycles: 70172450 heartbeat IPC: 2.48 cumulative IPC: 1.795 (Simulation time: 00 hr 16 min 56 sec)
Heartbeat CPU 0 instructions: 154500984 cycles: 70350255 heartbeat IPC: 2.812 cumulative IPC: 1.798 (Simulation time: 00 hr 16 min 58 sec)
Heartbeat CPU 0 instructions: 155000987 cycles: 70552601 heartbeat IPC: 2.471 cumulative IPC: 1.801 (Simulation time: 00 hr 17 min 01 sec)
Heartbeat CPU 0 instructions: 155500991 cycles: 70757694 heartbeat IPC: 2.438 cumulative IPC: 1.803 (Simulation time: 00 hr 17 min 04 sec)
Heartbeat CPU 0 instructions: 156000993 cycles: 70960076 heartbeat IPC: 2.471 cumulative IPC: 1.805 (Simulation time: 00 hr 17 min 07 sec)
Heartbeat CPU 0 instructions: 156501000 cycles: 71161559 heartbeat IPC: 2.482 cumulative IPC: 1.807 (Simulation time: 00 hr 17 min 10 sec)
Heartbeat CPU 0 instructions: 157001000 cycles: 71362748 heartbeat IPC: 2.485 cumulative IPC: 1.81 (Simulation time: 00 hr 17 min 13 sec)
Heartbeat CPU 0 instructions: 157501001 cycles: 71552813 heartbeat IPC: 2.631 cumulative IPC: 1.812 (Simulation time: 00 hr 17 min 15 sec)
Heartbeat CPU 0 instructions: 158001008 cycles: 71741761 heartbeat IPC: 2.646 cumulative IPC: 1.815 (Simulation time: 00 hr 17 min 18 sec)
Heartbeat CPU 0 instructions: 158501010 cycles: 71943220 heartbeat IPC: 2.482 cumulative IPC: 1.817 (Simulation time: 00 hr 17 min 21 sec)
Heartbeat CPU 0 instructions: 159001011 cycles: 72145212 heartbeat IPC: 2.475 cumulative IPC: 1.819 (Simulation time: 00 hr 17 min 24 sec)
Heartbeat CPU 0 instructions: 159501017 cycles: 72346646 heartbeat IPC: 2.482 cumulative IPC: 1.822 (Simulation time: 00 hr 17 min 27 sec)
Heartbeat CPU 0 instructions: 160001021 cycles: 72549407 heartbeat IPC: 2.466 cumulative IPC: 1.824 (Simulation time: 00 hr 17 min 30 sec)
Heartbeat CPU 0 instructions: 160501022 cycles: 72752016 heartbeat IPC: 2.468 cumulative IPC: 1.826 (Simulation time: 00 hr 17 min 32 sec)
Heartbeat CPU 0 instructions: 161001029 cycles: 72930655 heartbeat IPC: 2.799 cumulative IPC: 1.829 (Simulation time: 00 hr 17 min 35 sec)
Heartbeat CPU 0 instructions: 161501029 cycles: 73132389 heartbeat IPC: 2.479 cumulative IPC: 1.831 (Simulation time: 00 hr 17 min 38 sec)
Heartbeat CPU 0 instructions: 162001034 cycles: 73334846 heartbeat IPC: 2.47 cumulative IPC: 1.833 (Simulation time: 00 hr 17 min 41 sec)
Heartbeat CPU 0 instructions: 162501036 cycles: 73539130 heartbeat IPC: 2.448 cumulative IPC: 1.835 (Simulation time: 00 hr 17 min 44 sec)
Heartbeat CPU 0 instructions: 163001042 cycles: 73741771 heartbeat IPC: 2.467 cumulative IPC: 1.837 (Simulation time: 00 hr 17 min 47 sec)
Heartbeat CPU 0 instructions: 163501049 cycles: 73944826 heartbeat IPC: 2.462 cumulative IPC: 1.839 (Simulation time: 00 hr 17 min 49 sec)
Heartbeat CPU 0 instructions: 164001050 cycles: 74121398 heartbeat IPC: 2.832 cumulative IPC: 1.842 (Simulation time: 00 hr 17 min 52 sec)
Heartbeat CPU 0 instructions: 164501052 cycles: 74324460 heartbeat IPC: 2.462 cumulative IPC: 1.844 (Simulation time: 00 hr 17 min 55 sec)
Heartbeat CPU 0 instructions: 165001056 cycles: 74526126 heartbeat IPC: 2.479 cumulative IPC: 1.846 (Simulation time: 00 hr 17 min 58 sec)
Heartbeat CPU 0 instructions: 165501059 cycles: 74731154 heartbeat IPC: 2.439 cumulative IPC: 1.848 (Simulation time: 00 hr 18 min 01 sec)
Heartbeat CPU 0 instructions: 166001059 cycles: 74933170 heartbeat IPC: 2.475 cumulative IPC: 1.85 (Simulation time: 00 hr 18 min 03 sec)
Heartbeat CPU 0 instructions: 166501062 cycles: 75134787 heartbeat IPC: 2.48 cumulative IPC: 1.852 (Simulation time: 00 hr 18 min 06 sec)
Heartbeat CPU 0 instructions: 167001063 cycles: 75312538 heartbeat IPC: 2.813 cumulative IPC: 1.855 (Simulation time: 00 hr 18 min 09 sec)
Heartbeat CPU 0 instructions: 167501063 cycles: 75515495 heartbeat IPC: 2.464 cumulative IPC: 1.857 (Simulation time: 00 hr 18 min 12 sec)
Heartbeat CPU 0 instructions: 168001068 cycles: 75717867 heartbeat IPC: 2.471 cumulative IPC: 1.859 (Simulation time: 00 hr 18 min 15 sec)
Heartbeat CPU 0 instructions: 168501073 cycles: 75920597 heartbeat IPC: 2.466 cumulative IPC: 1.861 (Simulation time: 00 hr 18 min 17 sec)
Heartbeat CPU 0 instructions: 169001075 cycles: 76121602 heartbeat IPC: 2.488 cumulative IPC: 1.863 (Simulation time: 00 hr 18 min 20 sec)
Heartbeat CPU 0 instructions: 169501075 cycles: 76324699 heartbeat IPC: 2.462 cumulative IPC: 1.865 (Simulation time: 00 hr 18 min 23 sec)
Heartbeat CPU 0 instructions: 170001082 cycles: 76501305 heartbeat IPC: 2.831 cumulative IPC: 1.867 (Simulation time: 00 hr 18 min 26 sec)
Heartbeat CPU 0 instructions: 170501087 cycles: 76704603 heartbeat IPC: 2.459 cumulative IPC: 1.869 (Simulation time: 00 hr 18 min 29 sec)
Heartbeat CPU 0 instructions: 171001093 cycles: 76905673 heartbeat IPC: 2.487 cumulative IPC: 1.871 (Simulation time: 00 hr 18 min 31 sec)
Heartbeat CPU 0 instructions: 171501093 cycles: 77108858 heartbeat IPC: 2.461 cumulative IPC: 1.873 (Simulation time: 00 hr 18 min 34 sec)
Heartbeat CPU 0 instructions: 172001096 cycles: 77310864 heartbeat IPC: 2.475 cumulative IPC: 1.875 (Simulation time: 00 hr 18 min 37 sec)
Heartbeat CPU 0 instructions: 172501096 cycles: 77514330 heartbeat IPC: 2.457 cumulative IPC: 1.877 (Simulation time: 00 hr 18 min 40 sec)
Heartbeat CPU 0 instructions: 173001102 cycles: 77701546 heartbeat IPC: 2.671 cumulative IPC: 1.879 (Simulation time: 00 hr 18 min 43 sec)
Heartbeat CPU 0 instructions: 173501107 cycles: 77894766 heartbeat IPC: 2.588 cumulative IPC: 1.881 (Simulation time: 00 hr 18 min 46 sec)
Heartbeat CPU 0 instructions: 174001114 cycles: 78097709 heartbeat IPC: 2.464 cumulative IPC: 1.883 (Simulation time: 00 hr 18 min 48 sec)
Heartbeat CPU 0 instructions: 174501118 cycles: 78299775 heartbeat IPC: 2.474 cumulative IPC: 1.885 (Simulation time: 00 hr 18 min 51 sec)
Heartbeat CPU 0 instructions: 175001125 cycles: 78502270 heartbeat IPC: 2.469 cumulative IPC: 1.886 (Simulation time: 00 hr 18 min 54 sec)
Heartbeat CPU 0 instructions: 175501127 cycles: 78705075 heartbeat IPC: 2.465 cumulative IPC: 1.888 (Simulation time: 00 hr 18 min 57 sec)
Heartbeat CPU 0 instructions: 176001131 cycles: 78904746 heartbeat IPC: 2.504 cumulative IPC: 1.89 (Simulation time: 00 hr 19 min 00 sec)
Heartbeat CPU 0 instructions: 176501134 cycles: 79085031 heartbeat IPC: 2.773 cumulative IPC: 1.892 (Simulation time: 00 hr 19 min 02 sec)
Heartbeat CPU 0 instructions: 177001137 cycles: 79286683 heartbeat IPC: 2.48 cumulative IPC: 1.894 (Simulation time: 00 hr 19 min 05 sec)
Heartbeat CPU 0 instructions: 177501142 cycles: 79500976 heartbeat IPC: 2.333 cumulative IPC: 1.896 (Simulation time: 00 hr 19 min 08 sec)
Heartbeat CPU 0 instructions: 178001145 cycles: 79710735 heartbeat IPC: 2.384 cumulative IPC: 1.897 (Simulation time: 00 hr 19 min 11 sec)
Heartbeat CPU 0 instructions: 178501148 cycles: 79911565 heartbeat IPC: 2.49 cumulative IPC: 1.899 (Simulation time: 00 hr 19 min 14 sec)
Heartbeat CPU 0 instructions: 179001149 cycles: 80113728 heartbeat IPC: 2.473 cumulative IPC: 1.901 (Simulation time: 00 hr 19 min 17 sec)
Heartbeat CPU 0 instructions: 179501150 cycles: 80290979 heartbeat IPC: 2.821 cumulative IPC: 1.903 (Simulation time: 00 hr 19 min 19 sec)
Heartbeat CPU 0 instructions: 180001152 cycles: 80493915 heartbeat IPC: 2.464 cumulative IPC: 1.905 (Simulation time: 00 hr 19 min 22 sec)
Heartbeat CPU 0 instructions: 180501153 cycles: 80696731 heartbeat IPC: 2.465 cumulative IPC: 1.906 (Simulation time: 00 hr 19 min 25 sec)
Heartbeat CPU 0 instructions: 181001158 cycles: 80899652 heartbeat IPC: 2.464 cumulative IPC: 1.908 (Simulation time: 00 hr 19 min 28 sec)
Heartbeat CPU 0 instructions: 181501160 cycles: 81101258 heartbeat IPC: 2.48 cumulative IPC: 1.91 (Simulation time: 00 hr 19 min 31 sec)
Heartbeat CPU 0 instructions: 182001160 cycles: 81305592 heartbeat IPC: 2.447 cumulative IPC: 1.911 (Simulation time: 00 hr 19 min 34 sec)
Heartbeat CPU 0 instructions: 182501164 cycles: 81483956 heartbeat IPC: 2.803 cumulative IPC: 1.913 (Simulation time: 00 hr 19 min 36 sec)
Heartbeat CPU 0 instructions: 183001164 cycles: 81685792 heartbeat IPC: 2.477 cumulative IPC: 1.915 (Simulation time: 00 hr 19 min 39 sec)
Heartbeat CPU 0 instructions: 183501167 cycles: 81889263 heartbeat IPC: 2.457 cumulative IPC: 1.917 (Simulation time: 00 hr 19 min 42 sec)
Heartbeat CPU 0 instructions: 184001167 cycles: 82092740 heartbeat IPC: 2.457 cumulative IPC: 1.918 (Simulation time: 00 hr 19 min 45 sec)
Heartbeat CPU 0 instructions: 184501174 cycles: 82296088 heartbeat IPC: 2.459 cumulative IPC: 1.92 (Simulation time: 00 hr 19 min 48 sec)
Heartbeat CPU 0 instructions: 185001177 cycles: 82498167 heartbeat IPC: 2.474 cumulative IPC: 1.921 (Simulation time: 00 hr 19 min 51 sec)
Heartbeat CPU 0 instructions: 185501182 cycles: 82676032 heartbeat IPC: 2.811 cumulative IPC: 1.924 (Simulation time: 00 hr 19 min 53 sec)
Heartbeat CPU 0 instructions: 186001183 cycles: 82879370 heartbeat IPC: 2.459 cumulative IPC: 1.925 (Simulation time: 00 hr 19 min 56 sec)
Heartbeat CPU 0 instructions: 186501187 cycles: 83079972 heartbeat IPC: 2.493 cumulative IPC: 1.927 (Simulation time: 00 hr 19 min 59 sec)
Heartbeat CPU 0 instructions: 187001190 cycles: 83281333 heartbeat IPC: 2.483 cumulative IPC: 1.928 (Simulation time: 00 hr 20 min 02 sec)
Heartbeat CPU 0 instructions: 187501192 cycles: 83484653 heartbeat IPC: 2.459 cumulative IPC: 1.93 (Simulation time: 00 hr 20 min 05 sec)
Heartbeat CPU 0 instructions: 188001198 cycles: 83686703 heartbeat IPC: 2.475 cumulative IPC: 1.931 (Simulation time: 00 hr 20 min 08 sec)
Heartbeat CPU 0 instructions: 188501199 cycles: 83871163 heartbeat IPC: 2.711 cumulative IPC: 1.933 (Simulation time: 00 hr 20 min 10 sec)
Heartbeat CPU 0 instructions: 189001204 cycles: 84065667 heartbeat IPC: 2.571 cumulative IPC: 1.935 (Simulation time: 00 hr 20 min 13 sec)
Heartbeat CPU 0 instructions: 189501209 cycles: 84269486 heartbeat IPC: 2.453 cumulative IPC: 1.937 (Simulation time: 00 hr 20 min 16 sec)
Heartbeat CPU 0 instructions: 190001211 cycles: 84470278 heartbeat IPC: 2.49 cumulative IPC: 1.938 (Simulation time: 00 hr 20 min 19 sec)
Heartbeat CPU 0 instructions: 190501215 cycles: 84671858 heartbeat IPC: 2.48 cumulative IPC: 1.94 (Simulation time: 00 hr 20 min 22 sec)
Heartbeat CPU 0 instructions: 191001219 cycles: 84875733 heartbeat IPC: 2.453 cumulative IPC: 1.941 (Simulation time: 00 hr 20 min 25 sec)
Heartbeat CPU 0 instructions: 191501222 cycles: 85073580 heartbeat IPC: 2.527 cumulative IPC: 1.943 (Simulation time: 00 hr 20 min 27 sec)
Heartbeat CPU 0 instructions: 192001228 cycles: 85254457 heartbeat IPC: 2.764 cumulative IPC: 1.945 (Simulation time: 00 hr 20 min 30 sec)
Heartbeat CPU 0 instructions: 192501231 cycles: 85457508 heartbeat IPC: 2.462 cumulative IPC: 1.946 (Simulation time: 00 hr 20 min 33 sec)
Heartbeat CPU 0 instructions: 193001232 cycles: 85658878 heartbeat IPC: 2.483 cumulative IPC: 1.948 (Simulation time: 00 hr 20 min 36 sec)
Heartbeat CPU 0 instructions: 193501236 cycles: 85861362 heartbeat IPC: 2.469 cumulative IPC: 1.949 (Simulation time: 00 hr 20 min 39 sec)
Heartbeat CPU 0 instructions: 194001240 cycles: 86062971 heartbeat IPC: 2.48 cumulative IPC: 1.951 (Simulation time: 00 hr 20 min 41 sec)
Heartbeat CPU 0 instructions: 194501241 cycles: 86264106 heartbeat IPC: 2.486 cumulative IPC: 1.952 (Simulation time: 00 hr 20 min 44 sec)
Heartbeat CPU 0 instructions: 195001246 cycles: 86441261 heartbeat IPC: 2.822 cumulative IPC: 1.954 (Simulation time: 00 hr 20 min 47 sec)
Heartbeat CPU 0 instructions: 195501251 cycles: 86643481 heartbeat IPC: 2.473 cumulative IPC: 1.955 (Simulation time: 00 hr 20 min 50 sec)
Heartbeat CPU 0 instructions: 196001253 cycles: 86846299 heartbeat IPC: 2.465 cumulative IPC: 1.957 (Simulation time: 00 hr 20 min 53 sec)
Heartbeat CPU 0 instructions: 196501257 cycles: 87048158 heartbeat IPC: 2.477 cumulative IPC: 1.958 (Simulation time: 00 hr 20 min 56 sec)
Heartbeat CPU 0 instructions: 197001261 cycles: 87250944 heartbeat IPC: 2.466 cumulative IPC: 1.96 (Simulation time: 00 hr 20 min 58 sec)
Heartbeat CPU 0 instructions: 197501262 cycles: 87453874 heartbeat IPC: 2.464 cumulative IPC: 1.961 (Simulation time: 00 hr 21 min 01 sec)
Heartbeat CPU 0 instructions: 198001269 cycles: 87631093 heartbeat IPC: 2.821 cumulative IPC: 1.963 (Simulation time: 00 hr 21 min 04 sec)
Heartbeat CPU 0 instructions: 198501273 cycles: 87832877 heartbeat IPC: 2.478 cumulative IPC: 1.964 (Simulation time: 00 hr 21 min 07 sec)
Heartbeat CPU 0 instructions: 199001280 cycles: 88036189 heartbeat IPC: 2.459 cumulative IPC: 1.966 (Simulation time: 00 hr 21 min 10 sec)
Heartbeat CPU 0 instructions: 199501287 cycles: 88237681 heartbeat IPC: 2.482 cumulative IPC: 1.967 (Simulation time: 00 hr 21 min 12 sec)
Heartbeat CPU 0 instructions: 200001290 cycles: 88439702 heartbeat IPC: 2.475 cumulative IPC: 1.968 (Simulation time: 00 hr 21 min 15 sec)
Heartbeat CPU 0 instructions: 200501291 cycles: 88641093 heartbeat IPC: 2.483 cumulative IPC: 1.97 (Simulation time: 00 hr 21 min 18 sec)
Heartbeat CPU 0 instructions: 201001294 cycles: 88819895 heartbeat IPC: 2.796 cumulative IPC: 1.972 (Simulation time: 00 hr 21 min 21 sec)
Heartbeat CPU 0 instructions: 201501294 cycles: 89022258 heartbeat IPC: 2.471 cumulative IPC: 1.973 (Simulation time: 00 hr 21 min 24 sec)
Heartbeat CPU 0 instructions: 202001295 cycles: 89223717 heartbeat IPC: 2.482 cumulative IPC: 1.974 (Simulation time: 00 hr 21 min 26 sec)
Heartbeat CPU 0 instructions: 202501299 cycles: 89425685 heartbeat IPC: 2.476 cumulative IPC: 1.976 (Simulation time: 00 hr 21 min 29 sec)
Heartbeat CPU 0 instructions: 203001301 cycles: 89628125 heartbeat IPC: 2.47 cumulative IPC: 1.977 (Simulation time: 00 hr 21 min 32 sec)
Heartbeat CPU 0 instructions: 203501304 cycles: 89829261 heartbeat IPC: 2.486 cumulative IPC: 1.978 (Simulation time: 00 hr 21 min 35 sec)
Heartbeat CPU 0 instructions: 204001308 cycles: 90010487 heartbeat IPC: 2.759 cumulative IPC: 1.98 (Simulation time: 00 hr 21 min 38 sec)
Heartbeat CPU 0 instructions: 204501313 cycles: 90208520 heartbeat IPC: 2.525 cumulative IPC: 1.982 (Simulation time: 00 hr 21 min 40 sec)
Heartbeat CPU 0 instructions: 205001314 cycles: 90412500 heartbeat IPC: 2.451 cumulative IPC: 1.983 (Simulation time: 00 hr 21 min 43 sec)
Heartbeat CPU 0 instructions: 205501320 cycles: 90613468 heartbeat IPC: 2.488 cumulative IPC: 1.984 (Simulation time: 00 hr 21 min 46 sec)
Heartbeat CPU 0 instructions: 206001322 cycles: 90815671 heartbeat IPC: 2.473 cumulative IPC: 1.985 (Simulation time: 00 hr 21 min 49 sec)
Heartbeat CPU 0 instructions: 206501325 cycles: 91018713 heartbeat IPC: 2.463 cumulative IPC: 1.987 (Simulation time: 00 hr 21 min 52 sec)
Heartbeat CPU 0 instructions: 207001329 cycles: 91215316 heartbeat IPC: 2.543 cumulative IPC: 1.988 (Simulation time: 00 hr 21 min 55 sec)
Heartbeat CPU 0 instructions: 207501336 cycles: 91398155 heartbeat IPC: 2.735 cumulative IPC: 1.99 (Simulation time: 00 hr 21 min 57 sec)
Heartbeat CPU 0 instructions: 208001337 cycles: 91600609 heartbeat IPC: 2.47 cumulative IPC: 1.991 (Simulation time: 00 hr 22 min 00 sec)
Heartbeat CPU 0 instructions: 208501339 cycles: 91803172 heartbeat IPC: 2.468 cumulative IPC: 1.992 (Simulation time: 00 hr 22 min 03 sec)
Heartbeat CPU 0 instructions: 209001345 cycles: 92006383 heartbeat IPC: 2.461 cumulative IPC: 1.993 (Simulation time: 00 hr 22 min 06 sec)
Heartbeat CPU 0 instructions: 209501346 cycles: 92208638 heartbeat IPC: 2.472 cumulative IPC: 1.994 (Simulation time: 00 hr 22 min 09 sec)
Heartbeat CPU 0 instructions: 210001350 cycles: 92410709 heartbeat IPC: 2.474 cumulative IPC: 1.996 (Simulation time: 00 hr 22 min 12 sec)
Heartbeat CPU 0 instructions: 210501356 cycles: 92588404 heartbeat IPC: 2.814 cumulative IPC: 1.997 (Simulation time: 00 hr 22 min 14 sec)
Heartbeat CPU 0 instructions: 211001358 cycles: 92790977 heartbeat IPC: 2.468 cumulative IPC: 1.999 (Simulation time: 00 hr 22 min 17 sec)
Heartbeat CPU 0 instructions: 211501360 cycles: 92993318 heartbeat IPC: 2.471 cumulative IPC: 2 (Simulation time: 00 hr 22 min 20 sec)
Heartbeat CPU 0 instructions: 212001362 cycles: 93197280 heartbeat IPC: 2.451 cumulative IPC: 2.001 (Simulation time: 00 hr 22 min 23 sec)
Heartbeat CPU 0 instructions: 212501367 cycles: 93398372 heartbeat IPC: 2.486 cumulative IPC: 2.002 (Simulation time: 00 hr 22 min 26 sec)
Heartbeat CPU 0 instructions: 213001371 cycles: 93599891 heartbeat IPC: 2.481 cumulative IPC: 2.003 (Simulation time: 00 hr 22 min 29 sec)
Heartbeat CPU 0 instructions: 213501378 cycles: 93777364 heartbeat IPC: 2.817 cumulative IPC: 2.005 (Simulation time: 00 hr 22 min 31 sec)
Heartbeat CPU 0 instructions: 214001383 cycles: 93979268 heartbeat IPC: 2.476 cumulative IPC: 2.006 (Simulation time: 00 hr 22 min 34 sec)
Heartbeat CPU 0 instructions: 214501389 cycles: 94180652 heartbeat IPC: 2.483 cumulative IPC: 2.007 (Simulation time: 00 hr 22 min 37 sec)
Heartbeat CPU 0 instructions: 215001394 cycles: 94381956 heartbeat IPC: 2.484 cumulative IPC: 2.009 (Simulation time: 00 hr 22 min 40 sec)
Heartbeat CPU 0 instructions: 215501400 cycles: 94584988 heartbeat IPC: 2.463 cumulative IPC: 2.01 (Simulation time: 00 hr 22 min 43 sec)
Heartbeat CPU 0 instructions: 216001400 cycles: 94787226 heartbeat IPC: 2.472 cumulative IPC: 2.011 (Simulation time: 00 hr 22 min 45 sec)
Heartbeat CPU 0 instructions: 216501407 cycles: 94965109 heartbeat IPC: 2.811 cumulative IPC: 2.013 (Simulation time: 00 hr 22 min 48 sec)
Heartbeat CPU 0 instructions: 217001408 cycles: 95168257 heartbeat IPC: 2.461 cumulative IPC: 2.014 (Simulation time: 00 hr 22 min 51 sec)
Heartbeat CPU 0 instructions: 217501412 cycles: 95371207 heartbeat IPC: 2.464 cumulative IPC: 2.015 (Simulation time: 00 hr 22 min 54 sec)
Heartbeat CPU 0 instructions: 218001414 cycles: 95573876 heartbeat IPC: 2.467 cumulative IPC: 2.016 (Simulation time: 00 hr 22 min 57 sec)
Heartbeat CPU 0 instructions: 218501417 cycles: 95776461 heartbeat IPC: 2.468 cumulative IPC: 2.017 (Simulation time: 00 hr 23 min 00 sec)
Heartbeat CPU 0 instructions: 219001421 cycles: 95982536 heartbeat IPC: 2.426 cumulative IPC: 2.018 (Simulation time: 00 hr 23 min 02 sec)
Heartbeat CPU 0 instructions: 219501424 cycles: 96162493 heartbeat IPC: 2.778 cumulative IPC: 2.02 (Simulation time: 00 hr 23 min 05 sec)
Heartbeat CPU 0 instructions: 220001429 cycles: 96362037 heartbeat IPC: 2.506 cumulative IPC: 2.021 (Simulation time: 00 hr 23 min 08 sec)
Heartbeat CPU 0 instructions: 220501431 cycles: 96564007 heartbeat IPC: 2.476 cumulative IPC: 2.022 (Simulation time: 00 hr 23 min 11 sec)
Heartbeat CPU 0 instructions: 221001436 cycles: 96765435 heartbeat IPC: 2.482 cumulative IPC: 2.023 (Simulation time: 00 hr 23 min 14 sec)
Heartbeat CPU 0 instructions: 221501442 cycles: 96966765 heartbeat IPC: 2.484 cumulative IPC: 2.024 (Simulation time: 00 hr 23 min 16 sec)
Heartbeat CPU 0 instructions: 222001442 cycles: 97169100 heartbeat IPC: 2.471 cumulative IPC: 2.025 (Simulation time: 00 hr 23 min 19 sec)
Heartbeat CPU 0 instructions: 222501446 cycles: 97361553 heartbeat IPC: 2.598 cumulative IPC: 2.026 (Simulation time: 00 hr 23 min 22 sec)
Heartbeat CPU 0 instructions: 223001451 cycles: 97548151 heartbeat IPC: 2.68 cumulative IPC: 2.028 (Simulation time: 00 hr 23 min 25 sec)
Heartbeat CPU 0 instructions: 223501454 cycles: 97750914 heartbeat IPC: 2.466 cumulative IPC: 2.029 (Simulation time: 00 hr 23 min 28 sec)
Heartbeat CPU 0 instructions: 224001457 cycles: 97954217 heartbeat IPC: 2.459 cumulative IPC: 2.03 (Simulation time: 00 hr 23 min 31 sec)
Heartbeat CPU 0 instructions: 224501457 cycles: 98155511 heartbeat IPC: 2.484 cumulative IPC: 2.031 (Simulation time: 00 hr 23 min 33 sec)
Heartbeat CPU 0 instructions: 225001463 cycles: 98359342 heartbeat IPC: 2.453 cumulative IPC: 2.032 (Simulation time: 00 hr 23 min 36 sec)
Heartbeat CPU 0 instructions: 225501463 cycles: 98562136 heartbeat IPC: 2.466 cumulative IPC: 2.033 (Simulation time: 00 hr 23 min 39 sec)
Heartbeat CPU 0 instructions: 226001463 cycles: 98741094 heartbeat IPC: 2.794 cumulative IPC: 2.035 (Simulation time: 00 hr 23 min 42 sec)
Heartbeat CPU 0 instructions: 226501463 cycles: 98943175 heartbeat IPC: 2.474 cumulative IPC: 2.036 (Simulation time: 00 hr 23 min 45 sec)
Heartbeat CPU 0 instructions: 227001470 cycles: 99146371 heartbeat IPC: 2.461 cumulative IPC: 2.037 (Simulation time: 00 hr 23 min 47 sec)
Heartbeat CPU 0 instructions: 227501470 cycles: 99348556 heartbeat IPC: 2.473 cumulative IPC: 2.038 (Simulation time: 00 hr 23 min 50 sec)
Heartbeat CPU 0 instructions: 228001476 cycles: 99549793 heartbeat IPC: 2.485 cumulative IPC: 2.039 (Simulation time: 00 hr 23 min 53 sec)
Heartbeat CPU 0 instructions: 228501477 cycles: 99751140 heartbeat IPC: 2.483 cumulative IPC: 2.04 (Simulation time: 00 hr 23 min 56 sec)
Heartbeat CPU 0 instructions: 229001484 cycles: 99931009 heartbeat IPC: 2.78 cumulative IPC: 2.041 (Simulation time: 00 hr 23 min 59 sec)
Heartbeat CPU 0 instructions: 229501488 cycles: 100132372 heartbeat IPC: 2.483 cumulative IPC: 2.042 (Simulation time: 00 hr 24 min 02 sec)
Heartbeat CPU 0 instructions: 230001491 cycles: 100335292 heartbeat IPC: 2.464 cumulative IPC: 2.043 (Simulation time: 00 hr 24 min 04 sec)
Heartbeat CPU 0 instructions: 230501493 cycles: 100537062 heartbeat IPC: 2.478 cumulative IPC: 2.044 (Simulation time: 00 hr 24 min 07 sec)
Heartbeat CPU 0 instructions: 231001496 cycles: 100741479 heartbeat IPC: 2.446 cumulative IPC: 2.045 (Simulation time: 00 hr 24 min 10 sec)
Heartbeat CPU 0 instructions: 231501498 cycles: 100942881 heartbeat IPC: 2.483 cumulative IPC: 2.046 (Simulation time: 00 hr 24 min 13 sec)
Heartbeat CPU 0 instructions: 232001505 cycles: 101121829 heartbeat IPC: 2.794 cumulative IPC: 2.048 (Simulation time: 00 hr 24 min 16 sec)
Heartbeat CPU 0 instructions: 232501509 cycles: 101323157 heartbeat IPC: 2.484 cumulative IPC: 2.049 (Simulation time: 00 hr 24 min 19 sec)
Heartbeat CPU 0 instructions: 233001510 cycles: 101525257 heartbeat IPC: 2.474 cumulative IPC: 2.05 (Simulation time: 00 hr 24 min 21 sec)
Heartbeat CPU 0 instructions: 233501514 cycles: 101726979 heartbeat IPC: 2.479 cumulative IPC: 2.051 (Simulation time: 00 hr 24 min 24 sec)
Heartbeat CPU 0 instructions: 234001515 cycles: 101950621 heartbeat IPC: 2.236 cumulative IPC: 2.051 (Simulation time: 00 hr 24 min 27 sec)
Heartbeat CPU 0 instructions: 234501519 cycles: 102152280 heartbeat IPC: 2.479 cumulative IPC: 2.052 (Simulation time: 00 hr 24 min 30 sec)
Heartbeat CPU 0 instructions: 235001522 cycles: 102329923 heartbeat IPC: 2.815 cumulative IPC: 2.053 (Simulation time: 00 hr 24 min 33 sec)
Heartbeat CPU 0 instructions: 235501527 cycles: 102532519 heartbeat IPC: 2.468 cumulative IPC: 2.054 (Simulation time: 00 hr 24 min 36 sec)
Heartbeat CPU 0 instructions: 236001532 cycles: 102735266 heartbeat IPC: 2.466 cumulative IPC: 2.055 (Simulation time: 00 hr 24 min 39 sec)
Heartbeat CPU 0 instructions: 236501532 cycles: 102937539 heartbeat IPC: 2.472 cumulative IPC: 2.056 (Simulation time: 00 hr 24 min 41 sec)
Heartbeat CPU 0 instructions: 237001538 cycles: 103142898 heartbeat IPC: 2.435 cumulative IPC: 2.057 (Simulation time: 00 hr 24 min 44 sec)
Heartbeat CPU 0 instructions: 237501539 cycles: 103345510 heartbeat IPC: 2.468 cumulative IPC: 2.058 (Simulation time: 00 hr 24 min 47 sec)
Heartbeat CPU 0 instructions: 238001541 cycles: 103537944 heartbeat IPC: 2.598 cumulative IPC: 2.059 (Simulation time: 00 hr 24 min 50 sec)
Heartbeat CPU 0 instructions: 238501542 cycles: 103726458 heartbeat IPC: 2.652 cumulative IPC: 2.06 (Simulation time: 00 hr 24 min 53 sec)
Heartbeat CPU 0 instructions: 239001549 cycles: 103928848 heartbeat IPC: 2.471 cumulative IPC: 2.061 (Simulation time: 00 hr 24 min 56 sec)
Heartbeat CPU 0 instructions: 239501551 cycles: 104130862 heartbeat IPC: 2.475 cumulative IPC: 2.062 (Simulation time: 00 hr 24 min 58 sec)
Heartbeat CPU 0 instructions: 240001557 cycles: 104333791 heartbeat IPC: 2.464 cumulative IPC: 2.063 (Simulation time: 00 hr 25 min 01 sec)
Heartbeat CPU 0 instructions: 240501560 cycles: 104536666 heartbeat IPC: 2.465 cumulative IPC: 2.064 (Simulation time: 00 hr 25 min 04 sec)
Heartbeat CPU 0 instructions: 241001564 cycles: 104740387 heartbeat IPC: 2.454 cumulative IPC: 2.065 (Simulation time: 00 hr 25 min 07 sec)
Heartbeat CPU 0 instructions: 241501567 cycles: 104918668 heartbeat IPC: 2.805 cumulative IPC: 2.066 (Simulation time: 00 hr 25 min 10 sec)
Heartbeat CPU 0 instructions: 242001573 cycles: 105120148 heartbeat IPC: 2.482 cumulative IPC: 2.067 (Simulation time: 00 hr 25 min 12 sec)
Heartbeat CPU 0 instructions: 242501576 cycles: 105325279 heartbeat IPC: 2.437 cumulative IPC: 2.068 (Simulation time: 00 hr 25 min 15 sec)
Heartbeat CPU 0 instructions: 243001580 cycles: 105525768 heartbeat IPC: 2.494 cumulative IPC: 2.069 (Simulation time: 00 hr 25 min 18 sec)
Heartbeat CPU 0 instructions: 243501581 cycles: 105730134 heartbeat IPC: 2.447 cumulative IPC: 2.07 (Simulation time: 00 hr 25 min 21 sec)
Heartbeat CPU 0 instructions: 244001585 cycles: 105932732 heartbeat IPC: 2.468 cumulative IPC: 2.071 (Simulation time: 00 hr 25 min 24 sec)
Heartbeat CPU 0 instructions: 244501592 cycles: 106110513 heartbeat IPC: 2.812 cumulative IPC: 2.072 (Simulation time: 00 hr 25 min 27 sec)
Heartbeat CPU 0 instructions: 245001597 cycles: 106311777 heartbeat IPC: 2.484 cumulative IPC: 2.073 (Simulation time: 00 hr 25 min 29 sec)
Heartbeat CPU 0 instructions: 245501603 cycles: 106513557 heartbeat IPC: 2.478 cumulative IPC: 2.074 (Simulation time: 00 hr 25 min 32 sec)
Heartbeat CPU 0 instructions: 246001609 cycles: 106715008 heartbeat IPC: 2.482 cumulative IPC: 2.075 (Simulation time: 00 hr 25 min 35 sec)
Heartbeat CPU 0 instructions: 246501610 cycles: 106918940 heartbeat IPC: 2.452 cumulative IPC: 2.075 (Simulation time: 00 hr 25 min 38 sec)
Heartbeat CPU 0 instructions: 247001614 cycles: 107119616 heartbeat IPC: 2.492 cumulative IPC: 2.076 (Simulation time: 00 hr 25 min 41 sec)
Heartbeat CPU 0 instructions: 247501621 cycles: 107298794 heartbeat IPC: 2.791 cumulative IPC: 2.078 (Simulation time: 00 hr 25 min 43 sec)
Heartbeat CPU 0 instructions: 248001622 cycles: 107501167 heartbeat IPC: 2.471 cumulative IPC: 2.078 (Simulation time: 00 hr 25 min 46 sec)
Heartbeat CPU 0 instructions: 248501626 cycles: 107702844 heartbeat IPC: 2.479 cumulative IPC: 2.079 (Simulation time: 00 hr 25 min 49 sec)
Heartbeat CPU 0 instructions: 249001630 cycles: 107904882 heartbeat IPC: 2.475 cumulative IPC: 2.08 (Simulation time: 00 hr 25 min 52 sec)
Heartbeat CPU 0 instructions: 249501635 cycles: 108108360 heartbeat IPC: 2.457 cumulative IPC: 2.081 (Simulation time: 00 hr 25 min 55 sec)
Simulation finished CPU 0 instructions: 200000002 cycles: 96072395 cumulative IPC: 2.082 (Simulation time: 00 hr 25 min 58 sec)
Simulation complete CPU 0 instructions: 200000002 cycles: 96072395 cumulative IPC: 2.082 (Simulation time: 00 hr 25 min 58 sec)

ChampSim completed all CPUs

=== Simulation ===
CPU 0 runs /local-ssd/ben/dpc4-traces/ai-ml/clip_trace_3.champsimtrace.gz

Region of Interest Statistics

CPU 0 cumulative IPC: 2.082 instructions: 200000002 cycles: 96072395
CPU 0 Branch Prediction Accuracy: 97.85% MPKI: 1.513 Average ROB Occupancy at Mispredict: 288.8
Branch type MPKI
BRANCH_DIRECT_JUMP: 5e-05
BRANCH_INDIRECT: 6e-05
BRANCH_CONDITIONAL: 1.513
BRANCH_DIRECT_CALL: 1e-05
BRANCH_INDIRECT_CALL: 2e-05
BRANCH_RETURN: 3.5e-05

cpu0->cpu0_STLB TOTAL        ACCESS:      19593 HIT:       5309 MISS:      14284 MSHR_MERGE:          0
cpu0->cpu0_STLB LOAD         ACCESS:      19593 HIT:       5309 MISS:      14284 MSHR_MERGE:          0
cpu0->cpu0_STLB RFO          ACCESS:          0 HIT:          0 MISS:          0 MSHR_MERGE:          0
cpu0->cpu0_STLB PREFETCH     ACCESS:          0 HIT:          0 MISS:          0 MSHR_MERGE:          0
cpu0->cpu0_STLB WRITE        ACCESS:          0 HIT:          0 MISS:          0 MSHR_MERGE:          0
cpu0->cpu0_STLB TRANSLATION  ACCESS:          0 HIT:          0 MISS:          0 MSHR_MERGE:          0
cpu0->cpu0_STLB PREFETCH REQUESTED:          0 ISSUED:          0 USEFUL:          0 USELESS:          0
cpu0->cpu0_STLB AVERAGE MISS LATENCY: 215 cycles
cpu0->cpu0_L2C TOTAL        ACCESS:   11372697 HIT:    6564289 MISS:    4808408 MSHR_MERGE:    3690069
cpu0->cpu0_L2C LOAD         ACCESS:     838135 HIT:     611515 MISS:     226620 MSHR_MERGE:     140164
cpu0->cpu0_L2C RFO          ACCESS:     182724 HIT:      11219 MISS:     171505 MSHR_MERGE:          4
cpu0->cpu0_L2C PREFETCH     ACCESS:   10164230 HIT:    5755933 MISS:    4408297 MSHR_MERGE:    3549901
cpu0->cpu0_L2C WRITE        ACCESS:     184526 HIT:     184510 MISS:         16 MSHR_MERGE:          0
cpu0->cpu0_L2C TRANSLATION  ACCESS:       3082 HIT:       1112 MISS:       1970 MSHR_MERGE:          0
cpu0->cpu0_L2C PREFETCH REQUESTED:   11437727 ISSUED:    8564142 USEFUL:     390103 USELESS:     353338
cpu0->cpu0_L2C AVERAGE MISS LATENCY: 827.8 cycles
cpu0->cpu0_L1I TOTAL        ACCESS:   22667522 HIT:   22667386 MISS:        136 MSHR_MERGE:         18
cpu0->cpu0_L1I LOAD         ACCESS:   22667522 HIT:   22667386 MISS:        136 MSHR_MERGE:         18
cpu0->cpu0_L1I RFO          ACCESS:          0 HIT:          0 MISS:          0 MSHR_MERGE:          0
cpu0->cpu0_L1I PREFETCH     ACCESS:          0 HIT:          0 MISS:          0 MSHR_MERGE:          0
cpu0->cpu0_L1I WRITE        ACCESS:          0 HIT:          0 MISS:          0 MSHR_MERGE:          0
cpu0->cpu0_L1I TRANSLATION  ACCESS:          0 HIT:          0 MISS:          0 MSHR_MERGE:          0
cpu0->cpu0_L1I PREFETCH REQUESTED:          0 ISSUED:          0 USEFUL:          0 USELESS:          0
cpu0->cpu0_L1I AVERAGE MISS LATENCY: 404.7 cycles
cpu0->cpu0_L1D TOTAL        ACCESS:   58117175 HIT:   53002122 MISS:    5115053 MSHR_MERGE:    2491142
cpu0->cpu0_L1D LOAD         ACCESS:   47897394 HIT:   45265368 MISS:    2632026 MSHR_MERGE:    1794009
cpu0->cpu0_L1D RFO          ACCESS:          0 HIT:          0 MISS:          0 MSHR_MERGE:          0
cpu0->cpu0_L1D PREFETCH     ACCESS:    8799292 HIT:    6976148 MISS:    1823144 MSHR_MERGE:     223056
cpu0->cpu0_L1D WRITE        ACCESS:    1391906 HIT:     735105 MISS:     656801 MSHR_MERGE:     474077
cpu0->cpu0_L1D TRANSLATION  ACCESS:      28583 HIT:      25501 MISS:       3082 MSHR_MERGE:          0
cpu0->cpu0_L1D PREFETCH REQUESTED:   10371051 ISSUED:    8799291 USEFUL:    1577396 USELESS:      22677
cpu0->cpu0_L1D AVERAGE MISS LATENCY: 322.2 cycles
cpu0->cpu0_ITLB TOTAL        ACCESS:   22475474 HIT:   22475460 MISS:         14 MSHR_MERGE:          4
cpu0->cpu0_ITLB LOAD         ACCESS:   22475474 HIT:   22475460 MISS:         14 MSHR_MERGE:          4
cpu0->cpu0_ITLB RFO          ACCESS:          0 HIT:          0 MISS:          0 MSHR_MERGE:          0
cpu0->cpu0_ITLB PREFETCH     ACCESS:          0 HIT:          0 MISS:          0 MSHR_MERGE:          0
cpu0->cpu0_ITLB WRITE        ACCESS:          0 HIT:          0 MISS:          0 MSHR_MERGE:          0
cpu0->cpu0_ITLB TRANSLATION  ACCESS:          0 HIT:          0 MISS:          0 MSHR_MERGE:          0
cpu0->cpu0_ITLB PREFETCH REQUESTED:          0 ISSUED:          0 USEFUL:          0 USELESS:          0
cpu0->cpu0_ITLB AVERAGE MISS LATENCY: 603 cycles
cpu0->cpu0_DTLB TOTAL        ACCESS:   50034353 HIT:   49897955 MISS:     136398 MSHR_MERGE:     116815
cpu0->cpu0_DTLB LOAD         ACCESS:   50034353 HIT:   49897955 MISS:     136398 MSHR_MERGE:     116815
cpu0->cpu0_DTLB RFO          ACCESS:          0 HIT:          0 MISS:          0 MSHR_MERGE:          0
cpu0->cpu0_DTLB PREFETCH     ACCESS:          0 HIT:          0 MISS:          0 MSHR_MERGE:          0
cpu0->cpu0_DTLB WRITE        ACCESS:          0 HIT:          0 MISS:          0 MSHR_MERGE:          0
cpu0->cpu0_DTLB TRANSLATION  ACCESS:          0 HIT:          0 MISS:          0 MSHR_MERGE:          0
cpu0->cpu0_DTLB PREFETCH REQUESTED:          0 ISSUED:          0 USEFUL:          0 USELESS:          0
cpu0->cpu0_DTLB AVERAGE MISS LATENCY: 162.2 cycles
cpu0->LLC TOTAL        ACCESS:    1290279 HIT:     157326 MISS:    1132953 MSHR_MERGE:          0
cpu0->LLC LOAD         ACCESS:      86456 HIT:      13525 MISS:      72931 MSHR_MERGE:          0
cpu0->LLC RFO          ACCESS:     171501 HIT:          2 MISS:     171499 MSHR_MERGE:          0
cpu0->LLC PREFETCH     ACCESS:     858396 HIT:     133772 MISS:     724624 MSHR_MERGE:          0
cpu0->LLC WRITE        ACCESS:     171956 HIT:      10016 MISS:     161940 MSHR_MERGE:          0
cpu0->LLC TRANSLATION  ACCESS:       1970 HIT:         11 MISS:       1959 MSHR_MERGE:          0
cpu0->LLC PREFETCH REQUESTED:          0 ISSUED:          0 USEFUL:          0 USELESS:          0
cpu0->LLC AVERAGE MISS LATENCY: 593.5 cycles

DRAM Statistics

Channel 0 RQ ROW_BUFFER_HIT:     298341
  ROW_BUFFER_MISS:     672464
  AVG DBUS CONGESTED CYCLE: 4.04
Channel 0 WQ ROW_BUFFER_HIT:       2209
  ROW_BUFFER_MISS:     132334
  FULL:      15800
Channel 0 REFRESHES ISSUED:       8006
