[VMEM] WARNING: physical memory size is smaller than virtual memory size.

*** ChampSim Multicore Out-of-Order Simulator ***
Warmup Instructions: 50000000
Simulation Instructions: 200000000
Number of CPUs: 1
Page size: 4096
Core 0: /local-ssd/ben/dpc4-traces/gtraces_v2/sierra.a.6_0002.champsim.gz
 L1D Berti prefetcher
Off-chip DRAM Size: 64 GiB Channels: 1 Width: 64-bit Data Rate: 800 MT/s
[BTB] WARNING: target of return is a lower address than the corresponding call. This is usually a problem with your trace.
[BTB] WARNING: target of return is a lower address than the corresponding call. This is usually a problem with your trace.
Heartbeat CPU 0 instructions: 500006 cycles: 255731 heartbeat IPC: 1.955 cumulative IPC: 1.955 (Simulation time: 00 hr 00 min 07 sec)
[BTB] WARNING: target of return is a lower address than the corresponding call. This is usually a problem with your trace.
[BTB] WARNING: target of return is a lower address than the corresponding call. This is usually a problem with your trace.
Heartbeat CPU 0 instructions: 1000011 cycles: 404316 heartbeat IPC: 3.365 cumulative IPC: 2.473 (Simulation time: 00 hr 00 min 11 sec)
[BTB] WARNING: target of return is a lower address than the corresponding call. This is usually a problem with your trace.
Heartbeat CPU 0 instructions: 1500012 cycles: 540486 heartbeat IPC: 3.672 cumulative IPC: 2.775 (Simulation time: 00 hr 00 min 15 sec)
Heartbeat CPU 0 instructions: 2000018 cycles: 655456 heartbeat IPC: 4.349 cumulative IPC: 3.051 (Simulation time: 00 hr 00 min 17 sec)
Heartbeat CPU 0 instructions: 2500023 cycles: 775618 heartbeat IPC: 4.161 cumulative IPC: 3.223 (Simulation time: 00 hr 00 min 19 sec)
[BTB] WARNING: target of return is a lower address than the corresponding call. This is usually a problem with your trace.
[BTB] WARNING: target of return is a lower address than the corresponding call. This is usually a problem with your trace.
[BTB] WARNING: target of return is a lower address than the corresponding call. This is usually a problem with your trace.
Heartbeat CPU 0 instructions: 3000026 cycles: 942575 heartbeat IPC: 2.995 cumulative IPC: 3.183 (Simulation time: 00 hr 00 min 22 sec)
[BTB] WARNING: target of return is a lower address than the corresponding call. This is usually a problem with your trace.
[BTB] WARNING: target of return is a lower address than the corresponding call. This is usually a problem with your trace.
Heartbeat CPU 0 instructions: 3500030 cycles: 1132038 heartbeat IPC: 2.639 cumulative IPC: 3.092 (Simulation time: 00 hr 00 min 26 sec)
Heartbeat CPU 0 instructions: 4000032 cycles: 1323907 heartbeat IPC: 2.606 cumulative IPC: 3.021 (Simulation time: 00 hr 00 min 29 sec)
Heartbeat CPU 0 instructions: 4500037 cycles: 1467261 heartbeat IPC: 3.488 cumulative IPC: 3.067 (Simulation time: 00 hr 00 min 32 sec)
Heartbeat CPU 0 instructions: 5000044 cycles: 1591709 heartbeat IPC: 4.018 cumulative IPC: 3.141 (Simulation time: 00 hr 00 min 34 sec)
Heartbeat CPU 0 instructions: 5500050 cycles: 1750826 heartbeat IPC: 3.142 cumulative IPC: 3.141 (Simulation time: 00 hr 00 min 37 sec)
Heartbeat CPU 0 instructions: 6000056 cycles: 1882122 heartbeat IPC: 3.808 cumulative IPC: 3.188 (Simulation time: 00 hr 00 min 40 sec)
Heartbeat CPU 0 instructions: 6500060 cycles: 2067662 heartbeat IPC: 2.695 cumulative IPC: 3.144 (Simulation time: 00 hr 00 min 43 sec)
Heartbeat CPU 0 instructions: 7000066 cycles: 2208927 heartbeat IPC: 3.539 cumulative IPC: 3.169 (Simulation time: 00 hr 00 min 46 sec)
Heartbeat CPU 0 instructions: 7500069 cycles: 2324422 heartbeat IPC: 4.329 cumulative IPC: 3.227 (Simulation time: 00 hr 00 min 48 sec)
Heartbeat CPU 0 instructions: 8000072 cycles: 2450448 heartbeat IPC: 3.967 cumulative IPC: 3.265 (Simulation time: 00 hr 00 min 50 sec)
Heartbeat CPU 0 instructions: 8500074 cycles: 2699027 heartbeat IPC: 2.011 cumulative IPC: 3.149 (Simulation time: 00 hr 00 min 54 sec)
Heartbeat CPU 0 instructions: 9000076 cycles: 2834393 heartbeat IPC: 3.694 cumulative IPC: 3.175 (Simulation time: 00 hr 00 min 56 sec)
Heartbeat CPU 0 instructions: 9500082 cycles: 3042213 heartbeat IPC: 2.406 cumulative IPC: 3.123 (Simulation time: 00 hr 01 min 00 sec)
Heartbeat CPU 0 instructions: 10000087 cycles: 3225569 heartbeat IPC: 2.727 cumulative IPC: 3.1 (Simulation time: 00 hr 01 min 03 sec)
Heartbeat CPU 0 instructions: 10500087 cycles: 3396717 heartbeat IPC: 2.921 cumulative IPC: 3.091 (Simulation time: 00 hr 01 min 05 sec)
Heartbeat CPU 0 instructions: 11000091 cycles: 3652321 heartbeat IPC: 1.956 cumulative IPC: 3.012 (Simulation time: 00 hr 01 min 10 sec)
Heartbeat CPU 0 instructions: 11500097 cycles: 3840498 heartbeat IPC: 2.657 cumulative IPC: 2.994 (Simulation time: 00 hr 01 min 13 sec)
Heartbeat CPU 0 instructions: 12000100 cycles: 4016597 heartbeat IPC: 2.839 cumulative IPC: 2.988 (Simulation time: 00 hr 01 min 16 sec)
Heartbeat CPU 0 instructions: 12500103 cycles: 4188359 heartbeat IPC: 2.911 cumulative IPC: 2.984 (Simulation time: 00 hr 01 min 19 sec)
Heartbeat CPU 0 instructions: 13000104 cycles: 4357243 heartbeat IPC: 2.961 cumulative IPC: 2.984 (Simulation time: 00 hr 01 min 22 sec)
Heartbeat CPU 0 instructions: 13500111 cycles: 4522622 heartbeat IPC: 3.023 cumulative IPC: 2.985 (Simulation time: 00 hr 01 min 25 sec)
Heartbeat CPU 0 instructions: 14000118 cycles: 4709824 heartbeat IPC: 2.671 cumulative IPC: 2.973 (Simulation time: 00 hr 01 min 29 sec)
Heartbeat CPU 0 instructions: 14500118 cycles: 4866982 heartbeat IPC: 3.182 cumulative IPC: 2.979 (Simulation time: 00 hr 01 min 31 sec)
Heartbeat CPU 0 instructions: 15000123 cycles: 5027058 heartbeat IPC: 3.124 cumulative IPC: 2.984 (Simulation time: 00 hr 01 min 34 sec)
Heartbeat CPU 0 instructions: 15500126 cycles: 5185111 heartbeat IPC: 3.164 cumulative IPC: 2.989 (Simulation time: 00 hr 01 min 37 sec)
Heartbeat CPU 0 instructions: 16000130 cycles: 5341637 heartbeat IPC: 3.194 cumulative IPC: 2.995 (Simulation time: 00 hr 01 min 40 sec)
Heartbeat CPU 0 instructions: 16500137 cycles: 5501266 heartbeat IPC: 3.132 cumulative IPC: 2.999 (Simulation time: 00 hr 01 min 43 sec)
Heartbeat CPU 0 instructions: 17000138 cycles: 5669667 heartbeat IPC: 2.969 cumulative IPC: 2.998 (Simulation time: 00 hr 01 min 46 sec)
Heartbeat CPU 0 instructions: 17500138 cycles: 5823402 heartbeat IPC: 3.252 cumulative IPC: 3.005 (Simulation time: 00 hr 01 min 49 sec)
Heartbeat CPU 0 instructions: 18000142 cycles: 5975410 heartbeat IPC: 3.289 cumulative IPC: 3.012 (Simulation time: 00 hr 01 min 52 sec)
Heartbeat CPU 0 instructions: 18500147 cycles: 6124556 heartbeat IPC: 3.352 cumulative IPC: 3.021 (Simulation time: 00 hr 01 min 55 sec)
Heartbeat CPU 0 instructions: 19000152 cycles: 6278735 heartbeat IPC: 3.243 cumulative IPC: 3.026 (Simulation time: 00 hr 01 min 58 sec)
Heartbeat CPU 0 instructions: 19500152 cycles: 6451623 heartbeat IPC: 2.892 cumulative IPC: 3.023 (Simulation time: 00 hr 02 min 01 sec)
Heartbeat CPU 0 instructions: 20000154 cycles: 6611164 heartbeat IPC: 3.134 cumulative IPC: 3.025 (Simulation time: 00 hr 02 min 04 sec)
Heartbeat CPU 0 instructions: 20500157 cycles: 6760746 heartbeat IPC: 3.343 cumulative IPC: 3.032 (Simulation time: 00 hr 02 min 07 sec)
Heartbeat CPU 0 instructions: 21000158 cycles: 6886063 heartbeat IPC: 3.99 cumulative IPC: 3.05 (Simulation time: 00 hr 02 min 10 sec)
Heartbeat CPU 0 instructions: 21500158 cycles: 7011493 heartbeat IPC: 3.986 cumulative IPC: 3.066 (Simulation time: 00 hr 02 min 12 sec)
Heartbeat CPU 0 instructions: 22000161 cycles: 7134153 heartbeat IPC: 4.076 cumulative IPC: 3.084 (Simulation time: 00 hr 02 min 15 sec)
Heartbeat CPU 0 instructions: 22500161 cycles: 7257909 heartbeat IPC: 4.04 cumulative IPC: 3.1 (Simulation time: 00 hr 02 min 18 sec)
Heartbeat CPU 0 instructions: 23000163 cycles: 7380973 heartbeat IPC: 4.063 cumulative IPC: 3.116 (Simulation time: 00 hr 02 min 20 sec)
Heartbeat CPU 0 instructions: 23500170 cycles: 7503002 heartbeat IPC: 4.097 cumulative IPC: 3.132 (Simulation time: 00 hr 02 min 23 sec)
Heartbeat CPU 0 instructions: 24000177 cycles: 7626814 heartbeat IPC: 4.038 cumulative IPC: 3.147 (Simulation time: 00 hr 02 min 26 sec)
Heartbeat CPU 0 instructions: 24500179 cycles: 7726813 heartbeat IPC: 5 cumulative IPC: 3.171 (Simulation time: 00 hr 02 min 27 sec)
Heartbeat CPU 0 instructions: 25000184 cycles: 7826968 heartbeat IPC: 4.992 cumulative IPC: 3.194 (Simulation time: 00 hr 02 min 29 sec)
Heartbeat CPU 0 instructions: 25500186 cycles: 7927123 heartbeat IPC: 4.992 cumulative IPC: 3.217 (Simulation time: 00 hr 02 min 31 sec)
Heartbeat CPU 0 instructions: 26000188 cycles: 8027350 heartbeat IPC: 4.989 cumulative IPC: 3.239 (Simulation time: 00 hr 02 min 32 sec)
Heartbeat CPU 0 instructions: 26500193 cycles: 8129228 heartbeat IPC: 4.908 cumulative IPC: 3.26 (Simulation time: 00 hr 02 min 34 sec)
Heartbeat CPU 0 instructions: 27000196 cycles: 8249601 heartbeat IPC: 4.154 cumulative IPC: 3.273 (Simulation time: 00 hr 02 min 36 sec)
Heartbeat CPU 0 instructions: 27500198 cycles: 8351118 heartbeat IPC: 4.925 cumulative IPC: 3.293 (Simulation time: 00 hr 02 min 38 sec)
Heartbeat CPU 0 instructions: 28000203 cycles: 8452767 heartbeat IPC: 4.919 cumulative IPC: 3.313 (Simulation time: 00 hr 02 min 39 sec)
Heartbeat CPU 0 instructions: 28500206 cycles: 8554161 heartbeat IPC: 4.931 cumulative IPC: 3.332 (Simulation time: 00 hr 02 min 41 sec)
Heartbeat CPU 0 instructions: 29000209 cycles: 8655803 heartbeat IPC: 4.919 cumulative IPC: 3.35 (Simulation time: 00 hr 02 min 43 sec)
Heartbeat CPU 0 instructions: 29500211 cycles: 8757156 heartbeat IPC: 4.933 cumulative IPC: 3.369 (Simulation time: 00 hr 02 min 45 sec)
Heartbeat CPU 0 instructions: 30000213 cycles: 8858571 heartbeat IPC: 4.93 cumulative IPC: 3.387 (Simulation time: 00 hr 02 min 46 sec)
Heartbeat CPU 0 instructions: 30500213 cycles: 8960039 heartbeat IPC: 4.928 cumulative IPC: 3.404 (Simulation time: 00 hr 02 min 48 sec)
Heartbeat CPU 0 instructions: 31000214 cycles: 9061657 heartbeat IPC: 4.92 cumulative IPC: 3.421 (Simulation time: 00 hr 02 min 50 sec)
Heartbeat CPU 0 instructions: 31500215 cycles: 9163233 heartbeat IPC: 4.922 cumulative IPC: 3.438 (Simulation time: 00 hr 02 min 51 sec)
Heartbeat CPU 0 instructions: 32000222 cycles: 9264796 heartbeat IPC: 4.923 cumulative IPC: 3.454 (Simulation time: 00 hr 02 min 53 sec)
Heartbeat CPU 0 instructions: 32500227 cycles: 9366018 heartbeat IPC: 4.94 cumulative IPC: 3.47 (Simulation time: 00 hr 02 min 55 sec)
Heartbeat CPU 0 instructions: 33000231 cycles: 9467373 heartbeat IPC: 4.933 cumulative IPC: 3.486 (Simulation time: 00 hr 02 min 57 sec)
Heartbeat CPU 0 instructions: 33500236 cycles: 9576132 heartbeat IPC: 4.597 cumulative IPC: 3.498 (Simulation time: 00 hr 02 min 59 sec)
Heartbeat CPU 0 instructions: 34000242 cycles: 9676986 heartbeat IPC: 4.958 cumulative IPC: 3.514 (Simulation time: 00 hr 03 min 01 sec)
Heartbeat CPU 0 instructions: 34500247 cycles: 9783211 heartbeat IPC: 4.707 cumulative IPC: 3.526 (Simulation time: 00 hr 03 min 03 sec)
Heartbeat CPU 0 instructions: 35000250 cycles: 9892690 heartbeat IPC: 4.567 cumulative IPC: 3.538 (Simulation time: 00 hr 03 min 05 sec)
Heartbeat CPU 0 instructions: 35500252 cycles: 9994957 heartbeat IPC: 4.889 cumulative IPC: 3.552 (Simulation time: 00 hr 03 min 06 sec)
Heartbeat CPU 0 instructions: 36000258 cycles: 10095279 heartbeat IPC: 4.984 cumulative IPC: 3.566 (Simulation time: 00 hr 03 min 08 sec)
Heartbeat CPU 0 instructions: 36500263 cycles: 10196274 heartbeat IPC: 4.951 cumulative IPC: 3.58 (Simulation time: 00 hr 03 min 10 sec)
Heartbeat CPU 0 instructions: 37000265 cycles: 10301752 heartbeat IPC: 4.74 cumulative IPC: 3.592 (Simulation time: 00 hr 03 min 12 sec)
Heartbeat CPU 0 instructions: 37500265 cycles: 10409746 heartbeat IPC: 4.63 cumulative IPC: 3.602 (Simulation time: 00 hr 03 min 13 sec)
Heartbeat CPU 0 instructions: 38000271 cycles: 10557081 heartbeat IPC: 3.394 cumulative IPC: 3.6 (Simulation time: 00 hr 03 min 16 sec)
Heartbeat CPU 0 instructions: 38500273 cycles: 10717045 heartbeat IPC: 3.126 cumulative IPC: 3.592 (Simulation time: 00 hr 03 min 19 sec)
Heartbeat CPU 0 instructions: 39000274 cycles: 10857630 heartbeat IPC: 3.557 cumulative IPC: 3.592 (Simulation time: 00 hr 03 min 22 sec)
Heartbeat CPU 0 instructions: 39500274 cycles: 10989613 heartbeat IPC: 3.788 cumulative IPC: 3.594 (Simulation time: 00 hr 03 min 25 sec)
Heartbeat CPU 0 instructions: 40000274 cycles: 11152756 heartbeat IPC: 3.065 cumulative IPC: 3.587 (Simulation time: 00 hr 03 min 28 sec)
Heartbeat CPU 0 instructions: 40500274 cycles: 11294807 heartbeat IPC: 3.52 cumulative IPC: 3.586 (Simulation time: 00 hr 03 min 30 sec)
Heartbeat CPU 0 instructions: 41000276 cycles: 11407997 heartbeat IPC: 4.417 cumulative IPC: 3.594 (Simulation time: 00 hr 03 min 32 sec)
Heartbeat CPU 0 instructions: 41500281 cycles: 11554264 heartbeat IPC: 3.418 cumulative IPC: 3.592 (Simulation time: 00 hr 03 min 34 sec)
Heartbeat CPU 0 instructions: 42000282 cycles: 11674829 heartbeat IPC: 4.147 cumulative IPC: 3.598 (Simulation time: 00 hr 03 min 36 sec)
Heartbeat CPU 0 instructions: 42500282 cycles: 11809581 heartbeat IPC: 3.711 cumulative IPC: 3.599 (Simulation time: 00 hr 03 min 39 sec)
Heartbeat CPU 0 instructions: 43000283 cycles: 11932003 heartbeat IPC: 4.084 cumulative IPC: 3.604 (Simulation time: 00 hr 03 min 41 sec)
Heartbeat CPU 0 instructions: 43500286 cycles: 12082970 heartbeat IPC: 3.312 cumulative IPC: 3.6 (Simulation time: 00 hr 03 min 44 sec)
Heartbeat CPU 0 instructions: 44000292 cycles: 12225034 heartbeat IPC: 3.52 cumulative IPC: 3.599 (Simulation time: 00 hr 03 min 46 sec)
Heartbeat CPU 0 instructions: 44500292 cycles: 12351007 heartbeat IPC: 3.969 cumulative IPC: 3.603 (Simulation time: 00 hr 03 min 48 sec)
Heartbeat CPU 0 instructions: 45000299 cycles: 12503851 heartbeat IPC: 3.271 cumulative IPC: 3.599 (Simulation time: 00 hr 03 min 51 sec)
Heartbeat CPU 0 instructions: 45500301 cycles: 12651780 heartbeat IPC: 3.38 cumulative IPC: 3.596 (Simulation time: 00 hr 03 min 54 sec)
Heartbeat CPU 0 instructions: 46000306 cycles: 12790955 heartbeat IPC: 3.593 cumulative IPC: 3.596 (Simulation time: 00 hr 03 min 57 sec)
Heartbeat CPU 0 instructions: 46500312 cycles: 12942557 heartbeat IPC: 3.298 cumulative IPC: 3.593 (Simulation time: 00 hr 04 min 00 sec)
Heartbeat CPU 0 instructions: 47000319 cycles: 13090089 heartbeat IPC: 3.389 cumulative IPC: 3.591 (Simulation time: 00 hr 04 min 03 sec)
Heartbeat CPU 0 instructions: 47500319 cycles: 13240240 heartbeat IPC: 3.33 cumulative IPC: 3.588 (Simulation time: 00 hr 04 min 06 sec)
Heartbeat CPU 0 instructions: 48000323 cycles: 13395528 heartbeat IPC: 3.22 cumulative IPC: 3.583 (Simulation time: 00 hr 04 min 09 sec)
Heartbeat CPU 0 instructions: 48500329 cycles: 13543896 heartbeat IPC: 3.37 cumulative IPC: 3.581 (Simulation time: 00 hr 04 min 12 sec)
Heartbeat CPU 0 instructions: 49000332 cycles: 13687137 heartbeat IPC: 3.491 cumulative IPC: 3.58 (Simulation time: 00 hr 04 min 15 sec)
Heartbeat CPU 0 instructions: 49500337 cycles: 13839849 heartbeat IPC: 3.274 cumulative IPC: 3.577 (Simulation time: 00 hr 04 min 18 sec)
Warmup halting CPU 0 at instruction 50000003 cycle 13981755 for remainder of phase
Warmup finished CPU 0 instructions: 50000003 cycles: 13981755 cumulative IPC: 3.576 (Simulation time: 00 hr 04 min 21 sec)
Warmup complete CPU 0 instructions: 50000003 cycles: 13981755 cumulative IPC: 3.576 (Simulation time: 00 hr 04 min 21 sec)
Heartbeat CPU 0 instructions: 50000338 cycles: 13981812 heartbeat IPC: 3.522 cumulative IPC: 5.877 (Simulation time: 00 hr 04 min 21 sec)
Heartbeat CPU 0 instructions: 50500339 cycles: 15570385 heartbeat IPC: 0.3147 cumulative IPC: 0.3149 (Simulation time: 00 hr 04 min 32 sec)
Heartbeat CPU 0 instructions: 51000339 cycles: 16686568 heartbeat IPC: 0.448 cumulative IPC: 0.3698 (Simulation time: 00 hr 04 min 41 sec)
Heartbeat CPU 0 instructions: 51500339 cycles: 18842768 heartbeat IPC: 0.2319 cumulative IPC: 0.3086 (Simulation time: 00 hr 04 min 55 sec)
Heartbeat CPU 0 instructions: 52000340 cycles: 20266046 heartbeat IPC: 0.3513 cumulative IPC: 0.3183 (Simulation time: 00 hr 05 min 05 sec)
Heartbeat CPU 0 instructions: 52500346 cycles: 21535278 heartbeat IPC: 0.3939 cumulative IPC: 0.331 (Simulation time: 00 hr 05 min 14 sec)
Heartbeat CPU 0 instructions: 53000348 cycles: 23593224 heartbeat IPC: 0.243 cumulative IPC: 0.3122 (Simulation time: 00 hr 05 min 28 sec)
Heartbeat CPU 0 instructions: 53500348 cycles: 24147182 heartbeat IPC: 0.9026 cumulative IPC: 0.3443 (Simulation time: 00 hr 05 min 33 sec)
Heartbeat CPU 0 instructions: 54000348 cycles: 25500783 heartbeat IPC: 0.3694 cumulative IPC: 0.3473 (Simulation time: 00 hr 05 min 42 sec)
Heartbeat CPU 0 instructions: 54500348 cycles: 27366166 heartbeat IPC: 0.268 cumulative IPC: 0.3362 (Simulation time: 00 hr 05 min 55 sec)
Heartbeat CPU 0 instructions: 55000348 cycles: 29703051 heartbeat IPC: 0.214 cumulative IPC: 0.3181 (Simulation time: 00 hr 06 min 11 sec)
Heartbeat CPU 0 instructions: 55500348 cycles: 31294727 heartbeat IPC: 0.3141 cumulative IPC: 0.3177 (Simulation time: 00 hr 06 min 22 sec)
Heartbeat CPU 0 instructions: 56000353 cycles: 32414416 heartbeat IPC: 0.4466 cumulative IPC: 0.3255 (Simulation time: 00 hr 06 min 33 sec)
Heartbeat CPU 0 instructions: 56500354 cycles: 33415190 heartbeat IPC: 0.4996 cumulative IPC: 0.3345 (Simulation time: 00 hr 06 min 42 sec)
Heartbeat CPU 0 instructions: 57000354 cycles: 34290262 heartbeat IPC: 0.5714 cumulative IPC: 0.3447 (Simulation time: 00 hr 06 min 51 sec)
Heartbeat CPU 0 instructions: 57500354 cycles: 36054347 heartbeat IPC: 0.2834 cumulative IPC: 0.3398 (Simulation time: 00 hr 07 min 05 sec)
Heartbeat CPU 0 instructions: 58000354 cycles: 37334714 heartbeat IPC: 0.3905 cumulative IPC: 0.3426 (Simulation time: 00 hr 07 min 14 sec)
Heartbeat CPU 0 instructions: 58500356 cycles: 40005593 heartbeat IPC: 0.1872 cumulative IPC: 0.3266 (Simulation time: 00 hr 07 min 32 sec)
Heartbeat CPU 0 instructions: 59000357 cycles: 41461672 heartbeat IPC: 0.3434 cumulative IPC: 0.3275 (Simulation time: 00 hr 07 min 42 sec)
Heartbeat CPU 0 instructions: 59500361 cycles: 41896070 heartbeat IPC: 1.151 cumulative IPC: 0.3403 (Simulation time: 00 hr 07 min 46 sec)
Heartbeat CPU 0 instructions: 60000362 cycles: 42240666 heartbeat IPC: 1.451 cumulative IPC: 0.3539 (Simulation time: 00 hr 07 min 50 sec)
Heartbeat CPU 0 instructions: 60500362 cycles: 42872167 heartbeat IPC: 0.7918 cumulative IPC: 0.3635 (Simulation time: 00 hr 07 min 55 sec)
Heartbeat CPU 0 instructions: 61000364 cycles: 44446289 heartbeat IPC: 0.3176 cumulative IPC: 0.3611 (Simulation time: 00 hr 08 min 06 sec)
Heartbeat CPU 0 instructions: 61500364 cycles: 45489976 heartbeat IPC: 0.4791 cumulative IPC: 0.365 (Simulation time: 00 hr 08 min 14 sec)
Heartbeat CPU 0 instructions: 62000364 cycles: 46626115 heartbeat IPC: 0.4401 cumulative IPC: 0.3676 (Simulation time: 00 hr 08 min 23 sec)
Heartbeat CPU 0 instructions: 62500365 cycles: 48420319 heartbeat IPC: 0.2787 cumulative IPC: 0.363 (Simulation time: 00 hr 08 min 35 sec)
Heartbeat CPU 0 instructions: 63000368 cycles: 49716862 heartbeat IPC: 0.3856 cumulative IPC: 0.3638 (Simulation time: 00 hr 08 min 45 sec)
Heartbeat CPU 0 instructions: 63500369 cycles: 51649202 heartbeat IPC: 0.2588 cumulative IPC: 0.3584 (Simulation time: 00 hr 08 min 59 sec)
Heartbeat CPU 0 instructions: 64000370 cycles: 53819225 heartbeat IPC: 0.2304 cumulative IPC: 0.3514 (Simulation time: 00 hr 09 min 14 sec)
Heartbeat CPU 0 instructions: 64500370 cycles: 55235139 heartbeat IPC: 0.3531 cumulative IPC: 0.3515 (Simulation time: 00 hr 09 min 24 sec)
Heartbeat CPU 0 instructions: 65000374 cycles: 56541320 heartbeat IPC: 0.3828 cumulative IPC: 0.3525 (Simulation time: 00 hr 09 min 34 sec)
Heartbeat CPU 0 instructions: 65500379 cycles: 57965708 heartbeat IPC: 0.351 cumulative IPC: 0.3524 (Simulation time: 00 hr 09 min 44 sec)
Heartbeat CPU 0 instructions: 66000381 cycles: 59713618 heartbeat IPC: 0.2861 cumulative IPC: 0.3499 (Simulation time: 00 hr 09 min 57 sec)
Heartbeat CPU 0 instructions: 66500386 cycles: 62130156 heartbeat IPC: 0.2069 cumulative IPC: 0.3427 (Simulation time: 00 hr 10 min 13 sec)
Heartbeat CPU 0 instructions: 67000391 cycles: 63990131 heartbeat IPC: 0.2688 cumulative IPC: 0.34 (Simulation time: 00 hr 10 min 26 sec)
Heartbeat CPU 0 instructions: 67500397 cycles: 65139318 heartbeat IPC: 0.4351 cumulative IPC: 0.3421 (Simulation time: 00 hr 10 min 35 sec)
Heartbeat CPU 0 instructions: 68000397 cycles: 66456390 heartbeat IPC: 0.3796 cumulative IPC: 0.343 (Simulation time: 00 hr 10 min 44 sec)
Heartbeat CPU 0 instructions: 68500402 cycles: 68461664 heartbeat IPC: 0.2493 cumulative IPC: 0.3396 (Simulation time: 00 hr 10 min 58 sec)
Heartbeat CPU 0 instructions: 69000402 cycles: 70575563 heartbeat IPC: 0.2365 cumulative IPC: 0.3357 (Simulation time: 00 hr 11 min 12 sec)
Heartbeat CPU 0 instructions: 69500403 cycles: 70967553 heartbeat IPC: 1.276 cumulative IPC: 0.3422 (Simulation time: 00 hr 11 min 16 sec)
Heartbeat CPU 0 instructions: 70000403 cycles: 71334672 heartbeat IPC: 1.362 cumulative IPC: 0.3487 (Simulation time: 00 hr 11 min 20 sec)
Heartbeat CPU 0 instructions: 70500406 cycles: 71781411 heartbeat IPC: 1.119 cumulative IPC: 0.3547 (Simulation time: 00 hr 11 min 23 sec)
Heartbeat CPU 0 instructions: 71000409 cycles: 73832878 heartbeat IPC: 0.2437 cumulative IPC: 0.3509 (Simulation time: 00 hr 11 min 37 sec)
Heartbeat CPU 0 instructions: 71500410 cycles: 75319126 heartbeat IPC: 0.3364 cumulative IPC: 0.3505 (Simulation time: 00 hr 11 min 48 sec)
Heartbeat CPU 0 instructions: 72000412 cycles: 76730344 heartbeat IPC: 0.3543 cumulative IPC: 0.3506 (Simulation time: 00 hr 11 min 58 sec)
Heartbeat CPU 0 instructions: 72500414 cycles: 78056769 heartbeat IPC: 0.377 cumulative IPC: 0.3512 (Simulation time: 00 hr 12 min 08 sec)
Heartbeat CPU 0 instructions: 73000416 cycles: 81028434 heartbeat IPC: 0.1683 cumulative IPC: 0.3431 (Simulation time: 00 hr 12 min 27 sec)
Heartbeat CPU 0 instructions: 73500417 cycles: 82284360 heartbeat IPC: 0.3981 cumulative IPC: 0.3441 (Simulation time: 00 hr 12 min 37 sec)
Heartbeat CPU 0 instructions: 74000417 cycles: 83138924 heartbeat IPC: 0.5851 cumulative IPC: 0.347 (Simulation time: 00 hr 12 min 44 sec)
Heartbeat CPU 0 instructions: 74500418 cycles: 84164566 heartbeat IPC: 0.4875 cumulative IPC: 0.3491 (Simulation time: 00 hr 12 min 52 sec)
Heartbeat CPU 0 instructions: 75000420 cycles: 85726204 heartbeat IPC: 0.3202 cumulative IPC: 0.3485 (Simulation time: 00 hr 13 min 03 sec)
Heartbeat CPU 0 instructions: 75500427 cycles: 86955472 heartbeat IPC: 0.4068 cumulative IPC: 0.3494 (Simulation time: 00 hr 13 min 13 sec)
Heartbeat CPU 0 instructions: 76000427 cycles: 88268811 heartbeat IPC: 0.3807 cumulative IPC: 0.35 (Simulation time: 00 hr 13 min 22 sec)
Heartbeat CPU 0 instructions: 76500427 cycles: 89565200 heartbeat IPC: 0.3857 cumulative IPC: 0.3506 (Simulation time: 00 hr 13 min 32 sec)
Heartbeat CPU 0 instructions: 77000431 cycles: 90642631 heartbeat IPC: 0.4641 cumulative IPC: 0.3522 (Simulation time: 00 hr 13 min 40 sec)
Heartbeat CPU 0 instructions: 77500433 cycles: 92089025 heartbeat IPC: 0.3457 cumulative IPC: 0.3521 (Simulation time: 00 hr 13 min 51 sec)
Heartbeat CPU 0 instructions: 78000437 cycles: 93438252 heartbeat IPC: 0.3706 cumulative IPC: 0.3524 (Simulation time: 00 hr 14 min 01 sec)
Heartbeat CPU 0 instructions: 78500438 cycles: 95016021 heartbeat IPC: 0.3169 cumulative IPC: 0.3517 (Simulation time: 00 hr 14 min 13 sec)
Heartbeat CPU 0 instructions: 79000441 cycles: 96628233 heartbeat IPC: 0.3101 cumulative IPC: 0.3509 (Simulation time: 00 hr 14 min 24 sec)
Heartbeat CPU 0 instructions: 79500442 cycles: 97898499 heartbeat IPC: 0.3936 cumulative IPC: 0.3515 (Simulation time: 00 hr 14 min 34 sec)
Heartbeat CPU 0 instructions: 80000443 cycles: 100152174 heartbeat IPC: 0.2219 cumulative IPC: 0.3482 (Simulation time: 00 hr 14 min 49 sec)
Heartbeat CPU 0 instructions: 80500445 cycles: 101803897 heartbeat IPC: 0.3027 cumulative IPC: 0.3473 (Simulation time: 00 hr 15 min 01 sec)
Heartbeat CPU 0 instructions: 81000450 cycles: 102823411 heartbeat IPC: 0.4904 cumulative IPC: 0.3489 (Simulation time: 00 hr 15 min 09 sec)
Heartbeat CPU 0 instructions: 81500451 cycles: 104606800 heartbeat IPC: 0.2804 cumulative IPC: 0.3476 (Simulation time: 00 hr 15 min 22 sec)
Heartbeat CPU 0 instructions: 82000452 cycles: 105692541 heartbeat IPC: 0.4605 cumulative IPC: 0.3489 (Simulation time: 00 hr 15 min 30 sec)
Heartbeat CPU 0 instructions: 82500454 cycles: 106920922 heartbeat IPC: 0.407 cumulative IPC: 0.3497 (Simulation time: 00 hr 15 min 40 sec)
Heartbeat CPU 0 instructions: 83000460 cycles: 108754600 heartbeat IPC: 0.2727 cumulative IPC: 0.3482 (Simulation time: 00 hr 15 min 52 sec)
Heartbeat CPU 0 instructions: 83500461 cycles: 110022819 heartbeat IPC: 0.3943 cumulative IPC: 0.3488 (Simulation time: 00 hr 16 min 02 sec)
Heartbeat CPU 0 instructions: 84000463 cycles: 111554578 heartbeat IPC: 0.3264 cumulative IPC: 0.3485 (Simulation time: 00 hr 16 min 13 sec)
Heartbeat CPU 0 instructions: 84500468 cycles: 112722904 heartbeat IPC: 0.428 cumulative IPC: 0.3494 (Simulation time: 00 hr 16 min 22 sec)
Heartbeat CPU 0 instructions: 85000470 cycles: 113764689 heartbeat IPC: 0.4799 cumulative IPC: 0.3508 (Simulation time: 00 hr 16 min 30 sec)
Heartbeat CPU 0 instructions: 85500470 cycles: 114719839 heartbeat IPC: 0.5235 cumulative IPC: 0.3524 (Simulation time: 00 hr 16 min 38 sec)
Heartbeat CPU 0 instructions: 86000470 cycles: 116287071 heartbeat IPC: 0.319 cumulative IPC: 0.3519 (Simulation time: 00 hr 16 min 49 sec)
Heartbeat CPU 0 instructions: 86500470 cycles: 117862126 heartbeat IPC: 0.3174 cumulative IPC: 0.3514 (Simulation time: 00 hr 17 min 00 sec)
Heartbeat CPU 0 instructions: 87000471 cycles: 119763444 heartbeat IPC: 0.263 cumulative IPC: 0.3498 (Simulation time: 00 hr 17 min 14 sec)
Heartbeat CPU 0 instructions: 87500475 cycles: 121081145 heartbeat IPC: 0.3795 cumulative IPC: 0.3501 (Simulation time: 00 hr 17 min 24 sec)
Heartbeat CPU 0 instructions: 88000476 cycles: 122165358 heartbeat IPC: 0.4612 cumulative IPC: 0.3513 (Simulation time: 00 hr 17 min 32 sec)
Heartbeat CPU 0 instructions: 88500477 cycles: 123589682 heartbeat IPC: 0.351 cumulative IPC: 0.3513 (Simulation time: 00 hr 17 min 43 sec)
Heartbeat CPU 0 instructions: 89000478 cycles: 124848474 heartbeat IPC: 0.3972 cumulative IPC: 0.3518 (Simulation time: 00 hr 17 min 52 sec)
Heartbeat CPU 0 instructions: 89500484 cycles: 126167970 heartbeat IPC: 0.3789 cumulative IPC: 0.3521 (Simulation time: 00 hr 18 min 02 sec)
Heartbeat CPU 0 instructions: 90000486 cycles: 127123175 heartbeat IPC: 0.5234 cumulative IPC: 0.3535 (Simulation time: 00 hr 18 min 10 sec)
Heartbeat CPU 0 instructions: 90500486 cycles: 128372837 heartbeat IPC: 0.4001 cumulative IPC: 0.3541 (Simulation time: 00 hr 18 min 19 sec)
Heartbeat CPU 0 instructions: 91000486 cycles: 129308613 heartbeat IPC: 0.5343 cumulative IPC: 0.3555 (Simulation time: 00 hr 18 min 26 sec)
Heartbeat CPU 0 instructions: 91500488 cycles: 130150381 heartbeat IPC: 0.594 cumulative IPC: 0.3572 (Simulation time: 00 hr 18 min 33 sec)
Heartbeat CPU 0 instructions: 92000488 cycles: 132849697 heartbeat IPC: 0.1852 cumulative IPC: 0.3533 (Simulation time: 00 hr 18 min 51 sec)
Heartbeat CPU 0 instructions: 92500491 cycles: 134515968 heartbeat IPC: 0.3001 cumulative IPC: 0.3526 (Simulation time: 00 hr 19 min 03 sec)
Heartbeat CPU 0 instructions: 93000491 cycles: 136338981 heartbeat IPC: 0.2743 cumulative IPC: 0.3514 (Simulation time: 00 hr 19 min 16 sec)
Heartbeat CPU 0 instructions: 93500491 cycles: 137994154 heartbeat IPC: 0.3021 cumulative IPC: 0.3508 (Simulation time: 00 hr 19 min 28 sec)
Heartbeat CPU 0 instructions: 94000492 cycles: 139298637 heartbeat IPC: 0.3833 cumulative IPC: 0.3511 (Simulation time: 00 hr 19 min 38 sec)
Heartbeat CPU 0 instructions: 94500492 cycles: 140435015 heartbeat IPC: 0.44 cumulative IPC: 0.3519 (Simulation time: 00 hr 19 min 47 sec)
Heartbeat CPU 0 instructions: 95000493 cycles: 140936307 heartbeat IPC: 0.9974 cumulative IPC: 0.3545 (Simulation time: 00 hr 19 min 52 sec)
Heartbeat CPU 0 instructions: 95500497 cycles: 142813774 heartbeat IPC: 0.2663 cumulative IPC: 0.3532 (Simulation time: 00 hr 20 min 05 sec)
Heartbeat CPU 0 instructions: 96000497 cycles: 143825182 heartbeat IPC: 0.4944 cumulative IPC: 0.3543 (Simulation time: 00 hr 20 min 13 sec)
Heartbeat CPU 0 instructions: 96500498 cycles: 145386534 heartbeat IPC: 0.3202 cumulative IPC: 0.3539 (Simulation time: 00 hr 20 min 24 sec)
Heartbeat CPU 0 instructions: 97000500 cycles: 146134205 heartbeat IPC: 0.6687 cumulative IPC: 0.3557 (Simulation time: 00 hr 20 min 31 sec)
Heartbeat CPU 0 instructions: 97500502 cycles: 147428419 heartbeat IPC: 0.3863 cumulative IPC: 0.356 (Simulation time: 00 hr 20 min 40 sec)
Heartbeat CPU 0 instructions: 98000505 cycles: 148943300 heartbeat IPC: 0.3301 cumulative IPC: 0.3557 (Simulation time: 00 hr 20 min 51 sec)
Heartbeat CPU 0 instructions: 98500508 cycles: 150474347 heartbeat IPC: 0.3266 cumulative IPC: 0.3553 (Simulation time: 00 hr 21 min 02 sec)
Heartbeat CPU 0 instructions: 99000508 cycles: 151856543 heartbeat IPC: 0.3617 cumulative IPC: 0.3554 (Simulation time: 00 hr 21 min 12 sec)
Heartbeat CPU 0 instructions: 99500508 cycles: 153500714 heartbeat IPC: 0.3041 cumulative IPC: 0.3548 (Simulation time: 00 hr 21 min 24 sec)
Heartbeat CPU 0 instructions: 100000509 cycles: 155283972 heartbeat IPC: 0.2804 cumulative IPC: 0.3539 (Simulation time: 00 hr 21 min 37 sec)
Heartbeat CPU 0 instructions: 100500516 cycles: 156663735 heartbeat IPC: 0.3624 cumulative IPC: 0.3539 (Simulation time: 00 hr 21 min 47 sec)
Heartbeat CPU 0 instructions: 101000519 cycles: 157126753 heartbeat IPC: 1.08 cumulative IPC: 0.3563 (Simulation time: 00 hr 21 min 51 sec)
Heartbeat CPU 0 instructions: 101500519 cycles: 158702967 heartbeat IPC: 0.3172 cumulative IPC: 0.3559 (Simulation time: 00 hr 22 min 02 sec)
Heartbeat CPU 0 instructions: 102000524 cycles: 160322699 heartbeat IPC: 0.3087 cumulative IPC: 0.3553 (Simulation time: 00 hr 22 min 13 sec)
Heartbeat CPU 0 instructions: 102500524 cycles: 161812293 heartbeat IPC: 0.3357 cumulative IPC: 0.3551 (Simulation time: 00 hr 22 min 24 sec)
Heartbeat CPU 0 instructions: 103000525 cycles: 163157469 heartbeat IPC: 0.3717 cumulative IPC: 0.3553 (Simulation time: 00 hr 22 min 34 sec)
Heartbeat CPU 0 instructions: 103500531 cycles: 164417695 heartbeat IPC: 0.3968 cumulative IPC: 0.3556 (Simulation time: 00 hr 22 min 43 sec)
Heartbeat CPU 0 instructions: 104000531 cycles: 165472589 heartbeat IPC: 0.474 cumulative IPC: 0.3565 (Simulation time: 00 hr 22 min 51 sec)
Heartbeat CPU 0 instructions: 104500532 cycles: 166990256 heartbeat IPC: 0.3295 cumulative IPC: 0.3562 (Simulation time: 00 hr 23 min 02 sec)
Heartbeat CPU 0 instructions: 105000532 cycles: 168095531 heartbeat IPC: 0.4524 cumulative IPC: 0.3569 (Simulation time: 00 hr 23 min 11 sec)
Heartbeat CPU 0 instructions: 105500535 cycles: 169048467 heartbeat IPC: 0.5247 cumulative IPC: 0.3579 (Simulation time: 00 hr 23 min 19 sec)
Heartbeat CPU 0 instructions: 106000539 cycles: 170790155 heartbeat IPC: 0.2871 cumulative IPC: 0.3571 (Simulation time: 00 hr 23 min 31 sec)
Heartbeat CPU 0 instructions: 106500543 cycles: 172418535 heartbeat IPC: 0.3071 cumulative IPC: 0.3566 (Simulation time: 00 hr 23 min 43 sec)
Heartbeat CPU 0 instructions: 107000543 cycles: 174774245 heartbeat IPC: 0.2123 cumulative IPC: 0.3545 (Simulation time: 00 hr 23 min 59 sec)
Heartbeat CPU 0 instructions: 107500544 cycles: 176883125 heartbeat IPC: 0.2371 cumulative IPC: 0.353 (Simulation time: 00 hr 24 min 14 sec)
Heartbeat CPU 0 instructions: 108000546 cycles: 178355583 heartbeat IPC: 0.3396 cumulative IPC: 0.3529 (Simulation time: 00 hr 24 min 25 sec)
Heartbeat CPU 0 instructions: 108500552 cycles: 179564299 heartbeat IPC: 0.4137 cumulative IPC: 0.3533 (Simulation time: 00 hr 24 min 34 sec)
Heartbeat CPU 0 instructions: 109000559 cycles: 182118873 heartbeat IPC: 0.1957 cumulative IPC: 0.3509 (Simulation time: 00 hr 24 min 51 sec)
Heartbeat CPU 0 instructions: 109500561 cycles: 183340170 heartbeat IPC: 0.4094 cumulative IPC: 0.3513 (Simulation time: 00 hr 25 min 01 sec)
Heartbeat CPU 0 instructions: 110000562 cycles: 185059853 heartbeat IPC: 0.2908 cumulative IPC: 0.3507 (Simulation time: 00 hr 25 min 14 sec)
Heartbeat CPU 0 instructions: 110500562 cycles: 186242091 heartbeat IPC: 0.4229 cumulative IPC: 0.3512 (Simulation time: 00 hr 25 min 23 sec)
Heartbeat CPU 0 instructions: 111000565 cycles: 187885502 heartbeat IPC: 0.3042 cumulative IPC: 0.3508 (Simulation time: 00 hr 25 min 36 sec)
Heartbeat CPU 0 instructions: 111500572 cycles: 190482463 heartbeat IPC: 0.1925 cumulative IPC: 0.3484 (Simulation time: 00 hr 25 min 53 sec)
Heartbeat CPU 0 instructions: 112000572 cycles: 192695204 heartbeat IPC: 0.226 cumulative IPC: 0.3469 (Simulation time: 00 hr 26 min 08 sec)
Heartbeat CPU 0 instructions: 112500574 cycles: 194344742 heartbeat IPC: 0.3031 cumulative IPC: 0.3465 (Simulation time: 00 hr 26 min 20 sec)
Heartbeat CPU 0 instructions: 113000579 cycles: 195693876 heartbeat IPC: 0.3706 cumulative IPC: 0.3467 (Simulation time: 00 hr 26 min 30 sec)
Heartbeat CPU 0 instructions: 113500583 cycles: 197753474 heartbeat IPC: 0.2428 cumulative IPC: 0.3455 (Simulation time: 00 hr 26 min 44 sec)
Heartbeat CPU 0 instructions: 114000583 cycles: 199069944 heartbeat IPC: 0.3798 cumulative IPC: 0.3458 (Simulation time: 00 hr 26 min 54 sec)
Heartbeat CPU 0 instructions: 114500586 cycles: 200218291 heartbeat IPC: 0.4354 cumulative IPC: 0.3463 (Simulation time: 00 hr 27 min 03 sec)
Heartbeat CPU 0 instructions: 115000586 cycles: 201643807 heartbeat IPC: 0.3508 cumulative IPC: 0.3464 (Simulation time: 00 hr 27 min 13 sec)
Heartbeat CPU 0 instructions: 115500588 cycles: 203603875 heartbeat IPC: 0.2551 cumulative IPC: 0.3454 (Simulation time: 00 hr 27 min 27 sec)
Heartbeat CPU 0 instructions: 116000592 cycles: 204306765 heartbeat IPC: 0.7114 cumulative IPC: 0.3468 (Simulation time: 00 hr 27 min 32 sec)
Heartbeat CPU 0 instructions: 116500593 cycles: 205587558 heartbeat IPC: 0.3904 cumulative IPC: 0.3471 (Simulation time: 00 hr 27 min 42 sec)
Heartbeat CPU 0 instructions: 117000597 cycles: 207816145 heartbeat IPC: 0.2244 cumulative IPC: 0.3457 (Simulation time: 00 hr 27 min 57 sec)
Heartbeat CPU 0 instructions: 117500597 cycles: 209848851 heartbeat IPC: 0.246 cumulative IPC: 0.3446 (Simulation time: 00 hr 28 min 12 sec)
Heartbeat CPU 0 instructions: 118000598 cycles: 211569357 heartbeat IPC: 0.2906 cumulative IPC: 0.3442 (Simulation time: 00 hr 28 min 24 sec)
Heartbeat CPU 0 instructions: 118500598 cycles: 213323393 heartbeat IPC: 0.2851 cumulative IPC: 0.3436 (Simulation time: 00 hr 28 min 36 sec)
Heartbeat CPU 0 instructions: 119000600 cycles: 214391560 heartbeat IPC: 0.4681 cumulative IPC: 0.3443 (Simulation time: 00 hr 28 min 44 sec)
Heartbeat CPU 0 instructions: 119500600 cycles: 216207587 heartbeat IPC: 0.2753 cumulative IPC: 0.3437 (Simulation time: 00 hr 28 min 57 sec)
Heartbeat CPU 0 instructions: 120000601 cycles: 218829329 heartbeat IPC: 0.1907 cumulative IPC: 0.3417 (Simulation time: 00 hr 29 min 15 sec)
Heartbeat CPU 0 instructions: 120500603 cycles: 220125456 heartbeat IPC: 0.3858 cumulative IPC: 0.342 (Simulation time: 00 hr 29 min 24 sec)
Heartbeat CPU 0 instructions: 121000603 cycles: 221352616 heartbeat IPC: 0.4074 cumulative IPC: 0.3424 (Simulation time: 00 hr 29 min 33 sec)
Heartbeat CPU 0 instructions: 121500610 cycles: 223111234 heartbeat IPC: 0.2843 cumulative IPC: 0.3419 (Simulation time: 00 hr 29 min 45 sec)
Heartbeat CPU 0 instructions: 122000610 cycles: 225422687 heartbeat IPC: 0.2163 cumulative IPC: 0.3405 (Simulation time: 00 hr 30 min 01 sec)
Heartbeat CPU 0 instructions: 122500610 cycles: 228150687 heartbeat IPC: 0.1833 cumulative IPC: 0.3385 (Simulation time: 00 hr 30 min 20 sec)
Heartbeat CPU 0 instructions: 123000610 cycles: 230379218 heartbeat IPC: 0.2244 cumulative IPC: 0.3373 (Simulation time: 00 hr 30 min 35 sec)
Heartbeat CPU 0 instructions: 123500614 cycles: 231692767 heartbeat IPC: 0.3807 cumulative IPC: 0.3376 (Simulation time: 00 hr 30 min 45 sec)
Heartbeat CPU 0 instructions: 124000615 cycles: 232913182 heartbeat IPC: 0.4097 cumulative IPC: 0.338 (Simulation time: 00 hr 30 min 54 sec)
Heartbeat CPU 0 instructions: 124500618 cycles: 234421265 heartbeat IPC: 0.3315 cumulative IPC: 0.338 (Simulation time: 00 hr 31 min 05 sec)
Heartbeat CPU 0 instructions: 125000618 cycles: 237190162 heartbeat IPC: 0.1806 cumulative IPC: 0.336 (Simulation time: 00 hr 31 min 23 sec)
Heartbeat CPU 0 instructions: 125500618 cycles: 239405785 heartbeat IPC: 0.2257 cumulative IPC: 0.3349 (Simulation time: 00 hr 31 min 39 sec)
Heartbeat CPU 0 instructions: 126000619 cycles: 240743382 heartbeat IPC: 0.3738 cumulative IPC: 0.3352 (Simulation time: 00 hr 31 min 49 sec)
Heartbeat CPU 0 instructions: 126500619 cycles: 241928110 heartbeat IPC: 0.422 cumulative IPC: 0.3356 (Simulation time: 00 hr 31 min 58 sec)
Heartbeat CPU 0 instructions: 127000623 cycles: 242881789 heartbeat IPC: 0.5243 cumulative IPC: 0.3364 (Simulation time: 00 hr 32 min 05 sec)
Heartbeat CPU 0 instructions: 127500623 cycles: 243934879 heartbeat IPC: 0.4748 cumulative IPC: 0.337 (Simulation time: 00 hr 32 min 14 sec)
Heartbeat CPU 0 instructions: 128000626 cycles: 245315074 heartbeat IPC: 0.3623 cumulative IPC: 0.3372 (Simulation time: 00 hr 32 min 24 sec)
Heartbeat CPU 0 instructions: 128500629 cycles: 247383767 heartbeat IPC: 0.2417 cumulative IPC: 0.3363 (Simulation time: 00 hr 32 min 38 sec)
Heartbeat CPU 0 instructions: 129000629 cycles: 248859812 heartbeat IPC: 0.3387 cumulative IPC: 0.3363 (Simulation time: 00 hr 32 min 49 sec)
Heartbeat CPU 0 instructions: 129500630 cycles: 250027184 heartbeat IPC: 0.4283 cumulative IPC: 0.3368 (Simulation time: 00 hr 32 min 58 sec)
Heartbeat CPU 0 instructions: 130000630 cycles: 251279450 heartbeat IPC: 0.3993 cumulative IPC: 0.3371 (Simulation time: 00 hr 33 min 07 sec)
Heartbeat CPU 0 instructions: 130500632 cycles: 252310734 heartbeat IPC: 0.4848 cumulative IPC: 0.3378 (Simulation time: 00 hr 33 min 15 sec)
Heartbeat CPU 0 instructions: 131000632 cycles: 253107816 heartbeat IPC: 0.6273 cumulative IPC: 0.3387 (Simulation time: 00 hr 33 min 21 sec)
Heartbeat CPU 0 instructions: 131500634 cycles: 254370180 heartbeat IPC: 0.3961 cumulative IPC: 0.339 (Simulation time: 00 hr 33 min 31 sec)
Heartbeat CPU 0 instructions: 132000635 cycles: 255588028 heartbeat IPC: 0.4106 cumulative IPC: 0.3394 (Simulation time: 00 hr 33 min 40 sec)
Heartbeat CPU 0 instructions: 132500636 cycles: 257861042 heartbeat IPC: 0.22 cumulative IPC: 0.3383 (Simulation time: 00 hr 33 min 56 sec)
Heartbeat CPU 0 instructions: 133000636 cycles: 259401568 heartbeat IPC: 0.3246 cumulative IPC: 0.3382 (Simulation time: 00 hr 34 min 07 sec)
Heartbeat CPU 0 instructions: 133500636 cycles: 260729849 heartbeat IPC: 0.3764 cumulative IPC: 0.3384 (Simulation time: 00 hr 34 min 17 sec)
Heartbeat CPU 0 instructions: 134000637 cycles: 261941480 heartbeat IPC: 0.4127 cumulative IPC: 0.3388 (Simulation time: 00 hr 34 min 26 sec)
Heartbeat CPU 0 instructions: 134500637 cycles: 262988843 heartbeat IPC: 0.4774 cumulative IPC: 0.3394 (Simulation time: 00 hr 34 min 34 sec)
Heartbeat CPU 0 instructions: 135000640 cycles: 263428821 heartbeat IPC: 1.136 cumulative IPC: 0.3408 (Simulation time: 00 hr 34 min 38 sec)
Heartbeat CPU 0 instructions: 135500646 cycles: 263789769 heartbeat IPC: 1.385 cumulative IPC: 0.3423 (Simulation time: 00 hr 34 min 41 sec)
Heartbeat CPU 0 instructions: 136000646 cycles: 264140673 heartbeat IPC: 1.425 cumulative IPC: 0.3438 (Simulation time: 00 hr 34 min 45 sec)
Heartbeat CPU 0 instructions: 136500652 cycles: 264577929 heartbeat IPC: 1.144 cumulative IPC: 0.3452 (Simulation time: 00 hr 34 min 49 sec)
Heartbeat CPU 0 instructions: 137000653 cycles: 266312595 heartbeat IPC: 0.2882 cumulative IPC: 0.3448 (Simulation time: 00 hr 35 min 01 sec)
Heartbeat CPU 0 instructions: 137500654 cycles: 269723350 heartbeat IPC: 0.1466 cumulative IPC: 0.3421 (Simulation time: 00 hr 35 min 22 sec)
Heartbeat CPU 0 instructions: 138000654 cycles: 271546587 heartbeat IPC: 0.2742 cumulative IPC: 0.3417 (Simulation time: 00 hr 35 min 36 sec)
Heartbeat CPU 0 instructions: 138500657 cycles: 272777078 heartbeat IPC: 0.4063 cumulative IPC: 0.342 (Simulation time: 00 hr 35 min 45 sec)
Heartbeat CPU 0 instructions: 139000663 cycles: 274653426 heartbeat IPC: 0.2665 cumulative IPC: 0.3414 (Simulation time: 00 hr 35 min 58 sec)
Heartbeat CPU 0 instructions: 139500666 cycles: 275935055 heartbeat IPC: 0.3901 cumulative IPC: 0.3417 (Simulation time: 00 hr 36 min 08 sec)
Heartbeat CPU 0 instructions: 140000666 cycles: 279153024 heartbeat IPC: 0.1554 cumulative IPC: 0.3394 (Simulation time: 00 hr 36 min 29 sec)
Heartbeat CPU 0 instructions: 140500671 cycles: 280856794 heartbeat IPC: 0.2935 cumulative IPC: 0.3391 (Simulation time: 00 hr 36 min 41 sec)
Heartbeat CPU 0 instructions: 141000673 cycles: 282475697 heartbeat IPC: 0.3089 cumulative IPC: 0.3389 (Simulation time: 00 hr 36 min 52 sec)
Heartbeat CPU 0 instructions: 141500674 cycles: 285456224 heartbeat IPC: 0.1678 cumulative IPC: 0.3371 (Simulation time: 00 hr 37 min 12 sec)
Heartbeat CPU 0 instructions: 142000674 cycles: 286931504 heartbeat IPC: 0.3389 cumulative IPC: 0.3371 (Simulation time: 00 hr 37 min 24 sec)
Heartbeat CPU 0 instructions: 142500674 cycles: 287669700 heartbeat IPC: 0.6773 cumulative IPC: 0.338 (Simulation time: 00 hr 37 min 30 sec)
Heartbeat CPU 0 instructions: 143000674 cycles: 288915171 heartbeat IPC: 0.4015 cumulative IPC: 0.3383 (Simulation time: 00 hr 37 min 39 sec)
Heartbeat CPU 0 instructions: 143500678 cycles: 290512251 heartbeat IPC: 0.3131 cumulative IPC: 0.3381 (Simulation time: 00 hr 37 min 51 sec)
Heartbeat CPU 0 instructions: 144000678 cycles: 292340244 heartbeat IPC: 0.2735 cumulative IPC: 0.3377 (Simulation time: 00 hr 38 min 04 sec)
Heartbeat CPU 0 instructions: 144500678 cycles: 294667360 heartbeat IPC: 0.2149 cumulative IPC: 0.3367 (Simulation time: 00 hr 38 min 20 sec)
Heartbeat CPU 0 instructions: 145000683 cycles: 296180855 heartbeat IPC: 0.3304 cumulative IPC: 0.3366 (Simulation time: 00 hr 38 min 31 sec)
Heartbeat CPU 0 instructions: 145500684 cycles: 297116858 heartbeat IPC: 0.5342 cumulative IPC: 0.3373 (Simulation time: 00 hr 38 min 38 sec)
Heartbeat CPU 0 instructions: 146000685 cycles: 299862992 heartbeat IPC: 0.1821 cumulative IPC: 0.3358 (Simulation time: 00 hr 38 min 57 sec)
Heartbeat CPU 0 instructions: 146500690 cycles: 301006083 heartbeat IPC: 0.4374 cumulative IPC: 0.3362 (Simulation time: 00 hr 39 min 05 sec)
Heartbeat CPU 0 instructions: 147000691 cycles: 302483945 heartbeat IPC: 0.3383 cumulative IPC: 0.3362 (Simulation time: 00 hr 39 min 17 sec)
Heartbeat CPU 0 instructions: 147500693 cycles: 303915830 heartbeat IPC: 0.3492 cumulative IPC: 0.3363 (Simulation time: 00 hr 39 min 28 sec)
Heartbeat CPU 0 instructions: 148000693 cycles: 306259896 heartbeat IPC: 0.2133 cumulative IPC: 0.3353 (Simulation time: 00 hr 39 min 44 sec)
Heartbeat CPU 0 instructions: 148500695 cycles: 307599782 heartbeat IPC: 0.3732 cumulative IPC: 0.3355 (Simulation time: 00 hr 39 min 55 sec)
Heartbeat CPU 0 instructions: 149000695 cycles: 309900874 heartbeat IPC: 0.2173 cumulative IPC: 0.3346 (Simulation time: 00 hr 40 min 11 sec)
Heartbeat CPU 0 instructions: 149500695 cycles: 311867010 heartbeat IPC: 0.2543 cumulative IPC: 0.334 (Simulation time: 00 hr 40 min 24 sec)
Heartbeat CPU 0 instructions: 150000695 cycles: 313016908 heartbeat IPC: 0.4348 cumulative IPC: 0.3344 (Simulation time: 00 hr 40 min 33 sec)
Heartbeat CPU 0 instructions: 150500701 cycles: 313367705 heartbeat IPC: 1.425 cumulative IPC: 0.3357 (Simulation time: 00 hr 40 min 36 sec)
Heartbeat CPU 0 instructions: 151000704 cycles: 313707795 heartbeat IPC: 1.47 cumulative IPC: 0.337 (Simulation time: 00 hr 40 min 40 sec)
Heartbeat CPU 0 instructions: 151500704 cycles: 314267140 heartbeat IPC: 0.8939 cumulative IPC: 0.338 (Simulation time: 00 hr 40 min 44 sec)
Heartbeat CPU 0 instructions: 152000707 cycles: 315881252 heartbeat IPC: 0.3098 cumulative IPC: 0.3379 (Simulation time: 00 hr 40 min 56 sec)
Heartbeat CPU 0 instructions: 152500708 cycles: 317992114 heartbeat IPC: 0.2369 cumulative IPC: 0.3372 (Simulation time: 00 hr 41 min 10 sec)
Heartbeat CPU 0 instructions: 153000708 cycles: 319185193 heartbeat IPC: 0.4191 cumulative IPC: 0.3375 (Simulation time: 00 hr 41 min 19 sec)
Heartbeat CPU 0 instructions: 153500709 cycles: 322037144 heartbeat IPC: 0.1753 cumulative IPC: 0.336 (Simulation time: 00 hr 41 min 38 sec)
Heartbeat CPU 0 instructions: 154000712 cycles: 323524499 heartbeat IPC: 0.3362 cumulative IPC: 0.336 (Simulation time: 00 hr 41 min 49 sec)
Heartbeat CPU 0 instructions: 154500717 cycles: 325257990 heartbeat IPC: 0.2884 cumulative IPC: 0.3357 (Simulation time: 00 hr 42 min 01 sec)
Heartbeat CPU 0 instructions: 155000717 cycles: 326500298 heartbeat IPC: 0.4025 cumulative IPC: 0.336 (Simulation time: 00 hr 42 min 10 sec)
Heartbeat CPU 0 instructions: 155500718 cycles: 326871189 heartbeat IPC: 1.348 cumulative IPC: 0.3372 (Simulation time: 00 hr 42 min 14 sec)
Heartbeat CPU 0 instructions: 156000718 cycles: 327277850 heartbeat IPC: 1.23 cumulative IPC: 0.3383 (Simulation time: 00 hr 42 min 18 sec)
Heartbeat CPU 0 instructions: 156500721 cycles: 329042958 heartbeat IPC: 0.2833 cumulative IPC: 0.338 (Simulation time: 00 hr 42 min 30 sec)
Heartbeat CPU 0 instructions: 157000722 cycles: 331823168 heartbeat IPC: 0.1798 cumulative IPC: 0.3366 (Simulation time: 00 hr 42 min 48 sec)
Heartbeat CPU 0 instructions: 157500723 cycles: 333917043 heartbeat IPC: 0.2388 cumulative IPC: 0.336 (Simulation time: 00 hr 43 min 03 sec)
Heartbeat CPU 0 instructions: 158000723 cycles: 336283276 heartbeat IPC: 0.2113 cumulative IPC: 0.3351 (Simulation time: 00 hr 43 min 19 sec)
Heartbeat CPU 0 instructions: 158500730 cycles: 337632923 heartbeat IPC: 0.3705 cumulative IPC: 0.3352 (Simulation time: 00 hr 43 min 29 sec)
Heartbeat CPU 0 instructions: 159000730 cycles: 339030934 heartbeat IPC: 0.3577 cumulative IPC: 0.3353 (Simulation time: 00 hr 43 min 39 sec)
Heartbeat CPU 0 instructions: 159500734 cycles: 339961695 heartbeat IPC: 0.5372 cumulative IPC: 0.3359 (Simulation time: 00 hr 43 min 47 sec)
Heartbeat CPU 0 instructions: 160000737 cycles: 341531537 heartbeat IPC: 0.3185 cumulative IPC: 0.3358 (Simulation time: 00 hr 43 min 58 sec)
Heartbeat CPU 0 instructions: 160500737 cycles: 343876871 heartbeat IPC: 0.2132 cumulative IPC: 0.335 (Simulation time: 00 hr 44 min 14 sec)
Heartbeat CPU 0 instructions: 161000739 cycles: 344570186 heartbeat IPC: 0.7212 cumulative IPC: 0.3358 (Simulation time: 00 hr 44 min 20 sec)
Heartbeat CPU 0 instructions: 161500740 cycles: 345406305 heartbeat IPC: 0.598 cumulative IPC: 0.3364 (Simulation time: 00 hr 44 min 27 sec)
Heartbeat CPU 0 instructions: 162000742 cycles: 347315263 heartbeat IPC: 0.2619 cumulative IPC: 0.336 (Simulation time: 00 hr 44 min 40 sec)
Heartbeat CPU 0 instructions: 162500746 cycles: 348965730 heartbeat IPC: 0.3029 cumulative IPC: 0.3358 (Simulation time: 00 hr 44 min 52 sec)
Heartbeat CPU 0 instructions: 163000751 cycles: 349369397 heartbeat IPC: 1.239 cumulative IPC: 0.3369 (Simulation time: 00 hr 44 min 56 sec)
Heartbeat CPU 0 instructions: 163500756 cycles: 349738886 heartbeat IPC: 1.353 cumulative IPC: 0.338 (Simulation time: 00 hr 44 min 59 sec)
Heartbeat CPU 0 instructions: 164000756 cycles: 350059864 heartbeat IPC: 1.558 cumulative IPC: 0.3392 (Simulation time: 00 hr 45 min 03 sec)
Heartbeat CPU 0 instructions: 164500757 cycles: 350373707 heartbeat IPC: 1.593 cumulative IPC: 0.3404 (Simulation time: 00 hr 45 min 06 sec)
Heartbeat CPU 0 instructions: 165000757 cycles: 350689238 heartbeat IPC: 1.585 cumulative IPC: 0.3415 (Simulation time: 00 hr 45 min 09 sec)
Heartbeat CPU 0 instructions: 165500757 cycles: 351030970 heartbeat IPC: 1.463 cumulative IPC: 0.3427 (Simulation time: 00 hr 45 min 13 sec)
Heartbeat CPU 0 instructions: 166000760 cycles: 351368973 heartbeat IPC: 1.479 cumulative IPC: 0.3438 (Simulation time: 00 hr 45 min 16 sec)
Heartbeat CPU 0 instructions: 166500763 cycles: 351677806 heartbeat IPC: 1.619 cumulative IPC: 0.345 (Simulation time: 00 hr 45 min 19 sec)
Heartbeat CPU 0 instructions: 167000769 cycles: 351996639 heartbeat IPC: 1.568 cumulative IPC: 0.3461 (Simulation time: 00 hr 45 min 23 sec)
Heartbeat CPU 0 instructions: 167500772 cycles: 352300637 heartbeat IPC: 1.645 cumulative IPC: 0.3473 (Simulation time: 00 hr 45 min 26 sec)
Heartbeat CPU 0 instructions: 168000773 cycles: 353346381 heartbeat IPC: 0.4781 cumulative IPC: 0.3477 (Simulation time: 00 hr 45 min 33 sec)
Heartbeat CPU 0 instructions: 168500778 cycles: 356437348 heartbeat IPC: 0.1618 cumulative IPC: 0.346 (Simulation time: 00 hr 45 min 54 sec)
Heartbeat CPU 0 instructions: 169000782 cycles: 359080819 heartbeat IPC: 0.1891 cumulative IPC: 0.3448 (Simulation time: 00 hr 46 min 11 sec)
Heartbeat CPU 0 instructions: 169500785 cycles: 360593556 heartbeat IPC: 0.3305 cumulative IPC: 0.3448 (Simulation time: 00 hr 46 min 23 sec)
Heartbeat CPU 0 instructions: 170000787 cycles: 362131475 heartbeat IPC: 0.3251 cumulative IPC: 0.3447 (Simulation time: 00 hr 46 min 34 sec)
Heartbeat CPU 0 instructions: 170500789 cycles: 363119363 heartbeat IPC: 0.5061 cumulative IPC: 0.3451 (Simulation time: 00 hr 46 min 42 sec)
Heartbeat CPU 0 instructions: 171000789 cycles: 364105509 heartbeat IPC: 0.507 cumulative IPC: 0.3456 (Simulation time: 00 hr 46 min 49 sec)
Heartbeat CPU 0 instructions: 171500792 cycles: 364456687 heartbeat IPC: 1.424 cumulative IPC: 0.3467 (Simulation time: 00 hr 46 min 53 sec)
Heartbeat CPU 0 instructions: 172000793 cycles: 364781578 heartbeat IPC: 1.539 cumulative IPC: 0.3478 (Simulation time: 00 hr 46 min 56 sec)
Heartbeat CPU 0 instructions: 172500797 cycles: 365148376 heartbeat IPC: 1.363 cumulative IPC: 0.3488 (Simulation time: 00 hr 47 min 00 sec)
Heartbeat CPU 0 instructions: 173000798 cycles: 365447900 heartbeat IPC: 1.669 cumulative IPC: 0.35 (Simulation time: 00 hr 47 min 03 sec)
Heartbeat CPU 0 instructions: 173500802 cycles: 366281605 heartbeat IPC: 0.5997 cumulative IPC: 0.3506 (Simulation time: 00 hr 47 min 09 sec)
Heartbeat CPU 0 instructions: 174000803 cycles: 366596779 heartbeat IPC: 1.586 cumulative IPC: 0.3517 (Simulation time: 00 hr 47 min 13 sec)
Heartbeat CPU 0 instructions: 174500805 cycles: 367048380 heartbeat IPC: 1.107 cumulative IPC: 0.3526 (Simulation time: 00 hr 47 min 17 sec)
Heartbeat CPU 0 instructions: 175000808 cycles: 369895081 heartbeat IPC: 0.1756 cumulative IPC: 0.3512 (Simulation time: 00 hr 47 min 35 sec)
Heartbeat CPU 0 instructions: 175500812 cycles: 370901870 heartbeat IPC: 0.4966 cumulative IPC: 0.3516 (Simulation time: 00 hr 47 min 43 sec)
Heartbeat CPU 0 instructions: 176000814 cycles: 373357998 heartbeat IPC: 0.2036 cumulative IPC: 0.3506 (Simulation time: 00 hr 48 min 00 sec)
Heartbeat CPU 0 instructions: 176500815 cycles: 376024276 heartbeat IPC: 0.1875 cumulative IPC: 0.3494 (Simulation time: 00 hr 48 min 18 sec)
Heartbeat CPU 0 instructions: 177000820 cycles: 378118232 heartbeat IPC: 0.2388 cumulative IPC: 0.3488 (Simulation time: 00 hr 48 min 33 sec)
Heartbeat CPU 0 instructions: 177500822 cycles: 379861440 heartbeat IPC: 0.2868 cumulative IPC: 0.3485 (Simulation time: 00 hr 48 min 45 sec)
Heartbeat CPU 0 instructions: 178000826 cycles: 381805998 heartbeat IPC: 0.2571 cumulative IPC: 0.348 (Simulation time: 00 hr 48 min 59 sec)
Heartbeat CPU 0 instructions: 178500833 cycles: 382848010 heartbeat IPC: 0.4798 cumulative IPC: 0.3484 (Simulation time: 00 hr 49 min 08 sec)
Heartbeat CPU 0 instructions: 179000833 cycles: 385401361 heartbeat IPC: 0.1958 cumulative IPC: 0.3473 (Simulation time: 00 hr 49 min 25 sec)
Heartbeat CPU 0 instructions: 179500834 cycles: 386752124 heartbeat IPC: 0.3702 cumulative IPC: 0.3474 (Simulation time: 00 hr 49 min 35 sec)
Heartbeat CPU 0 instructions: 180000834 cycles: 388266087 heartbeat IPC: 0.3303 cumulative IPC: 0.3473 (Simulation time: 00 hr 49 min 46 sec)
Heartbeat CPU 0 instructions: 180500834 cycles: 389459166 heartbeat IPC: 0.4191 cumulative IPC: 0.3476 (Simulation time: 00 hr 49 min 55 sec)
Heartbeat CPU 0 instructions: 181000835 cycles: 389845112 heartbeat IPC: 1.296 cumulative IPC: 0.3485 (Simulation time: 00 hr 49 min 58 sec)
Heartbeat CPU 0 instructions: 181500836 cycles: 390215992 heartbeat IPC: 1.348 cumulative IPC: 0.3495 (Simulation time: 00 hr 50 min 02 sec)
Heartbeat CPU 0 instructions: 182000840 cycles: 390583065 heartbeat IPC: 1.362 cumulative IPC: 0.3505 (Simulation time: 00 hr 50 min 05 sec)
Heartbeat CPU 0 instructions: 182500844 cycles: 390994487 heartbeat IPC: 1.215 cumulative IPC: 0.3514 (Simulation time: 00 hr 50 min 09 sec)
Heartbeat CPU 0 instructions: 183000844 cycles: 391334711 heartbeat IPC: 1.47 cumulative IPC: 0.3525 (Simulation time: 00 hr 50 min 13 sec)
Heartbeat CPU 0 instructions: 183500847 cycles: 391705884 heartbeat IPC: 1.347 cumulative IPC: 0.3534 (Simulation time: 00 hr 50 min 16 sec)
Heartbeat CPU 0 instructions: 184000851 cycles: 393503027 heartbeat IPC: 0.2782 cumulative IPC: 0.3531 (Simulation time: 00 hr 50 min 28 sec)
Heartbeat CPU 0 instructions: 184500854 cycles: 395353489 heartbeat IPC: 0.2702 cumulative IPC: 0.3527 (Simulation time: 00 hr 50 min 41 sec)
Heartbeat CPU 0 instructions: 185000860 cycles: 397605976 heartbeat IPC: 0.222 cumulative IPC: 0.3519 (Simulation time: 00 hr 50 min 56 sec)
Heartbeat CPU 0 instructions: 185500863 cycles: 400431152 heartbeat IPC: 0.177 cumulative IPC: 0.3506 (Simulation time: 00 hr 51 min 15 sec)
Heartbeat CPU 0 instructions: 186000864 cycles: 402235421 heartbeat IPC: 0.2771 cumulative IPC: 0.3503 (Simulation time: 00 hr 51 min 27 sec)
Heartbeat CPU 0 instructions: 186500866 cycles: 403679041 heartbeat IPC: 0.3464 cumulative IPC: 0.3503 (Simulation time: 00 hr 51 min 38 sec)
Heartbeat CPU 0 instructions: 187000868 cycles: 404462770 heartbeat IPC: 0.638 cumulative IPC: 0.3509 (Simulation time: 00 hr 51 min 45 sec)
Heartbeat CPU 0 instructions: 187500871 cycles: 405785705 heartbeat IPC: 0.3779 cumulative IPC: 0.3509 (Simulation time: 00 hr 51 min 54 sec)
Heartbeat CPU 0 instructions: 188000872 cycles: 407823521 heartbeat IPC: 0.2454 cumulative IPC: 0.3504 (Simulation time: 00 hr 52 min 08 sec)
Heartbeat CPU 0 instructions: 188500876 cycles: 408918273 heartbeat IPC: 0.4567 cumulative IPC: 0.3507 (Simulation time: 00 hr 52 min 16 sec)
Heartbeat CPU 0 instructions: 189000878 cycles: 409753789 heartbeat IPC: 0.5984 cumulative IPC: 0.3512 (Simulation time: 00 hr 52 min 23 sec)
Heartbeat CPU 0 instructions: 189500880 cycles: 410081640 heartbeat IPC: 1.525 cumulative IPC: 0.3522 (Simulation time: 00 hr 52 min 26 sec)
Heartbeat CPU 0 instructions: 190000881 cycles: 410460956 heartbeat IPC: 1.318 cumulative IPC: 0.3531 (Simulation time: 00 hr 52 min 30 sec)
Heartbeat CPU 0 instructions: 190500884 cycles: 410865429 heartbeat IPC: 1.236 cumulative IPC: 0.354 (Simulation time: 00 hr 52 min 34 sec)
Heartbeat CPU 0 instructions: 191000889 cycles: 412512090 heartbeat IPC: 0.3036 cumulative IPC: 0.3538 (Simulation time: 00 hr 52 min 45 sec)
Heartbeat CPU 0 instructions: 191500889 cycles: 414587924 heartbeat IPC: 0.2409 cumulative IPC: 0.3532 (Simulation time: 00 hr 52 min 59 sec)
Heartbeat CPU 0 instructions: 192000889 cycles: 416582405 heartbeat IPC: 0.2507 cumulative IPC: 0.3527 (Simulation time: 00 hr 53 min 13 sec)
Heartbeat CPU 0 instructions: 192500893 cycles: 418096121 heartbeat IPC: 0.3303 cumulative IPC: 0.3526 (Simulation time: 00 hr 53 min 24 sec)
Heartbeat CPU 0 instructions: 193000895 cycles: 419655120 heartbeat IPC: 0.3207 cumulative IPC: 0.3525 (Simulation time: 00 hr 53 min 35 sec)
Heartbeat CPU 0 instructions: 193500897 cycles: 420875917 heartbeat IPC: 0.4096 cumulative IPC: 0.3527 (Simulation time: 00 hr 53 min 45 sec)
Heartbeat CPU 0 instructions: 194000900 cycles: 423258624 heartbeat IPC: 0.2098 cumulative IPC: 0.3518 (Simulation time: 00 hr 54 min 01 sec)
Heartbeat CPU 0 instructions: 194500900 cycles: 425070764 heartbeat IPC: 0.2759 cumulative IPC: 0.3515 (Simulation time: 00 hr 54 min 15 sec)
Heartbeat CPU 0 instructions: 195000902 cycles: 426409486 heartbeat IPC: 0.3735 cumulative IPC: 0.3516 (Simulation time: 00 hr 54 min 24 sec)
Heartbeat CPU 0 instructions: 195500903 cycles: 427425283 heartbeat IPC: 0.4922 cumulative IPC: 0.3519 (Simulation time: 00 hr 54 min 32 sec)
Heartbeat CPU 0 instructions: 196000904 cycles: 428095408 heartbeat IPC: 0.7461 cumulative IPC: 0.3526 (Simulation time: 00 hr 54 min 38 sec)
Heartbeat CPU 0 instructions: 196500904 cycles: 429680215 heartbeat IPC: 0.3155 cumulative IPC: 0.3524 (Simulation time: 00 hr 54 min 50 sec)
Heartbeat CPU 0 instructions: 197000906 cycles: 430651728 heartbeat IPC: 0.5147 cumulative IPC: 0.3528 (Simulation time: 00 hr 54 min 58 sec)
Heartbeat CPU 0 instructions: 197500907 cycles: 433070340 heartbeat IPC: 0.2067 cumulative IPC: 0.352 (Simulation time: 00 hr 55 min 14 sec)
Heartbeat CPU 0 instructions: 198000908 cycles: 435095376 heartbeat IPC: 0.2469 cumulative IPC: 0.3515 (Simulation time: 00 hr 55 min 28 sec)
Heartbeat CPU 0 instructions: 198500911 cycles: 436900347 heartbeat IPC: 0.277 cumulative IPC: 0.3511 (Simulation time: 00 hr 55 min 42 sec)
Heartbeat CPU 0 instructions: 199000912 cycles: 438297869 heartbeat IPC: 0.3578 cumulative IPC: 0.3512 (Simulation time: 00 hr 55 min 52 sec)
Heartbeat CPU 0 instructions: 199500912 cycles: 439215850 heartbeat IPC: 0.5447 cumulative IPC: 0.3516 (Simulation time: 00 hr 56 min 00 sec)
Heartbeat CPU 0 instructions: 200000918 cycles: 440661732 heartbeat IPC: 0.3458 cumulative IPC: 0.3516 (Simulation time: 00 hr 56 min 11 sec)
Heartbeat CPU 0 instructions: 200500918 cycles: 443153459 heartbeat IPC: 0.2007 cumulative IPC: 0.3507 (Simulation time: 00 hr 56 min 28 sec)
Heartbeat CPU 0 instructions: 201000919 cycles: 445222042 heartbeat IPC: 0.2417 cumulative IPC: 0.3502 (Simulation time: 00 hr 56 min 43 sec)
Heartbeat CPU 0 instructions: 201500920 cycles: 447422635 heartbeat IPC: 0.2272 cumulative IPC: 0.3495 (Simulation time: 00 hr 56 min 58 sec)
Heartbeat CPU 0 instructions: 202000927 cycles: 448645511 heartbeat IPC: 0.4089 cumulative IPC: 0.3497 (Simulation time: 00 hr 57 min 07 sec)
Heartbeat CPU 0 instructions: 202500928 cycles: 451441466 heartbeat IPC: 0.1788 cumulative IPC: 0.3486 (Simulation time: 00 hr 57 min 26 sec)
Heartbeat CPU 0 instructions: 203000932 cycles: 453847422 heartbeat IPC: 0.2078 cumulative IPC: 0.3478 (Simulation time: 00 hr 57 min 42 sec)
Heartbeat CPU 0 instructions: 203500935 cycles: 455294030 heartbeat IPC: 0.3456 cumulative IPC: 0.3478 (Simulation time: 00 hr 57 min 53 sec)
Heartbeat CPU 0 instructions: 204000939 cycles: 456454474 heartbeat IPC: 0.4309 cumulative IPC: 0.348 (Simulation time: 00 hr 58 min 02 sec)
Heartbeat CPU 0 instructions: 204500945 cycles: 457586787 heartbeat IPC: 0.4416 cumulative IPC: 0.3483 (Simulation time: 00 hr 58 min 11 sec)
Heartbeat CPU 0 instructions: 205000945 cycles: 458350164 heartbeat IPC: 0.655 cumulative IPC: 0.3488 (Simulation time: 00 hr 58 min 17 sec)
Heartbeat CPU 0 instructions: 205500946 cycles: 459330436 heartbeat IPC: 0.5101 cumulative IPC: 0.3492 (Simulation time: 00 hr 58 min 25 sec)
Heartbeat CPU 0 instructions: 206000946 cycles: 460266938 heartbeat IPC: 0.5339 cumulative IPC: 0.3496 (Simulation time: 00 hr 58 min 32 sec)
Heartbeat CPU 0 instructions: 206500946 cycles: 461750682 heartbeat IPC: 0.337 cumulative IPC: 0.3495 (Simulation time: 00 hr 58 min 43 sec)
Heartbeat CPU 0 instructions: 207000949 cycles: 462753460 heartbeat IPC: 0.4986 cumulative IPC: 0.3498 (Simulation time: 00 hr 58 min 51 sec)
Heartbeat CPU 0 instructions: 207500949 cycles: 464071429 heartbeat IPC: 0.3794 cumulative IPC: 0.3499 (Simulation time: 00 hr 59 min 02 sec)
Heartbeat CPU 0 instructions: 208000949 cycles: 466259893 heartbeat IPC: 0.2285 cumulative IPC: 0.3493 (Simulation time: 00 hr 59 min 16 sec)
Heartbeat CPU 0 instructions: 208500950 cycles: 469418104 heartbeat IPC: 0.1583 cumulative IPC: 0.348 (Simulation time: 00 hr 59 min 37 sec)
Heartbeat CPU 0 instructions: 209000950 cycles: 472012108 heartbeat IPC: 0.1928 cumulative IPC: 0.3471 (Simulation time: 00 hr 59 min 55 sec)
Heartbeat CPU 0 instructions: 209500957 cycles: 472340773 heartbeat IPC: 1.521 cumulative IPC: 0.348 (Simulation time: 00 hr 59 min 58 sec)
Heartbeat CPU 0 instructions: 210000960 cycles: 472692129 heartbeat IPC: 1.423 cumulative IPC: 0.3488 (Simulation time: 01 hr 00 min 02 sec)
Heartbeat CPU 0 instructions: 210500962 cycles: 473121879 heartbeat IPC: 1.163 cumulative IPC: 0.3496 (Simulation time: 01 hr 00 min 05 sec)
Heartbeat CPU 0 instructions: 211000966 cycles: 475028679 heartbeat IPC: 0.2622 cumulative IPC: 0.3492 (Simulation time: 01 hr 00 min 19 sec)
Heartbeat CPU 0 instructions: 211500973 cycles: 477710377 heartbeat IPC: 0.1865 cumulative IPC: 0.3483 (Simulation time: 01 hr 00 min 36 sec)
Heartbeat CPU 0 instructions: 212000976 cycles: 479776542 heartbeat IPC: 0.242 cumulative IPC: 0.3478 (Simulation time: 01 hr 00 min 51 sec)
Heartbeat CPU 0 instructions: 212500977 cycles: 481166863 heartbeat IPC: 0.3596 cumulative IPC: 0.3478 (Simulation time: 01 hr 01 min 01 sec)
Heartbeat CPU 0 instructions: 213000983 cycles: 483260245 heartbeat IPC: 0.2389 cumulative IPC: 0.3473 (Simulation time: 01 hr 01 min 15 sec)
Heartbeat CPU 0 instructions: 213500983 cycles: 485554197 heartbeat IPC: 0.218 cumulative IPC: 0.3467 (Simulation time: 01 hr 01 min 31 sec)
Heartbeat CPU 0 instructions: 214000988 cycles: 487621701 heartbeat IPC: 0.2418 cumulative IPC: 0.3463 (Simulation time: 01 hr 01 min 45 sec)
Heartbeat CPU 0 instructions: 214500989 cycles: 488979027 heartbeat IPC: 0.3684 cumulative IPC: 0.3463 (Simulation time: 01 hr 01 min 55 sec)
Heartbeat CPU 0 instructions: 215000989 cycles: 490486244 heartbeat IPC: 0.3317 cumulative IPC: 0.3463 (Simulation time: 01 hr 02 min 06 sec)
Heartbeat CPU 0 instructions: 215500989 cycles: 492041375 heartbeat IPC: 0.3215 cumulative IPC: 0.3462 (Simulation time: 01 hr 02 min 18 sec)
Heartbeat CPU 0 instructions: 216000994 cycles: 493730069 heartbeat IPC: 0.2961 cumulative IPC: 0.346 (Simulation time: 01 hr 02 min 30 sec)
Heartbeat CPU 0 instructions: 216500994 cycles: 495228216 heartbeat IPC: 0.3337 cumulative IPC: 0.346 (Simulation time: 01 hr 02 min 41 sec)
Heartbeat CPU 0 instructions: 217001001 cycles: 496185217 heartbeat IPC: 0.5225 cumulative IPC: 0.3463 (Simulation time: 01 hr 02 min 48 sec)
Heartbeat CPU 0 instructions: 217501004 cycles: 497033525 heartbeat IPC: 0.5894 cumulative IPC: 0.3468 (Simulation time: 01 hr 02 min 55 sec)
Heartbeat CPU 0 instructions: 218001008 cycles: 499153447 heartbeat IPC: 0.2359 cumulative IPC: 0.3463 (Simulation time: 01 hr 03 min 10 sec)
Heartbeat CPU 0 instructions: 218501010 cycles: 501398868 heartbeat IPC: 0.2227 cumulative IPC: 0.3457 (Simulation time: 01 hr 03 min 25 sec)
Heartbeat CPU 0 instructions: 219001010 cycles: 502771194 heartbeat IPC: 0.3643 cumulative IPC: 0.3458 (Simulation time: 01 hr 03 min 35 sec)
Heartbeat CPU 0 instructions: 219501013 cycles: 504598213 heartbeat IPC: 0.2737 cumulative IPC: 0.3455 (Simulation time: 01 hr 03 min 48 sec)
Heartbeat CPU 0 instructions: 220001013 cycles: 506216841 heartbeat IPC: 0.3089 cumulative IPC: 0.3454 (Simulation time: 01 hr 04 min 00 sec)
Heartbeat CPU 0 instructions: 220501013 cycles: 507304391 heartbeat IPC: 0.4597 cumulative IPC: 0.3456 (Simulation time: 01 hr 04 min 08 sec)
Heartbeat CPU 0 instructions: 221001013 cycles: 508946436 heartbeat IPC: 0.3045 cumulative IPC: 0.3455 (Simulation time: 01 hr 04 min 20 sec)
Heartbeat CPU 0 instructions: 221501016 cycles: 510685958 heartbeat IPC: 0.2874 cumulative IPC: 0.3453 (Simulation time: 01 hr 04 min 32 sec)
Heartbeat CPU 0 instructions: 222001016 cycles: 512287497 heartbeat IPC: 0.3122 cumulative IPC: 0.3452 (Simulation time: 01 hr 04 min 43 sec)
Heartbeat CPU 0 instructions: 222501018 cycles: 514048844 heartbeat IPC: 0.2839 cumulative IPC: 0.345 (Simulation time: 01 hr 04 min 56 sec)
Heartbeat CPU 0 instructions: 223001019 cycles: 516358852 heartbeat IPC: 0.2164 cumulative IPC: 0.3444 (Simulation time: 01 hr 05 min 12 sec)
Heartbeat CPU 0 instructions: 223501019 cycles: 517897000 heartbeat IPC: 0.3251 cumulative IPC: 0.3443 (Simulation time: 01 hr 05 min 23 sec)
Heartbeat CPU 0 instructions: 224001022 cycles: 518257920 heartbeat IPC: 1.385 cumulative IPC: 0.3451 (Simulation time: 01 hr 05 min 26 sec)
Heartbeat CPU 0 instructions: 224501028 cycles: 518664204 heartbeat IPC: 1.231 cumulative IPC: 0.3458 (Simulation time: 01 hr 05 min 30 sec)
Heartbeat CPU 0 instructions: 225001029 cycles: 519046700 heartbeat IPC: 1.307 cumulative IPC: 0.3465 (Simulation time: 01 hr 05 min 34 sec)
Heartbeat CPU 0 instructions: 225501036 cycles: 519410954 heartbeat IPC: 1.373 cumulative IPC: 0.3472 (Simulation time: 01 hr 05 min 37 sec)
Heartbeat CPU 0 instructions: 226001041 cycles: 520167058 heartbeat IPC: 0.6613 cumulative IPC: 0.3477 (Simulation time: 01 hr 05 min 43 sec)
Heartbeat CPU 0 instructions: 226501047 cycles: 520546633 heartbeat IPC: 1.317 cumulative IPC: 0.3484 (Simulation time: 01 hr 05 min 47 sec)
Heartbeat CPU 0 instructions: 227001047 cycles: 522976512 heartbeat IPC: 0.2058 cumulative IPC: 0.3477 (Simulation time: 01 hr 06 min 03 sec)
Heartbeat CPU 0 instructions: 227501049 cycles: 524467161 heartbeat IPC: 0.3354 cumulative IPC: 0.3477 (Simulation time: 01 hr 06 min 13 sec)
Heartbeat CPU 0 instructions: 228001055 cycles: 525874141 heartbeat IPC: 0.3554 cumulative IPC: 0.3477 (Simulation time: 01 hr 06 min 24 sec)
Heartbeat CPU 0 instructions: 228501058 cycles: 527983822 heartbeat IPC: 0.237 cumulative IPC: 0.3473 (Simulation time: 01 hr 06 min 38 sec)
Heartbeat CPU 0 instructions: 229001059 cycles: 529701860 heartbeat IPC: 0.291 cumulative IPC: 0.3471 (Simulation time: 01 hr 06 min 51 sec)
Heartbeat CPU 0 instructions: 229501060 cycles: 531352410 heartbeat IPC: 0.3029 cumulative IPC: 0.3469 (Simulation time: 01 hr 07 min 02 sec)
Heartbeat CPU 0 instructions: 230001060 cycles: 532461787 heartbeat IPC: 0.4507 cumulative IPC: 0.3472 (Simulation time: 01 hr 07 min 11 sec)
Heartbeat CPU 0 instructions: 230501062 cycles: 534238176 heartbeat IPC: 0.2815 cumulative IPC: 0.3469 (Simulation time: 01 hr 07 min 23 sec)
Heartbeat CPU 0 instructions: 231001068 cycles: 535838323 heartbeat IPC: 0.3125 cumulative IPC: 0.3468 (Simulation time: 01 hr 07 min 35 sec)
Heartbeat CPU 0 instructions: 231501068 cycles: 537870618 heartbeat IPC: 0.246 cumulative IPC: 0.3464 (Simulation time: 01 hr 07 min 49 sec)
Heartbeat CPU 0 instructions: 232001068 cycles: 539740853 heartbeat IPC: 0.2673 cumulative IPC: 0.3462 (Simulation time: 01 hr 08 min 02 sec)
Heartbeat CPU 0 instructions: 232501068 cycles: 541272913 heartbeat IPC: 0.3264 cumulative IPC: 0.3461 (Simulation time: 01 hr 08 min 13 sec)
Heartbeat CPU 0 instructions: 233001069 cycles: 542961351 heartbeat IPC: 0.2961 cumulative IPC: 0.346 (Simulation time: 01 hr 08 min 25 sec)
Heartbeat CPU 0 instructions: 233501069 cycles: 545393416 heartbeat IPC: 0.2056 cumulative IPC: 0.3453 (Simulation time: 01 hr 08 min 42 sec)
Heartbeat CPU 0 instructions: 234001073 cycles: 547082308 heartbeat IPC: 0.2961 cumulative IPC: 0.3452 (Simulation time: 01 hr 08 min 54 sec)
Heartbeat CPU 0 instructions: 234501073 cycles: 547985357 heartbeat IPC: 0.5537 cumulative IPC: 0.3455 (Simulation time: 01 hr 09 min 01 sec)
Heartbeat CPU 0 instructions: 235001075 cycles: 550269932 heartbeat IPC: 0.2189 cumulative IPC: 0.345 (Simulation time: 01 hr 09 min 16 sec)
Heartbeat CPU 0 instructions: 235501080 cycles: 551452373 heartbeat IPC: 0.4229 cumulative IPC: 0.3451 (Simulation time: 01 hr 09 min 26 sec)
Heartbeat CPU 0 instructions: 236001080 cycles: 553293060 heartbeat IPC: 0.2716 cumulative IPC: 0.3449 (Simulation time: 01 hr 09 min 39 sec)
Heartbeat CPU 0 instructions: 236501084 cycles: 554587782 heartbeat IPC: 0.3862 cumulative IPC: 0.345 (Simulation time: 01 hr 09 min 49 sec)
Heartbeat CPU 0 instructions: 237001085 cycles: 557471866 heartbeat IPC: 0.1734 cumulative IPC: 0.3441 (Simulation time: 01 hr 10 min 08 sec)
Heartbeat CPU 0 instructions: 237501089 cycles: 559265790 heartbeat IPC: 0.2787 cumulative IPC: 0.3439 (Simulation time: 01 hr 10 min 21 sec)
Heartbeat CPU 0 instructions: 238001092 cycles: 560943789 heartbeat IPC: 0.298 cumulative IPC: 0.3437 (Simulation time: 01 hr 10 min 33 sec)
Heartbeat CPU 0 instructions: 238501095 cycles: 562160468 heartbeat IPC: 0.411 cumulative IPC: 0.3439 (Simulation time: 01 hr 10 min 42 sec)
Heartbeat CPU 0 instructions: 239001097 cycles: 564005792 heartbeat IPC: 0.271 cumulative IPC: 0.3436 (Simulation time: 01 hr 10 min 56 sec)
Heartbeat CPU 0 instructions: 239501104 cycles: 565565881 heartbeat IPC: 0.3205 cumulative IPC: 0.3436 (Simulation time: 01 hr 11 min 07 sec)
Heartbeat CPU 0 instructions: 240001104 cycles: 567279062 heartbeat IPC: 0.2919 cumulative IPC: 0.3434 (Simulation time: 01 hr 11 min 19 sec)
Heartbeat CPU 0 instructions: 240501108 cycles: 569440832 heartbeat IPC: 0.2313 cumulative IPC: 0.343 (Simulation time: 01 hr 11 min 34 sec)
Heartbeat CPU 0 instructions: 241001108 cycles: 570989931 heartbeat IPC: 0.3228 cumulative IPC: 0.3429 (Simulation time: 01 hr 11 min 46 sec)
Heartbeat CPU 0 instructions: 241501110 cycles: 572967367 heartbeat IPC: 0.2529 cumulative IPC: 0.3426 (Simulation time: 01 hr 11 min 59 sec)
Heartbeat CPU 0 instructions: 242001111 cycles: 574511826 heartbeat IPC: 0.3237 cumulative IPC: 0.3425 (Simulation time: 01 hr 12 min 10 sec)
Heartbeat CPU 0 instructions: 242501112 cycles: 576229718 heartbeat IPC: 0.2911 cumulative IPC: 0.3424 (Simulation time: 01 hr 12 min 23 sec)
Heartbeat CPU 0 instructions: 243001115 cycles: 577922210 heartbeat IPC: 0.2954 cumulative IPC: 0.3422 (Simulation time: 01 hr 12 min 35 sec)
Heartbeat CPU 0 instructions: 243501116 cycles: 578841702 heartbeat IPC: 0.5438 cumulative IPC: 0.3426 (Simulation time: 01 hr 12 min 42 sec)
Heartbeat CPU 0 instructions: 244001120 cycles: 580754176 heartbeat IPC: 0.2614 cumulative IPC: 0.3423 (Simulation time: 01 hr 12 min 55 sec)
Heartbeat CPU 0 instructions: 244501120 cycles: 582195562 heartbeat IPC: 0.3469 cumulative IPC: 0.3423 (Simulation time: 01 hr 13 min 05 sec)
Heartbeat CPU 0 instructions: 245001120 cycles: 583726060 heartbeat IPC: 0.3267 cumulative IPC: 0.3423 (Simulation time: 01 hr 13 min 16 sec)
Heartbeat CPU 0 instructions: 245501121 cycles: 584777740 heartbeat IPC: 0.4754 cumulative IPC: 0.3425 (Simulation time: 01 hr 13 min 24 sec)
Heartbeat CPU 0 instructions: 246001121 cycles: 586711077 heartbeat IPC: 0.2586 cumulative IPC: 0.3422 (Simulation time: 01 hr 13 min 38 sec)
Heartbeat CPU 0 instructions: 246501121 cycles: 589019511 heartbeat IPC: 0.2166 cumulative IPC: 0.3417 (Simulation time: 01 hr 13 min 53 sec)
Heartbeat CPU 0 instructions: 247001122 cycles: 590407571 heartbeat IPC: 0.3602 cumulative IPC: 0.3418 (Simulation time: 01 hr 14 min 04 sec)
Heartbeat CPU 0 instructions: 247501122 cycles: 591374958 heartbeat IPC: 0.5169 cumulative IPC: 0.3421 (Simulation time: 01 hr 14 min 11 sec)
Heartbeat CPU 0 instructions: 248001123 cycles: 592876348 heartbeat IPC: 0.333 cumulative IPC: 0.342 (Simulation time: 01 hr 14 min 22 sec)
Heartbeat CPU 0 instructions: 248501127 cycles: 594232864 heartbeat IPC: 0.3686 cumulative IPC: 0.3421 (Simulation time: 01 hr 14 min 32 sec)
Heartbeat CPU 0 instructions: 249001128 cycles: 595371709 heartbeat IPC: 0.439 cumulative IPC: 0.3423 (Simulation time: 01 hr 14 min 40 sec)
Heartbeat CPU 0 instructions: 249501133 cycles: 596177728 heartbeat IPC: 0.6203 cumulative IPC: 0.3427 (Simulation time: 01 hr 14 min 47 sec)
Simulation finished CPU 0 instructions: 200000004 cycles: 583729402 cumulative IPC: 0.3426 (Simulation time: 01 hr 14 min 58 sec)
Simulation complete CPU 0 instructions: 200000004 cycles: 583729402 cumulative IPC: 0.3426 (Simulation time: 01 hr 14 min 58 sec)

ChampSim completed all CPUs

=== Simulation ===
CPU 0 runs /local-ssd/ben/dpc4-traces/gtraces_v2/sierra.a.6_0002.champsim.gz

Region of Interest Statistics

CPU 0 cumulative IPC: 0.3426 instructions: 200000004 cycles: 583729402
CPU 0 Branch Prediction Accuracy: 87.37% MPKI: 24.72 Average ROB Occupancy at Mispredict: 18.4
Branch type MPKI
BRANCH_DIRECT_JUMP: 1.987
BRANCH_INDIRECT: 0.2627
BRANCH_CONDITIONAL: 19.65
BRANCH_DIRECT_CALL: 1.394
BRANCH_INDIRECT_CALL: 0.3355
BRANCH_RETURN: 1.09

cpu0->cpu0_STLB TOTAL        ACCESS:    3370132 HIT:    2526001 MISS:     844131 MSHR_MERGE:          0
cpu0->cpu0_STLB LOAD         ACCESS:    3370132 HIT:    2526001 MISS:     844131 MSHR_MERGE:          0
cpu0->cpu0_STLB RFO          ACCESS:          0 HIT:          0 MISS:          0 MSHR_MERGE:          0
cpu0->cpu0_STLB PREFETCH     ACCESS:          0 HIT:          0 MISS:          0 MSHR_MERGE:          0
cpu0->cpu0_STLB WRITE        ACCESS:          0 HIT:          0 MISS:          0 MSHR_MERGE:          0
cpu0->cpu0_STLB TRANSLATION  ACCESS:          0 HIT:          0 MISS:          0 MSHR_MERGE:          0
cpu0->cpu0_STLB PREFETCH REQUESTED:          0 ISSUED:          0 USEFUL:          0 USELESS:          0
cpu0->cpu0_STLB AVERAGE MISS LATENCY: 155.5 cycles
cpu0->cpu0_L2C TOTAL        ACCESS:   20651793 HIT:   15164782 MISS:    5487011 MSHR_MERGE:     571585
cpu0->cpu0_L2C LOAD         ACCESS:    9696975 HIT:    7500220 MISS:    2196755 MSHR_MERGE:      33289
cpu0->cpu0_L2C RFO          ACCESS:     974481 HIT:     561461 MISS:     413020 MSHR_MERGE:       7136
cpu0->cpu0_L2C PREFETCH     ACCESS:    7178984 HIT:    4680880 MISS:    2498104 MSHR_MERGE:     531160
cpu0->cpu0_L2C WRITE        ACCESS:    1882853 HIT:    1882780 MISS:         73 MSHR_MERGE:          0
cpu0->cpu0_L2C TRANSLATION  ACCESS:     918500 HIT:     539441 MISS:     379059 MSHR_MERGE:          0
cpu0->cpu0_L2C PREFETCH REQUESTED:    6076130 ISSUED:    5945112 USEFUL:     426027 USELESS:    1051667
cpu0->cpu0_L2C AVERAGE MISS LATENCY: 269.4 cycles
cpu0->cpu0_L1I TOTAL        ACCESS:   22980107 HIT:   13554431 MISS:    9425676 MSHR_MERGE:    2315059
cpu0->cpu0_L1I LOAD         ACCESS:   22980107 HIT:   13554431 MISS:    9425676 MSHR_MERGE:    2315059
cpu0->cpu0_L1I RFO          ACCESS:          0 HIT:          0 MISS:          0 MSHR_MERGE:          0
cpu0->cpu0_L1I PREFETCH     ACCESS:          0 HIT:          0 MISS:          0 MSHR_MERGE:          0
cpu0->cpu0_L1I WRITE        ACCESS:          0 HIT:          0 MISS:          0 MSHR_MERGE:          0
cpu0->cpu0_L1I TRANSLATION  ACCESS:          0 HIT:          0 MISS:          0 MSHR_MERGE:          0
cpu0->cpu0_L1I PREFETCH REQUESTED:          0 ISSUED:          0 USEFUL:          0 USELESS:          0
cpu0->cpu0_L1I AVERAGE MISS LATENCY: 50.65 cycles
cpu0->cpu0_L1D TOTAL        ACCESS:   64428846 HIT:   55767208 MISS:    8661638 MSHR_MERGE:    2948365
cpu0->cpu0_L1D LOAD         ACCESS:   34856735 HIT:   31533759 MISS:    3322976 MSHR_MERGE:     736589
cpu0->cpu0_L1D RFO          ACCESS:          0 HIT:          0 MISS:          0 MSHR_MERGE:          0
cpu0->cpu0_L1D PREFETCH     ACCESS:    2419782 HIT:    1119368 MISS:    1300414 MSHR_MERGE:      66535
cpu0->cpu0_L1D WRITE        ACCESS:   24954467 HIT:   21840941 MISS:    3113526 MSHR_MERGE:    2139019
cpu0->cpu0_L1D TRANSLATION  ACCESS:    2197862 HIT:    1273140 MISS:     924722 MSHR_MERGE:       6222
cpu0->cpu0_L1D PREFETCH REQUESTED:    2441987 ISSUED:    2419781 USEFUL:     371488 USELESS:     862347
cpu0->cpu0_L1D AVERAGE MISS LATENCY: 119.7 cycles
cpu0->cpu0_ITLB TOTAL        ACCESS:   18722222 HIT:   17719386 MISS:    1002836 MSHR_MERGE:     469448
cpu0->cpu0_ITLB LOAD         ACCESS:   18722222 HIT:   17719386 MISS:    1002836 MSHR_MERGE:     469448
cpu0->cpu0_ITLB RFO          ACCESS:          0 HIT:          0 MISS:          0 MSHR_MERGE:          0
cpu0->cpu0_ITLB PREFETCH     ACCESS:          0 HIT:          0 MISS:          0 MSHR_MERGE:          0
cpu0->cpu0_ITLB WRITE        ACCESS:          0 HIT:          0 MISS:          0 MSHR_MERGE:          0
cpu0->cpu0_ITLB TRANSLATION  ACCESS:          0 HIT:          0 MISS:          0 MSHR_MERGE:          0
cpu0->cpu0_ITLB PREFETCH REQUESTED:          0 ISSUED:          0 USEFUL:          0 USELESS:          0
cpu0->cpu0_ITLB AVERAGE MISS LATENCY: 21.21 cycles
cpu0->cpu0_DTLB TOTAL        ACCESS:   59548704 HIT:   55064510 MISS:    4484194 MSHR_MERGE:    1647450
cpu0->cpu0_DTLB LOAD         ACCESS:   59548704 HIT:   55064510 MISS:    4484194 MSHR_MERGE:    1647450
cpu0->cpu0_DTLB RFO          ACCESS:          0 HIT:          0 MISS:          0 MSHR_MERGE:          0
cpu0->cpu0_DTLB PREFETCH     ACCESS:          0 HIT:          0 MISS:          0 MSHR_MERGE:          0
cpu0->cpu0_DTLB WRITE        ACCESS:          0 HIT:          0 MISS:          0 MSHR_MERGE:          0
cpu0->cpu0_DTLB TRANSLATION  ACCESS:          0 HIT:          0 MISS:          0 MSHR_MERGE:          0
cpu0->cpu0_DTLB PREFETCH REQUESTED:          0 ISSUED:          0 USEFUL:          0 USELESS:          0
cpu0->cpu0_DTLB AVERAGE MISS LATENCY: 48.54 cycles
cpu0->LLC TOTAL        ACCESS:    5859413 HIT:    1611156 MISS:    4248257 MSHR_MERGE:          0
cpu0->LLC LOAD         ACCESS:    2163466 HIT:     585723 MISS:    1577743 MSHR_MERGE:          0
cpu0->LLC RFO          ACCESS:     405884 HIT:      27783 MISS:     378101 MSHR_MERGE:          0
cpu0->LLC PREFETCH     ACCESS:    1966944 HIT:     202459 MISS:    1764485 MSHR_MERGE:          0
cpu0->LLC WRITE        ACCESS:     944060 HIT:     703379 MISS:     240681 MSHR_MERGE:          0
cpu0->LLC TRANSLATION  ACCESS:     379059 HIT:      91812 MISS:     287247 MSHR_MERGE:          0
cpu0->LLC PREFETCH REQUESTED:          0 ISSUED:          0 USEFUL:          0 USELESS:          0
cpu0->LLC AVERAGE MISS LATENCY: 295.5 cycles

DRAM Statistics

Channel 0 RQ ROW_BUFFER_HIT:      25784
  ROW_BUFFER_MISS:    3981588
  AVG DBUS CONGESTED CYCLE: 4.158
Channel 0 WQ ROW_BUFFER_HIT:     202671
  ROW_BUFFER_MISS:     668091
  FULL:          0
Channel 0 REFRESHES ISSUED:      48644
