[VMEM] WARNING: physical memory size is smaller than virtual memory size.

*** ChampSim Multicore Out-of-Order Simulator ***
Warmup Instructions: 50000000
Simulation Instructions: 200000000
Number of CPUs: 1
Page size: 4096
Core 0: /local-ssd/ben/dpc4-traces/ai-ml/bark.cpp-bark-small.coarse_token_gen.2.champsimtrace.gz
sBerti (Smart Stride + Berti) Prefetcher Initialized
Off-chip DRAM Size: 64 GiB Channels: 1 Width: 64-bit Data Rate: 800 MT/s
Heartbeat CPU 0 instructions: 500001 cycles: 172846 heartbeat IPC: 2.893 cumulative IPC: 2.893 (Simulation time: 00 hr 00 min 04 sec)
Heartbeat CPU 0 instructions: 1000003 cycles: 336070 heartbeat IPC: 3.063 cumulative IPC: 2.976 (Simulation time: 00 hr 00 min 07 sec)
Heartbeat CPU 0 instructions: 1500005 cycles: 492751 heartbeat IPC: 3.191 cumulative IPC: 3.044 (Simulation time: 00 hr 00 min 10 sec)
Heartbeat CPU 0 instructions: 2000010 cycles: 651828 heartbeat IPC: 3.143 cumulative IPC: 3.068 (Simulation time: 00 hr 00 min 14 sec)
Heartbeat CPU 0 instructions: 2500013 cycles: 811133 heartbeat IPC: 3.139 cumulative IPC: 3.082 (Simulation time: 00 hr 00 min 17 sec)
Heartbeat CPU 0 instructions: 3000019 cycles: 976678 heartbeat IPC: 3.02 cumulative IPC: 3.072 (Simulation time: 00 hr 00 min 21 sec)
Heartbeat CPU 0 instructions: 3500023 cycles: 1138112 heartbeat IPC: 3.097 cumulative IPC: 3.075 (Simulation time: 00 hr 00 min 24 sec)
Heartbeat CPU 0 instructions: 4000028 cycles: 1294640 heartbeat IPC: 3.194 cumulative IPC: 3.09 (Simulation time: 00 hr 00 min 28 sec)
Heartbeat CPU 0 instructions: 4500033 cycles: 1451292 heartbeat IPC: 3.192 cumulative IPC: 3.101 (Simulation time: 00 hr 00 min 31 sec)
Heartbeat CPU 0 instructions: 5000034 cycles: 1613666 heartbeat IPC: 3.079 cumulative IPC: 3.099 (Simulation time: 00 hr 00 min 35 sec)
Heartbeat CPU 0 instructions: 5500036 cycles: 1770579 heartbeat IPC: 3.186 cumulative IPC: 3.106 (Simulation time: 00 hr 00 min 38 sec)
Heartbeat CPU 0 instructions: 6000038 cycles: 1927538 heartbeat IPC: 3.186 cumulative IPC: 3.113 (Simulation time: 00 hr 00 min 42 sec)
Heartbeat CPU 0 instructions: 6500041 cycles: 2090473 heartbeat IPC: 3.069 cumulative IPC: 3.109 (Simulation time: 00 hr 00 min 45 sec)
Heartbeat CPU 0 instructions: 7000041 cycles: 2247164 heartbeat IPC: 3.191 cumulative IPC: 3.115 (Simulation time: 00 hr 00 min 49 sec)
Heartbeat CPU 0 instructions: 7500044 cycles: 2404216 heartbeat IPC: 3.184 cumulative IPC: 3.12 (Simulation time: 00 hr 00 min 52 sec)
Heartbeat CPU 0 instructions: 8000047 cycles: 2566610 heartbeat IPC: 3.079 cumulative IPC: 3.117 (Simulation time: 00 hr 00 min 56 sec)
Heartbeat CPU 0 instructions: 8500052 cycles: 2723985 heartbeat IPC: 3.177 cumulative IPC: 3.12 (Simulation time: 00 hr 00 min 59 sec)
Heartbeat CPU 0 instructions: 9000058 cycles: 2884724 heartbeat IPC: 3.111 cumulative IPC: 3.12 (Simulation time: 00 hr 01 min 03 sec)
Heartbeat CPU 0 instructions: 9500063 cycles: 3044390 heartbeat IPC: 3.132 cumulative IPC: 3.121 (Simulation time: 00 hr 01 min 06 sec)
Heartbeat CPU 0 instructions: 10000063 cycles: 3202220 heartbeat IPC: 3.168 cumulative IPC: 3.123 (Simulation time: 00 hr 01 min 10 sec)
Heartbeat CPU 0 instructions: 10500067 cycles: 3348298 heartbeat IPC: 3.423 cumulative IPC: 3.136 (Simulation time: 00 hr 01 min 13 sec)
Heartbeat CPU 0 instructions: 11000069 cycles: 3494837 heartbeat IPC: 3.412 cumulative IPC: 3.148 (Simulation time: 00 hr 01 min 17 sec)
Heartbeat CPU 0 instructions: 11500076 cycles: 3642335 heartbeat IPC: 3.39 cumulative IPC: 3.157 (Simulation time: 00 hr 01 min 20 sec)
Heartbeat CPU 0 instructions: 12000079 cycles: 3788522 heartbeat IPC: 3.42 cumulative IPC: 3.167 (Simulation time: 00 hr 01 min 23 sec)
Heartbeat CPU 0 instructions: 12500082 cycles: 3934245 heartbeat IPC: 3.431 cumulative IPC: 3.177 (Simulation time: 00 hr 01 min 27 sec)
Heartbeat CPU 0 instructions: 13000089 cycles: 4103453 heartbeat IPC: 2.955 cumulative IPC: 3.168 (Simulation time: 00 hr 01 min 30 sec)
Heartbeat CPU 0 instructions: 13500093 cycles: 4249771 heartbeat IPC: 3.417 cumulative IPC: 3.177 (Simulation time: 00 hr 01 min 34 sec)
Heartbeat CPU 0 instructions: 14000098 cycles: 4395765 heartbeat IPC: 3.425 cumulative IPC: 3.185 (Simulation time: 00 hr 01 min 37 sec)
Heartbeat CPU 0 instructions: 14500102 cycles: 4542949 heartbeat IPC: 3.397 cumulative IPC: 3.192 (Simulation time: 00 hr 01 min 41 sec)
Heartbeat CPU 0 instructions: 15000106 cycles: 4688569 heartbeat IPC: 3.434 cumulative IPC: 3.199 (Simulation time: 00 hr 01 min 44 sec)
Heartbeat CPU 0 instructions: 15500109 cycles: 4834616 heartbeat IPC: 3.424 cumulative IPC: 3.206 (Simulation time: 00 hr 01 min 47 sec)
Heartbeat CPU 0 instructions: 16000115 cycles: 4981326 heartbeat IPC: 3.408 cumulative IPC: 3.212 (Simulation time: 00 hr 01 min 51 sec)
Heartbeat CPU 0 instructions: 16500117 cycles: 5128443 heartbeat IPC: 3.399 cumulative IPC: 3.217 (Simulation time: 00 hr 01 min 54 sec)
Heartbeat CPU 0 instructions: 17000120 cycles: 5274915 heartbeat IPC: 3.414 cumulative IPC: 3.223 (Simulation time: 00 hr 01 min 57 sec)
Heartbeat CPU 0 instructions: 17500121 cycles: 5421923 heartbeat IPC: 3.401 cumulative IPC: 3.228 (Simulation time: 00 hr 02 min 01 sec)
Heartbeat CPU 0 instructions: 18000121 cycles: 5568886 heartbeat IPC: 3.402 cumulative IPC: 3.232 (Simulation time: 00 hr 02 min 04 sec)
Heartbeat CPU 0 instructions: 18500127 cycles: 5715188 heartbeat IPC: 3.418 cumulative IPC: 3.237 (Simulation time: 00 hr 02 min 07 sec)
Heartbeat CPU 0 instructions: 19000127 cycles: 5860782 heartbeat IPC: 3.434 cumulative IPC: 3.242 (Simulation time: 00 hr 02 min 11 sec)
Heartbeat CPU 0 instructions: 19500130 cycles: 6007034 heartbeat IPC: 3.419 cumulative IPC: 3.246 (Simulation time: 00 hr 02 min 14 sec)
Heartbeat CPU 0 instructions: 20000131 cycles: 6153617 heartbeat IPC: 3.411 cumulative IPC: 3.25 (Simulation time: 00 hr 02 min 18 sec)
Heartbeat CPU 0 instructions: 20500132 cycles: 6300624 heartbeat IPC: 3.401 cumulative IPC: 3.254 (Simulation time: 00 hr 02 min 21 sec)
Heartbeat CPU 0 instructions: 21000134 cycles: 6446978 heartbeat IPC: 3.416 cumulative IPC: 3.257 (Simulation time: 00 hr 02 min 24 sec)
Heartbeat CPU 0 instructions: 21500137 cycles: 6594657 heartbeat IPC: 3.386 cumulative IPC: 3.26 (Simulation time: 00 hr 02 min 28 sec)
Heartbeat CPU 0 instructions: 22000140 cycles: 6741248 heartbeat IPC: 3.411 cumulative IPC: 3.264 (Simulation time: 00 hr 02 min 31 sec)
Heartbeat CPU 0 instructions: 22500147 cycles: 6887816 heartbeat IPC: 3.411 cumulative IPC: 3.267 (Simulation time: 00 hr 02 min 34 sec)
Heartbeat CPU 0 instructions: 23000147 cycles: 7036077 heartbeat IPC: 3.372 cumulative IPC: 3.269 (Simulation time: 00 hr 02 min 38 sec)
Heartbeat CPU 0 instructions: 23500147 cycles: 7201090 heartbeat IPC: 3.03 cumulative IPC: 3.263 (Simulation time: 00 hr 02 min 41 sec)
Heartbeat CPU 0 instructions: 24000154 cycles: 7346911 heartbeat IPC: 3.429 cumulative IPC: 3.267 (Simulation time: 00 hr 02 min 45 sec)
Heartbeat CPU 0 instructions: 24500157 cycles: 7493492 heartbeat IPC: 3.411 cumulative IPC: 3.27 (Simulation time: 00 hr 02 min 48 sec)
Heartbeat CPU 0 instructions: 25000159 cycles: 7639666 heartbeat IPC: 3.421 cumulative IPC: 3.272 (Simulation time: 00 hr 02 min 51 sec)
Heartbeat CPU 0 instructions: 25500161 cycles: 7785510 heartbeat IPC: 3.428 cumulative IPC: 3.275 (Simulation time: 00 hr 02 min 55 sec)
Heartbeat CPU 0 instructions: 26000165 cycles: 7931786 heartbeat IPC: 3.418 cumulative IPC: 3.278 (Simulation time: 00 hr 02 min 58 sec)
Heartbeat CPU 0 instructions: 26500167 cycles: 8078398 heartbeat IPC: 3.41 cumulative IPC: 3.28 (Simulation time: 00 hr 03 min 02 sec)
Heartbeat CPU 0 instructions: 27000170 cycles: 8224622 heartbeat IPC: 3.419 cumulative IPC: 3.283 (Simulation time: 00 hr 03 min 05 sec)
Heartbeat CPU 0 instructions: 27500173 cycles: 8370983 heartbeat IPC: 3.416 cumulative IPC: 3.285 (Simulation time: 00 hr 03 min 08 sec)
Heartbeat CPU 0 instructions: 28000175 cycles: 8517160 heartbeat IPC: 3.421 cumulative IPC: 3.288 (Simulation time: 00 hr 03 min 12 sec)
Heartbeat CPU 0 instructions: 28500176 cycles: 8663935 heartbeat IPC: 3.407 cumulative IPC: 3.29 (Simulation time: 00 hr 03 min 15 sec)
Heartbeat CPU 0 instructions: 29000176 cycles: 8810627 heartbeat IPC: 3.409 cumulative IPC: 3.291 (Simulation time: 00 hr 03 min 19 sec)
Heartbeat CPU 0 instructions: 29500178 cycles: 8957107 heartbeat IPC: 3.413 cumulative IPC: 3.293 (Simulation time: 00 hr 03 min 22 sec)
Heartbeat CPU 0 instructions: 30000179 cycles: 9102961 heartbeat IPC: 3.428 cumulative IPC: 3.296 (Simulation time: 00 hr 03 min 25 sec)
Heartbeat CPU 0 instructions: 30500184 cycles: 9249641 heartbeat IPC: 3.409 cumulative IPC: 3.297 (Simulation time: 00 hr 03 min 29 sec)
Heartbeat CPU 0 instructions: 31000186 cycles: 9396019 heartbeat IPC: 3.416 cumulative IPC: 3.299 (Simulation time: 00 hr 03 min 32 sec)
Heartbeat CPU 0 instructions: 31500190 cycles: 9542004 heartbeat IPC: 3.425 cumulative IPC: 3.301 (Simulation time: 00 hr 03 min 35 sec)
Heartbeat CPU 0 instructions: 32000192 cycles: 9688543 heartbeat IPC: 3.412 cumulative IPC: 3.303 (Simulation time: 00 hr 03 min 39 sec)
Heartbeat CPU 0 instructions: 32500196 cycles: 9834748 heartbeat IPC: 3.42 cumulative IPC: 3.305 (Simulation time: 00 hr 03 min 42 sec)
Heartbeat CPU 0 instructions: 33000201 cycles: 9981568 heartbeat IPC: 3.406 cumulative IPC: 3.306 (Simulation time: 00 hr 03 min 46 sec)
Heartbeat CPU 0 instructions: 33500205 cycles: 10149852 heartbeat IPC: 2.971 cumulative IPC: 3.301 (Simulation time: 00 hr 03 min 49 sec)
Heartbeat CPU 0 instructions: 34000210 cycles: 10296018 heartbeat IPC: 3.421 cumulative IPC: 3.302 (Simulation time: 00 hr 03 min 53 sec)
Heartbeat CPU 0 instructions: 34500217 cycles: 10441904 heartbeat IPC: 3.427 cumulative IPC: 3.304 (Simulation time: 00 hr 03 min 56 sec)
Heartbeat CPU 0 instructions: 35000221 cycles: 10587920 heartbeat IPC: 3.424 cumulative IPC: 3.306 (Simulation time: 00 hr 03 min 59 sec)
Heartbeat CPU 0 instructions: 35500228 cycles: 10734561 heartbeat IPC: 3.41 cumulative IPC: 3.307 (Simulation time: 00 hr 04 min 03 sec)
Heartbeat CPU 0 instructions: 36000234 cycles: 10881230 heartbeat IPC: 3.409 cumulative IPC: 3.308 (Simulation time: 00 hr 04 min 06 sec)
Heartbeat CPU 0 instructions: 36500241 cycles: 11027735 heartbeat IPC: 3.413 cumulative IPC: 3.31 (Simulation time: 00 hr 04 min 09 sec)
Heartbeat CPU 0 instructions: 37000241 cycles: 11173884 heartbeat IPC: 3.421 cumulative IPC: 3.311 (Simulation time: 00 hr 04 min 13 sec)
Heartbeat CPU 0 instructions: 37500248 cycles: 11320416 heartbeat IPC: 3.412 cumulative IPC: 3.313 (Simulation time: 00 hr 04 min 16 sec)
Heartbeat CPU 0 instructions: 38000248 cycles: 11466688 heartbeat IPC: 3.418 cumulative IPC: 3.314 (Simulation time: 00 hr 04 min 19 sec)
Heartbeat CPU 0 instructions: 38500249 cycles: 11612962 heartbeat IPC: 3.418 cumulative IPC: 3.315 (Simulation time: 00 hr 04 min 23 sec)
Heartbeat CPU 0 instructions: 39000255 cycles: 11759825 heartbeat IPC: 3.405 cumulative IPC: 3.316 (Simulation time: 00 hr 04 min 26 sec)
Heartbeat CPU 0 instructions: 39500258 cycles: 11905660 heartbeat IPC: 3.429 cumulative IPC: 3.318 (Simulation time: 00 hr 04 min 29 sec)
Heartbeat CPU 0 instructions: 40000263 cycles: 12051366 heartbeat IPC: 3.432 cumulative IPC: 3.319 (Simulation time: 00 hr 04 min 33 sec)
Heartbeat CPU 0 instructions: 40500267 cycles: 12197200 heartbeat IPC: 3.429 cumulative IPC: 3.32 (Simulation time: 00 hr 04 min 36 sec)
Heartbeat CPU 0 instructions: 41000272 cycles: 12343780 heartbeat IPC: 3.411 cumulative IPC: 3.322 (Simulation time: 00 hr 04 min 39 sec)
Heartbeat CPU 0 instructions: 41500273 cycles: 12491027 heartbeat IPC: 3.396 cumulative IPC: 3.322 (Simulation time: 00 hr 04 min 43 sec)
Heartbeat CPU 0 instructions: 42000273 cycles: 12637350 heartbeat IPC: 3.417 cumulative IPC: 3.324 (Simulation time: 00 hr 04 min 46 sec)
Heartbeat CPU 0 instructions: 42500276 cycles: 12784301 heartbeat IPC: 3.403 cumulative IPC: 3.324 (Simulation time: 00 hr 04 min 50 sec)
Heartbeat CPU 0 instructions: 43000279 cycles: 12930896 heartbeat IPC: 3.411 cumulative IPC: 3.325 (Simulation time: 00 hr 04 min 53 sec)
Heartbeat CPU 0 instructions: 43500286 cycles: 13092239 heartbeat IPC: 3.099 cumulative IPC: 3.323 (Simulation time: 00 hr 04 min 57 sec)
Heartbeat CPU 0 instructions: 44000289 cycles: 13243602 heartbeat IPC: 3.303 cumulative IPC: 3.322 (Simulation time: 00 hr 05 min 00 sec)
Heartbeat CPU 0 instructions: 44500293 cycles: 13389724 heartbeat IPC: 3.422 cumulative IPC: 3.323 (Simulation time: 00 hr 05 min 03 sec)
Heartbeat CPU 0 instructions: 45000294 cycles: 13536225 heartbeat IPC: 3.413 cumulative IPC: 3.324 (Simulation time: 00 hr 05 min 07 sec)
Heartbeat CPU 0 instructions: 45500298 cycles: 13682582 heartbeat IPC: 3.416 cumulative IPC: 3.325 (Simulation time: 00 hr 05 min 10 sec)
Heartbeat CPU 0 instructions: 46000298 cycles: 13829109 heartbeat IPC: 3.412 cumulative IPC: 3.326 (Simulation time: 00 hr 05 min 13 sec)
Heartbeat CPU 0 instructions: 46500302 cycles: 13975392 heartbeat IPC: 3.418 cumulative IPC: 3.327 (Simulation time: 00 hr 05 min 17 sec)
Heartbeat CPU 0 instructions: 47000309 cycles: 14121729 heartbeat IPC: 3.417 cumulative IPC: 3.328 (Simulation time: 00 hr 05 min 20 sec)
Heartbeat CPU 0 instructions: 47500316 cycles: 14267915 heartbeat IPC: 3.42 cumulative IPC: 3.329 (Simulation time: 00 hr 05 min 24 sec)
Heartbeat CPU 0 instructions: 48000318 cycles: 14414040 heartbeat IPC: 3.422 cumulative IPC: 3.33 (Simulation time: 00 hr 05 min 27 sec)
Heartbeat CPU 0 instructions: 48500319 cycles: 14559931 heartbeat IPC: 3.427 cumulative IPC: 3.331 (Simulation time: 00 hr 05 min 30 sec)
Heartbeat CPU 0 instructions: 49000321 cycles: 14706238 heartbeat IPC: 3.417 cumulative IPC: 3.332 (Simulation time: 00 hr 05 min 34 sec)
Heartbeat CPU 0 instructions: 49500322 cycles: 14853047 heartbeat IPC: 3.406 cumulative IPC: 3.333 (Simulation time: 00 hr 05 min 37 sec)
Warmup halting CPU 0 at instruction 50000007 cycle 14999478 for remainder of phase
Warmup finished CPU 0 instructions: 50000007 cycles: 14999478 cumulative IPC: 3.333 (Simulation time: 00 hr 05 min 40 sec)
Warmup complete CPU 0 instructions: 50000007 cycles: 14999478 cumulative IPC: 3.333 (Simulation time: 00 hr 05 min 40 sec)
Heartbeat CPU 0 instructions: 50000325 cycles: 14999728 heartbeat IPC: 3.409 cumulative IPC: 1.272 (Simulation time: 00 hr 05 min 40 sec)
Heartbeat CPU 0 instructions: 50500325 cycles: 15251505 heartbeat IPC: 1.986 cumulative IPC: 1.985 (Simulation time: 00 hr 05 min 45 sec)
Heartbeat CPU 0 instructions: 51000329 cycles: 15549349 heartbeat IPC: 1.679 cumulative IPC: 1.819 (Simulation time: 00 hr 05 min 49 sec)
Heartbeat CPU 0 instructions: 51500330 cycles: 15788779 heartbeat IPC: 2.088 cumulative IPC: 1.901 (Simulation time: 00 hr 05 min 53 sec)
Heartbeat CPU 0 instructions: 52000334 cycles: 16032966 heartbeat IPC: 2.048 cumulative IPC: 1.936 (Simulation time: 00 hr 05 min 57 sec)
Heartbeat CPU 0 instructions: 52500337 cycles: 16294504 heartbeat IPC: 1.912 cumulative IPC: 1.931 (Simulation time: 00 hr 06 min 01 sec)
Heartbeat CPU 0 instructions: 53000344 cycles: 16527159 heartbeat IPC: 2.149 cumulative IPC: 1.964 (Simulation time: 00 hr 06 min 05 sec)
Heartbeat CPU 0 instructions: 53500348 cycles: 16753787 heartbeat IPC: 2.206 cumulative IPC: 1.995 (Simulation time: 00 hr 06 min 09 sec)
Heartbeat CPU 0 instructions: 54000348 cycles: 17061948 heartbeat IPC: 1.623 cumulative IPC: 1.94 (Simulation time: 00 hr 06 min 14 sec)
Heartbeat CPU 0 instructions: 54500354 cycles: 17273448 heartbeat IPC: 2.364 cumulative IPC: 1.979 (Simulation time: 00 hr 06 min 18 sec)
Heartbeat CPU 0 instructions: 55000361 cycles: 17491413 heartbeat IPC: 2.294 cumulative IPC: 2.007 (Simulation time: 00 hr 06 min 21 sec)
Heartbeat CPU 0 instructions: 55500361 cycles: 17700565 heartbeat IPC: 2.391 cumulative IPC: 2.036 (Simulation time: 00 hr 06 min 25 sec)
Heartbeat CPU 0 instructions: 56000368 cycles: 17895030 heartbeat IPC: 2.571 cumulative IPC: 2.072 (Simulation time: 00 hr 06 min 28 sec)
Heartbeat CPU 0 instructions: 56500369 cycles: 18106544 heartbeat IPC: 2.364 cumulative IPC: 2.092 (Simulation time: 00 hr 06 min 32 sec)
Heartbeat CPU 0 instructions: 57000372 cycles: 18299007 heartbeat IPC: 2.598 cumulative IPC: 2.122 (Simulation time: 00 hr 06 min 36 sec)
Heartbeat CPU 0 instructions: 57500373 cycles: 18482744 heartbeat IPC: 2.721 cumulative IPC: 2.153 (Simulation time: 00 hr 06 min 39 sec)
Heartbeat CPU 0 instructions: 58000375 cycles: 18691683 heartbeat IPC: 2.393 cumulative IPC: 2.167 (Simulation time: 00 hr 06 min 43 sec)
Heartbeat CPU 0 instructions: 58500380 cycles: 18879130 heartbeat IPC: 2.667 cumulative IPC: 2.191 (Simulation time: 00 hr 06 min 46 sec)
Heartbeat CPU 0 instructions: 59000381 cycles: 19067863 heartbeat IPC: 2.649 cumulative IPC: 2.212 (Simulation time: 00 hr 06 min 49 sec)
Heartbeat CPU 0 instructions: 59500381 cycles: 19269830 heartbeat IPC: 2.476 cumulative IPC: 2.225 (Simulation time: 00 hr 06 min 53 sec)
Heartbeat CPU 0 instructions: 60000384 cycles: 19452935 heartbeat IPC: 2.731 cumulative IPC: 2.246 (Simulation time: 00 hr 06 min 56 sec)
Heartbeat CPU 0 instructions: 60500387 cycles: 19665972 heartbeat IPC: 2.347 cumulative IPC: 2.25 (Simulation time: 00 hr 07 min 00 sec)
Heartbeat CPU 0 instructions: 61000389 cycles: 19962154 heartbeat IPC: 1.688 cumulative IPC: 2.217 (Simulation time: 00 hr 07 min 05 sec)
Heartbeat CPU 0 instructions: 61500394 cycles: 20206889 heartbeat IPC: 2.043 cumulative IPC: 2.208 (Simulation time: 00 hr 07 min 09 sec)
Heartbeat CPU 0 instructions: 62000401 cycles: 20480722 heartbeat IPC: 1.826 cumulative IPC: 2.189 (Simulation time: 00 hr 07 min 13 sec)
Heartbeat CPU 0 instructions: 62500402 cycles: 20719002 heartbeat IPC: 2.098 cumulative IPC: 2.186 (Simulation time: 00 hr 07 min 17 sec)
Heartbeat CPU 0 instructions: 63000406 cycles: 20951135 heartbeat IPC: 2.154 cumulative IPC: 2.184 (Simulation time: 00 hr 07 min 21 sec)
Heartbeat CPU 0 instructions: 63500407 cycles: 21214886 heartbeat IPC: 1.896 cumulative IPC: 2.172 (Simulation time: 00 hr 07 min 25 sec)
Heartbeat CPU 0 instructions: 64000409 cycles: 21481412 heartbeat IPC: 1.876 cumulative IPC: 2.16 (Simulation time: 00 hr 07 min 29 sec)
Heartbeat CPU 0 instructions: 64500415 cycles: 21699612 heartbeat IPC: 2.292 cumulative IPC: 2.164 (Simulation time: 00 hr 07 min 33 sec)
Heartbeat CPU 0 instructions: 65000421 cycles: 21928608 heartbeat IPC: 2.183 cumulative IPC: 2.165 (Simulation time: 00 hr 07 min 37 sec)
Heartbeat CPU 0 instructions: 65500425 cycles: 22128804 heartbeat IPC: 2.498 cumulative IPC: 2.174 (Simulation time: 00 hr 07 min 41 sec)
Heartbeat CPU 0 instructions: 66000428 cycles: 22322813 heartbeat IPC: 2.577 cumulative IPC: 2.185 (Simulation time: 00 hr 07 min 44 sec)
Heartbeat CPU 0 instructions: 66500435 cycles: 22537453 heartbeat IPC: 2.33 cumulative IPC: 2.189 (Simulation time: 00 hr 07 min 48 sec)
Heartbeat CPU 0 instructions: 67000440 cycles: 22730058 heartbeat IPC: 2.596 cumulative IPC: 2.199 (Simulation time: 00 hr 07 min 51 sec)
Heartbeat CPU 0 instructions: 67500443 cycles: 22924103 heartbeat IPC: 2.577 cumulative IPC: 2.208 (Simulation time: 00 hr 07 min 55 sec)
Heartbeat CPU 0 instructions: 68000446 cycles: 23133351 heartbeat IPC: 2.39 cumulative IPC: 2.213 (Simulation time: 00 hr 07 min 59 sec)
Heartbeat CPU 0 instructions: 68500450 cycles: 23325375 heartbeat IPC: 2.604 cumulative IPC: 2.222 (Simulation time: 00 hr 08 min 02 sec)
Heartbeat CPU 0 instructions: 69000450 cycles: 23531607 heartbeat IPC: 2.424 cumulative IPC: 2.227 (Simulation time: 00 hr 08 min 06 sec)
Heartbeat CPU 0 instructions: 69500451 cycles: 23718769 heartbeat IPC: 2.671 cumulative IPC: 2.236 (Simulation time: 00 hr 08 min 09 sec)
Heartbeat CPU 0 instructions: 70000452 cycles: 23900568 heartbeat IPC: 2.75 cumulative IPC: 2.247 (Simulation time: 00 hr 08 min 12 sec)
Heartbeat CPU 0 instructions: 70500459 cycles: 24128063 heartbeat IPC: 2.198 cumulative IPC: 2.246 (Simulation time: 00 hr 08 min 16 sec)
Heartbeat CPU 0 instructions: 71000459 cycles: 24373549 heartbeat IPC: 2.037 cumulative IPC: 2.24 (Simulation time: 00 hr 08 min 20 sec)
Heartbeat CPU 0 instructions: 71500461 cycles: 24617127 heartbeat IPC: 2.053 cumulative IPC: 2.236 (Simulation time: 00 hr 08 min 24 sec)
Heartbeat CPU 0 instructions: 72000467 cycles: 24900274 heartbeat IPC: 1.766 cumulative IPC: 2.222 (Simulation time: 00 hr 08 min 29 sec)
Heartbeat CPU 0 instructions: 72500469 cycles: 25141991 heartbeat IPC: 2.069 cumulative IPC: 2.218 (Simulation time: 00 hr 08 min 33 sec)
Heartbeat CPU 0 instructions: 73000473 cycles: 25359259 heartbeat IPC: 2.301 cumulative IPC: 2.22 (Simulation time: 00 hr 08 min 37 sec)
Heartbeat CPU 0 instructions: 73500476 cycles: 25626666 heartbeat IPC: 1.87 cumulative IPC: 2.211 (Simulation time: 00 hr 08 min 41 sec)
Heartbeat CPU 0 instructions: 74000478 cycles: 25877181 heartbeat IPC: 1.996 cumulative IPC: 2.206 (Simulation time: 00 hr 08 min 45 sec)
Heartbeat CPU 0 instructions: 74500482 cycles: 26116116 heartbeat IPC: 2.093 cumulative IPC: 2.204 (Simulation time: 00 hr 08 min 49 sec)
Heartbeat CPU 0 instructions: 75000488 cycles: 26352401 heartbeat IPC: 2.116 cumulative IPC: 2.202 (Simulation time: 00 hr 08 min 53 sec)
Heartbeat CPU 0 instructions: 75500494 cycles: 26558402 heartbeat IPC: 2.427 cumulative IPC: 2.206 (Simulation time: 00 hr 08 min 57 sec)
Heartbeat CPU 0 instructions: 76000500 cycles: 26773336 heartbeat IPC: 2.326 cumulative IPC: 2.208 (Simulation time: 00 hr 09 min 00 sec)
Heartbeat CPU 0 instructions: 76500502 cycles: 26967771 heartbeat IPC: 2.572 cumulative IPC: 2.214 (Simulation time: 00 hr 09 min 04 sec)
Heartbeat CPU 0 instructions: 77000504 cycles: 27162363 heartbeat IPC: 2.569 cumulative IPC: 2.22 (Simulation time: 00 hr 09 min 07 sec)
Heartbeat CPU 0 instructions: 77500507 cycles: 27373341 heartbeat IPC: 2.37 cumulative IPC: 2.222 (Simulation time: 00 hr 09 min 11 sec)
Heartbeat CPU 0 instructions: 78000508 cycles: 27559875 heartbeat IPC: 2.68 cumulative IPC: 2.229 (Simulation time: 00 hr 09 min 14 sec)
Heartbeat CPU 0 instructions: 78500508 cycles: 27753290 heartbeat IPC: 2.585 cumulative IPC: 2.235 (Simulation time: 00 hr 09 min 18 sec)
Heartbeat CPU 0 instructions: 79000511 cycles: 27961523 heartbeat IPC: 2.401 cumulative IPC: 2.237 (Simulation time: 00 hr 09 min 21 sec)
Heartbeat CPU 0 instructions: 79500511 cycles: 28159007 heartbeat IPC: 2.532 cumulative IPC: 2.242 (Simulation time: 00 hr 09 min 25 sec)
Heartbeat CPU 0 instructions: 80000516 cycles: 28339275 heartbeat IPC: 2.774 cumulative IPC: 2.249 (Simulation time: 00 hr 09 min 28 sec)
Heartbeat CPU 0 instructions: 80500522 cycles: 28542400 heartbeat IPC: 2.462 cumulative IPC: 2.252 (Simulation time: 00 hr 09 min 32 sec)
Heartbeat CPU 0 instructions: 81000524 cycles: 28779805 heartbeat IPC: 2.106 cumulative IPC: 2.25 (Simulation time: 00 hr 09 min 36 sec)
Heartbeat CPU 0 instructions: 81500525 cycles: 29044874 heartbeat IPC: 1.886 cumulative IPC: 2.243 (Simulation time: 00 hr 09 min 40 sec)
Heartbeat CPU 0 instructions: 82000528 cycles: 29302563 heartbeat IPC: 1.94 cumulative IPC: 2.237 (Simulation time: 00 hr 09 min 44 sec)
Heartbeat CPU 0 instructions: 82500531 cycles: 29539829 heartbeat IPC: 2.107 cumulative IPC: 2.235 (Simulation time: 00 hr 09 min 48 sec)
Heartbeat CPU 0 instructions: 83000531 cycles: 29800673 heartbeat IPC: 1.917 cumulative IPC: 2.23 (Simulation time: 00 hr 09 min 52 sec)
Heartbeat CPU 0 instructions: 83500534 cycles: 30028148 heartbeat IPC: 2.198 cumulative IPC: 2.229 (Simulation time: 00 hr 09 min 56 sec)
Heartbeat CPU 0 instructions: 84000537 cycles: 30252313 heartbeat IPC: 2.231 cumulative IPC: 2.229 (Simulation time: 00 hr 10 min 00 sec)
Heartbeat CPU 0 instructions: 84500539 cycles: 30551677 heartbeat IPC: 1.67 cumulative IPC: 2.218 (Simulation time: 00 hr 10 min 05 sec)
Heartbeat CPU 0 instructions: 85000541 cycles: 30762688 heartbeat IPC: 2.37 cumulative IPC: 2.22 (Simulation time: 00 hr 10 min 08 sec)
Heartbeat CPU 0 instructions: 85500542 cycles: 30967798 heartbeat IPC: 2.438 cumulative IPC: 2.223 (Simulation time: 00 hr 10 min 12 sec)
Heartbeat CPU 0 instructions: 86000542 cycles: 31193305 heartbeat IPC: 2.217 cumulative IPC: 2.223 (Simulation time: 00 hr 10 min 16 sec)
Heartbeat CPU 0 instructions: 86500542 cycles: 31391585 heartbeat IPC: 2.522 cumulative IPC: 2.227 (Simulation time: 00 hr 10 min 19 sec)
Heartbeat CPU 0 instructions: 87000542 cycles: 31586955 heartbeat IPC: 2.559 cumulative IPC: 2.231 (Simulation time: 00 hr 10 min 23 sec)
Heartbeat CPU 0 instructions: 87500543 cycles: 31801933 heartbeat IPC: 2.326 cumulative IPC: 2.232 (Simulation time: 00 hr 10 min 26 sec)
Heartbeat CPU 0 instructions: 88000549 cycles: 31989707 heartbeat IPC: 2.663 cumulative IPC: 2.237 (Simulation time: 00 hr 10 min 30 sec)
Heartbeat CPU 0 instructions: 88500556 cycles: 32193381 heartbeat IPC: 2.455 cumulative IPC: 2.239 (Simulation time: 00 hr 10 min 33 sec)
Heartbeat CPU 0 instructions: 89000557 cycles: 32389228 heartbeat IPC: 2.553 cumulative IPC: 2.243 (Simulation time: 00 hr 10 min 37 sec)
Heartbeat CPU 0 instructions: 89500560 cycles: 32579328 heartbeat IPC: 2.63 cumulative IPC: 2.247 (Simulation time: 00 hr 10 min 40 sec)
Heartbeat CPU 0 instructions: 90000563 cycles: 32785825 heartbeat IPC: 2.421 cumulative IPC: 2.249 (Simulation time: 00 hr 10 min 44 sec)
Heartbeat CPU 0 instructions: 90500566 cycles: 32972269 heartbeat IPC: 2.682 cumulative IPC: 2.253 (Simulation time: 00 hr 10 min 47 sec)
Heartbeat CPU 0 instructions: 91000567 cycles: 33184538 heartbeat IPC: 2.356 cumulative IPC: 2.255 (Simulation time: 00 hr 10 min 51 sec)
Heartbeat CPU 0 instructions: 91500567 cycles: 33473298 heartbeat IPC: 1.732 cumulative IPC: 2.246 (Simulation time: 00 hr 10 min 55 sec)
Heartbeat CPU 0 instructions: 92000572 cycles: 33711401 heartbeat IPC: 2.1 cumulative IPC: 2.245 (Simulation time: 00 hr 10 min 59 sec)
Heartbeat CPU 0 instructions: 92500575 cycles: 33945696 heartbeat IPC: 2.134 cumulative IPC: 2.243 (Simulation time: 00 hr 11 min 03 sec)
Heartbeat CPU 0 instructions: 93000582 cycles: 34210242 heartbeat IPC: 1.89 cumulative IPC: 2.238 (Simulation time: 00 hr 11 min 08 sec)
Heartbeat CPU 0 instructions: 93500582 cycles: 34435131 heartbeat IPC: 2.223 cumulative IPC: 2.238 (Simulation time: 00 hr 11 min 11 sec)
Heartbeat CPU 0 instructions: 94000588 cycles: 34660716 heartbeat IPC: 2.216 cumulative IPC: 2.238 (Simulation time: 00 hr 11 min 15 sec)
Heartbeat CPU 0 instructions: 94500591 cycles: 34956534 heartbeat IPC: 1.69 cumulative IPC: 2.23 (Simulation time: 00 hr 11 min 20 sec)
Heartbeat CPU 0 instructions: 95000592 cycles: 35172636 heartbeat IPC: 2.314 cumulative IPC: 2.231 (Simulation time: 00 hr 11 min 23 sec)
Heartbeat CPU 0 instructions: 95500599 cycles: 35405357 heartbeat IPC: 2.149 cumulative IPC: 2.23 (Simulation time: 00 hr 11 min 27 sec)
Heartbeat CPU 0 instructions: 96000604 cycles: 35606243 heartbeat IPC: 2.489 cumulative IPC: 2.232 (Simulation time: 00 hr 11 min 31 sec)
Heartbeat CPU 0 instructions: 96500609 cycles: 35802444 heartbeat IPC: 2.548 cumulative IPC: 2.235 (Simulation time: 00 hr 11 min 34 sec)
Heartbeat CPU 0 instructions: 97000614 cycles: 36019773 heartbeat IPC: 2.301 cumulative IPC: 2.236 (Simulation time: 00 hr 11 min 38 sec)
Heartbeat CPU 0 instructions: 97500619 cycles: 36214233 heartbeat IPC: 2.571 cumulative IPC: 2.239 (Simulation time: 00 hr 11 min 41 sec)
Heartbeat CPU 0 instructions: 98000621 cycles: 36406095 heartbeat IPC: 2.606 cumulative IPC: 2.242 (Simulation time: 00 hr 11 min 45 sec)
Heartbeat CPU 0 instructions: 98500624 cycles: 36613579 heartbeat IPC: 2.41 cumulative IPC: 2.244 (Simulation time: 00 hr 11 min 48 sec)
Heartbeat CPU 0 instructions: 99000625 cycles: 36808566 heartbeat IPC: 2.564 cumulative IPC: 2.247 (Simulation time: 00 hr 11 min 52 sec)
Heartbeat CPU 0 instructions: 99500630 cycles: 36996324 heartbeat IPC: 2.663 cumulative IPC: 2.25 (Simulation time: 00 hr 11 min 55 sec)
Heartbeat CPU 0 instructions: 100000637 cycles: 37209593 heartbeat IPC: 2.344 cumulative IPC: 2.251 (Simulation time: 00 hr 11 min 59 sec)
Heartbeat CPU 0 instructions: 100500640 cycles: 37394599 heartbeat IPC: 2.703 cumulative IPC: 2.255 (Simulation time: 00 hr 12 min 02 sec)
Heartbeat CPU 0 instructions: 101000641 cycles: 37588993 heartbeat IPC: 2.572 cumulative IPC: 2.258 (Simulation time: 00 hr 12 min 06 sec)
Heartbeat CPU 0 instructions: 101500644 cycles: 37867569 heartbeat IPC: 1.795 cumulative IPC: 2.252 (Simulation time: 00 hr 12 min 10 sec)
Heartbeat CPU 0 instructions: 102000646 cycles: 38107001 heartbeat IPC: 2.088 cumulative IPC: 2.25 (Simulation time: 00 hr 12 min 14 sec)
Heartbeat CPU 0 instructions: 102500648 cycles: 38384856 heartbeat IPC: 1.8 cumulative IPC: 2.245 (Simulation time: 00 hr 12 min 18 sec)
Heartbeat CPU 0 instructions: 103000650 cycles: 38619970 heartbeat IPC: 2.127 cumulative IPC: 2.244 (Simulation time: 00 hr 12 min 22 sec)
Heartbeat CPU 0 instructions: 103500654 cycles: 38834532 heartbeat IPC: 2.33 cumulative IPC: 2.245 (Simulation time: 00 hr 12 min 26 sec)
Heartbeat CPU 0 instructions: 104000654 cycles: 39099808 heartbeat IPC: 1.885 cumulative IPC: 2.241 (Simulation time: 00 hr 12 min 30 sec)
Heartbeat CPU 0 instructions: 104500655 cycles: 39345744 heartbeat IPC: 2.033 cumulative IPC: 2.239 (Simulation time: 00 hr 12 min 34 sec)
Heartbeat CPU 0 instructions: 105000661 cycles: 39588090 heartbeat IPC: 2.063 cumulative IPC: 2.237 (Simulation time: 00 hr 12 min 38 sec)
Heartbeat CPU 0 instructions: 105500661 cycles: 39826546 heartbeat IPC: 2.097 cumulative IPC: 2.235 (Simulation time: 00 hr 12 min 42 sec)
Heartbeat CPU 0 instructions: 106000664 cycles: 40031440 heartbeat IPC: 2.44 cumulative IPC: 2.237 (Simulation time: 00 hr 12 min 46 sec)
Heartbeat CPU 0 instructions: 106500665 cycles: 40226207 heartbeat IPC: 2.567 cumulative IPC: 2.24 (Simulation time: 00 hr 12 min 49 sec)
Heartbeat CPU 0 instructions: 107000670 cycles: 40443213 heartbeat IPC: 2.304 cumulative IPC: 2.24 (Simulation time: 00 hr 12 min 53 sec)
Heartbeat CPU 0 instructions: 107500675 cycles: 40636474 heartbeat IPC: 2.587 cumulative IPC: 2.243 (Simulation time: 00 hr 12 min 56 sec)
Heartbeat CPU 0 instructions: 108000678 cycles: 40839681 heartbeat IPC: 2.461 cumulative IPC: 2.245 (Simulation time: 00 hr 13 min 00 sec)
Heartbeat CPU 0 instructions: 108500680 cycles: 41036599 heartbeat IPC: 2.539 cumulative IPC: 2.247 (Simulation time: 00 hr 13 min 03 sec)
Heartbeat CPU 0 instructions: 109000680 cycles: 41233353 heartbeat IPC: 2.541 cumulative IPC: 2.249 (Simulation time: 00 hr 13 min 07 sec)
Heartbeat CPU 0 instructions: 109500684 cycles: 41442690 heartbeat IPC: 2.389 cumulative IPC: 2.25 (Simulation time: 00 hr 13 min 10 sec)
Heartbeat CPU 0 instructions: 110000689 cycles: 41639786 heartbeat IPC: 2.537 cumulative IPC: 2.252 (Simulation time: 00 hr 13 min 14 sec)
Heartbeat CPU 0 instructions: 110500690 cycles: 41826533 heartbeat IPC: 2.677 cumulative IPC: 2.255 (Simulation time: 00 hr 13 min 17 sec)
Heartbeat CPU 0 instructions: 111000692 cycles: 42035132 heartbeat IPC: 2.397 cumulative IPC: 2.256 (Simulation time: 00 hr 13 min 21 sec)
Heartbeat CPU 0 instructions: 111500692 cycles: 42272852 heartbeat IPC: 2.103 cumulative IPC: 2.255 (Simulation time: 00 hr 13 min 25 sec)
Heartbeat CPU 0 instructions: 112000694 cycles: 42515684 heartbeat IPC: 2.059 cumulative IPC: 2.253 (Simulation time: 00 hr 13 min 29 sec)
Heartbeat CPU 0 instructions: 112500697 cycles: 42789015 heartbeat IPC: 1.829 cumulative IPC: 2.249 (Simulation time: 00 hr 13 min 33 sec)
Heartbeat CPU 0 instructions: 113000697 cycles: 43023558 heartbeat IPC: 2.132 cumulative IPC: 2.248 (Simulation time: 00 hr 13 min 37 sec)
Heartbeat CPU 0 instructions: 113500698 cycles: 43244938 heartbeat IPC: 2.259 cumulative IPC: 2.248 (Simulation time: 00 hr 13 min 41 sec)
Heartbeat CPU 0 instructions: 114000705 cycles: 43510872 heartbeat IPC: 1.88 cumulative IPC: 2.245 (Simulation time: 00 hr 13 min 45 sec)
Heartbeat CPU 0 instructions: 114500707 cycles: 43736400 heartbeat IPC: 2.217 cumulative IPC: 2.245 (Simulation time: 00 hr 13 min 49 sec)
Heartbeat CPU 0 instructions: 115000710 cycles: 44019688 heartbeat IPC: 1.765 cumulative IPC: 2.24 (Simulation time: 00 hr 13 min 53 sec)
Heartbeat CPU 0 instructions: 115500713 cycles: 44240962 heartbeat IPC: 2.26 cumulative IPC: 2.24 (Simulation time: 00 hr 13 min 57 sec)
Heartbeat CPU 0 instructions: 116000713 cycles: 44443063 heartbeat IPC: 2.474 cumulative IPC: 2.242 (Simulation time: 00 hr 14 min 00 sec)
Heartbeat CPU 0 instructions: 116500716 cycles: 44666591 heartbeat IPC: 2.237 cumulative IPC: 2.242 (Simulation time: 00 hr 14 min 04 sec)
Heartbeat CPU 0 instructions: 117000719 cycles: 44863346 heartbeat IPC: 2.541 cumulative IPC: 2.244 (Simulation time: 00 hr 14 min 08 sec)
Heartbeat CPU 0 instructions: 117500719 cycles: 45059777 heartbeat IPC: 2.545 cumulative IPC: 2.246 (Simulation time: 00 hr 14 min 11 sec)
Heartbeat CPU 0 instructions: 118000722 cycles: 45277720 heartbeat IPC: 2.294 cumulative IPC: 2.246 (Simulation time: 00 hr 14 min 15 sec)
Heartbeat CPU 0 instructions: 118500727 cycles: 45467313 heartbeat IPC: 2.637 cumulative IPC: 2.248 (Simulation time: 00 hr 14 min 18 sec)
Heartbeat CPU 0 instructions: 119000728 cycles: 45660598 heartbeat IPC: 2.587 cumulative IPC: 2.25 (Simulation time: 00 hr 14 min 22 sec)
Heartbeat CPU 0 instructions: 119500730 cycles: 45873436 heartbeat IPC: 2.349 cumulative IPC: 2.251 (Simulation time: 00 hr 14 min 25 sec)
Heartbeat CPU 0 instructions: 120000730 cycles: 46068077 heartbeat IPC: 2.569 cumulative IPC: 2.253 (Simulation time: 00 hr 14 min 29 sec)
Heartbeat CPU 0 instructions: 120500737 cycles: 46258598 heartbeat IPC: 2.624 cumulative IPC: 2.255 (Simulation time: 00 hr 14 min 32 sec)
Heartbeat CPU 0 instructions: 121000737 cycles: 46464068 heartbeat IPC: 2.433 cumulative IPC: 2.257 (Simulation time: 00 hr 14 min 36 sec)
Heartbeat CPU 0 instructions: 121500739 cycles: 46672182 heartbeat IPC: 2.403 cumulative IPC: 2.257 (Simulation time: 00 hr 14 min 39 sec)
Heartbeat CPU 0 instructions: 122000742 cycles: 46956263 heartbeat IPC: 1.76 cumulative IPC: 2.253 (Simulation time: 00 hr 14 min 44 sec)
Heartbeat CPU 0 instructions: 122500744 cycles: 47193685 heartbeat IPC: 2.106 cumulative IPC: 2.252 (Simulation time: 00 hr 14 min 48 sec)
Heartbeat CPU 0 instructions: 123000745 cycles: 47429325 heartbeat IPC: 2.122 cumulative IPC: 2.251 (Simulation time: 00 hr 14 min 52 sec)
Heartbeat CPU 0 instructions: 123500747 cycles: 47690668 heartbeat IPC: 1.913 cumulative IPC: 2.248 (Simulation time: 00 hr 14 min 56 sec)
Heartbeat CPU 0 instructions: 124000747 cycles: 47914268 heartbeat IPC: 2.236 cumulative IPC: 2.248 (Simulation time: 00 hr 15 min 00 sec)
Heartbeat CPU 0 instructions: 124500754 cycles: 48140263 heartbeat IPC: 2.212 cumulative IPC: 2.248 (Simulation time: 00 hr 15 min 03 sec)
Heartbeat CPU 0 instructions: 125000756 cycles: 48434437 heartbeat IPC: 1.7 cumulative IPC: 2.243 (Simulation time: 00 hr 15 min 08 sec)
Heartbeat CPU 0 instructions: 125500763 cycles: 48651484 heartbeat IPC: 2.304 cumulative IPC: 2.244 (Simulation time: 00 hr 15 min 12 sec)
Heartbeat CPU 0 instructions: 126000768 cycles: 48856564 heartbeat IPC: 2.438 cumulative IPC: 2.245 (Simulation time: 00 hr 15 min 15 sec)
Heartbeat CPU 0 instructions: 126500768 cycles: 49085603 heartbeat IPC: 2.183 cumulative IPC: 2.244 (Simulation time: 00 hr 15 min 19 sec)
Heartbeat CPU 0 instructions: 127000768 cycles: 49283200 heartbeat IPC: 2.53 cumulative IPC: 2.246 (Simulation time: 00 hr 15 min 23 sec)
Heartbeat CPU 0 instructions: 127500771 cycles: 49483535 heartbeat IPC: 2.496 cumulative IPC: 2.247 (Simulation time: 00 hr 15 min 26 sec)
Heartbeat CPU 0 instructions: 128000777 cycles: 49700208 heartbeat IPC: 2.308 cumulative IPC: 2.248 (Simulation time: 00 hr 15 min 30 sec)
Heartbeat CPU 0 instructions: 128500778 cycles: 49894183 heartbeat IPC: 2.578 cumulative IPC: 2.25 (Simulation time: 00 hr 15 min 33 sec)
Heartbeat CPU 0 instructions: 129000778 cycles: 50105025 heartbeat IPC: 2.371 cumulative IPC: 2.25 (Simulation time: 00 hr 15 min 37 sec)
Heartbeat CPU 0 instructions: 129500779 cycles: 50300021 heartbeat IPC: 2.564 cumulative IPC: 2.252 (Simulation time: 00 hr 15 min 40 sec)
Heartbeat CPU 0 instructions: 130000784 cycles: 50489702 heartbeat IPC: 2.636 cumulative IPC: 2.254 (Simulation time: 00 hr 15 min 44 sec)
Heartbeat CPU 0 instructions: 130500791 cycles: 50708169 heartbeat IPC: 2.289 cumulative IPC: 2.254 (Simulation time: 00 hr 15 min 48 sec)
Heartbeat CPU 0 instructions: 131000793 cycles: 50895349 heartbeat IPC: 2.671 cumulative IPC: 2.257 (Simulation time: 00 hr 15 min 51 sec)
Heartbeat CPU 0 instructions: 131500793 cycles: 51084652 heartbeat IPC: 2.641 cumulative IPC: 2.259 (Simulation time: 00 hr 15 min 54 sec)
Heartbeat CPU 0 instructions: 132000800 cycles: 51366988 heartbeat IPC: 1.771 cumulative IPC: 2.255 (Simulation time: 00 hr 15 min 59 sec)
Heartbeat CPU 0 instructions: 132500804 cycles: 51602029 heartbeat IPC: 2.127 cumulative IPC: 2.254 (Simulation time: 00 hr 16 min 03 sec)
Heartbeat CPU 0 instructions: 133000809 cycles: 51834374 heartbeat IPC: 2.152 cumulative IPC: 2.253 (Simulation time: 00 hr 16 min 06 sec)
Heartbeat CPU 0 instructions: 133500815 cycles: 52111145 heartbeat IPC: 1.807 cumulative IPC: 2.25 (Simulation time: 00 hr 16 min 11 sec)
Heartbeat CPU 0 instructions: 134000816 cycles: 52324302 heartbeat IPC: 2.346 cumulative IPC: 2.251 (Simulation time: 00 hr 16 min 14 sec)
Heartbeat CPU 0 instructions: 134500818 cycles: 52561285 heartbeat IPC: 2.11 cumulative IPC: 2.25 (Simulation time: 00 hr 16 min 18 sec)
Heartbeat CPU 0 instructions: 135000819 cycles: 52855348 heartbeat IPC: 1.7 cumulative IPC: 2.245 (Simulation time: 00 hr 16 min 23 sec)
Heartbeat CPU 0 instructions: 135500819 cycles: 53202571 heartbeat IPC: 1.44 cumulative IPC: 2.238 (Simulation time: 00 hr 16 min 28 sec)
Heartbeat CPU 0 instructions: 136000823 cycles: 53533502 heartbeat IPC: 1.511 cumulative IPC: 2.232 (Simulation time: 00 hr 16 min 33 sec)
Heartbeat CPU 0 instructions: 136500830 cycles: 53827974 heartbeat IPC: 1.698 cumulative IPC: 2.228 (Simulation time: 00 hr 16 min 37 sec)
Heartbeat CPU 0 instructions: 137000835 cycles: 54139909 heartbeat IPC: 1.603 cumulative IPC: 2.223 (Simulation time: 00 hr 16 min 42 sec)
Heartbeat CPU 0 instructions: 137500840 cycles: 54583140 heartbeat IPC: 1.128 cumulative IPC: 2.211 (Simulation time: 00 hr 16 min 48 sec)
Heartbeat CPU 0 instructions: 138000841 cycles: 55031477 heartbeat IPC: 1.115 cumulative IPC: 2.198 (Simulation time: 00 hr 16 min 54 sec)
Heartbeat CPU 0 instructions: 138500844 cycles: 57091233 heartbeat IPC: 0.2427 cumulative IPC: 2.103 (Simulation time: 00 hr 17 min 17 sec)
Heartbeat CPU 0 instructions: 139000848 cycles: 57226087 heartbeat IPC: 3.708 cumulative IPC: 2.108 (Simulation time: 00 hr 17 min 18 sec)
Heartbeat CPU 0 instructions: 139500852 cycles: 57354289 heartbeat IPC: 3.9 cumulative IPC: 2.113 (Simulation time: 00 hr 17 min 20 sec)
Heartbeat CPU 0 instructions: 140000856 cycles: 57488833 heartbeat IPC: 3.716 cumulative IPC: 2.118 (Simulation time: 00 hr 17 min 22 sec)
Heartbeat CPU 0 instructions: 140500857 cycles: 57614074 heartbeat IPC: 3.992 cumulative IPC: 2.124 (Simulation time: 00 hr 17 min 24 sec)
Heartbeat CPU 0 instructions: 141000860 cycles: 57743366 heartbeat IPC: 3.867 cumulative IPC: 2.129 (Simulation time: 00 hr 17 min 26 sec)
Heartbeat CPU 0 instructions: 141500860 cycles: 57868884 heartbeat IPC: 3.983 cumulative IPC: 2.134 (Simulation time: 00 hr 17 min 27 sec)
Heartbeat CPU 0 instructions: 142000864 cycles: 57998321 heartbeat IPC: 3.863 cumulative IPC: 2.14 (Simulation time: 00 hr 17 min 29 sec)
Heartbeat CPU 0 instructions: 142500865 cycles: 58134654 heartbeat IPC: 3.667 cumulative IPC: 2.144 (Simulation time: 00 hr 17 min 31 sec)
Heartbeat CPU 0 instructions: 143000868 cycles: 58261973 heartbeat IPC: 3.927 cumulative IPC: 2.15 (Simulation time: 00 hr 17 min 33 sec)
Heartbeat CPU 0 instructions: 143500873 cycles: 58554903 heartbeat IPC: 1.707 cumulative IPC: 2.147 (Simulation time: 00 hr 17 min 37 sec)
Heartbeat CPU 0 instructions: 144000873 cycles: 59267527 heartbeat IPC: 0.7016 cumulative IPC: 2.123 (Simulation time: 00 hr 17 min 45 sec)
Heartbeat CPU 0 instructions: 144500876 cycles: 59528247 heartbeat IPC: 1.918 cumulative IPC: 2.122 (Simulation time: 00 hr 17 min 48 sec)
Heartbeat CPU 0 instructions: 145000877 cycles: 59808858 heartbeat IPC: 1.782 cumulative IPC: 2.12 (Simulation time: 00 hr 17 min 52 sec)
Heartbeat CPU 0 instructions: 145500882 cycles: 60110095 heartbeat IPC: 1.66 cumulative IPC: 2.117 (Simulation time: 00 hr 17 min 56 sec)
Heartbeat CPU 0 instructions: 146000886 cycles: 60389393 heartbeat IPC: 1.79 cumulative IPC: 2.115 (Simulation time: 00 hr 17 min 59 sec)
Heartbeat CPU 0 instructions: 146500891 cycles: 60684789 heartbeat IPC: 1.693 cumulative IPC: 2.112 (Simulation time: 00 hr 18 min 03 sec)
Heartbeat CPU 0 instructions: 147000894 cycles: 61000349 heartbeat IPC: 1.584 cumulative IPC: 2.109 (Simulation time: 00 hr 18 min 07 sec)
Heartbeat CPU 0 instructions: 147500898 cycles: 61290150 heartbeat IPC: 1.725 cumulative IPC: 2.106 (Simulation time: 00 hr 18 min 10 sec)
Heartbeat CPU 0 instructions: 148000902 cycles: 61605287 heartbeat IPC: 1.587 cumulative IPC: 2.103 (Simulation time: 00 hr 18 min 14 sec)
Heartbeat CPU 0 instructions: 148500907 cycles: 61906882 heartbeat IPC: 1.658 cumulative IPC: 2.1 (Simulation time: 00 hr 18 min 18 sec)
Heartbeat CPU 0 instructions: 149000910 cycles: 62212997 heartbeat IPC: 1.633 cumulative IPC: 2.097 (Simulation time: 00 hr 18 min 22 sec)
Heartbeat CPU 0 instructions: 149500912 cycles: 62503364 heartbeat IPC: 1.722 cumulative IPC: 2.095 (Simulation time: 00 hr 18 min 26 sec)
Heartbeat CPU 0 instructions: 150000917 cycles: 62787264 heartbeat IPC: 1.761 cumulative IPC: 2.093 (Simulation time: 00 hr 18 min 29 sec)
Heartbeat CPU 0 instructions: 150500921 cycles: 63056104 heartbeat IPC: 1.86 cumulative IPC: 2.091 (Simulation time: 00 hr 18 min 33 sec)
Heartbeat CPU 0 instructions: 151000924 cycles: 63327575 heartbeat IPC: 1.842 cumulative IPC: 2.09 (Simulation time: 00 hr 18 min 36 sec)
Heartbeat CPU 0 instructions: 151500929 cycles: 63600433 heartbeat IPC: 1.832 cumulative IPC: 2.088 (Simulation time: 00 hr 18 min 40 sec)
Heartbeat CPU 0 instructions: 152000931 cycles: 63848052 heartbeat IPC: 2.019 cumulative IPC: 2.088 (Simulation time: 00 hr 18 min 43 sec)
Heartbeat CPU 0 instructions: 152500938 cycles: 64113491 heartbeat IPC: 1.884 cumulative IPC: 2.087 (Simulation time: 00 hr 18 min 47 sec)
Heartbeat CPU 0 instructions: 153000939 cycles: 64374218 heartbeat IPC: 1.918 cumulative IPC: 2.086 (Simulation time: 00 hr 18 min 50 sec)
Heartbeat CPU 0 instructions: 153500944 cycles: 64625013 heartbeat IPC: 1.994 cumulative IPC: 2.086 (Simulation time: 00 hr 18 min 54 sec)
Heartbeat CPU 0 instructions: 154000949 cycles: 64857654 heartbeat IPC: 2.149 cumulative IPC: 2.086 (Simulation time: 00 hr 18 min 57 sec)
Heartbeat CPU 0 instructions: 154500954 cycles: 65097785 heartbeat IPC: 2.082 cumulative IPC: 2.086 (Simulation time: 00 hr 19 min 00 sec)
Heartbeat CPU 0 instructions: 155000957 cycles: 65339735 heartbeat IPC: 2.067 cumulative IPC: 2.086 (Simulation time: 00 hr 19 min 03 sec)
Heartbeat CPU 0 instructions: 155500959 cycles: 65573481 heartbeat IPC: 2.139 cumulative IPC: 2.086 (Simulation time: 00 hr 19 min 06 sec)
Heartbeat CPU 0 instructions: 156000965 cycles: 65805323 heartbeat IPC: 2.157 cumulative IPC: 2.086 (Simulation time: 00 hr 19 min 10 sec)
Heartbeat CPU 0 instructions: 156500969 cycles: 66040799 heartbeat IPC: 2.123 cumulative IPC: 2.087 (Simulation time: 00 hr 19 min 13 sec)
Heartbeat CPU 0 instructions: 157000971 cycles: 66275626 heartbeat IPC: 2.129 cumulative IPC: 2.087 (Simulation time: 00 hr 19 min 16 sec)
Heartbeat CPU 0 instructions: 157500972 cycles: 66510913 heartbeat IPC: 2.125 cumulative IPC: 2.087 (Simulation time: 00 hr 19 min 19 sec)
Heartbeat CPU 0 instructions: 158000978 cycles: 66730440 heartbeat IPC: 2.278 cumulative IPC: 2.088 (Simulation time: 00 hr 19 min 22 sec)
Heartbeat CPU 0 instructions: 158500984 cycles: 66969517 heartbeat IPC: 2.091 cumulative IPC: 2.088 (Simulation time: 00 hr 19 min 26 sec)
Heartbeat CPU 0 instructions: 159000986 cycles: 67209313 heartbeat IPC: 2.085 cumulative IPC: 2.088 (Simulation time: 00 hr 19 min 29 sec)
Heartbeat CPU 0 instructions: 159500989 cycles: 67453359 heartbeat IPC: 2.049 cumulative IPC: 2.088 (Simulation time: 00 hr 19 min 32 sec)
Heartbeat CPU 0 instructions: 160000996 cycles: 67680381 heartbeat IPC: 2.202 cumulative IPC: 2.088 (Simulation time: 00 hr 19 min 35 sec)
Heartbeat CPU 0 instructions: 160501000 cycles: 67921827 heartbeat IPC: 2.071 cumulative IPC: 2.088 (Simulation time: 00 hr 19 min 38 sec)
Heartbeat CPU 0 instructions: 161001001 cycles: 68162413 heartbeat IPC: 2.078 cumulative IPC: 2.088 (Simulation time: 00 hr 19 min 42 sec)
Heartbeat CPU 0 instructions: 161501006 cycles: 68403939 heartbeat IPC: 2.07 cumulative IPC: 2.088 (Simulation time: 00 hr 19 min 45 sec)
Heartbeat CPU 0 instructions: 162001011 cycles: 68631566 heartbeat IPC: 2.197 cumulative IPC: 2.088 (Simulation time: 00 hr 19 min 48 sec)
Heartbeat CPU 0 instructions: 162501015 cycles: 68926045 heartbeat IPC: 1.698 cumulative IPC: 2.086 (Simulation time: 00 hr 19 min 52 sec)
Heartbeat CPU 0 instructions: 163001018 cycles: 69231172 heartbeat IPC: 1.639 cumulative IPC: 2.084 (Simulation time: 00 hr 19 min 56 sec)
Heartbeat CPU 0 instructions: 163501021 cycles: 69538195 heartbeat IPC: 1.629 cumulative IPC: 2.081 (Simulation time: 00 hr 19 min 59 sec)
Heartbeat CPU 0 instructions: 164001021 cycles: 69847936 heartbeat IPC: 1.614 cumulative IPC: 2.078 (Simulation time: 00 hr 20 min 03 sec)
Heartbeat CPU 0 instructions: 164501022 cycles: 70178739 heartbeat IPC: 1.511 cumulative IPC: 2.075 (Simulation time: 00 hr 20 min 07 sec)
Heartbeat CPU 0 instructions: 165001026 cycles: 70506028 heartbeat IPC: 1.528 cumulative IPC: 2.072 (Simulation time: 00 hr 20 min 11 sec)
Heartbeat CPU 0 instructions: 165501026 cycles: 70823962 heartbeat IPC: 1.573 cumulative IPC: 2.069 (Simulation time: 00 hr 20 min 15 sec)
Heartbeat CPU 0 instructions: 166001026 cycles: 71106784 heartbeat IPC: 1.768 cumulative IPC: 2.067 (Simulation time: 00 hr 20 min 18 sec)
Heartbeat CPU 0 instructions: 166501027 cycles: 71412791 heartbeat IPC: 1.634 cumulative IPC: 2.065 (Simulation time: 00 hr 20 min 22 sec)
Heartbeat CPU 0 instructions: 167001032 cycles: 71714570 heartbeat IPC: 1.657 cumulative IPC: 2.063 (Simulation time: 00 hr 20 min 26 sec)
Heartbeat CPU 0 instructions: 167501037 cycles: 72004764 heartbeat IPC: 1.723 cumulative IPC: 2.061 (Simulation time: 00 hr 20 min 30 sec)
Heartbeat CPU 0 instructions: 168001037 cycles: 72272687 heartbeat IPC: 1.866 cumulative IPC: 2.06 (Simulation time: 00 hr 20 min 33 sec)
Heartbeat CPU 0 instructions: 168501038 cycles: 72572420 heartbeat IPC: 1.668 cumulative IPC: 2.058 (Simulation time: 00 hr 20 min 37 sec)
Heartbeat CPU 0 instructions: 169001039 cycles: 72856498 heartbeat IPC: 1.76 cumulative IPC: 2.057 (Simulation time: 00 hr 20 min 40 sec)
Heartbeat CPU 0 instructions: 169501045 cycles: 73125440 heartbeat IPC: 1.859 cumulative IPC: 2.056 (Simulation time: 00 hr 20 min 44 sec)
Heartbeat CPU 0 instructions: 170001049 cycles: 73390541 heartbeat IPC: 1.886 cumulative IPC: 2.055 (Simulation time: 00 hr 20 min 47 sec)
Heartbeat CPU 0 instructions: 170501053 cycles: 73647833 heartbeat IPC: 1.943 cumulative IPC: 2.055 (Simulation time: 00 hr 20 min 51 sec)
Heartbeat CPU 0 instructions: 171001056 cycles: 73909823 heartbeat IPC: 1.908 cumulative IPC: 2.054 (Simulation time: 00 hr 20 min 54 sec)
Heartbeat CPU 0 instructions: 171501057 cycles: 74147713 heartbeat IPC: 2.102 cumulative IPC: 2.054 (Simulation time: 00 hr 20 min 57 sec)
Heartbeat CPU 0 instructions: 172001061 cycles: 74372347 heartbeat IPC: 2.226 cumulative IPC: 2.055 (Simulation time: 00 hr 21 min 00 sec)
Heartbeat CPU 0 instructions: 172501061 cycles: 74582280 heartbeat IPC: 2.382 cumulative IPC: 2.056 (Simulation time: 00 hr 21 min 03 sec)
Heartbeat CPU 0 instructions: 173001063 cycles: 74791332 heartbeat IPC: 2.392 cumulative IPC: 2.057 (Simulation time: 00 hr 21 min 06 sec)
Heartbeat CPU 0 instructions: 173501066 cycles: 75005962 heartbeat IPC: 2.33 cumulative IPC: 2.058 (Simulation time: 00 hr 21 min 09 sec)
Heartbeat CPU 0 instructions: 174001072 cycles: 75206142 heartbeat IPC: 2.498 cumulative IPC: 2.06 (Simulation time: 00 hr 21 min 12 sec)
Heartbeat CPU 0 instructions: 174501075 cycles: 75414329 heartbeat IPC: 2.402 cumulative IPC: 2.061 (Simulation time: 00 hr 21 min 15 sec)
Heartbeat CPU 0 instructions: 175001076 cycles: 75624151 heartbeat IPC: 2.383 cumulative IPC: 2.062 (Simulation time: 00 hr 21 min 18 sec)
Heartbeat CPU 0 instructions: 175501083 cycles: 75833289 heartbeat IPC: 2.391 cumulative IPC: 2.063 (Simulation time: 00 hr 21 min 21 sec)
Heartbeat CPU 0 instructions: 176001083 cycles: 76033137 heartbeat IPC: 2.502 cumulative IPC: 2.064 (Simulation time: 00 hr 21 min 24 sec)
Heartbeat CPU 0 instructions: 176501084 cycles: 76249179 heartbeat IPC: 2.314 cumulative IPC: 2.065 (Simulation time: 00 hr 21 min 27 sec)
Heartbeat CPU 0 instructions: 177001085 cycles: 76454653 heartbeat IPC: 2.433 cumulative IPC: 2.067 (Simulation time: 00 hr 21 min 30 sec)
Heartbeat CPU 0 instructions: 177501092 cycles: 76673303 heartbeat IPC: 2.287 cumulative IPC: 2.067 (Simulation time: 00 hr 21 min 33 sec)
Heartbeat CPU 0 instructions: 178001092 cycles: 76865632 heartbeat IPC: 2.6 cumulative IPC: 2.069 (Simulation time: 00 hr 21 min 36 sec)
Heartbeat CPU 0 instructions: 178501095 cycles: 77084476 heartbeat IPC: 2.285 cumulative IPC: 2.07 (Simulation time: 00 hr 21 min 39 sec)
Heartbeat CPU 0 instructions: 179001095 cycles: 77298526 heartbeat IPC: 2.336 cumulative IPC: 2.071 (Simulation time: 00 hr 21 min 42 sec)
Heartbeat CPU 0 instructions: 179501099 cycles: 77509189 heartbeat IPC: 2.373 cumulative IPC: 2.072 (Simulation time: 00 hr 21 min 45 sec)
Heartbeat CPU 0 instructions: 180001099 cycles: 77727017 heartbeat IPC: 2.295 cumulative IPC: 2.072 (Simulation time: 00 hr 21 min 48 sec)
Heartbeat CPU 0 instructions: 180501099 cycles: 77948692 heartbeat IPC: 2.256 cumulative IPC: 2.073 (Simulation time: 00 hr 21 min 51 sec)
Heartbeat CPU 0 instructions: 181001101 cycles: 78180852 heartbeat IPC: 2.154 cumulative IPC: 2.073 (Simulation time: 00 hr 21 min 54 sec)
Heartbeat CPU 0 instructions: 181501106 cycles: 78378381 heartbeat IPC: 2.531 cumulative IPC: 2.075 (Simulation time: 00 hr 21 min 57 sec)
Heartbeat CPU 0 instructions: 182001106 cycles: 78579586 heartbeat IPC: 2.485 cumulative IPC: 2.076 (Simulation time: 00 hr 22 min 00 sec)
Heartbeat CPU 0 instructions: 182501106 cycles: 78785253 heartbeat IPC: 2.431 cumulative IPC: 2.077 (Simulation time: 00 hr 22 min 02 sec)
Heartbeat CPU 0 instructions: 183001110 cycles: 78978584 heartbeat IPC: 2.586 cumulative IPC: 2.079 (Simulation time: 00 hr 22 min 05 sec)
Heartbeat CPU 0 instructions: 183501113 cycles: 79174893 heartbeat IPC: 2.547 cumulative IPC: 2.08 (Simulation time: 00 hr 22 min 08 sec)
Heartbeat CPU 0 instructions: 184001117 cycles: 79384091 heartbeat IPC: 2.39 cumulative IPC: 2.081 (Simulation time: 00 hr 22 min 11 sec)
Heartbeat CPU 0 instructions: 184501122 cycles: 79587017 heartbeat IPC: 2.464 cumulative IPC: 2.082 (Simulation time: 00 hr 22 min 14 sec)
Heartbeat CPU 0 instructions: 185001126 cycles: 79796174 heartbeat IPC: 2.391 cumulative IPC: 2.083 (Simulation time: 00 hr 22 min 17 sec)
Heartbeat CPU 0 instructions: 185501128 cycles: 79995067 heartbeat IPC: 2.514 cumulative IPC: 2.085 (Simulation time: 00 hr 22 min 20 sec)
Heartbeat CPU 0 instructions: 186001135 cycles: 80203805 heartbeat IPC: 2.395 cumulative IPC: 2.086 (Simulation time: 00 hr 22 min 22 sec)
Heartbeat CPU 0 instructions: 186501135 cycles: 80417020 heartbeat IPC: 2.345 cumulative IPC: 2.087 (Simulation time: 00 hr 22 min 25 sec)
Heartbeat CPU 0 instructions: 187001140 cycles: 80622582 heartbeat IPC: 2.432 cumulative IPC: 2.088 (Simulation time: 00 hr 22 min 28 sec)
Heartbeat CPU 0 instructions: 187501145 cycles: 80819176 heartbeat IPC: 2.543 cumulative IPC: 2.089 (Simulation time: 00 hr 22 min 31 sec)
Heartbeat CPU 0 instructions: 188001149 cycles: 81026939 heartbeat IPC: 2.407 cumulative IPC: 2.09 (Simulation time: 00 hr 22 min 34 sec)
Heartbeat CPU 0 instructions: 188501156 cycles: 81239292 heartbeat IPC: 2.355 cumulative IPC: 2.091 (Simulation time: 00 hr 22 min 37 sec)
Heartbeat CPU 0 instructions: 189001156 cycles: 81458519 heartbeat IPC: 2.281 cumulative IPC: 2.092 (Simulation time: 00 hr 22 min 40 sec)
Heartbeat CPU 0 instructions: 189501157 cycles: 81669243 heartbeat IPC: 2.373 cumulative IPC: 2.092 (Simulation time: 00 hr 22 min 43 sec)
Heartbeat CPU 0 instructions: 190001160 cycles: 81882725 heartbeat IPC: 2.342 cumulative IPC: 2.093 (Simulation time: 00 hr 22 min 46 sec)
Heartbeat CPU 0 instructions: 190501160 cycles: 82102576 heartbeat IPC: 2.274 cumulative IPC: 2.094 (Simulation time: 00 hr 22 min 49 sec)
Heartbeat CPU 0 instructions: 191001162 cycles: 82306071 heartbeat IPC: 2.457 cumulative IPC: 2.095 (Simulation time: 00 hr 22 min 52 sec)
Heartbeat CPU 0 instructions: 191501169 cycles: 82499833 heartbeat IPC: 2.581 cumulative IPC: 2.096 (Simulation time: 00 hr 22 min 55 sec)
Heartbeat CPU 0 instructions: 192001175 cycles: 82701771 heartbeat IPC: 2.476 cumulative IPC: 2.097 (Simulation time: 00 hr 22 min 57 sec)
Heartbeat CPU 0 instructions: 192501176 cycles: 82899654 heartbeat IPC: 2.527 cumulative IPC: 2.099 (Simulation time: 00 hr 23 min 00 sec)
Heartbeat CPU 0 instructions: 193001180 cycles: 83098257 heartbeat IPC: 2.518 cumulative IPC: 2.1 (Simulation time: 00 hr 23 min 03 sec)
Heartbeat CPU 0 instructions: 193501180 cycles: 83296851 heartbeat IPC: 2.518 cumulative IPC: 2.101 (Simulation time: 00 hr 23 min 06 sec)
Heartbeat CPU 0 instructions: 194001184 cycles: 83499036 heartbeat IPC: 2.473 cumulative IPC: 2.102 (Simulation time: 00 hr 23 min 09 sec)
Heartbeat CPU 0 instructions: 194501184 cycles: 83706491 heartbeat IPC: 2.41 cumulative IPC: 2.103 (Simulation time: 00 hr 23 min 12 sec)
Heartbeat CPU 0 instructions: 195001186 cycles: 83913866 heartbeat IPC: 2.411 cumulative IPC: 2.104 (Simulation time: 00 hr 23 min 14 sec)
Heartbeat CPU 0 instructions: 195501191 cycles: 84115035 heartbeat IPC: 2.485 cumulative IPC: 2.105 (Simulation time: 00 hr 23 min 17 sec)
Heartbeat CPU 0 instructions: 196001191 cycles: 84327013 heartbeat IPC: 2.359 cumulative IPC: 2.106 (Simulation time: 00 hr 23 min 20 sec)
Heartbeat CPU 0 instructions: 196501198 cycles: 84522028 heartbeat IPC: 2.564 cumulative IPC: 2.107 (Simulation time: 00 hr 23 min 23 sec)
Heartbeat CPU 0 instructions: 197001199 cycles: 84734472 heartbeat IPC: 2.354 cumulative IPC: 2.108 (Simulation time: 00 hr 23 min 26 sec)
Heartbeat CPU 0 instructions: 197501200 cycles: 84935337 heartbeat IPC: 2.489 cumulative IPC: 2.109 (Simulation time: 00 hr 23 min 29 sec)
Heartbeat CPU 0 instructions: 198001200 cycles: 85138561 heartbeat IPC: 2.46 cumulative IPC: 2.11 (Simulation time: 00 hr 23 min 32 sec)
Heartbeat CPU 0 instructions: 198501205 cycles: 85357813 heartbeat IPC: 2.281 cumulative IPC: 2.111 (Simulation time: 00 hr 23 min 35 sec)
Heartbeat CPU 0 instructions: 199001210 cycles: 85572361 heartbeat IPC: 2.331 cumulative IPC: 2.111 (Simulation time: 00 hr 23 min 38 sec)
Heartbeat CPU 0 instructions: 199501214 cycles: 85781100 heartbeat IPC: 2.395 cumulative IPC: 2.112 (Simulation time: 00 hr 23 min 41 sec)
Heartbeat CPU 0 instructions: 200001217 cycles: 85991687 heartbeat IPC: 2.374 cumulative IPC: 2.113 (Simulation time: 00 hr 23 min 44 sec)
Heartbeat CPU 0 instructions: 200501222 cycles: 86191096 heartbeat IPC: 2.507 cumulative IPC: 2.114 (Simulation time: 00 hr 23 min 46 sec)
Heartbeat CPU 0 instructions: 201001229 cycles: 86397267 heartbeat IPC: 2.425 cumulative IPC: 2.115 (Simulation time: 00 hr 23 min 49 sec)
Heartbeat CPU 0 instructions: 201501229 cycles: 86580479 heartbeat IPC: 2.729 cumulative IPC: 2.117 (Simulation time: 00 hr 23 min 52 sec)
Heartbeat CPU 0 instructions: 202001235 cycles: 86781889 heartbeat IPC: 2.483 cumulative IPC: 2.118 (Simulation time: 00 hr 23 min 55 sec)
Heartbeat CPU 0 instructions: 202501238 cycles: 86983304 heartbeat IPC: 2.482 cumulative IPC: 2.119 (Simulation time: 00 hr 23 min 57 sec)
Heartbeat CPU 0 instructions: 203001240 cycles: 87186927 heartbeat IPC: 2.456 cumulative IPC: 2.119 (Simulation time: 00 hr 24 min 00 sec)
Heartbeat CPU 0 instructions: 203501245 cycles: 87388152 heartbeat IPC: 2.485 cumulative IPC: 2.121 (Simulation time: 00 hr 24 min 03 sec)
Heartbeat CPU 0 instructions: 204001245 cycles: 87590326 heartbeat IPC: 2.473 cumulative IPC: 2.121 (Simulation time: 00 hr 24 min 06 sec)
Heartbeat CPU 0 instructions: 204501252 cycles: 87797188 heartbeat IPC: 2.417 cumulative IPC: 2.122 (Simulation time: 00 hr 24 min 09 sec)
Heartbeat CPU 0 instructions: 205001253 cycles: 88004343 heartbeat IPC: 2.414 cumulative IPC: 2.123 (Simulation time: 00 hr 24 min 12 sec)
Heartbeat CPU 0 instructions: 205501254 cycles: 88205088 heartbeat IPC: 2.491 cumulative IPC: 2.124 (Simulation time: 00 hr 24 min 15 sec)
Heartbeat CPU 0 instructions: 206001256 cycles: 88405273 heartbeat IPC: 2.498 cumulative IPC: 2.125 (Simulation time: 00 hr 24 min 17 sec)
Heartbeat CPU 0 instructions: 206501259 cycles: 88612628 heartbeat IPC: 2.411 cumulative IPC: 2.126 (Simulation time: 00 hr 24 min 20 sec)
Heartbeat CPU 0 instructions: 207001264 cycles: 88820871 heartbeat IPC: 2.401 cumulative IPC: 2.127 (Simulation time: 00 hr 24 min 23 sec)
Heartbeat CPU 0 instructions: 207501268 cycles: 89022124 heartbeat IPC: 2.484 cumulative IPC: 2.128 (Simulation time: 00 hr 24 min 26 sec)
Heartbeat CPU 0 instructions: 208001275 cycles: 89245411 heartbeat IPC: 2.239 cumulative IPC: 2.128 (Simulation time: 00 hr 24 min 29 sec)
Heartbeat CPU 0 instructions: 208501276 cycles: 89452945 heartbeat IPC: 2.409 cumulative IPC: 2.129 (Simulation time: 00 hr 24 min 32 sec)
Heartbeat CPU 0 instructions: 209001283 cycles: 89679681 heartbeat IPC: 2.205 cumulative IPC: 2.129 (Simulation time: 00 hr 24 min 35 sec)
Heartbeat CPU 0 instructions: 209501283 cycles: 89867816 heartbeat IPC: 2.658 cumulative IPC: 2.13 (Simulation time: 00 hr 24 min 38 sec)
Heartbeat CPU 0 instructions: 210001288 cycles: 90072276 heartbeat IPC: 2.445 cumulative IPC: 2.131 (Simulation time: 00 hr 24 min 40 sec)
Heartbeat CPU 0 instructions: 210501292 cycles: 90275509 heartbeat IPC: 2.46 cumulative IPC: 2.132 (Simulation time: 00 hr 24 min 43 sec)
Heartbeat CPU 0 instructions: 211001296 cycles: 90473947 heartbeat IPC: 2.52 cumulative IPC: 2.133 (Simulation time: 00 hr 24 min 46 sec)
Heartbeat CPU 0 instructions: 211501299 cycles: 90663940 heartbeat IPC: 2.632 cumulative IPC: 2.134 (Simulation time: 00 hr 24 min 49 sec)
Heartbeat CPU 0 instructions: 212001303 cycles: 90870973 heartbeat IPC: 2.415 cumulative IPC: 2.135 (Simulation time: 00 hr 24 min 52 sec)
Heartbeat CPU 0 instructions: 212501306 cycles: 91074747 heartbeat IPC: 2.454 cumulative IPC: 2.136 (Simulation time: 00 hr 24 min 54 sec)
Heartbeat CPU 0 instructions: 213001311 cycles: 91277649 heartbeat IPC: 2.464 cumulative IPC: 2.137 (Simulation time: 00 hr 24 min 57 sec)
Heartbeat CPU 0 instructions: 213501313 cycles: 91484970 heartbeat IPC: 2.412 cumulative IPC: 2.138 (Simulation time: 00 hr 25 min 00 sec)
Heartbeat CPU 0 instructions: 214001314 cycles: 91687891 heartbeat IPC: 2.464 cumulative IPC: 2.139 (Simulation time: 00 hr 25 min 03 sec)
Heartbeat CPU 0 instructions: 214501314 cycles: 91897929 heartbeat IPC: 2.381 cumulative IPC: 2.139 (Simulation time: 00 hr 25 min 06 sec)
Heartbeat CPU 0 instructions: 215001314 cycles: 92093450 heartbeat IPC: 2.557 cumulative IPC: 2.14 (Simulation time: 00 hr 25 min 08 sec)
Heartbeat CPU 0 instructions: 215501315 cycles: 92295421 heartbeat IPC: 2.476 cumulative IPC: 2.141 (Simulation time: 00 hr 25 min 11 sec)
Heartbeat CPU 0 instructions: 216001318 cycles: 92504466 heartbeat IPC: 2.392 cumulative IPC: 2.142 (Simulation time: 00 hr 25 min 14 sec)
Heartbeat CPU 0 instructions: 216501322 cycles: 92709624 heartbeat IPC: 2.437 cumulative IPC: 2.143 (Simulation time: 00 hr 25 min 17 sec)
Heartbeat CPU 0 instructions: 217001329 cycles: 92919226 heartbeat IPC: 2.386 cumulative IPC: 2.143 (Simulation time: 00 hr 25 min 20 sec)
Heartbeat CPU 0 instructions: 217501330 cycles: 93131354 heartbeat IPC: 2.357 cumulative IPC: 2.144 (Simulation time: 00 hr 25 min 23 sec)
Heartbeat CPU 0 instructions: 218001330 cycles: 93340825 heartbeat IPC: 2.387 cumulative IPC: 2.144 (Simulation time: 00 hr 25 min 26 sec)
Heartbeat CPU 0 instructions: 218501337 cycles: 93562160 heartbeat IPC: 2.259 cumulative IPC: 2.145 (Simulation time: 00 hr 25 min 29 sec)
Heartbeat CPU 0 instructions: 219001342 cycles: 93751867 heartbeat IPC: 2.636 cumulative IPC: 2.146 (Simulation time: 00 hr 25 min 31 sec)
Heartbeat CPU 0 instructions: 219501342 cycles: 93951157 heartbeat IPC: 2.509 cumulative IPC: 2.147 (Simulation time: 00 hr 25 min 34 sec)
Heartbeat CPU 0 instructions: 220001342 cycles: 94151292 heartbeat IPC: 2.498 cumulative IPC: 2.148 (Simulation time: 00 hr 25 min 37 sec)
Heartbeat CPU 0 instructions: 220501345 cycles: 94357124 heartbeat IPC: 2.429 cumulative IPC: 2.149 (Simulation time: 00 hr 25 min 40 sec)
Heartbeat CPU 0 instructions: 221001349 cycles: 94546708 heartbeat IPC: 2.637 cumulative IPC: 2.15 (Simulation time: 00 hr 25 min 42 sec)
Heartbeat CPU 0 instructions: 221501353 cycles: 94753685 heartbeat IPC: 2.416 cumulative IPC: 2.15 (Simulation time: 00 hr 25 min 45 sec)
Heartbeat CPU 0 instructions: 222001354 cycles: 94960506 heartbeat IPC: 2.418 cumulative IPC: 2.151 (Simulation time: 00 hr 25 min 48 sec)
Heartbeat CPU 0 instructions: 222501358 cycles: 95161363 heartbeat IPC: 2.489 cumulative IPC: 2.152 (Simulation time: 00 hr 25 min 51 sec)
Heartbeat CPU 0 instructions: 223001358 cycles: 95359998 heartbeat IPC: 2.517 cumulative IPC: 2.153 (Simulation time: 00 hr 25 min 54 sec)
Heartbeat CPU 0 instructions: 223501361 cycles: 95561774 heartbeat IPC: 2.478 cumulative IPC: 2.154 (Simulation time: 00 hr 25 min 56 sec)
Heartbeat CPU 0 instructions: 224001367 cycles: 95772936 heartbeat IPC: 2.368 cumulative IPC: 2.154 (Simulation time: 00 hr 25 min 59 sec)
Heartbeat CPU 0 instructions: 224501368 cycles: 95968780 heartbeat IPC: 2.553 cumulative IPC: 2.155 (Simulation time: 00 hr 26 min 02 sec)
Heartbeat CPU 0 instructions: 225001368 cycles: 96169127 heartbeat IPC: 2.496 cumulative IPC: 2.156 (Simulation time: 00 hr 26 min 05 sec)
Heartbeat CPU 0 instructions: 225501368 cycles: 96372597 heartbeat IPC: 2.457 cumulative IPC: 2.157 (Simulation time: 00 hr 26 min 08 sec)
Heartbeat CPU 0 instructions: 226001372 cycles: 96577081 heartbeat IPC: 2.445 cumulative IPC: 2.157 (Simulation time: 00 hr 26 min 10 sec)
Heartbeat CPU 0 instructions: 226501375 cycles: 96798346 heartbeat IPC: 2.26 cumulative IPC: 2.158 (Simulation time: 00 hr 26 min 13 sec)
Heartbeat CPU 0 instructions: 227001380 cycles: 96994904 heartbeat IPC: 2.544 cumulative IPC: 2.159 (Simulation time: 00 hr 26 min 16 sec)
Heartbeat CPU 0 instructions: 227501383 cycles: 97217619 heartbeat IPC: 2.245 cumulative IPC: 2.159 (Simulation time: 00 hr 26 min 19 sec)
Heartbeat CPU 0 instructions: 228001387 cycles: 97416523 heartbeat IPC: 2.514 cumulative IPC: 2.16 (Simulation time: 00 hr 26 min 22 sec)
Heartbeat CPU 0 instructions: 228501388 cycles: 97619153 heartbeat IPC: 2.468 cumulative IPC: 2.161 (Simulation time: 00 hr 26 min 25 sec)
Heartbeat CPU 0 instructions: 229001395 cycles: 97812112 heartbeat IPC: 2.591 cumulative IPC: 2.162 (Simulation time: 00 hr 26 min 28 sec)
Heartbeat CPU 0 instructions: 229501400 cycles: 98001747 heartbeat IPC: 2.637 cumulative IPC: 2.163 (Simulation time: 00 hr 26 min 30 sec)
Heartbeat CPU 0 instructions: 230001402 cycles: 98199836 heartbeat IPC: 2.524 cumulative IPC: 2.163 (Simulation time: 00 hr 26 min 33 sec)
Heartbeat CPU 0 instructions: 230501405 cycles: 98405195 heartbeat IPC: 2.435 cumulative IPC: 2.164 (Simulation time: 00 hr 26 min 36 sec)
Heartbeat CPU 0 instructions: 231001411 cycles: 98594536 heartbeat IPC: 2.641 cumulative IPC: 2.165 (Simulation time: 00 hr 26 min 39 sec)
Heartbeat CPU 0 instructions: 231501415 cycles: 98805167 heartbeat IPC: 2.374 cumulative IPC: 2.166 (Simulation time: 00 hr 26 min 42 sec)
Heartbeat CPU 0 instructions: 232001421 cycles: 99009940 heartbeat IPC: 2.442 cumulative IPC: 2.166 (Simulation time: 00 hr 26 min 44 sec)
Heartbeat CPU 0 instructions: 232501422 cycles: 99211919 heartbeat IPC: 2.476 cumulative IPC: 2.167 (Simulation time: 00 hr 26 min 47 sec)
Heartbeat CPU 0 instructions: 233001422 cycles: 99413818 heartbeat IPC: 2.476 cumulative IPC: 2.168 (Simulation time: 00 hr 26 min 50 sec)
Heartbeat CPU 0 instructions: 233501422 cycles: 99619369 heartbeat IPC: 2.432 cumulative IPC: 2.169 (Simulation time: 00 hr 26 min 53 sec)
Heartbeat CPU 0 instructions: 234001426 cycles: 99815306 heartbeat IPC: 2.552 cumulative IPC: 2.169 (Simulation time: 00 hr 26 min 56 sec)
Heartbeat CPU 0 instructions: 234501429 cycles: 100019548 heartbeat IPC: 2.448 cumulative IPC: 2.17 (Simulation time: 00 hr 26 min 58 sec)
Heartbeat CPU 0 instructions: 235001434 cycles: 100213688 heartbeat IPC: 2.575 cumulative IPC: 2.171 (Simulation time: 00 hr 27 min 01 sec)
Heartbeat CPU 0 instructions: 235501438 cycles: 100429834 heartbeat IPC: 2.313 cumulative IPC: 2.171 (Simulation time: 00 hr 27 min 04 sec)
Heartbeat CPU 0 instructions: 236001441 cycles: 100644596 heartbeat IPC: 2.328 cumulative IPC: 2.172 (Simulation time: 00 hr 27 min 07 sec)
Heartbeat CPU 0 instructions: 236501444 cycles: 100852849 heartbeat IPC: 2.401 cumulative IPC: 2.172 (Simulation time: 00 hr 27 min 10 sec)
Heartbeat CPU 0 instructions: 237001449 cycles: 101060462 heartbeat IPC: 2.408 cumulative IPC: 2.173 (Simulation time: 00 hr 27 min 13 sec)
Heartbeat CPU 0 instructions: 237501453 cycles: 101259017 heartbeat IPC: 2.518 cumulative IPC: 2.174 (Simulation time: 00 hr 27 min 16 sec)
Heartbeat CPU 0 instructions: 238001456 cycles: 101456937 heartbeat IPC: 2.526 cumulative IPC: 2.174 (Simulation time: 00 hr 27 min 18 sec)
Heartbeat CPU 0 instructions: 238501459 cycles: 101654208 heartbeat IPC: 2.535 cumulative IPC: 2.175 (Simulation time: 00 hr 27 min 21 sec)
Heartbeat CPU 0 instructions: 239001464 cycles: 101846426 heartbeat IPC: 2.601 cumulative IPC: 2.176 (Simulation time: 00 hr 27 min 24 sec)
Heartbeat CPU 0 instructions: 239501468 cycles: 102047437 heartbeat IPC: 2.487 cumulative IPC: 2.177 (Simulation time: 00 hr 27 min 27 sec)
Heartbeat CPU 0 instructions: 240001475 cycles: 102252888 heartbeat IPC: 2.434 cumulative IPC: 2.178 (Simulation time: 00 hr 27 min 29 sec)
Heartbeat CPU 0 instructions: 240501476 cycles: 102452228 heartbeat IPC: 2.508 cumulative IPC: 2.178 (Simulation time: 00 hr 27 min 32 sec)
Heartbeat CPU 0 instructions: 241001478 cycles: 102649401 heartbeat IPC: 2.536 cumulative IPC: 2.179 (Simulation time: 00 hr 27 min 35 sec)
Heartbeat CPU 0 instructions: 241501484 cycles: 102855217 heartbeat IPC: 2.429 cumulative IPC: 2.18 (Simulation time: 00 hr 27 min 38 sec)
Heartbeat CPU 0 instructions: 242001484 cycles: 103055726 heartbeat IPC: 2.494 cumulative IPC: 2.18 (Simulation time: 00 hr 27 min 41 sec)
Heartbeat CPU 0 instructions: 242501484 cycles: 103263432 heartbeat IPC: 2.407 cumulative IPC: 2.181 (Simulation time: 00 hr 27 min 43 sec)
Heartbeat CPU 0 instructions: 243001488 cycles: 103450776 heartbeat IPC: 2.669 cumulative IPC: 2.182 (Simulation time: 00 hr 27 min 46 sec)
Heartbeat CPU 0 instructions: 243501490 cycles: 103658083 heartbeat IPC: 2.412 cumulative IPC: 2.183 (Simulation time: 00 hr 27 min 49 sec)
Heartbeat CPU 0 instructions: 244001495 cycles: 103863331 heartbeat IPC: 2.436 cumulative IPC: 2.183 (Simulation time: 00 hr 27 min 52 sec)
Heartbeat CPU 0 instructions: 244501498 cycles: 104054826 heartbeat IPC: 2.611 cumulative IPC: 2.184 (Simulation time: 00 hr 27 min 54 sec)
Heartbeat CPU 0 instructions: 245001503 cycles: 104264531 heartbeat IPC: 2.384 cumulative IPC: 2.185 (Simulation time: 00 hr 27 min 57 sec)
Heartbeat CPU 0 instructions: 245501508 cycles: 104475597 heartbeat IPC: 2.369 cumulative IPC: 2.185 (Simulation time: 00 hr 28 min 00 sec)
Heartbeat CPU 0 instructions: 246001510 cycles: 104690327 heartbeat IPC: 2.329 cumulative IPC: 2.185 (Simulation time: 00 hr 28 min 03 sec)
Heartbeat CPU 0 instructions: 246501513 cycles: 104892277 heartbeat IPC: 2.476 cumulative IPC: 2.186 (Simulation time: 00 hr 28 min 06 sec)
Heartbeat CPU 0 instructions: 247001519 cycles: 105089429 heartbeat IPC: 2.536 cumulative IPC: 2.187 (Simulation time: 00 hr 28 min 09 sec)
Heartbeat CPU 0 instructions: 247501523 cycles: 105291122 heartbeat IPC: 2.479 cumulative IPC: 2.187 (Simulation time: 00 hr 28 min 11 sec)
Heartbeat CPU 0 instructions: 248001529 cycles: 105481251 heartbeat IPC: 2.63 cumulative IPC: 2.188 (Simulation time: 00 hr 28 min 14 sec)
Heartbeat CPU 0 instructions: 248501530 cycles: 105675427 heartbeat IPC: 2.575 cumulative IPC: 2.189 (Simulation time: 00 hr 28 min 17 sec)
Heartbeat CPU 0 instructions: 249001532 cycles: 105876510 heartbeat IPC: 2.487 cumulative IPC: 2.19 (Simulation time: 00 hr 28 min 20 sec)
Heartbeat CPU 0 instructions: 249501533 cycles: 106073427 heartbeat IPC: 2.539 cumulative IPC: 2.191 (Simulation time: 00 hr 28 min 22 sec)
Simulation finished CPU 0 instructions: 200000001 cycles: 91278879 cumulative IPC: 2.191 (Simulation time: 00 hr 28 min 25 sec)
Simulation complete CPU 0 instructions: 200000001 cycles: 91278879 cumulative IPC: 2.191 (Simulation time: 00 hr 28 min 25 sec)

ChampSim completed all CPUs

=== Simulation ===
CPU 0 runs /local-ssd/ben/dpc4-traces/ai-ml/bark.cpp-bark-small.coarse_token_gen.2.champsimtrace.gz

Region of Interest Statistics

CPU 0 cumulative IPC: 2.191 instructions: 200000001 cycles: 91278879
CPU 0 Branch Prediction Accuracy: 96.11% MPKI: 2.828 Average ROB Occupancy at Mispredict: 238.4
Branch type MPKI
BRANCH_DIRECT_JUMP: 4e-05
BRANCH_INDIRECT: 2e-05
BRANCH_CONDITIONAL: 2.828
BRANCH_DIRECT_CALL: 5e-06
BRANCH_INDIRECT_CALL: 1.5e-05
BRANCH_RETURN: 2.5e-05

cpu0->cpu0_STLB TOTAL        ACCESS:      54087 HIT:      51625 MISS:       2462 MSHR_MERGE:          0
cpu0->cpu0_STLB LOAD         ACCESS:      54087 HIT:      51625 MISS:       2462 MSHR_MERGE:          0
cpu0->cpu0_STLB RFO          ACCESS:          0 HIT:          0 MISS:          0 MSHR_MERGE:          0
cpu0->cpu0_STLB PREFETCH     ACCESS:          0 HIT:          0 MISS:          0 MSHR_MERGE:          0
cpu0->cpu0_STLB WRITE        ACCESS:          0 HIT:          0 MISS:          0 MSHR_MERGE:          0
cpu0->cpu0_STLB TRANSLATION  ACCESS:          0 HIT:          0 MISS:          0 MSHR_MERGE:          0
cpu0->cpu0_STLB PREFETCH REQUESTED:          0 ISSUED:          0 USEFUL:          0 USELESS:          0
cpu0->cpu0_STLB AVERAGE MISS LATENCY: 405.5 cycles
cpu0->cpu0_L2C TOTAL        ACCESS:   28262939 HIT:   24975254 MISS:    3287685 MSHR_MERGE:    1819461
cpu0->cpu0_L2C LOAD         ACCESS:    9759109 HIT:    9352894 MISS:     406215 MSHR_MERGE:     216138
cpu0->cpu0_L2C RFO          ACCESS:     110777 HIT:      50105 MISS:      60672 MSHR_MERGE:          1
cpu0->cpu0_L2C PREFETCH     ACCESS:   18221721 HIT:   15401306 MISS:    2820415 MSHR_MERGE:    1603322
cpu0->cpu0_L2C WRITE        ACCESS:     170410 HIT:     170403 MISS:          7 MSHR_MERGE:          0
cpu0->cpu0_L2C TRANSLATION  ACCESS:        922 HIT:        546 MISS:        376 MSHR_MERGE:          0
cpu0->cpu0_L2C PREFETCH REQUESTED:   31725415 ISSUED:   15527709 USEFUL:     822795 USELESS:     156888
cpu0->cpu0_L2C AVERAGE MISS LATENCY: 377.4 cycles
cpu0->cpu0_L1I TOTAL        ACCESS:   28324384 HIT:   28324258 MISS:        126 MSHR_MERGE:         20
cpu0->cpu0_L1I LOAD         ACCESS:   28324384 HIT:   28324258 MISS:        126 MSHR_MERGE:         20
cpu0->cpu0_L1I RFO          ACCESS:          0 HIT:          0 MISS:          0 MSHR_MERGE:          0
cpu0->cpu0_L1I PREFETCH     ACCESS:          0 HIT:          0 MISS:          0 MSHR_MERGE:          0
cpu0->cpu0_L1I WRITE        ACCESS:          0 HIT:          0 MISS:          0 MSHR_MERGE:          0
cpu0->cpu0_L1I TRANSLATION  ACCESS:          0 HIT:          0 MISS:          0 MSHR_MERGE:          0
cpu0->cpu0_L1I PREFETCH REQUESTED:          0 ISSUED:          0 USEFUL:          0 USELESS:          0
cpu0->cpu0_L1I AVERAGE MISS LATENCY: 401.9 cycles
cpu0->cpu0_L1D TOTAL        ACCESS:   68139864 HIT:   53582919 MISS:   14556945 MSHR_MERGE:    1992246
cpu0->cpu0_L1D LOAD         ACCESS:   49964883 HIT:   39244122 MISS:   10720761 MSHR_MERGE:     961758
cpu0->cpu0_L1D RFO          ACCESS:          0 HIT:          0 MISS:          0 MSHR_MERGE:          0
cpu0->cpu0_L1D PREFETCH     ACCESS:   15208464 HIT:   11783947 MISS:    3424517 MSHR_MERGE:     730520
cpu0->cpu0_L1D WRITE        ACCESS:    2961615 HIT:    2550899 MISS:     410716 MSHR_MERGE:     299939
cpu0->cpu0_L1D TRANSLATION  ACCESS:       4902 HIT:       3951 MISS:        951 MSHR_MERGE:         29
cpu0->cpu0_L1D PREFETCH REQUESTED:  337161550 ISSUED:   15208464 USEFUL:    2534447 USELESS:     159529
cpu0->cpu0_L1D AVERAGE MISS LATENCY: 37.86 cycles
cpu0->cpu0_ITLB TOTAL        ACCESS:   19353889 HIT:   19353871 MISS:         18 MSHR_MERGE:          8
cpu0->cpu0_ITLB LOAD         ACCESS:   19353889 HIT:   19353871 MISS:         18 MSHR_MERGE:          8
cpu0->cpu0_ITLB RFO          ACCESS:          0 HIT:          0 MISS:          0 MSHR_MERGE:          0
cpu0->cpu0_ITLB PREFETCH     ACCESS:          0 HIT:          0 MISS:          0 MSHR_MERGE:          0
cpu0->cpu0_ITLB WRITE        ACCESS:          0 HIT:          0 MISS:          0 MSHR_MERGE:          0
cpu0->cpu0_ITLB TRANSLATION  ACCESS:          0 HIT:          0 MISS:          0 MSHR_MERGE:          0
cpu0->cpu0_ITLB PREFETCH REQUESTED:          0 ISSUED:          0 USEFUL:          0 USELESS:          0
cpu0->cpu0_ITLB AVERAGE MISS LATENCY: 429.3 cycles
cpu0->cpu0_DTLB TOTAL        ACCESS:   55839396 HIT:   55726666 MISS:     112730 MSHR_MERGE:      58653
cpu0->cpu0_DTLB LOAD         ACCESS:   55839396 HIT:   55726666 MISS:     112730 MSHR_MERGE:      58653
cpu0->cpu0_DTLB RFO          ACCESS:          0 HIT:          0 MISS:          0 MSHR_MERGE:          0
cpu0->cpu0_DTLB PREFETCH     ACCESS:          0 HIT:          0 MISS:          0 MSHR_MERGE:          0
cpu0->cpu0_DTLB WRITE        ACCESS:          0 HIT:          0 MISS:          0 MSHR_MERGE:          0
cpu0->cpu0_DTLB TRANSLATION  ACCESS:          0 HIT:          0 MISS:          0 MSHR_MERGE:          0
cpu0->cpu0_DTLB PREFETCH REQUESTED:          0 ISSUED:          0 USEFUL:          0 USELESS:          0
cpu0->cpu0_DTLB AVERAGE MISS LATENCY: 23.43 cycles
cpu0->LLC TOTAL        ACCESS:    2922834 HIT:    1297369 MISS:    1625465 MSHR_MERGE:     712297
cpu0->LLC LOAD         ACCESS:     190077 HIT:     114458 MISS:      75619 MSHR_MERGE:      56639
cpu0->LLC RFO          ACCESS:      60671 HIT:       4048 MISS:      56623 MSHR_MERGE:          8
cpu0->LLC PREFETCH     ACCESS:    2576812 HIT:    1142170 MISS:    1434642 MSHR_MERGE:     655650
cpu0->LLC WRITE        ACCESS:      94898 HIT:      36693 MISS:      58205 MSHR_MERGE:          0
cpu0->LLC TRANSLATION  ACCESS:        376 HIT:          0 MISS:        376 MSHR_MERGE:          0
cpu0->LLC PREFETCH REQUESTED:    1487411 ISSUED:    1359719 USEFUL:     112156 USELESS:     536275
cpu0->LLC AVERAGE MISS LATENCY: 376.3 cycles

DRAM Statistics

Channel 0 RQ ROW_BUFFER_HIT:     238581
  ROW_BUFFER_MISS:     616264
  AVG DBUS CONGESTED CYCLE: 4.076
Channel 0 WQ ROW_BUFFER_HIT:       4601
  ROW_BUFFER_MISS:      75741
  FULL:        892
Channel 0 REFRESHES ISSUED:       7607
