[VMEM] WARNING: physical memory size is smaller than virtual memory size.

*** ChampSim Multicore Out-of-Order Simulator ***
Warmup Instructions: 50000000
Simulation Instructions: 200000000
Number of CPUs: 1
Page size: 4096
Core 0: /local-ssd/ben/dpc4-traces/Graph/GMS/gms.k_clique_count_set_based.soc-pokec-relationships.slice-4.champsimtrace.gz
sBerti (Smart Stride + Berti) Prefetcher Initialized
Off-chip DRAM Size: 64 GiB Channels: 1 Width: 64-bit Data Rate: 800 MT/s
Heartbeat CPU 0 instructions: 500004 cycles: 102994 heartbeat IPC: 4.855 cumulative IPC: 4.855 (Simulation time: 00 hr 00 min 02 sec)
Heartbeat CPU 0 instructions: 1000004 cycles: 203747 heartbeat IPC: 4.963 cumulative IPC: 4.908 (Simulation time: 00 hr 00 min 03 sec)
Heartbeat CPU 0 instructions: 1500007 cycles: 303750 heartbeat IPC: 5 cumulative IPC: 4.938 (Simulation time: 00 hr 00 min 05 sec)
Heartbeat CPU 0 instructions: 2000010 cycles: 403758 heartbeat IPC: 5 cumulative IPC: 4.953 (Simulation time: 00 hr 00 min 06 sec)
Heartbeat CPU 0 instructions: 2500016 cycles: 503771 heartbeat IPC: 4.999 cumulative IPC: 4.963 (Simulation time: 00 hr 00 min 08 sec)
Heartbeat CPU 0 instructions: 3000020 cycles: 603765 heartbeat IPC: 5 cumulative IPC: 4.969 (Simulation time: 00 hr 00 min 10 sec)
Heartbeat CPU 0 instructions: 3500021 cycles: 703758 heartbeat IPC: 5 cumulative IPC: 4.973 (Simulation time: 00 hr 00 min 11 sec)
Heartbeat CPU 0 instructions: 4000026 cycles: 803771 heartbeat IPC: 4.999 cumulative IPC: 4.977 (Simulation time: 00 hr 00 min 13 sec)
Heartbeat CPU 0 instructions: 4500032 cycles: 903775 heartbeat IPC: 5 cumulative IPC: 4.979 (Simulation time: 00 hr 00 min 15 sec)
Heartbeat CPU 0 instructions: 5000032 cycles: 1003774 heartbeat IPC: 5 cumulative IPC: 4.981 (Simulation time: 00 hr 00 min 16 sec)
Heartbeat CPU 0 instructions: 5500036 cycles: 1103751 heartbeat IPC: 5.001 cumulative IPC: 4.983 (Simulation time: 00 hr 00 min 18 sec)
Heartbeat CPU 0 instructions: 6000043 cycles: 1203754 heartbeat IPC: 5 cumulative IPC: 4.984 (Simulation time: 00 hr 00 min 20 sec)
Heartbeat CPU 0 instructions: 6500050 cycles: 1303777 heartbeat IPC: 4.999 cumulative IPC: 4.986 (Simulation time: 00 hr 00 min 21 sec)
Heartbeat CPU 0 instructions: 7000055 cycles: 1403785 heartbeat IPC: 5 cumulative IPC: 4.987 (Simulation time: 00 hr 00 min 23 sec)
Heartbeat CPU 0 instructions: 7500057 cycles: 1503757 heartbeat IPC: 5.001 cumulative IPC: 4.988 (Simulation time: 00 hr 00 min 25 sec)
Heartbeat CPU 0 instructions: 8000058 cycles: 1603781 heartbeat IPC: 4.999 cumulative IPC: 4.988 (Simulation time: 00 hr 00 min 27 sec)
Heartbeat CPU 0 instructions: 8500058 cycles: 1703778 heartbeat IPC: 5 cumulative IPC: 4.989 (Simulation time: 00 hr 00 min 28 sec)
Heartbeat CPU 0 instructions: 9000059 cycles: 1803784 heartbeat IPC: 5 cumulative IPC: 4.99 (Simulation time: 00 hr 00 min 30 sec)
Heartbeat CPU 0 instructions: 9500065 cycles: 1903773 heartbeat IPC: 5.001 cumulative IPC: 4.99 (Simulation time: 00 hr 00 min 32 sec)
Heartbeat CPU 0 instructions: 10000068 cycles: 2003756 heartbeat IPC: 5.001 cumulative IPC: 4.991 (Simulation time: 00 hr 00 min 33 sec)
Heartbeat CPU 0 instructions: 10500069 cycles: 2103784 heartbeat IPC: 4.999 cumulative IPC: 4.991 (Simulation time: 00 hr 00 min 35 sec)
Heartbeat CPU 0 instructions: 11000075 cycles: 2203778 heartbeat IPC: 5 cumulative IPC: 4.991 (Simulation time: 00 hr 00 min 37 sec)
Heartbeat CPU 0 instructions: 11500080 cycles: 2303767 heartbeat IPC: 5.001 cumulative IPC: 4.992 (Simulation time: 00 hr 00 min 38 sec)
Heartbeat CPU 0 instructions: 12000081 cycles: 2403764 heartbeat IPC: 5 cumulative IPC: 4.992 (Simulation time: 00 hr 00 min 40 sec)
Heartbeat CPU 0 instructions: 12500082 cycles: 2503773 heartbeat IPC: 5 cumulative IPC: 4.992 (Simulation time: 00 hr 00 min 42 sec)
Heartbeat CPU 0 instructions: 13000082 cycles: 2603777 heartbeat IPC: 5 cumulative IPC: 4.993 (Simulation time: 00 hr 00 min 43 sec)
Heartbeat CPU 0 instructions: 13500082 cycles: 2703771 heartbeat IPC: 5 cumulative IPC: 4.993 (Simulation time: 00 hr 00 min 45 sec)
Heartbeat CPU 0 instructions: 14000085 cycles: 2803762 heartbeat IPC: 5 cumulative IPC: 4.993 (Simulation time: 00 hr 00 min 47 sec)
Heartbeat CPU 0 instructions: 14500086 cycles: 2903784 heartbeat IPC: 4.999 cumulative IPC: 4.994 (Simulation time: 00 hr 00 min 49 sec)
Heartbeat CPU 0 instructions: 15000092 cycles: 3003794 heartbeat IPC: 5 cumulative IPC: 4.994 (Simulation time: 00 hr 00 min 50 sec)
Heartbeat CPU 0 instructions: 15500097 cycles: 3103786 heartbeat IPC: 5 cumulative IPC: 4.994 (Simulation time: 00 hr 00 min 52 sec)
Heartbeat CPU 0 instructions: 16000102 cycles: 3203765 heartbeat IPC: 5.001 cumulative IPC: 4.994 (Simulation time: 00 hr 00 min 54 sec)
Heartbeat CPU 0 instructions: 16500108 cycles: 3303788 heartbeat IPC: 4.999 cumulative IPC: 4.994 (Simulation time: 00 hr 00 min 55 sec)
Heartbeat CPU 0 instructions: 17000111 cycles: 3403784 heartbeat IPC: 5 cumulative IPC: 4.994 (Simulation time: 00 hr 00 min 57 sec)
Heartbeat CPU 0 instructions: 17500113 cycles: 3503782 heartbeat IPC: 5 cumulative IPC: 4.995 (Simulation time: 00 hr 00 min 59 sec)
Heartbeat CPU 0 instructions: 18000113 cycles: 3603780 heartbeat IPC: 5 cumulative IPC: 4.995 (Simulation time: 00 hr 01 min 00 sec)
Heartbeat CPU 0 instructions: 18500116 cycles: 3703778 heartbeat IPC: 5 cumulative IPC: 4.995 (Simulation time: 00 hr 01 min 02 sec)
Heartbeat CPU 0 instructions: 19000122 cycles: 3803786 heartbeat IPC: 5 cumulative IPC: 4.995 (Simulation time: 00 hr 01 min 04 sec)
Heartbeat CPU 0 instructions: 19500123 cycles: 3903783 heartbeat IPC: 5 cumulative IPC: 4.995 (Simulation time: 00 hr 01 min 06 sec)
Heartbeat CPU 0 instructions: 20000128 cycles: 4003773 heartbeat IPC: 5.001 cumulative IPC: 4.995 (Simulation time: 00 hr 01 min 07 sec)
Heartbeat CPU 0 instructions: 20500133 cycles: 4103770 heartbeat IPC: 5 cumulative IPC: 4.995 (Simulation time: 00 hr 01 min 09 sec)
Heartbeat CPU 0 instructions: 21000133 cycles: 4203795 heartbeat IPC: 4.999 cumulative IPC: 4.996 (Simulation time: 00 hr 01 min 11 sec)
Heartbeat CPU 0 instructions: 21500133 cycles: 4303775 heartbeat IPC: 5.001 cumulative IPC: 4.996 (Simulation time: 00 hr 01 min 12 sec)
Heartbeat CPU 0 instructions: 22000139 cycles: 4403777 heartbeat IPC: 5 cumulative IPC: 4.996 (Simulation time: 00 hr 01 min 14 sec)
Heartbeat CPU 0 instructions: 22500140 cycles: 4503768 heartbeat IPC: 5 cumulative IPC: 4.996 (Simulation time: 00 hr 01 min 16 sec)
Heartbeat CPU 0 instructions: 23000143 cycles: 4603788 heartbeat IPC: 4.999 cumulative IPC: 4.996 (Simulation time: 00 hr 01 min 17 sec)
Heartbeat CPU 0 instructions: 23500150 cycles: 4703783 heartbeat IPC: 5 cumulative IPC: 4.996 (Simulation time: 00 hr 01 min 19 sec)
Heartbeat CPU 0 instructions: 24000151 cycles: 4803799 heartbeat IPC: 4.999 cumulative IPC: 4.996 (Simulation time: 00 hr 01 min 21 sec)
Heartbeat CPU 0 instructions: 24500151 cycles: 4903772 heartbeat IPC: 5.001 cumulative IPC: 4.996 (Simulation time: 00 hr 01 min 22 sec)
Heartbeat CPU 0 instructions: 25000153 cycles: 5003785 heartbeat IPC: 4.999 cumulative IPC: 4.996 (Simulation time: 00 hr 01 min 24 sec)
Heartbeat CPU 0 instructions: 25500156 cycles: 5103793 heartbeat IPC: 5 cumulative IPC: 4.996 (Simulation time: 00 hr 01 min 26 sec)
Heartbeat CPU 0 instructions: 26000157 cycles: 5203796 heartbeat IPC: 5 cumulative IPC: 4.996 (Simulation time: 00 hr 01 min 28 sec)
Heartbeat CPU 0 instructions: 26500163 cycles: 5303788 heartbeat IPC: 5 cumulative IPC: 4.996 (Simulation time: 00 hr 01 min 29 sec)
Heartbeat CPU 0 instructions: 27000166 cycles: 5403801 heartbeat IPC: 4.999 cumulative IPC: 4.997 (Simulation time: 00 hr 01 min 31 sec)
Heartbeat CPU 0 instructions: 27500168 cycles: 5503793 heartbeat IPC: 5 cumulative IPC: 4.997 (Simulation time: 00 hr 01 min 33 sec)
Heartbeat CPU 0 instructions: 28000168 cycles: 5603794 heartbeat IPC: 5 cumulative IPC: 4.997 (Simulation time: 00 hr 01 min 34 sec)
Heartbeat CPU 0 instructions: 28500173 cycles: 5703803 heartbeat IPC: 5 cumulative IPC: 4.997 (Simulation time: 00 hr 01 min 36 sec)
Heartbeat CPU 0 instructions: 29000178 cycles: 5803783 heartbeat IPC: 5.001 cumulative IPC: 4.997 (Simulation time: 00 hr 01 min 38 sec)
Heartbeat CPU 0 instructions: 29500183 cycles: 5903790 heartbeat IPC: 5 cumulative IPC: 4.997 (Simulation time: 00 hr 01 min 39 sec)
Heartbeat CPU 0 instructions: 30000184 cycles: 6003786 heartbeat IPC: 5 cumulative IPC: 4.997 (Simulation time: 00 hr 01 min 41 sec)
Heartbeat CPU 0 instructions: 30500186 cycles: 6103806 heartbeat IPC: 4.999 cumulative IPC: 4.997 (Simulation time: 00 hr 01 min 43 sec)
Heartbeat CPU 0 instructions: 31000187 cycles: 6203788 heartbeat IPC: 5.001 cumulative IPC: 4.997 (Simulation time: 00 hr 01 min 44 sec)
Heartbeat CPU 0 instructions: 31500190 cycles: 6303789 heartbeat IPC: 5 cumulative IPC: 4.997 (Simulation time: 00 hr 01 min 46 sec)
Heartbeat CPU 0 instructions: 32000194 cycles: 6403782 heartbeat IPC: 5 cumulative IPC: 4.997 (Simulation time: 00 hr 01 min 48 sec)
Heartbeat CPU 0 instructions: 32500197 cycles: 6503788 heartbeat IPC: 5 cumulative IPC: 4.997 (Simulation time: 00 hr 01 min 49 sec)
Heartbeat CPU 0 instructions: 33000203 cycles: 6603807 heartbeat IPC: 4.999 cumulative IPC: 4.997 (Simulation time: 00 hr 01 min 51 sec)
Heartbeat CPU 0 instructions: 33500207 cycles: 6703792 heartbeat IPC: 5.001 cumulative IPC: 4.997 (Simulation time: 00 hr 01 min 53 sec)
Heartbeat CPU 0 instructions: 34000212 cycles: 6803785 heartbeat IPC: 5 cumulative IPC: 4.997 (Simulation time: 00 hr 01 min 55 sec)
Heartbeat CPU 0 instructions: 34500212 cycles: 6903797 heartbeat IPC: 4.999 cumulative IPC: 4.997 (Simulation time: 00 hr 01 min 56 sec)
Heartbeat CPU 0 instructions: 35000219 cycles: 7003792 heartbeat IPC: 5 cumulative IPC: 4.997 (Simulation time: 00 hr 01 min 58 sec)
Heartbeat CPU 0 instructions: 35500219 cycles: 7103807 heartbeat IPC: 4.999 cumulative IPC: 4.997 (Simulation time: 00 hr 02 min 00 sec)
Heartbeat CPU 0 instructions: 36000220 cycles: 7203800 heartbeat IPC: 5 cumulative IPC: 4.997 (Simulation time: 00 hr 02 min 01 sec)
Heartbeat CPU 0 instructions: 36500225 cycles: 7303804 heartbeat IPC: 5 cumulative IPC: 4.997 (Simulation time: 00 hr 02 min 03 sec)
Heartbeat CPU 0 instructions: 37000225 cycles: 7403789 heartbeat IPC: 5.001 cumulative IPC: 4.997 (Simulation time: 00 hr 02 min 05 sec)
Heartbeat CPU 0 instructions: 37500225 cycles: 7503804 heartbeat IPC: 4.999 cumulative IPC: 4.997 (Simulation time: 00 hr 02 min 06 sec)
Heartbeat CPU 0 instructions: 38000227 cycles: 7603792 heartbeat IPC: 5.001 cumulative IPC: 4.998 (Simulation time: 00 hr 02 min 08 sec)
Heartbeat CPU 0 instructions: 38500233 cycles: 7703809 heartbeat IPC: 4.999 cumulative IPC: 4.998 (Simulation time: 00 hr 02 min 10 sec)
Heartbeat CPU 0 instructions: 39000240 cycles: 7803814 heartbeat IPC: 5 cumulative IPC: 4.998 (Simulation time: 00 hr 02 min 11 sec)
Heartbeat CPU 0 instructions: 39500241 cycles: 7903810 heartbeat IPC: 5 cumulative IPC: 4.998 (Simulation time: 00 hr 02 min 13 sec)
Heartbeat CPU 0 instructions: 40000248 cycles: 8003809 heartbeat IPC: 5 cumulative IPC: 4.998 (Simulation time: 00 hr 02 min 15 sec)
Heartbeat CPU 0 instructions: 40500255 cycles: 8103812 heartbeat IPC: 5 cumulative IPC: 4.998 (Simulation time: 00 hr 02 min 16 sec)
Heartbeat CPU 0 instructions: 41000257 cycles: 8203809 heartbeat IPC: 5 cumulative IPC: 4.998 (Simulation time: 00 hr 02 min 18 sec)
Heartbeat CPU 0 instructions: 41500261 cycles: 8303817 heartbeat IPC: 5 cumulative IPC: 4.998 (Simulation time: 00 hr 02 min 20 sec)
Heartbeat CPU 0 instructions: 42000266 cycles: 8403809 heartbeat IPC: 5 cumulative IPC: 4.998 (Simulation time: 00 hr 02 min 22 sec)
Heartbeat CPU 0 instructions: 42500273 cycles: 8503815 heartbeat IPC: 5 cumulative IPC: 4.998 (Simulation time: 00 hr 02 min 23 sec)
Heartbeat CPU 0 instructions: 43000278 cycles: 8603818 heartbeat IPC: 5 cumulative IPC: 4.998 (Simulation time: 00 hr 02 min 25 sec)
Heartbeat CPU 0 instructions: 43500285 cycles: 8703801 heartbeat IPC: 5.001 cumulative IPC: 4.998 (Simulation time: 00 hr 02 min 27 sec)
Heartbeat CPU 0 instructions: 44000285 cycles: 8803810 heartbeat IPC: 5 cumulative IPC: 4.998 (Simulation time: 00 hr 02 min 28 sec)
Heartbeat CPU 0 instructions: 44500290 cycles: 8903811 heartbeat IPC: 5 cumulative IPC: 4.998 (Simulation time: 00 hr 02 min 30 sec)
Heartbeat CPU 0 instructions: 45000291 cycles: 9003820 heartbeat IPC: 5 cumulative IPC: 4.998 (Simulation time: 00 hr 02 min 32 sec)
Heartbeat CPU 0 instructions: 45500295 cycles: 9103827 heartbeat IPC: 5 cumulative IPC: 4.998 (Simulation time: 00 hr 02 min 33 sec)
Heartbeat CPU 0 instructions: 46000297 cycles: 9203828 heartbeat IPC: 5 cumulative IPC: 4.998 (Simulation time: 00 hr 02 min 35 sec)
Heartbeat CPU 0 instructions: 46500302 cycles: 9303837 heartbeat IPC: 5 cumulative IPC: 4.998 (Simulation time: 00 hr 02 min 37 sec)
Heartbeat CPU 0 instructions: 47000309 cycles: 9403820 heartbeat IPC: 5.001 cumulative IPC: 4.998 (Simulation time: 00 hr 02 min 39 sec)
Heartbeat CPU 0 instructions: 47500315 cycles: 9503805 heartbeat IPC: 5.001 cumulative IPC: 4.998 (Simulation time: 00 hr 02 min 40 sec)
Heartbeat CPU 0 instructions: 48000316 cycles: 9603813 heartbeat IPC: 5 cumulative IPC: 4.998 (Simulation time: 00 hr 02 min 42 sec)
Heartbeat CPU 0 instructions: 48500319 cycles: 9703836 heartbeat IPC: 4.999 cumulative IPC: 4.998 (Simulation time: 00 hr 02 min 44 sec)
Heartbeat CPU 0 instructions: 49000319 cycles: 9803810 heartbeat IPC: 5.001 cumulative IPC: 4.998 (Simulation time: 00 hr 02 min 45 sec)
Heartbeat CPU 0 instructions: 49500321 cycles: 9903834 heartbeat IPC: 4.999 cumulative IPC: 4.998 (Simulation time: 00 hr 02 min 47 sec)
Warmup halting CPU 0 at instruction 50000007 cycle 10003759 for remainder of phase
Warmup finished CPU 0 instructions: 50000007 cycles: 10003759 cumulative IPC: 4.998 (Simulation time: 00 hr 02 min 49 sec)
Warmup complete CPU 0 instructions: 50000007 cycles: 10003759 cumulative IPC: 4.998 (Simulation time: 00 hr 02 min 49 sec)
Heartbeat CPU 0 instructions: 50000321 cycles: 10003817 heartbeat IPC: 5.001 cumulative IPC: 5.414 (Simulation time: 00 hr 02 min 49 sec)
Heartbeat CPU 0 instructions: 50500322 cycles: 10176288 heartbeat IPC: 2.899 cumulative IPC: 2.9 (Simulation time: 00 hr 02 min 51 sec)
Heartbeat CPU 0 instructions: 51000324 cycles: 10349082 heartbeat IPC: 2.894 cumulative IPC: 2.897 (Simulation time: 00 hr 02 min 53 sec)
Heartbeat CPU 0 instructions: 51500328 cycles: 10521640 heartbeat IPC: 2.898 cumulative IPC: 2.897 (Simulation time: 00 hr 02 min 56 sec)
Heartbeat CPU 0 instructions: 52000328 cycles: 10694164 heartbeat IPC: 2.898 cumulative IPC: 2.897 (Simulation time: 00 hr 02 min 58 sec)
Heartbeat CPU 0 instructions: 52500328 cycles: 10866576 heartbeat IPC: 2.9 cumulative IPC: 2.898 (Simulation time: 00 hr 03 min 00 sec)
Heartbeat CPU 0 instructions: 53000335 cycles: 11039094 heartbeat IPC: 2.898 cumulative IPC: 2.898 (Simulation time: 00 hr 03 min 02 sec)
Heartbeat CPU 0 instructions: 53500339 cycles: 11211865 heartbeat IPC: 2.894 cumulative IPC: 2.897 (Simulation time: 00 hr 03 min 05 sec)
Heartbeat CPU 0 instructions: 54000345 cycles: 11384815 heartbeat IPC: 2.891 cumulative IPC: 2.897 (Simulation time: 00 hr 03 min 07 sec)
Heartbeat CPU 0 instructions: 54500345 cycles: 11557430 heartbeat IPC: 2.897 cumulative IPC: 2.897 (Simulation time: 00 hr 03 min 09 sec)
Heartbeat CPU 0 instructions: 55000349 cycles: 11730245 heartbeat IPC: 2.893 cumulative IPC: 2.896 (Simulation time: 00 hr 03 min 12 sec)
Heartbeat CPU 0 instructions: 55500352 cycles: 11903151 heartbeat IPC: 2.892 cumulative IPC: 2.896 (Simulation time: 00 hr 03 min 14 sec)
Heartbeat CPU 0 instructions: 56000359 cycles: 12075648 heartbeat IPC: 2.899 cumulative IPC: 2.896 (Simulation time: 00 hr 03 min 16 sec)
Heartbeat CPU 0 instructions: 56500361 cycles: 12248420 heartbeat IPC: 2.894 cumulative IPC: 2.896 (Simulation time: 00 hr 03 min 19 sec)
Heartbeat CPU 0 instructions: 57000362 cycles: 12421183 heartbeat IPC: 2.894 cumulative IPC: 2.896 (Simulation time: 00 hr 03 min 21 sec)
Heartbeat CPU 0 instructions: 57500368 cycles: 12594194 heartbeat IPC: 2.89 cumulative IPC: 2.895 (Simulation time: 00 hr 03 min 23 sec)
Heartbeat CPU 0 instructions: 58000368 cycles: 12767134 heartbeat IPC: 2.891 cumulative IPC: 2.895 (Simulation time: 00 hr 03 min 25 sec)
Heartbeat CPU 0 instructions: 58500372 cycles: 12939787 heartbeat IPC: 2.896 cumulative IPC: 2.895 (Simulation time: 00 hr 03 min 28 sec)
Heartbeat CPU 0 instructions: 59000377 cycles: 13112734 heartbeat IPC: 2.891 cumulative IPC: 2.895 (Simulation time: 00 hr 03 min 30 sec)
Heartbeat CPU 0 instructions: 59500377 cycles: 13285597 heartbeat IPC: 2.892 cumulative IPC: 2.895 (Simulation time: 00 hr 03 min 32 sec)
Heartbeat CPU 0 instructions: 60000383 cycles: 13458188 heartbeat IPC: 2.897 cumulative IPC: 2.895 (Simulation time: 00 hr 03 min 35 sec)
Heartbeat CPU 0 instructions: 60500383 cycles: 13631321 heartbeat IPC: 2.888 cumulative IPC: 2.895 (Simulation time: 00 hr 03 min 37 sec)
Heartbeat CPU 0 instructions: 61000389 cycles: 13804208 heartbeat IPC: 2.892 cumulative IPC: 2.894 (Simulation time: 00 hr 03 min 39 sec)
Heartbeat CPU 0 instructions: 61500390 cycles: 13976811 heartbeat IPC: 2.897 cumulative IPC: 2.895 (Simulation time: 00 hr 03 min 41 sec)
Heartbeat CPU 0 instructions: 62000391 cycles: 14149562 heartbeat IPC: 2.894 cumulative IPC: 2.895 (Simulation time: 00 hr 03 min 44 sec)
Heartbeat CPU 0 instructions: 62500391 cycles: 14322320 heartbeat IPC: 2.894 cumulative IPC: 2.895 (Simulation time: 00 hr 03 min 46 sec)
Heartbeat CPU 0 instructions: 63000392 cycles: 14494842 heartbeat IPC: 2.898 cumulative IPC: 2.895 (Simulation time: 00 hr 03 min 48 sec)
Heartbeat CPU 0 instructions: 63500396 cycles: 14667880 heartbeat IPC: 2.89 cumulative IPC: 2.895 (Simulation time: 00 hr 03 min 51 sec)
Heartbeat CPU 0 instructions: 64000397 cycles: 14841090 heartbeat IPC: 2.887 cumulative IPC: 2.894 (Simulation time: 00 hr 03 min 53 sec)
Heartbeat CPU 0 instructions: 64500398 cycles: 15013573 heartbeat IPC: 2.899 cumulative IPC: 2.894 (Simulation time: 00 hr 03 min 55 sec)
Heartbeat CPU 0 instructions: 65000401 cycles: 15186024 heartbeat IPC: 2.899 cumulative IPC: 2.895 (Simulation time: 00 hr 03 min 57 sec)
Heartbeat CPU 0 instructions: 65500401 cycles: 15358817 heartbeat IPC: 2.894 cumulative IPC: 2.895 (Simulation time: 00 hr 04 min 00 sec)
Heartbeat CPU 0 instructions: 66000403 cycles: 15531574 heartbeat IPC: 2.894 cumulative IPC: 2.895 (Simulation time: 00 hr 04 min 02 sec)
Heartbeat CPU 0 instructions: 66500404 cycles: 15704290 heartbeat IPC: 2.895 cumulative IPC: 2.895 (Simulation time: 00 hr 04 min 04 sec)
Heartbeat CPU 0 instructions: 67000405 cycles: 15876815 heartbeat IPC: 2.898 cumulative IPC: 2.895 (Simulation time: 00 hr 04 min 07 sec)
Heartbeat CPU 0 instructions: 67500406 cycles: 16049184 heartbeat IPC: 2.901 cumulative IPC: 2.895 (Simulation time: 00 hr 04 min 09 sec)
Heartbeat CPU 0 instructions: 68000409 cycles: 16221736 heartbeat IPC: 2.898 cumulative IPC: 2.895 (Simulation time: 00 hr 04 min 11 sec)
Heartbeat CPU 0 instructions: 68500416 cycles: 16394724 heartbeat IPC: 2.89 cumulative IPC: 2.895 (Simulation time: 00 hr 04 min 13 sec)
Heartbeat CPU 0 instructions: 69000421 cycles: 16567909 heartbeat IPC: 2.887 cumulative IPC: 2.895 (Simulation time: 00 hr 04 min 16 sec)
Heartbeat CPU 0 instructions: 69500423 cycles: 16740595 heartbeat IPC: 2.895 cumulative IPC: 2.895 (Simulation time: 00 hr 04 min 18 sec)
Heartbeat CPU 0 instructions: 70000428 cycles: 16913116 heartbeat IPC: 2.898 cumulative IPC: 2.895 (Simulation time: 00 hr 04 min 20 sec)
Heartbeat CPU 0 instructions: 70500432 cycles: 17085907 heartbeat IPC: 2.894 cumulative IPC: 2.895 (Simulation time: 00 hr 04 min 23 sec)
Heartbeat CPU 0 instructions: 71000432 cycles: 17258601 heartbeat IPC: 2.895 cumulative IPC: 2.895 (Simulation time: 00 hr 04 min 25 sec)
Heartbeat CPU 0 instructions: 71500433 cycles: 17431014 heartbeat IPC: 2.9 cumulative IPC: 2.895 (Simulation time: 00 hr 04 min 27 sec)
Heartbeat CPU 0 instructions: 72000434 cycles: 17603693 heartbeat IPC: 2.896 cumulative IPC: 2.895 (Simulation time: 00 hr 04 min 29 sec)
Heartbeat CPU 0 instructions: 72500441 cycles: 17776240 heartbeat IPC: 2.898 cumulative IPC: 2.895 (Simulation time: 00 hr 04 min 32 sec)
Heartbeat CPU 0 instructions: 73000441 cycles: 17948759 heartbeat IPC: 2.898 cumulative IPC: 2.895 (Simulation time: 00 hr 04 min 34 sec)
Heartbeat CPU 0 instructions: 73500448 cycles: 18121321 heartbeat IPC: 2.898 cumulative IPC: 2.895 (Simulation time: 00 hr 04 min 36 sec)
Heartbeat CPU 0 instructions: 74000453 cycles: 18293882 heartbeat IPC: 2.898 cumulative IPC: 2.895 (Simulation time: 00 hr 04 min 39 sec)
Heartbeat CPU 0 instructions: 74500460 cycles: 18466437 heartbeat IPC: 2.898 cumulative IPC: 2.895 (Simulation time: 00 hr 04 min 41 sec)
Heartbeat CPU 0 instructions: 75000460 cycles: 18638848 heartbeat IPC: 2.9 cumulative IPC: 2.895 (Simulation time: 00 hr 04 min 43 sec)
Heartbeat CPU 0 instructions: 75500467 cycles: 18811510 heartbeat IPC: 2.896 cumulative IPC: 2.895 (Simulation time: 00 hr 04 min 45 sec)
Heartbeat CPU 0 instructions: 76000471 cycles: 18984023 heartbeat IPC: 2.898 cumulative IPC: 2.895 (Simulation time: 00 hr 04 min 48 sec)
Heartbeat CPU 0 instructions: 76500476 cycles: 19156570 heartbeat IPC: 2.898 cumulative IPC: 2.895 (Simulation time: 00 hr 04 min 50 sec)
Heartbeat CPU 0 instructions: 77000479 cycles: 19329071 heartbeat IPC: 2.899 cumulative IPC: 2.895 (Simulation time: 00 hr 04 min 52 sec)
Heartbeat CPU 0 instructions: 77500482 cycles: 19501612 heartbeat IPC: 2.898 cumulative IPC: 2.895 (Simulation time: 00 hr 04 min 55 sec)
Heartbeat CPU 0 instructions: 78000489 cycles: 19674071 heartbeat IPC: 2.899 cumulative IPC: 2.896 (Simulation time: 00 hr 04 min 57 sec)
Heartbeat CPU 0 instructions: 78500490 cycles: 19846880 heartbeat IPC: 2.893 cumulative IPC: 2.895 (Simulation time: 00 hr 04 min 59 sec)
Heartbeat CPU 0 instructions: 79000491 cycles: 20019444 heartbeat IPC: 2.897 cumulative IPC: 2.896 (Simulation time: 00 hr 05 min 01 sec)
Heartbeat CPU 0 instructions: 79500494 cycles: 20192023 heartbeat IPC: 2.897 cumulative IPC: 2.896 (Simulation time: 00 hr 05 min 04 sec)
Heartbeat CPU 0 instructions: 80000494 cycles: 20364419 heartbeat IPC: 2.9 cumulative IPC: 2.896 (Simulation time: 00 hr 05 min 06 sec)
Heartbeat CPU 0 instructions: 80500494 cycles: 20536871 heartbeat IPC: 2.899 cumulative IPC: 2.896 (Simulation time: 00 hr 05 min 08 sec)
Heartbeat CPU 0 instructions: 81000497 cycles: 20709737 heartbeat IPC: 2.892 cumulative IPC: 2.896 (Simulation time: 00 hr 05 min 11 sec)
Heartbeat CPU 0 instructions: 81500501 cycles: 20882461 heartbeat IPC: 2.895 cumulative IPC: 2.896 (Simulation time: 00 hr 05 min 13 sec)
Heartbeat CPU 0 instructions: 82000508 cycles: 21054988 heartbeat IPC: 2.898 cumulative IPC: 2.896 (Simulation time: 00 hr 05 min 15 sec)
Heartbeat CPU 0 instructions: 82500512 cycles: 21227927 heartbeat IPC: 2.891 cumulative IPC: 2.896 (Simulation time: 00 hr 05 min 17 sec)
Heartbeat CPU 0 instructions: 83000512 cycles: 21400745 heartbeat IPC: 2.893 cumulative IPC: 2.896 (Simulation time: 00 hr 05 min 20 sec)
Heartbeat CPU 0 instructions: 83500514 cycles: 21573621 heartbeat IPC: 2.892 cumulative IPC: 2.895 (Simulation time: 00 hr 05 min 22 sec)
Heartbeat CPU 0 instructions: 84000521 cycles: 21746094 heartbeat IPC: 2.899 cumulative IPC: 2.896 (Simulation time: 00 hr 05 min 24 sec)
Heartbeat CPU 0 instructions: 84500522 cycles: 21918819 heartbeat IPC: 2.895 cumulative IPC: 2.896 (Simulation time: 00 hr 05 min 27 sec)
Heartbeat CPU 0 instructions: 85000524 cycles: 22091235 heartbeat IPC: 2.9 cumulative IPC: 2.896 (Simulation time: 00 hr 05 min 29 sec)
Heartbeat CPU 0 instructions: 85500531 cycles: 22264156 heartbeat IPC: 2.892 cumulative IPC: 2.896 (Simulation time: 00 hr 05 min 31 sec)
Heartbeat CPU 0 instructions: 86000531 cycles: 22436967 heartbeat IPC: 2.893 cumulative IPC: 2.896 (Simulation time: 00 hr 05 min 33 sec)
Heartbeat CPU 0 instructions: 86500536 cycles: 22609813 heartbeat IPC: 2.893 cumulative IPC: 2.895 (Simulation time: 00 hr 05 min 36 sec)
Heartbeat CPU 0 instructions: 87000542 cycles: 22782659 heartbeat IPC: 2.893 cumulative IPC: 2.895 (Simulation time: 00 hr 05 min 38 sec)
Heartbeat CPU 0 instructions: 87500546 cycles: 22955682 heartbeat IPC: 2.89 cumulative IPC: 2.895 (Simulation time: 00 hr 05 min 40 sec)
Heartbeat CPU 0 instructions: 88000549 cycles: 23128730 heartbeat IPC: 2.889 cumulative IPC: 2.895 (Simulation time: 00 hr 05 min 43 sec)
Heartbeat CPU 0 instructions: 88500550 cycles: 23301226 heartbeat IPC: 2.899 cumulative IPC: 2.895 (Simulation time: 00 hr 05 min 45 sec)
Heartbeat CPU 0 instructions: 89000553 cycles: 23473765 heartbeat IPC: 2.898 cumulative IPC: 2.895 (Simulation time: 00 hr 05 min 47 sec)
Heartbeat CPU 0 instructions: 89500555 cycles: 23646854 heartbeat IPC: 2.889 cumulative IPC: 2.895 (Simulation time: 00 hr 05 min 49 sec)
Heartbeat CPU 0 instructions: 90000556 cycles: 23819587 heartbeat IPC: 2.895 cumulative IPC: 2.895 (Simulation time: 00 hr 05 min 52 sec)
Heartbeat CPU 0 instructions: 90500556 cycles: 23992106 heartbeat IPC: 2.898 cumulative IPC: 2.895 (Simulation time: 00 hr 05 min 54 sec)
Heartbeat CPU 0 instructions: 91000558 cycles: 24164769 heartbeat IPC: 2.896 cumulative IPC: 2.895 (Simulation time: 00 hr 05 min 56 sec)
Heartbeat CPU 0 instructions: 91500561 cycles: 24337318 heartbeat IPC: 2.898 cumulative IPC: 2.895 (Simulation time: 00 hr 05 min 59 sec)
Heartbeat CPU 0 instructions: 92000563 cycles: 24509849 heartbeat IPC: 2.898 cumulative IPC: 2.895 (Simulation time: 00 hr 06 min 01 sec)
Heartbeat CPU 0 instructions: 92500564 cycles: 24682625 heartbeat IPC: 2.894 cumulative IPC: 2.895 (Simulation time: 00 hr 06 min 03 sec)
Heartbeat CPU 0 instructions: 93000568 cycles: 24855195 heartbeat IPC: 2.897 cumulative IPC: 2.895 (Simulation time: 00 hr 06 min 05 sec)
Heartbeat CPU 0 instructions: 93500569 cycles: 25027711 heartbeat IPC: 2.898 cumulative IPC: 2.895 (Simulation time: 00 hr 06 min 08 sec)
Heartbeat CPU 0 instructions: 94000569 cycles: 25200863 heartbeat IPC: 2.888 cumulative IPC: 2.895 (Simulation time: 00 hr 06 min 10 sec)
Heartbeat CPU 0 instructions: 94500571 cycles: 25373876 heartbeat IPC: 2.89 cumulative IPC: 2.895 (Simulation time: 00 hr 06 min 12 sec)
Heartbeat CPU 0 instructions: 95000572 cycles: 25546615 heartbeat IPC: 2.895 cumulative IPC: 2.895 (Simulation time: 00 hr 06 min 15 sec)
Heartbeat CPU 0 instructions: 95500579 cycles: 25719201 heartbeat IPC: 2.897 cumulative IPC: 2.895 (Simulation time: 00 hr 06 min 17 sec)
Heartbeat CPU 0 instructions: 96000579 cycles: 25891843 heartbeat IPC: 2.896 cumulative IPC: 2.895 (Simulation time: 00 hr 06 min 19 sec)
Heartbeat CPU 0 instructions: 96500579 cycles: 26064370 heartbeat IPC: 2.898 cumulative IPC: 2.895 (Simulation time: 00 hr 06 min 21 sec)
Heartbeat CPU 0 instructions: 97000580 cycles: 26237246 heartbeat IPC: 2.892 cumulative IPC: 2.895 (Simulation time: 00 hr 06 min 24 sec)
Heartbeat CPU 0 instructions: 97500582 cycles: 26409717 heartbeat IPC: 2.899 cumulative IPC: 2.895 (Simulation time: 00 hr 06 min 26 sec)
Heartbeat CPU 0 instructions: 98000585 cycles: 26582232 heartbeat IPC: 2.898 cumulative IPC: 2.895 (Simulation time: 00 hr 06 min 28 sec)
Heartbeat CPU 0 instructions: 98500588 cycles: 26754978 heartbeat IPC: 2.894 cumulative IPC: 2.895 (Simulation time: 00 hr 06 min 31 sec)
Heartbeat CPU 0 instructions: 99000590 cycles: 26927675 heartbeat IPC: 2.895 cumulative IPC: 2.895 (Simulation time: 00 hr 06 min 33 sec)
Heartbeat CPU 0 instructions: 99500590 cycles: 27100434 heartbeat IPC: 2.894 cumulative IPC: 2.895 (Simulation time: 00 hr 06 min 35 sec)
Heartbeat CPU 0 instructions: 100000590 cycles: 27273521 heartbeat IPC: 2.889 cumulative IPC: 2.895 (Simulation time: 00 hr 06 min 37 sec)
Heartbeat CPU 0 instructions: 100500593 cycles: 27446471 heartbeat IPC: 2.891 cumulative IPC: 2.895 (Simulation time: 00 hr 06 min 40 sec)
Heartbeat CPU 0 instructions: 101000600 cycles: 27619460 heartbeat IPC: 2.89 cumulative IPC: 2.895 (Simulation time: 00 hr 06 min 42 sec)
Heartbeat CPU 0 instructions: 101500604 cycles: 27792337 heartbeat IPC: 2.892 cumulative IPC: 2.895 (Simulation time: 00 hr 06 min 44 sec)
Heartbeat CPU 0 instructions: 102000608 cycles: 27965440 heartbeat IPC: 2.888 cumulative IPC: 2.895 (Simulation time: 00 hr 06 min 47 sec)
Heartbeat CPU 0 instructions: 102500615 cycles: 28138157 heartbeat IPC: 2.895 cumulative IPC: 2.895 (Simulation time: 00 hr 06 min 49 sec)
Heartbeat CPU 0 instructions: 103000615 cycles: 28310773 heartbeat IPC: 2.897 cumulative IPC: 2.895 (Simulation time: 00 hr 06 min 51 sec)
Heartbeat CPU 0 instructions: 103500615 cycles: 28483386 heartbeat IPC: 2.897 cumulative IPC: 2.895 (Simulation time: 00 hr 06 min 54 sec)
Heartbeat CPU 0 instructions: 104000619 cycles: 28656324 heartbeat IPC: 2.891 cumulative IPC: 2.895 (Simulation time: 00 hr 06 min 56 sec)
Heartbeat CPU 0 instructions: 104500621 cycles: 28829335 heartbeat IPC: 2.89 cumulative IPC: 2.895 (Simulation time: 00 hr 06 min 58 sec)
Heartbeat CPU 0 instructions: 105000622 cycles: 29001883 heartbeat IPC: 2.898 cumulative IPC: 2.895 (Simulation time: 00 hr 07 min 00 sec)
Heartbeat CPU 0 instructions: 105500628 cycles: 29174724 heartbeat IPC: 2.893 cumulative IPC: 2.895 (Simulation time: 00 hr 07 min 03 sec)
Heartbeat CPU 0 instructions: 106000632 cycles: 29347527 heartbeat IPC: 2.893 cumulative IPC: 2.895 (Simulation time: 00 hr 07 min 05 sec)
Heartbeat CPU 0 instructions: 106500638 cycles: 29520450 heartbeat IPC: 2.891 cumulative IPC: 2.895 (Simulation time: 00 hr 07 min 07 sec)
Heartbeat CPU 0 instructions: 107000645 cycles: 29693214 heartbeat IPC: 2.894 cumulative IPC: 2.895 (Simulation time: 00 hr 07 min 10 sec)
Heartbeat CPU 0 instructions: 107500648 cycles: 29866023 heartbeat IPC: 2.893 cumulative IPC: 2.895 (Simulation time: 00 hr 07 min 12 sec)
Heartbeat CPU 0 instructions: 108000652 cycles: 30039041 heartbeat IPC: 2.89 cumulative IPC: 2.895 (Simulation time: 00 hr 07 min 14 sec)
Heartbeat CPU 0 instructions: 108500652 cycles: 30211920 heartbeat IPC: 2.892 cumulative IPC: 2.895 (Simulation time: 00 hr 07 min 16 sec)
Heartbeat CPU 0 instructions: 109000657 cycles: 30384630 heartbeat IPC: 2.895 cumulative IPC: 2.895 (Simulation time: 00 hr 07 min 19 sec)
Heartbeat CPU 0 instructions: 109500658 cycles: 30557306 heartbeat IPC: 2.896 cumulative IPC: 2.895 (Simulation time: 00 hr 07 min 21 sec)
Heartbeat CPU 0 instructions: 110000661 cycles: 30729818 heartbeat IPC: 2.898 cumulative IPC: 2.895 (Simulation time: 00 hr 07 min 23 sec)
Heartbeat CPU 0 instructions: 110500662 cycles: 30902544 heartbeat IPC: 2.895 cumulative IPC: 2.895 (Simulation time: 00 hr 07 min 26 sec)
Heartbeat CPU 0 instructions: 111000664 cycles: 31075189 heartbeat IPC: 2.896 cumulative IPC: 2.895 (Simulation time: 00 hr 07 min 28 sec)
Heartbeat CPU 0 instructions: 111500667 cycles: 31248212 heartbeat IPC: 2.89 cumulative IPC: 2.895 (Simulation time: 00 hr 07 min 30 sec)
Heartbeat CPU 0 instructions: 112000672 cycles: 31421152 heartbeat IPC: 2.891 cumulative IPC: 2.895 (Simulation time: 00 hr 07 min 32 sec)
Heartbeat CPU 0 instructions: 112500677 cycles: 31593758 heartbeat IPC: 2.897 cumulative IPC: 2.895 (Simulation time: 00 hr 07 min 35 sec)
Heartbeat CPU 0 instructions: 113000677 cycles: 31766708 heartbeat IPC: 2.891 cumulative IPC: 2.895 (Simulation time: 00 hr 07 min 37 sec)
Heartbeat CPU 0 instructions: 113500684 cycles: 31939424 heartbeat IPC: 2.895 cumulative IPC: 2.895 (Simulation time: 00 hr 07 min 39 sec)
Heartbeat CPU 0 instructions: 114000684 cycles: 32112125 heartbeat IPC: 2.895 cumulative IPC: 2.895 (Simulation time: 00 hr 07 min 42 sec)
Heartbeat CPU 0 instructions: 114500684 cycles: 32285290 heartbeat IPC: 2.887 cumulative IPC: 2.895 (Simulation time: 00 hr 07 min 44 sec)
Heartbeat CPU 0 instructions: 115000685 cycles: 32458438 heartbeat IPC: 2.888 cumulative IPC: 2.895 (Simulation time: 00 hr 07 min 46 sec)
Heartbeat CPU 0 instructions: 115500686 cycles: 32631095 heartbeat IPC: 2.896 cumulative IPC: 2.895 (Simulation time: 00 hr 07 min 48 sec)
Heartbeat CPU 0 instructions: 116000686 cycles: 32804251 heartbeat IPC: 2.888 cumulative IPC: 2.895 (Simulation time: 00 hr 07 min 51 sec)
Heartbeat CPU 0 instructions: 116500687 cycles: 32976969 heartbeat IPC: 2.895 cumulative IPC: 2.895 (Simulation time: 00 hr 07 min 53 sec)
Heartbeat CPU 0 instructions: 117000691 cycles: 33149421 heartbeat IPC: 2.899 cumulative IPC: 2.895 (Simulation time: 00 hr 07 min 55 sec)
Heartbeat CPU 0 instructions: 117500696 cycles: 33322071 heartbeat IPC: 2.896 cumulative IPC: 2.895 (Simulation time: 00 hr 07 min 58 sec)
Heartbeat CPU 0 instructions: 118000699 cycles: 33495329 heartbeat IPC: 2.886 cumulative IPC: 2.895 (Simulation time: 00 hr 08 min 00 sec)
Heartbeat CPU 0 instructions: 118500703 cycles: 33668218 heartbeat IPC: 2.892 cumulative IPC: 2.895 (Simulation time: 00 hr 08 min 02 sec)
Heartbeat CPU 0 instructions: 119000705 cycles: 33841022 heartbeat IPC: 2.893 cumulative IPC: 2.895 (Simulation time: 00 hr 08 min 04 sec)
Heartbeat CPU 0 instructions: 119500711 cycles: 34013883 heartbeat IPC: 2.893 cumulative IPC: 2.895 (Simulation time: 00 hr 08 min 07 sec)
Heartbeat CPU 0 instructions: 120000712 cycles: 34186577 heartbeat IPC: 2.895 cumulative IPC: 2.895 (Simulation time: 00 hr 08 min 09 sec)
Heartbeat CPU 0 instructions: 120500719 cycles: 34359297 heartbeat IPC: 2.895 cumulative IPC: 2.895 (Simulation time: 00 hr 08 min 11 sec)
Heartbeat CPU 0 instructions: 121000722 cycles: 34532321 heartbeat IPC: 2.89 cumulative IPC: 2.895 (Simulation time: 00 hr 08 min 14 sec)
Heartbeat CPU 0 instructions: 121500722 cycles: 34705056 heartbeat IPC: 2.895 cumulative IPC: 2.895 (Simulation time: 00 hr 08 min 16 sec)
Heartbeat CPU 0 instructions: 122000722 cycles: 34877785 heartbeat IPC: 2.895 cumulative IPC: 2.895 (Simulation time: 00 hr 08 min 18 sec)
Heartbeat CPU 0 instructions: 122500724 cycles: 35050633 heartbeat IPC: 2.893 cumulative IPC: 2.895 (Simulation time: 00 hr 08 min 20 sec)
Heartbeat CPU 0 instructions: 123000727 cycles: 35223868 heartbeat IPC: 2.886 cumulative IPC: 2.895 (Simulation time: 00 hr 08 min 23 sec)
Heartbeat CPU 0 instructions: 123500727 cycles: 35396805 heartbeat IPC: 2.891 cumulative IPC: 2.895 (Simulation time: 00 hr 08 min 25 sec)
Heartbeat CPU 0 instructions: 124000734 cycles: 35569533 heartbeat IPC: 2.895 cumulative IPC: 2.895 (Simulation time: 00 hr 08 min 27 sec)
Heartbeat CPU 0 instructions: 124500741 cycles: 35742170 heartbeat IPC: 2.896 cumulative IPC: 2.895 (Simulation time: 00 hr 08 min 30 sec)
Heartbeat CPU 0 instructions: 125000744 cycles: 35914909 heartbeat IPC: 2.895 cumulative IPC: 2.895 (Simulation time: 00 hr 08 min 32 sec)
Heartbeat CPU 0 instructions: 125500746 cycles: 36087769 heartbeat IPC: 2.893 cumulative IPC: 2.895 (Simulation time: 00 hr 08 min 34 sec)
Heartbeat CPU 0 instructions: 126000748 cycles: 36260614 heartbeat IPC: 2.893 cumulative IPC: 2.895 (Simulation time: 00 hr 08 min 36 sec)
Heartbeat CPU 0 instructions: 126500750 cycles: 36433449 heartbeat IPC: 2.893 cumulative IPC: 2.895 (Simulation time: 00 hr 08 min 39 sec)
Heartbeat CPU 0 instructions: 127000751 cycles: 36606291 heartbeat IPC: 2.893 cumulative IPC: 2.894 (Simulation time: 00 hr 08 min 41 sec)
Heartbeat CPU 0 instructions: 127500751 cycles: 36779050 heartbeat IPC: 2.894 cumulative IPC: 2.894 (Simulation time: 00 hr 08 min 43 sec)
Heartbeat CPU 0 instructions: 128000757 cycles: 36952171 heartbeat IPC: 2.888 cumulative IPC: 2.894 (Simulation time: 00 hr 08 min 46 sec)
Heartbeat CPU 0 instructions: 128500757 cycles: 37124946 heartbeat IPC: 2.894 cumulative IPC: 2.894 (Simulation time: 00 hr 08 min 48 sec)
Heartbeat CPU 0 instructions: 129000757 cycles: 37297884 heartbeat IPC: 2.891 cumulative IPC: 2.894 (Simulation time: 00 hr 08 min 50 sec)
Heartbeat CPU 0 instructions: 129500760 cycles: 37470963 heartbeat IPC: 2.889 cumulative IPC: 2.894 (Simulation time: 00 hr 08 min 52 sec)
Heartbeat CPU 0 instructions: 130000760 cycles: 37644118 heartbeat IPC: 2.888 cumulative IPC: 2.894 (Simulation time: 00 hr 08 min 55 sec)
Heartbeat CPU 0 instructions: 130500760 cycles: 37816729 heartbeat IPC: 2.897 cumulative IPC: 2.894 (Simulation time: 00 hr 08 min 57 sec)
Heartbeat CPU 0 instructions: 131000760 cycles: 37989675 heartbeat IPC: 2.891 cumulative IPC: 2.894 (Simulation time: 00 hr 08 min 59 sec)
Heartbeat CPU 0 instructions: 131500764 cycles: 38162371 heartbeat IPC: 2.895 cumulative IPC: 2.894 (Simulation time: 00 hr 09 min 01 sec)
Heartbeat CPU 0 instructions: 132000767 cycles: 38334517 heartbeat IPC: 2.905 cumulative IPC: 2.894 (Simulation time: 00 hr 09 min 04 sec)
Heartbeat CPU 0 instructions: 132500769 cycles: 38506972 heartbeat IPC: 2.899 cumulative IPC: 2.894 (Simulation time: 00 hr 09 min 06 sec)
Heartbeat CPU 0 instructions: 133000769 cycles: 38679586 heartbeat IPC: 2.897 cumulative IPC: 2.894 (Simulation time: 00 hr 09 min 08 sec)
Heartbeat CPU 0 instructions: 133500773 cycles: 38852424 heartbeat IPC: 2.893 cumulative IPC: 2.894 (Simulation time: 00 hr 09 min 10 sec)
Heartbeat CPU 0 instructions: 134000773 cycles: 39025427 heartbeat IPC: 2.89 cumulative IPC: 2.894 (Simulation time: 00 hr 09 min 13 sec)
Heartbeat CPU 0 instructions: 134500774 cycles: 39198496 heartbeat IPC: 2.889 cumulative IPC: 2.894 (Simulation time: 00 hr 09 min 15 sec)
Heartbeat CPU 0 instructions: 135000774 cycles: 39371114 heartbeat IPC: 2.897 cumulative IPC: 2.894 (Simulation time: 00 hr 09 min 17 sec)
Heartbeat CPU 0 instructions: 135500777 cycles: 39543927 heartbeat IPC: 2.893 cumulative IPC: 2.894 (Simulation time: 00 hr 09 min 19 sec)
Heartbeat CPU 0 instructions: 136000782 cycles: 39716580 heartbeat IPC: 2.896 cumulative IPC: 2.894 (Simulation time: 00 hr 09 min 22 sec)
Heartbeat CPU 0 instructions: 136500785 cycles: 39889265 heartbeat IPC: 2.895 cumulative IPC: 2.894 (Simulation time: 00 hr 09 min 24 sec)
Heartbeat CPU 0 instructions: 137000785 cycles: 40061840 heartbeat IPC: 2.897 cumulative IPC: 2.894 (Simulation time: 00 hr 09 min 26 sec)
Heartbeat CPU 0 instructions: 137500787 cycles: 40234293 heartbeat IPC: 2.899 cumulative IPC: 2.894 (Simulation time: 00 hr 09 min 28 sec)
Heartbeat CPU 0 instructions: 138000787 cycles: 40406924 heartbeat IPC: 2.896 cumulative IPC: 2.894 (Simulation time: 00 hr 09 min 31 sec)
Heartbeat CPU 0 instructions: 138500791 cycles: 40579473 heartbeat IPC: 2.898 cumulative IPC: 2.894 (Simulation time: 00 hr 09 min 33 sec)
Heartbeat CPU 0 instructions: 139000797 cycles: 40752161 heartbeat IPC: 2.895 cumulative IPC: 2.894 (Simulation time: 00 hr 09 min 35 sec)
Heartbeat CPU 0 instructions: 139500797 cycles: 40924796 heartbeat IPC: 2.896 cumulative IPC: 2.894 (Simulation time: 00 hr 09 min 38 sec)
Heartbeat CPU 0 instructions: 140000801 cycles: 41097369 heartbeat IPC: 2.897 cumulative IPC: 2.895 (Simulation time: 00 hr 09 min 40 sec)
Heartbeat CPU 0 instructions: 140500801 cycles: 41269958 heartbeat IPC: 2.897 cumulative IPC: 2.895 (Simulation time: 00 hr 09 min 42 sec)
Heartbeat CPU 0 instructions: 141000804 cycles: 41442436 heartbeat IPC: 2.899 cumulative IPC: 2.895 (Simulation time: 00 hr 09 min 44 sec)
Heartbeat CPU 0 instructions: 141500804 cycles: 41615033 heartbeat IPC: 2.897 cumulative IPC: 2.895 (Simulation time: 00 hr 09 min 47 sec)
Heartbeat CPU 0 instructions: 142000806 cycles: 41787655 heartbeat IPC: 2.897 cumulative IPC: 2.895 (Simulation time: 00 hr 09 min 49 sec)
Heartbeat CPU 0 instructions: 142500809 cycles: 41960608 heartbeat IPC: 2.891 cumulative IPC: 2.895 (Simulation time: 00 hr 09 min 51 sec)
Heartbeat CPU 0 instructions: 143000814 cycles: 42133089 heartbeat IPC: 2.899 cumulative IPC: 2.895 (Simulation time: 00 hr 09 min 53 sec)
Heartbeat CPU 0 instructions: 143500814 cycles: 42305538 heartbeat IPC: 2.899 cumulative IPC: 2.895 (Simulation time: 00 hr 09 min 56 sec)
Heartbeat CPU 0 instructions: 144000814 cycles: 42478367 heartbeat IPC: 2.893 cumulative IPC: 2.895 (Simulation time: 00 hr 09 min 58 sec)
Heartbeat CPU 0 instructions: 144500818 cycles: 42651339 heartbeat IPC: 2.891 cumulative IPC: 2.895 (Simulation time: 00 hr 10 min 00 sec)
Heartbeat CPU 0 instructions: 145000821 cycles: 42824472 heartbeat IPC: 2.888 cumulative IPC: 2.895 (Simulation time: 00 hr 10 min 02 sec)
Heartbeat CPU 0 instructions: 145500826 cycles: 42997406 heartbeat IPC: 2.891 cumulative IPC: 2.895 (Simulation time: 00 hr 10 min 05 sec)
Heartbeat CPU 0 instructions: 146000827 cycles: 43170291 heartbeat IPC: 2.892 cumulative IPC: 2.895 (Simulation time: 00 hr 10 min 07 sec)
Heartbeat CPU 0 instructions: 146500830 cycles: 43343326 heartbeat IPC: 2.89 cumulative IPC: 2.894 (Simulation time: 00 hr 10 min 09 sec)
Heartbeat CPU 0 instructions: 147000836 cycles: 43515984 heartbeat IPC: 2.896 cumulative IPC: 2.894 (Simulation time: 00 hr 10 min 11 sec)
Heartbeat CPU 0 instructions: 147500836 cycles: 43688522 heartbeat IPC: 2.898 cumulative IPC: 2.895 (Simulation time: 00 hr 10 min 14 sec)
Heartbeat CPU 0 instructions: 148000838 cycles: 43861274 heartbeat IPC: 2.894 cumulative IPC: 2.895 (Simulation time: 00 hr 10 min 16 sec)
Heartbeat CPU 0 instructions: 148500839 cycles: 44033764 heartbeat IPC: 2.899 cumulative IPC: 2.895 (Simulation time: 00 hr 10 min 18 sec)
Heartbeat CPU 0 instructions: 149000844 cycles: 44206948 heartbeat IPC: 2.887 cumulative IPC: 2.894 (Simulation time: 00 hr 10 min 20 sec)
Heartbeat CPU 0 instructions: 149500845 cycles: 44379883 heartbeat IPC: 2.891 cumulative IPC: 2.894 (Simulation time: 00 hr 10 min 23 sec)
Heartbeat CPU 0 instructions: 150000848 cycles: 44552494 heartbeat IPC: 2.897 cumulative IPC: 2.894 (Simulation time: 00 hr 10 min 25 sec)
Heartbeat CPU 0 instructions: 150500850 cycles: 44725342 heartbeat IPC: 2.893 cumulative IPC: 2.894 (Simulation time: 00 hr 10 min 27 sec)
Heartbeat CPU 0 instructions: 151000852 cycles: 44898154 heartbeat IPC: 2.893 cumulative IPC: 2.894 (Simulation time: 00 hr 10 min 30 sec)
Heartbeat CPU 0 instructions: 151500858 cycles: 45071034 heartbeat IPC: 2.892 cumulative IPC: 2.894 (Simulation time: 00 hr 10 min 32 sec)
Heartbeat CPU 0 instructions: 152000862 cycles: 45243593 heartbeat IPC: 2.898 cumulative IPC: 2.894 (Simulation time: 00 hr 10 min 34 sec)
Heartbeat CPU 0 instructions: 152500863 cycles: 45416534 heartbeat IPC: 2.891 cumulative IPC: 2.894 (Simulation time: 00 hr 10 min 36 sec)
Heartbeat CPU 0 instructions: 153000867 cycles: 45589219 heartbeat IPC: 2.895 cumulative IPC: 2.894 (Simulation time: 00 hr 10 min 39 sec)
Heartbeat CPU 0 instructions: 153500869 cycles: 45761921 heartbeat IPC: 2.895 cumulative IPC: 2.894 (Simulation time: 00 hr 10 min 41 sec)
Heartbeat CPU 0 instructions: 154000870 cycles: 45935032 heartbeat IPC: 2.888 cumulative IPC: 2.894 (Simulation time: 00 hr 10 min 43 sec)
Heartbeat CPU 0 instructions: 154500870 cycles: 46108178 heartbeat IPC: 2.888 cumulative IPC: 2.894 (Simulation time: 00 hr 10 min 45 sec)
Heartbeat CPU 0 instructions: 155000871 cycles: 46281018 heartbeat IPC: 2.893 cumulative IPC: 2.894 (Simulation time: 00 hr 10 min 48 sec)
Heartbeat CPU 0 instructions: 155500875 cycles: 46454041 heartbeat IPC: 2.89 cumulative IPC: 2.894 (Simulation time: 00 hr 10 min 50 sec)
Heartbeat CPU 0 instructions: 156000881 cycles: 46626987 heartbeat IPC: 2.891 cumulative IPC: 2.894 (Simulation time: 00 hr 10 min 52 sec)
Heartbeat CPU 0 instructions: 156500882 cycles: 46799977 heartbeat IPC: 2.89 cumulative IPC: 2.894 (Simulation time: 00 hr 10 min 54 sec)
Heartbeat CPU 0 instructions: 157000882 cycles: 46972948 heartbeat IPC: 2.891 cumulative IPC: 2.894 (Simulation time: 00 hr 10 min 57 sec)
Heartbeat CPU 0 instructions: 157500884 cycles: 47145758 heartbeat IPC: 2.893 cumulative IPC: 2.894 (Simulation time: 00 hr 10 min 59 sec)
Heartbeat CPU 0 instructions: 158000887 cycles: 47318282 heartbeat IPC: 2.898 cumulative IPC: 2.894 (Simulation time: 00 hr 11 min 01 sec)
Heartbeat CPU 0 instructions: 158500888 cycles: 47490791 heartbeat IPC: 2.898 cumulative IPC: 2.894 (Simulation time: 00 hr 11 min 03 sec)
Heartbeat CPU 0 instructions: 159000889 cycles: 47663703 heartbeat IPC: 2.892 cumulative IPC: 2.894 (Simulation time: 00 hr 11 min 06 sec)
Heartbeat CPU 0 instructions: 159500895 cycles: 47836837 heartbeat IPC: 2.888 cumulative IPC: 2.894 (Simulation time: 00 hr 11 min 08 sec)
Heartbeat CPU 0 instructions: 160000896 cycles: 48010463 heartbeat IPC: 2.88 cumulative IPC: 2.894 (Simulation time: 00 hr 11 min 10 sec)
Heartbeat CPU 0 instructions: 160500897 cycles: 48183358 heartbeat IPC: 2.892 cumulative IPC: 2.894 (Simulation time: 00 hr 11 min 12 sec)
Heartbeat CPU 0 instructions: 161000898 cycles: 48355770 heartbeat IPC: 2.9 cumulative IPC: 2.894 (Simulation time: 00 hr 11 min 15 sec)
Heartbeat CPU 0 instructions: 161500905 cycles: 48528517 heartbeat IPC: 2.894 cumulative IPC: 2.894 (Simulation time: 00 hr 11 min 17 sec)
Heartbeat CPU 0 instructions: 162000907 cycles: 48701414 heartbeat IPC: 2.892 cumulative IPC: 2.894 (Simulation time: 00 hr 11 min 19 sec)
Heartbeat CPU 0 instructions: 162500910 cycles: 48874458 heartbeat IPC: 2.889 cumulative IPC: 2.894 (Simulation time: 00 hr 11 min 22 sec)
Heartbeat CPU 0 instructions: 163000916 cycles: 49047170 heartbeat IPC: 2.895 cumulative IPC: 2.894 (Simulation time: 00 hr 11 min 24 sec)
Heartbeat CPU 0 instructions: 163500922 cycles: 49220358 heartbeat IPC: 2.887 cumulative IPC: 2.894 (Simulation time: 00 hr 11 min 26 sec)
Heartbeat CPU 0 instructions: 164000926 cycles: 49393668 heartbeat IPC: 2.885 cumulative IPC: 2.894 (Simulation time: 00 hr 11 min 28 sec)
Heartbeat CPU 0 instructions: 164500927 cycles: 49567185 heartbeat IPC: 2.882 cumulative IPC: 2.894 (Simulation time: 00 hr 11 min 31 sec)
Heartbeat CPU 0 instructions: 165000932 cycles: 49740499 heartbeat IPC: 2.885 cumulative IPC: 2.894 (Simulation time: 00 hr 11 min 33 sec)
Heartbeat CPU 0 instructions: 165500932 cycles: 49913654 heartbeat IPC: 2.888 cumulative IPC: 2.894 (Simulation time: 00 hr 11 min 35 sec)
Heartbeat CPU 0 instructions: 166000933 cycles: 50086234 heartbeat IPC: 2.897 cumulative IPC: 2.894 (Simulation time: 00 hr 11 min 37 sec)
Heartbeat CPU 0 instructions: 166500933 cycles: 50258857 heartbeat IPC: 2.896 cumulative IPC: 2.894 (Simulation time: 00 hr 11 min 40 sec)
Heartbeat CPU 0 instructions: 167000936 cycles: 50431591 heartbeat IPC: 2.895 cumulative IPC: 2.894 (Simulation time: 00 hr 11 min 42 sec)
Heartbeat CPU 0 instructions: 167500939 cycles: 50604530 heartbeat IPC: 2.891 cumulative IPC: 2.894 (Simulation time: 00 hr 11 min 44 sec)
Heartbeat CPU 0 instructions: 168000941 cycles: 50777420 heartbeat IPC: 2.892 cumulative IPC: 2.894 (Simulation time: 00 hr 11 min 46 sec)
Heartbeat CPU 0 instructions: 168500945 cycles: 50950507 heartbeat IPC: 2.889 cumulative IPC: 2.894 (Simulation time: 00 hr 11 min 49 sec)
Heartbeat CPU 0 instructions: 169000951 cycles: 51123342 heartbeat IPC: 2.893 cumulative IPC: 2.894 (Simulation time: 00 hr 11 min 51 sec)
Heartbeat CPU 0 instructions: 169500957 cycles: 51295906 heartbeat IPC: 2.898 cumulative IPC: 2.894 (Simulation time: 00 hr 11 min 53 sec)
Heartbeat CPU 0 instructions: 170000963 cycles: 51468305 heartbeat IPC: 2.9 cumulative IPC: 2.894 (Simulation time: 00 hr 11 min 55 sec)
Heartbeat CPU 0 instructions: 170500966 cycles: 51640878 heartbeat IPC: 2.897 cumulative IPC: 2.894 (Simulation time: 00 hr 11 min 58 sec)
Heartbeat CPU 0 instructions: 171000967 cycles: 51813533 heartbeat IPC: 2.896 cumulative IPC: 2.894 (Simulation time: 00 hr 12 min 00 sec)
Heartbeat CPU 0 instructions: 171500968 cycles: 51986196 heartbeat IPC: 2.896 cumulative IPC: 2.894 (Simulation time: 00 hr 12 min 02 sec)
Heartbeat CPU 0 instructions: 172000969 cycles: 52159572 heartbeat IPC: 2.884 cumulative IPC: 2.894 (Simulation time: 00 hr 12 min 04 sec)
Heartbeat CPU 0 instructions: 172500970 cycles: 52333116 heartbeat IPC: 2.881 cumulative IPC: 2.894 (Simulation time: 00 hr 12 min 07 sec)
Heartbeat CPU 0 instructions: 173000973 cycles: 52505600 heartbeat IPC: 2.899 cumulative IPC: 2.894 (Simulation time: 00 hr 12 min 09 sec)
Heartbeat CPU 0 instructions: 173500978 cycles: 52678509 heartbeat IPC: 2.892 cumulative IPC: 2.894 (Simulation time: 00 hr 12 min 11 sec)
Heartbeat CPU 0 instructions: 174000984 cycles: 52851408 heartbeat IPC: 2.892 cumulative IPC: 2.894 (Simulation time: 00 hr 12 min 14 sec)
Heartbeat CPU 0 instructions: 174500985 cycles: 53024087 heartbeat IPC: 2.896 cumulative IPC: 2.894 (Simulation time: 00 hr 12 min 16 sec)
Heartbeat CPU 0 instructions: 175000986 cycles: 53196709 heartbeat IPC: 2.897 cumulative IPC: 2.894 (Simulation time: 00 hr 12 min 18 sec)
Heartbeat CPU 0 instructions: 175500987 cycles: 53369611 heartbeat IPC: 2.892 cumulative IPC: 2.894 (Simulation time: 00 hr 12 min 20 sec)
Heartbeat CPU 0 instructions: 176000992 cycles: 53542310 heartbeat IPC: 2.895 cumulative IPC: 2.894 (Simulation time: 00 hr 12 min 23 sec)
Heartbeat CPU 0 instructions: 176500992 cycles: 53715004 heartbeat IPC: 2.895 cumulative IPC: 2.894 (Simulation time: 00 hr 12 min 25 sec)
Heartbeat CPU 0 instructions: 177000994 cycles: 53887517 heartbeat IPC: 2.898 cumulative IPC: 2.894 (Simulation time: 00 hr 12 min 27 sec)
Heartbeat CPU 0 instructions: 177500999 cycles: 54060589 heartbeat IPC: 2.889 cumulative IPC: 2.894 (Simulation time: 00 hr 12 min 29 sec)
Heartbeat CPU 0 instructions: 178000999 cycles: 54233147 heartbeat IPC: 2.898 cumulative IPC: 2.894 (Simulation time: 00 hr 12 min 32 sec)
Heartbeat CPU 0 instructions: 178501003 cycles: 54405894 heartbeat IPC: 2.894 cumulative IPC: 2.894 (Simulation time: 00 hr 12 min 34 sec)
Heartbeat CPU 0 instructions: 179001004 cycles: 54578494 heartbeat IPC: 2.897 cumulative IPC: 2.894 (Simulation time: 00 hr 12 min 36 sec)
Heartbeat CPU 0 instructions: 179501005 cycles: 54751075 heartbeat IPC: 2.897 cumulative IPC: 2.894 (Simulation time: 00 hr 12 min 38 sec)
Heartbeat CPU 0 instructions: 180001007 cycles: 54923779 heartbeat IPC: 2.895 cumulative IPC: 2.894 (Simulation time: 00 hr 12 min 41 sec)
Heartbeat CPU 0 instructions: 180501007 cycles: 55096331 heartbeat IPC: 2.898 cumulative IPC: 2.894 (Simulation time: 00 hr 12 min 43 sec)
Heartbeat CPU 0 instructions: 181001011 cycles: 55268710 heartbeat IPC: 2.901 cumulative IPC: 2.894 (Simulation time: 00 hr 12 min 45 sec)
Heartbeat CPU 0 instructions: 181501013 cycles: 55441607 heartbeat IPC: 2.892 cumulative IPC: 2.894 (Simulation time: 00 hr 12 min 47 sec)
Heartbeat CPU 0 instructions: 182001018 cycles: 55614154 heartbeat IPC: 2.898 cumulative IPC: 2.894 (Simulation time: 00 hr 12 min 50 sec)
Heartbeat CPU 0 instructions: 182501018 cycles: 55786912 heartbeat IPC: 2.894 cumulative IPC: 2.894 (Simulation time: 00 hr 12 min 52 sec)
Heartbeat CPU 0 instructions: 183001018 cycles: 55959545 heartbeat IPC: 2.896 cumulative IPC: 2.894 (Simulation time: 00 hr 12 min 54 sec)
Heartbeat CPU 0 instructions: 183501019 cycles: 56132548 heartbeat IPC: 2.89 cumulative IPC: 2.894 (Simulation time: 00 hr 12 min 56 sec)
Heartbeat CPU 0 instructions: 184001024 cycles: 56305285 heartbeat IPC: 2.895 cumulative IPC: 2.894 (Simulation time: 00 hr 12 min 59 sec)
Heartbeat CPU 0 instructions: 184501029 cycles: 56478527 heartbeat IPC: 2.886 cumulative IPC: 2.894 (Simulation time: 00 hr 13 min 01 sec)
Heartbeat CPU 0 instructions: 185001029 cycles: 56651289 heartbeat IPC: 2.894 cumulative IPC: 2.894 (Simulation time: 00 hr 13 min 03 sec)
Heartbeat CPU 0 instructions: 185501035 cycles: 56823997 heartbeat IPC: 2.895 cumulative IPC: 2.894 (Simulation time: 00 hr 13 min 06 sec)
Heartbeat CPU 0 instructions: 186001036 cycles: 56996698 heartbeat IPC: 2.895 cumulative IPC: 2.894 (Simulation time: 00 hr 13 min 08 sec)
Heartbeat CPU 0 instructions: 186501042 cycles: 57169270 heartbeat IPC: 2.897 cumulative IPC: 2.894 (Simulation time: 00 hr 13 min 10 sec)
Heartbeat CPU 0 instructions: 187001044 cycles: 57341782 heartbeat IPC: 2.898 cumulative IPC: 2.894 (Simulation time: 00 hr 13 min 12 sec)
Heartbeat CPU 0 instructions: 187501046 cycles: 57514348 heartbeat IPC: 2.897 cumulative IPC: 2.894 (Simulation time: 00 hr 13 min 15 sec)
Heartbeat CPU 0 instructions: 188001047 cycles: 57687215 heartbeat IPC: 2.892 cumulative IPC: 2.894 (Simulation time: 00 hr 13 min 17 sec)
Heartbeat CPU 0 instructions: 188501053 cycles: 57860018 heartbeat IPC: 2.894 cumulative IPC: 2.894 (Simulation time: 00 hr 13 min 19 sec)
Heartbeat CPU 0 instructions: 189001053 cycles: 58032827 heartbeat IPC: 2.893 cumulative IPC: 2.894 (Simulation time: 00 hr 13 min 21 sec)
Heartbeat CPU 0 instructions: 189501058 cycles: 58205344 heartbeat IPC: 2.898 cumulative IPC: 2.894 (Simulation time: 00 hr 13 min 24 sec)
Heartbeat CPU 0 instructions: 190001059 cycles: 58378297 heartbeat IPC: 2.891 cumulative IPC: 2.894 (Simulation time: 00 hr 13 min 26 sec)
Heartbeat CPU 0 instructions: 190501065 cycles: 58551314 heartbeat IPC: 2.89 cumulative IPC: 2.894 (Simulation time: 00 hr 13 min 28 sec)
Heartbeat CPU 0 instructions: 191001069 cycles: 58724168 heartbeat IPC: 2.893 cumulative IPC: 2.894 (Simulation time: 00 hr 13 min 30 sec)
Heartbeat CPU 0 instructions: 191501069 cycles: 58896982 heartbeat IPC: 2.893 cumulative IPC: 2.894 (Simulation time: 00 hr 13 min 33 sec)
Heartbeat CPU 0 instructions: 192001069 cycles: 59069669 heartbeat IPC: 2.895 cumulative IPC: 2.894 (Simulation time: 00 hr 13 min 35 sec)
Heartbeat CPU 0 instructions: 192501073 cycles: 59242232 heartbeat IPC: 2.898 cumulative IPC: 2.894 (Simulation time: 00 hr 13 min 37 sec)
Heartbeat CPU 0 instructions: 193001075 cycles: 59414933 heartbeat IPC: 2.895 cumulative IPC: 2.894 (Simulation time: 00 hr 13 min 39 sec)
Heartbeat CPU 0 instructions: 193501078 cycles: 59587809 heartbeat IPC: 2.892 cumulative IPC: 2.894 (Simulation time: 00 hr 13 min 42 sec)
Heartbeat CPU 0 instructions: 194001080 cycles: 59760442 heartbeat IPC: 2.896 cumulative IPC: 2.894 (Simulation time: 00 hr 13 min 44 sec)
Heartbeat CPU 0 instructions: 194501082 cycles: 59933111 heartbeat IPC: 2.896 cumulative IPC: 2.894 (Simulation time: 00 hr 13 min 46 sec)
Heartbeat CPU 0 instructions: 195001084 cycles: 60105853 heartbeat IPC: 2.895 cumulative IPC: 2.894 (Simulation time: 00 hr 13 min 48 sec)
Heartbeat CPU 0 instructions: 195501085 cycles: 60278514 heartbeat IPC: 2.896 cumulative IPC: 2.894 (Simulation time: 00 hr 13 min 51 sec)
Heartbeat CPU 0 instructions: 196001085 cycles: 60451447 heartbeat IPC: 2.891 cumulative IPC: 2.894 (Simulation time: 00 hr 13 min 53 sec)
Heartbeat CPU 0 instructions: 196501090 cycles: 60623901 heartbeat IPC: 2.899 cumulative IPC: 2.894 (Simulation time: 00 hr 13 min 55 sec)
Heartbeat CPU 0 instructions: 197001092 cycles: 60796593 heartbeat IPC: 2.895 cumulative IPC: 2.894 (Simulation time: 00 hr 13 min 57 sec)
Heartbeat CPU 0 instructions: 197501094 cycles: 60969910 heartbeat IPC: 2.885 cumulative IPC: 2.894 (Simulation time: 00 hr 14 min 00 sec)
Heartbeat CPU 0 instructions: 198001098 cycles: 61142458 heartbeat IPC: 2.898 cumulative IPC: 2.894 (Simulation time: 00 hr 14 min 02 sec)
Heartbeat CPU 0 instructions: 198501103 cycles: 61315025 heartbeat IPC: 2.897 cumulative IPC: 2.894 (Simulation time: 00 hr 14 min 04 sec)
Heartbeat CPU 0 instructions: 199001104 cycles: 61487952 heartbeat IPC: 2.891 cumulative IPC: 2.894 (Simulation time: 00 hr 14 min 06 sec)
Heartbeat CPU 0 instructions: 199501106 cycles: 61660708 heartbeat IPC: 2.894 cumulative IPC: 2.894 (Simulation time: 00 hr 14 min 09 sec)
Heartbeat CPU 0 instructions: 200001113 cycles: 61833297 heartbeat IPC: 2.897 cumulative IPC: 2.894 (Simulation time: 00 hr 14 min 11 sec)
Heartbeat CPU 0 instructions: 200501114 cycles: 62006287 heartbeat IPC: 2.89 cumulative IPC: 2.894 (Simulation time: 00 hr 14 min 13 sec)
Heartbeat CPU 0 instructions: 201001116 cycles: 62179031 heartbeat IPC: 2.894 cumulative IPC: 2.894 (Simulation time: 00 hr 14 min 15 sec)
Heartbeat CPU 0 instructions: 201501121 cycles: 62351719 heartbeat IPC: 2.895 cumulative IPC: 2.894 (Simulation time: 00 hr 14 min 18 sec)
Heartbeat CPU 0 instructions: 202001121 cycles: 62524272 heartbeat IPC: 2.898 cumulative IPC: 2.894 (Simulation time: 00 hr 14 min 20 sec)
Heartbeat CPU 0 instructions: 202501121 cycles: 62697372 heartbeat IPC: 2.889 cumulative IPC: 2.894 (Simulation time: 00 hr 14 min 22 sec)
Heartbeat CPU 0 instructions: 203001126 cycles: 62870081 heartbeat IPC: 2.895 cumulative IPC: 2.894 (Simulation time: 00 hr 14 min 25 sec)
Heartbeat CPU 0 instructions: 203501126 cycles: 63042923 heartbeat IPC: 2.893 cumulative IPC: 2.894 (Simulation time: 00 hr 14 min 27 sec)
Heartbeat CPU 0 instructions: 204001127 cycles: 63215510 heartbeat IPC: 2.897 cumulative IPC: 2.894 (Simulation time: 00 hr 14 min 29 sec)
Heartbeat CPU 0 instructions: 204501129 cycles: 63388210 heartbeat IPC: 2.895 cumulative IPC: 2.894 (Simulation time: 00 hr 14 min 31 sec)
Heartbeat CPU 0 instructions: 205001130 cycles: 63561179 heartbeat IPC: 2.891 cumulative IPC: 2.894 (Simulation time: 00 hr 14 min 34 sec)
Heartbeat CPU 0 instructions: 205501132 cycles: 63734064 heartbeat IPC: 2.892 cumulative IPC: 2.894 (Simulation time: 00 hr 14 min 36 sec)
Heartbeat CPU 0 instructions: 206001137 cycles: 63906642 heartbeat IPC: 2.897 cumulative IPC: 2.894 (Simulation time: 00 hr 14 min 38 sec)
Heartbeat CPU 0 instructions: 206501139 cycles: 64078955 heartbeat IPC: 2.902 cumulative IPC: 2.894 (Simulation time: 00 hr 14 min 40 sec)
Heartbeat CPU 0 instructions: 207001139 cycles: 64251547 heartbeat IPC: 2.897 cumulative IPC: 2.894 (Simulation time: 00 hr 14 min 43 sec)
Heartbeat CPU 0 instructions: 207501139 cycles: 64423988 heartbeat IPC: 2.9 cumulative IPC: 2.894 (Simulation time: 00 hr 14 min 45 sec)
Heartbeat CPU 0 instructions: 208001139 cycles: 64596499 heartbeat IPC: 2.898 cumulative IPC: 2.894 (Simulation time: 00 hr 14 min 47 sec)
Heartbeat CPU 0 instructions: 208501140 cycles: 64769379 heartbeat IPC: 2.892 cumulative IPC: 2.894 (Simulation time: 00 hr 14 min 49 sec)
Heartbeat CPU 0 instructions: 209001141 cycles: 64942248 heartbeat IPC: 2.892 cumulative IPC: 2.894 (Simulation time: 00 hr 14 min 52 sec)
Heartbeat CPU 0 instructions: 209501142 cycles: 65114913 heartbeat IPC: 2.896 cumulative IPC: 2.894 (Simulation time: 00 hr 14 min 54 sec)
Heartbeat CPU 0 instructions: 210001147 cycles: 65287513 heartbeat IPC: 2.897 cumulative IPC: 2.894 (Simulation time: 00 hr 14 min 56 sec)
Heartbeat CPU 0 instructions: 210501147 cycles: 65460336 heartbeat IPC: 2.893 cumulative IPC: 2.894 (Simulation time: 00 hr 14 min 58 sec)
Heartbeat CPU 0 instructions: 211001147 cycles: 65632836 heartbeat IPC: 2.899 cumulative IPC: 2.894 (Simulation time: 00 hr 15 min 00 sec)
Heartbeat CPU 0 instructions: 211501147 cycles: 65805588 heartbeat IPC: 2.894 cumulative IPC: 2.894 (Simulation time: 00 hr 15 min 03 sec)
Heartbeat CPU 0 instructions: 212001148 cycles: 65978149 heartbeat IPC: 2.898 cumulative IPC: 2.894 (Simulation time: 00 hr 15 min 05 sec)
Heartbeat CPU 0 instructions: 212501154 cycles: 66151052 heartbeat IPC: 2.892 cumulative IPC: 2.894 (Simulation time: 00 hr 15 min 07 sec)
Heartbeat CPU 0 instructions: 213001157 cycles: 66323883 heartbeat IPC: 2.893 cumulative IPC: 2.894 (Simulation time: 00 hr 15 min 09 sec)
Heartbeat CPU 0 instructions: 213501157 cycles: 66496501 heartbeat IPC: 2.897 cumulative IPC: 2.894 (Simulation time: 00 hr 15 min 12 sec)
Heartbeat CPU 0 instructions: 214001158 cycles: 66669133 heartbeat IPC: 2.896 cumulative IPC: 2.894 (Simulation time: 00 hr 15 min 14 sec)
Heartbeat CPU 0 instructions: 214501158 cycles: 66841639 heartbeat IPC: 2.898 cumulative IPC: 2.894 (Simulation time: 00 hr 15 min 16 sec)
Heartbeat CPU 0 instructions: 215001161 cycles: 67014247 heartbeat IPC: 2.897 cumulative IPC: 2.894 (Simulation time: 00 hr 15 min 19 sec)
Heartbeat CPU 0 instructions: 215501161 cycles: 67187003 heartbeat IPC: 2.894 cumulative IPC: 2.894 (Simulation time: 00 hr 15 min 21 sec)
Heartbeat CPU 0 instructions: 216001161 cycles: 67359847 heartbeat IPC: 2.893 cumulative IPC: 2.894 (Simulation time: 00 hr 15 min 23 sec)
Heartbeat CPU 0 instructions: 216501163 cycles: 67532469 heartbeat IPC: 2.897 cumulative IPC: 2.894 (Simulation time: 00 hr 15 min 25 sec)
Heartbeat CPU 0 instructions: 217001164 cycles: 67705221 heartbeat IPC: 2.894 cumulative IPC: 2.894 (Simulation time: 00 hr 15 min 28 sec)
Heartbeat CPU 0 instructions: 217501166 cycles: 68059117 heartbeat IPC: 1.413 cumulative IPC: 2.885 (Simulation time: 00 hr 15 min 31 sec)
Heartbeat CPU 0 instructions: 218001166 cycles: 69369375 heartbeat IPC: 0.3816 cumulative IPC: 2.83 (Simulation time: 00 hr 15 min 44 sec)
Heartbeat CPU 0 instructions: 218501166 cycles: 71250890 heartbeat IPC: 0.2657 cumulative IPC: 2.751 (Simulation time: 00 hr 16 min 02 sec)
Heartbeat CPU 0 instructions: 219001166 cycles: 73414315 heartbeat IPC: 0.2311 cumulative IPC: 2.665 (Simulation time: 00 hr 16 min 23 sec)
Heartbeat CPU 0 instructions: 219501166 cycles: 75411550 heartbeat IPC: 0.2503 cumulative IPC: 2.591 (Simulation time: 00 hr 16 min 43 sec)
Heartbeat CPU 0 instructions: 220001166 cycles: 77489254 heartbeat IPC: 0.2407 cumulative IPC: 2.519 (Simulation time: 00 hr 17 min 03 sec)
Heartbeat CPU 0 instructions: 220501166 cycles: 79545572 heartbeat IPC: 0.2432 cumulative IPC: 2.452 (Simulation time: 00 hr 17 min 22 sec)
Heartbeat CPU 0 instructions: 221001166 cycles: 81482450 heartbeat IPC: 0.2581 cumulative IPC: 2.392 (Simulation time: 00 hr 17 min 41 sec)
Heartbeat CPU 0 instructions: 221501166 cycles: 83577015 heartbeat IPC: 0.2387 cumulative IPC: 2.331 (Simulation time: 00 hr 18 min 01 sec)
Heartbeat CPU 0 instructions: 222001166 cycles: 85590876 heartbeat IPC: 0.2483 cumulative IPC: 2.276 (Simulation time: 00 hr 18 min 21 sec)
Heartbeat CPU 0 instructions: 222501166 cycles: 87600485 heartbeat IPC: 0.2488 cumulative IPC: 2.223 (Simulation time: 00 hr 18 min 40 sec)
Heartbeat CPU 0 instructions: 223001166 cycles: 89603914 heartbeat IPC: 0.2496 cumulative IPC: 2.173 (Simulation time: 00 hr 18 min 59 sec)
Heartbeat CPU 0 instructions: 223501166 cycles: 91603875 heartbeat IPC: 0.25 cumulative IPC: 2.126 (Simulation time: 00 hr 19 min 19 sec)
Heartbeat CPU 0 instructions: 224001166 cycles: 93585345 heartbeat IPC: 0.2523 cumulative IPC: 2.082 (Simulation time: 00 hr 19 min 38 sec)
Heartbeat CPU 0 instructions: 224501166 cycles: 95618169 heartbeat IPC: 0.246 cumulative IPC: 2.038 (Simulation time: 00 hr 19 min 57 sec)
Heartbeat CPU 0 instructions: 225001166 cycles: 97604395 heartbeat IPC: 0.2517 cumulative IPC: 1.998 (Simulation time: 00 hr 20 min 17 sec)
Heartbeat CPU 0 instructions: 225501166 cycles: 99612355 heartbeat IPC: 0.249 cumulative IPC: 1.959 (Simulation time: 00 hr 20 min 36 sec)
Heartbeat CPU 0 instructions: 226001166 cycles: 101586114 heartbeat IPC: 0.2533 cumulative IPC: 1.922 (Simulation time: 00 hr 20 min 55 sec)
Heartbeat CPU 0 instructions: 226501166 cycles: 103616125 heartbeat IPC: 0.2463 cumulative IPC: 1.885 (Simulation time: 00 hr 21 min 15 sec)
Heartbeat CPU 0 instructions: 227001166 cycles: 105623336 heartbeat IPC: 0.2491 cumulative IPC: 1.851 (Simulation time: 00 hr 21 min 34 sec)
Heartbeat CPU 0 instructions: 227501166 cycles: 107613079 heartbeat IPC: 0.2513 cumulative IPC: 1.818 (Simulation time: 00 hr 21 min 53 sec)
Heartbeat CPU 0 instructions: 228001166 cycles: 109601265 heartbeat IPC: 0.2515 cumulative IPC: 1.787 (Simulation time: 00 hr 22 min 12 sec)
Heartbeat CPU 0 instructions: 228501166 cycles: 111603207 heartbeat IPC: 0.2498 cumulative IPC: 1.757 (Simulation time: 00 hr 22 min 31 sec)
Heartbeat CPU 0 instructions: 229001166 cycles: 113626830 heartbeat IPC: 0.2471 cumulative IPC: 1.727 (Simulation time: 00 hr 22 min 51 sec)
Heartbeat CPU 0 instructions: 229501166 cycles: 115629744 heartbeat IPC: 0.2496 cumulative IPC: 1.699 (Simulation time: 00 hr 23 min 10 sec)
Heartbeat CPU 0 instructions: 230001166 cycles: 117651389 heartbeat IPC: 0.2473 cumulative IPC: 1.672 (Simulation time: 00 hr 23 min 29 sec)
Heartbeat CPU 0 instructions: 230501166 cycles: 119661275 heartbeat IPC: 0.2488 cumulative IPC: 1.646 (Simulation time: 00 hr 23 min 49 sec)
Heartbeat CPU 0 instructions: 231001166 cycles: 121633444 heartbeat IPC: 0.2535 cumulative IPC: 1.621 (Simulation time: 00 hr 24 min 07 sec)
Heartbeat CPU 0 instructions: 231501166 cycles: 123611144 heartbeat IPC: 0.2528 cumulative IPC: 1.598 (Simulation time: 00 hr 24 min 26 sec)
Heartbeat CPU 0 instructions: 232001166 cycles: 125642225 heartbeat IPC: 0.2462 cumulative IPC: 1.574 (Simulation time: 00 hr 24 min 46 sec)
Heartbeat CPU 0 instructions: 232501166 cycles: 127629550 heartbeat IPC: 0.2516 cumulative IPC: 1.552 (Simulation time: 00 hr 25 min 05 sec)
Heartbeat CPU 0 instructions: 233001166 cycles: 129634400 heartbeat IPC: 0.2494 cumulative IPC: 1.53 (Simulation time: 00 hr 25 min 24 sec)
Heartbeat CPU 0 instructions: 233501166 cycles: 131649010 heartbeat IPC: 0.2482 cumulative IPC: 1.508 (Simulation time: 00 hr 25 min 43 sec)
Heartbeat CPU 0 instructions: 234001166 cycles: 133650385 heartbeat IPC: 0.2498 cumulative IPC: 1.488 (Simulation time: 00 hr 26 min 02 sec)
Heartbeat CPU 0 instructions: 234501166 cycles: 135636335 heartbeat IPC: 0.2518 cumulative IPC: 1.469 (Simulation time: 00 hr 26 min 21 sec)
Heartbeat CPU 0 instructions: 235001166 cycles: 137623826 heartbeat IPC: 0.2516 cumulative IPC: 1.45 (Simulation time: 00 hr 26 min 40 sec)
Heartbeat CPU 0 instructions: 235501166 cycles: 139645384 heartbeat IPC: 0.2473 cumulative IPC: 1.431 (Simulation time: 00 hr 26 min 59 sec)
Heartbeat CPU 0 instructions: 236001166 cycles: 141629513 heartbeat IPC: 0.252 cumulative IPC: 1.413 (Simulation time: 00 hr 27 min 18 sec)
Heartbeat CPU 0 instructions: 236501166 cycles: 143602337 heartbeat IPC: 0.2534 cumulative IPC: 1.396 (Simulation time: 00 hr 27 min 36 sec)
Heartbeat CPU 0 instructions: 237001166 cycles: 145632164 heartbeat IPC: 0.2463 cumulative IPC: 1.379 (Simulation time: 00 hr 27 min 55 sec)
Heartbeat CPU 0 instructions: 237501166 cycles: 147654110 heartbeat IPC: 0.2473 cumulative IPC: 1.362 (Simulation time: 00 hr 28 min 14 sec)
Heartbeat CPU 0 instructions: 238001166 cycles: 149642060 heartbeat IPC: 0.2515 cumulative IPC: 1.346 (Simulation time: 00 hr 28 min 33 sec)
Heartbeat CPU 0 instructions: 238501166 cycles: 151328245 heartbeat IPC: 0.2965 cumulative IPC: 1.334 (Simulation time: 00 hr 28 min 49 sec)
Heartbeat CPU 0 instructions: 239001166 cycles: 151504883 heartbeat IPC: 2.831 cumulative IPC: 1.336 (Simulation time: 00 hr 28 min 51 sec)
Heartbeat CPU 0 instructions: 239501167 cycles: 151684386 heartbeat IPC: 2.785 cumulative IPC: 1.338 (Simulation time: 00 hr 28 min 53 sec)
Heartbeat CPU 0 instructions: 240001167 cycles: 151861329 heartbeat IPC: 2.826 cumulative IPC: 1.339 (Simulation time: 00 hr 28 min 55 sec)
Heartbeat CPU 0 instructions: 240501173 cycles: 152037343 heartbeat IPC: 2.841 cumulative IPC: 1.341 (Simulation time: 00 hr 28 min 58 sec)
Heartbeat CPU 0 instructions: 241001178 cycles: 152213437 heartbeat IPC: 2.839 cumulative IPC: 1.343 (Simulation time: 00 hr 29 min 00 sec)
Heartbeat CPU 0 instructions: 241501178 cycles: 152389642 heartbeat IPC: 2.838 cumulative IPC: 1.345 (Simulation time: 00 hr 29 min 02 sec)
Heartbeat CPU 0 instructions: 242001178 cycles: 152565618 heartbeat IPC: 2.841 cumulative IPC: 1.347 (Simulation time: 00 hr 29 min 04 sec)
Heartbeat CPU 0 instructions: 242501179 cycles: 152742002 heartbeat IPC: 2.835 cumulative IPC: 1.349 (Simulation time: 00 hr 29 min 06 sec)
Heartbeat CPU 0 instructions: 243001186 cycles: 152917830 heartbeat IPC: 2.844 cumulative IPC: 1.35 (Simulation time: 00 hr 29 min 09 sec)
Heartbeat CPU 0 instructions: 243501186 cycles: 153094186 heartbeat IPC: 2.835 cumulative IPC: 1.352 (Simulation time: 00 hr 29 min 11 sec)
Heartbeat CPU 0 instructions: 244001186 cycles: 153270131 heartbeat IPC: 2.842 cumulative IPC: 1.354 (Simulation time: 00 hr 29 min 13 sec)
Heartbeat CPU 0 instructions: 244501192 cycles: 153446186 heartbeat IPC: 2.84 cumulative IPC: 1.356 (Simulation time: 00 hr 29 min 15 sec)
Heartbeat CPU 0 instructions: 245001192 cycles: 153622630 heartbeat IPC: 2.834 cumulative IPC: 1.358 (Simulation time: 00 hr 29 min 17 sec)
Heartbeat CPU 0 instructions: 245501192 cycles: 153798908 heartbeat IPC: 2.836 cumulative IPC: 1.36 (Simulation time: 00 hr 29 min 20 sec)
Heartbeat CPU 0 instructions: 246001196 cycles: 153975259 heartbeat IPC: 2.835 cumulative IPC: 1.361 (Simulation time: 00 hr 29 min 22 sec)
Heartbeat CPU 0 instructions: 246501196 cycles: 154151852 heartbeat IPC: 2.831 cumulative IPC: 1.363 (Simulation time: 00 hr 29 min 24 sec)
Heartbeat CPU 0 instructions: 247001198 cycles: 154327912 heartbeat IPC: 2.84 cumulative IPC: 1.365 (Simulation time: 00 hr 29 min 26 sec)
Heartbeat CPU 0 instructions: 247501205 cycles: 154503633 heartbeat IPC: 2.845 cumulative IPC: 1.367 (Simulation time: 00 hr 29 min 28 sec)
Heartbeat CPU 0 instructions: 248001207 cycles: 154680173 heartbeat IPC: 2.832 cumulative IPC: 1.369 (Simulation time: 00 hr 29 min 31 sec)
Heartbeat CPU 0 instructions: 248501207 cycles: 154856413 heartbeat IPC: 2.837 cumulative IPC: 1.37 (Simulation time: 00 hr 29 min 33 sec)
Heartbeat CPU 0 instructions: 249001207 cycles: 155033202 heartbeat IPC: 2.828 cumulative IPC: 1.372 (Simulation time: 00 hr 29 min 35 sec)
Heartbeat CPU 0 instructions: 249501210 cycles: 155209627 heartbeat IPC: 2.834 cumulative IPC: 1.374 (Simulation time: 00 hr 29 min 37 sec)
Simulation finished CPU 0 instructions: 200000003 cycles: 145381593 cumulative IPC: 1.376 (Simulation time: 00 hr 29 min 39 sec)
Simulation complete CPU 0 instructions: 200000003 cycles: 145381593 cumulative IPC: 1.376 (Simulation time: 00 hr 29 min 39 sec)

ChampSim completed all CPUs

=== Simulation ===
CPU 0 runs /local-ssd/ben/dpc4-traces/Graph/GMS/gms.k_clique_count_set_based.soc-pokec-relationships.slice-4.champsimtrace.gz

Region of Interest Statistics

CPU 0 cumulative IPC: 1.376 instructions: 200000003 cycles: 145381593
CPU 0 Branch Prediction Accuracy: 99.3% MPKI: 1.499 Average ROB Occupancy at Mispredict: 302.7
Branch type MPKI
BRANCH_DIRECT_JUMP: 0.000125
BRANCH_INDIRECT: 0
BRANCH_CONDITIONAL: 1.498
BRANCH_DIRECT_CALL: 0.000135
BRANCH_INDIRECT_CALL: 5e-06
BRANCH_RETURN: 0.00014

cpu0->cpu0_STLB TOTAL        ACCESS:      16820 HIT:         83 MISS:      16737 MSHR_MERGE:          0
cpu0->cpu0_STLB LOAD         ACCESS:      16820 HIT:         83 MISS:      16737 MSHR_MERGE:          0
cpu0->cpu0_STLB RFO          ACCESS:          0 HIT:          0 MISS:          0 MSHR_MERGE:          0
cpu0->cpu0_STLB PREFETCH     ACCESS:          0 HIT:          0 MISS:          0 MSHR_MERGE:          0
cpu0->cpu0_STLB WRITE        ACCESS:          0 HIT:          0 MISS:          0 MSHR_MERGE:          0
cpu0->cpu0_STLB TRANSLATION  ACCESS:          0 HIT:          0 MISS:          0 MSHR_MERGE:          0
cpu0->cpu0_STLB PREFETCH REQUESTED:          0 ISSUED:          0 USEFUL:          0 USELESS:          0
cpu0->cpu0_STLB AVERAGE MISS LATENCY: 410.1 cycles
cpu0->cpu0_L2C TOTAL        ACCESS:    3663149 HIT:    1929112 MISS:    1734037 MSHR_MERGE:     663903
cpu0->cpu0_L2C LOAD         ACCESS:     381789 HIT:     271774 MISS:     110015 MSHR_MERGE:      94709
cpu0->cpu0_L2C RFO          ACCESS:     543014 HIT:         30 MISS:     542984 MSHR_MERGE:          0
cpu0->cpu0_L2C PREFETCH     ACCESS:    2193126 HIT:    1114251 MISS:    1078875 MSHR_MERGE:     569194
cpu0->cpu0_L2C WRITE        ACCESS:     543049 HIT:     543049 MISS:          0 MSHR_MERGE:          0
cpu0->cpu0_L2C TRANSLATION  ACCESS:       2171 HIT:          8 MISS:       2163 MSHR_MERGE:          0
cpu0->cpu0_L2C PREFETCH REQUESTED:    2073382 ISSUED:    2050113 USEFUL:     440467 USELESS:      35960
cpu0->cpu0_L2C AVERAGE MISS LATENCY: 1766 cycles
cpu0->cpu0_L1I TOTAL        ACCESS:   19208898 HIT:   19208759 MISS:        139 MSHR_MERGE:          3
cpu0->cpu0_L1I LOAD         ACCESS:   19208898 HIT:   19208759 MISS:        139 MSHR_MERGE:          3
cpu0->cpu0_L1I RFO          ACCESS:          0 HIT:          0 MISS:          0 MSHR_MERGE:          0
cpu0->cpu0_L1I PREFETCH     ACCESS:          0 HIT:          0 MISS:          0 MSHR_MERGE:          0
cpu0->cpu0_L1I WRITE        ACCESS:          0 HIT:          0 MISS:          0 MSHR_MERGE:          0
cpu0->cpu0_L1I TRANSLATION  ACCESS:          0 HIT:          0 MISS:          0 MSHR_MERGE:          0
cpu0->cpu0_L1I PREFETCH REQUESTED:          0 ISSUED:          0 USEFUL:          0 USELESS:          0
cpu0->cpu0_L1I AVERAGE MISS LATENCY: 362 cycles
cpu0->cpu0_L1D TOTAL        ACCESS:   52961589 HIT:   47754703 MISS:    5206886 MSHR_MERGE:    4137035
cpu0->cpu0_L1D LOAD         ACCESS:   24143262 HIT:   23359483 MISS:     783779 MSHR_MERGE:     402126
cpu0->cpu0_L1D RFO          ACCESS:          0 HIT:          0 MISS:          0 MSHR_MERGE:          0
cpu0->cpu0_L1D PREFETCH     ACCESS:     414134 HIT:     206803 MISS:     207331 MSHR_MERGE:      64318
cpu0->cpu0_L1D WRITE        ACCESS:   28370669 HIT:   24157064 MISS:    4213605 MSHR_MERGE:    3670591
cpu0->cpu0_L1D TRANSLATION  ACCESS:      33524 HIT:      31353 MISS:       2171 MSHR_MERGE:          0
cpu0->cpu0_L1D PREFETCH REQUESTED:    8906275 ISSUED:     414126 USEFUL:     142876 USELESS:        131
cpu0->cpu0_L1D AVERAGE MISS LATENCY: 1249 cycles
cpu0->cpu0_ITLB TOTAL        ACCESS:   14916663 HIT:   14916642 MISS:         21 MSHR_MERGE:          3
cpu0->cpu0_ITLB LOAD         ACCESS:   14916663 HIT:   14916642 MISS:         21 MSHR_MERGE:          3
cpu0->cpu0_ITLB RFO          ACCESS:          0 HIT:          0 MISS:          0 MSHR_MERGE:          0
cpu0->cpu0_ITLB PREFETCH     ACCESS:          0 HIT:          0 MISS:          0 MSHR_MERGE:          0
cpu0->cpu0_ITLB WRITE        ACCESS:          0 HIT:          0 MISS:          0 MSHR_MERGE:          0
cpu0->cpu0_ITLB TRANSLATION  ACCESS:          0 HIT:          0 MISS:          0 MSHR_MERGE:          0
cpu0->cpu0_ITLB PREFETCH REQUESTED:          0 ISSUED:          0 USEFUL:          0 USELESS:          0
cpu0->cpu0_ITLB AVERAGE MISS LATENCY: 449.8 cycles
cpu0->cpu0_DTLB TOTAL        ACCESS:   47517812 HIT:   47301139 MISS:     216673 MSHR_MERGE:     199871
cpu0->cpu0_DTLB LOAD         ACCESS:   47517812 HIT:   47301139 MISS:     216673 MSHR_MERGE:     199871
cpu0->cpu0_DTLB RFO          ACCESS:          0 HIT:          0 MISS:          0 MSHR_MERGE:          0
cpu0->cpu0_DTLB PREFETCH     ACCESS:          0 HIT:          0 MISS:          0 MSHR_MERGE:          0
cpu0->cpu0_DTLB WRITE        ACCESS:          0 HIT:          0 MISS:          0 MSHR_MERGE:          0
cpu0->cpu0_DTLB TRANSLATION  ACCESS:          0 HIT:          0 MISS:          0 MSHR_MERGE:          0
cpu0->cpu0_DTLB PREFETCH REQUESTED:          0 ISSUED:          0 USEFUL:          0 USELESS:          0
cpu0->cpu0_DTLB AVERAGE MISS LATENCY: 414 cycles
cpu0->LLC TOTAL        ACCESS:    2108039 HIT:     358750 MISS:    1749289 MSHR_MERGE:     253896
cpu0->LLC LOAD         ACCESS:      15306 HIT:       2582 MISS:      12724 MSHR_MERGE:        881
cpu0->LLC RFO          ACCESS:     542984 HIT:          0 MISS:     542984 MSHR_MERGE:          0
cpu0->LLC PREFETCH     ACCESS:    1016507 HIT:     250091 MISS:     766416 MSHR_MERGE:     253015
cpu0->LLC WRITE        ACCESS:     531079 HIT:     106073 MISS:     425006 MSHR_MERGE:          0
cpu0->LLC TRANSLATION  ACCESS:       2163 HIT:          4 MISS:       2159 MSHR_MERGE:          0
cpu0->LLC PREFETCH REQUESTED:     506949 ISSUED:     506826 USEFUL:     253523 USELESS:     218079
cpu0->LLC AVERAGE MISS LATENCY: 997.1 cycles

DRAM Statistics

Channel 0 RQ ROW_BUFFER_HIT:      21074
  ROW_BUFFER_MISS:    1049313
  AVG DBUS CONGESTED CYCLE: 4.063
Channel 0 WQ ROW_BUFFER_HIT:       3536
  ROW_BUFFER_MISS:     512902
  FULL:      11245
Channel 0 REFRESHES ISSUED:      12115
