[VMEM] WARNING: physical memory size is smaller than virtual memory size.

*** ChampSim Multicore Out-of-Order Simulator ***
Warmup Instructions: 50000000
Simulation Instructions: 200000000
Number of CPUs: 1
Page size: 4096
Core 0: /local-ssd/ben/dpc4-traces/Graph/GMS/gms.k_clique_list_danisch_edge_parallel.soc-pokec-relationships.slice-367.champsimtrace.gz
sBerti (Smart Stride + Berti) Prefetcher Initialized
Off-chip DRAM Size: 64 GiB Channels: 1 Width: 64-bit Data Rate: 800 MT/s
Heartbeat CPU 0 instructions: 500000 cycles: 153113 heartbeat IPC: 3.266 cumulative IPC: 3.266 (Simulation time: 00 hr 00 min 02 sec)
Heartbeat CPU 0 instructions: 1000006 cycles: 327335 heartbeat IPC: 2.87 cumulative IPC: 3.055 (Simulation time: 00 hr 00 min 05 sec)
Heartbeat CPU 0 instructions: 1500009 cycles: 472720 heartbeat IPC: 3.439 cumulative IPC: 3.173 (Simulation time: 00 hr 00 min 07 sec)
Heartbeat CPU 0 instructions: 2000010 cycles: 605329 heartbeat IPC: 3.77 cumulative IPC: 3.304 (Simulation time: 00 hr 00 min 09 sec)
Heartbeat CPU 0 instructions: 2500011 cycles: 740346 heartbeat IPC: 3.703 cumulative IPC: 3.377 (Simulation time: 00 hr 00 min 11 sec)
Heartbeat CPU 0 instructions: 3000016 cycles: 852008 heartbeat IPC: 4.478 cumulative IPC: 3.521 (Simulation time: 00 hr 00 min 13 sec)
Heartbeat CPU 0 instructions: 3500018 cycles: 960530 heartbeat IPC: 4.607 cumulative IPC: 3.644 (Simulation time: 00 hr 00 min 15 sec)
Heartbeat CPU 0 instructions: 4000020 cycles: 1073081 heartbeat IPC: 4.442 cumulative IPC: 3.728 (Simulation time: 00 hr 00 min 17 sec)
Heartbeat CPU 0 instructions: 4500026 cycles: 1178833 heartbeat IPC: 4.728 cumulative IPC: 3.817 (Simulation time: 00 hr 00 min 19 sec)
Heartbeat CPU 0 instructions: 5000029 cycles: 1288795 heartbeat IPC: 4.547 cumulative IPC: 3.88 (Simulation time: 00 hr 00 min 21 sec)
Heartbeat CPU 0 instructions: 5500029 cycles: 1398797 heartbeat IPC: 4.545 cumulative IPC: 3.932 (Simulation time: 00 hr 00 min 23 sec)
Heartbeat CPU 0 instructions: 6000034 cycles: 1512386 heartbeat IPC: 4.402 cumulative IPC: 3.967 (Simulation time: 00 hr 00 min 25 sec)
Heartbeat CPU 0 instructions: 6500039 cycles: 1625037 heartbeat IPC: 4.439 cumulative IPC: 4 (Simulation time: 00 hr 00 min 27 sec)
Heartbeat CPU 0 instructions: 7000042 cycles: 1744006 heartbeat IPC: 4.203 cumulative IPC: 4.014 (Simulation time: 00 hr 00 min 29 sec)
Heartbeat CPU 0 instructions: 7500046 cycles: 1863683 heartbeat IPC: 4.178 cumulative IPC: 4.024 (Simulation time: 00 hr 00 min 31 sec)
Heartbeat CPU 0 instructions: 8000048 cycles: 1988933 heartbeat IPC: 3.992 cumulative IPC: 4.022 (Simulation time: 00 hr 00 min 33 sec)
Heartbeat CPU 0 instructions: 8500049 cycles: 2125832 heartbeat IPC: 3.652 cumulative IPC: 3.998 (Simulation time: 00 hr 00 min 36 sec)
Heartbeat CPU 0 instructions: 9000053 cycles: 2260493 heartbeat IPC: 3.713 cumulative IPC: 3.981 (Simulation time: 00 hr 00 min 38 sec)
Heartbeat CPU 0 instructions: 9500055 cycles: 2393102 heartbeat IPC: 3.77 cumulative IPC: 3.97 (Simulation time: 00 hr 00 min 40 sec)
Heartbeat CPU 0 instructions: 10000061 cycles: 2526724 heartbeat IPC: 3.742 cumulative IPC: 3.958 (Simulation time: 00 hr 00 min 42 sec)
Heartbeat CPU 0 instructions: 10500063 cycles: 2650510 heartbeat IPC: 4.039 cumulative IPC: 3.962 (Simulation time: 00 hr 00 min 44 sec)
Heartbeat CPU 0 instructions: 11000067 cycles: 2775148 heartbeat IPC: 4.012 cumulative IPC: 3.964 (Simulation time: 00 hr 00 min 47 sec)
Heartbeat CPU 0 instructions: 11500073 cycles: 2901215 heartbeat IPC: 3.966 cumulative IPC: 3.964 (Simulation time: 00 hr 00 min 49 sec)
Heartbeat CPU 0 instructions: 12000073 cycles: 3027039 heartbeat IPC: 3.974 cumulative IPC: 3.964 (Simulation time: 00 hr 00 min 51 sec)
Heartbeat CPU 0 instructions: 12500080 cycles: 3159240 heartbeat IPC: 3.782 cumulative IPC: 3.957 (Simulation time: 00 hr 00 min 53 sec)
Heartbeat CPU 0 instructions: 13000087 cycles: 3287844 heartbeat IPC: 3.888 cumulative IPC: 3.954 (Simulation time: 00 hr 00 min 55 sec)
Heartbeat CPU 0 instructions: 13500090 cycles: 3417516 heartbeat IPC: 3.856 cumulative IPC: 3.95 (Simulation time: 00 hr 00 min 57 sec)
Heartbeat CPU 0 instructions: 14000093 cycles: 3546963 heartbeat IPC: 3.863 cumulative IPC: 3.947 (Simulation time: 00 hr 00 min 59 sec)
Heartbeat CPU 0 instructions: 14500099 cycles: 3680389 heartbeat IPC: 3.747 cumulative IPC: 3.94 (Simulation time: 00 hr 01 min 01 sec)
Heartbeat CPU 0 instructions: 15000102 cycles: 3816473 heartbeat IPC: 3.674 cumulative IPC: 3.93 (Simulation time: 00 hr 01 min 04 sec)
Heartbeat CPU 0 instructions: 15500107 cycles: 3946663 heartbeat IPC: 3.841 cumulative IPC: 3.927 (Simulation time: 00 hr 01 min 06 sec)
Heartbeat CPU 0 instructions: 16000107 cycles: 4075354 heartbeat IPC: 3.885 cumulative IPC: 3.926 (Simulation time: 00 hr 01 min 08 sec)
Heartbeat CPU 0 instructions: 16500108 cycles: 4215362 heartbeat IPC: 3.571 cumulative IPC: 3.914 (Simulation time: 00 hr 01 min 10 sec)
Heartbeat CPU 0 instructions: 17000110 cycles: 4345311 heartbeat IPC: 3.848 cumulative IPC: 3.912 (Simulation time: 00 hr 01 min 12 sec)
Heartbeat CPU 0 instructions: 17500114 cycles: 4472527 heartbeat IPC: 3.93 cumulative IPC: 3.913 (Simulation time: 00 hr 01 min 14 sec)
Heartbeat CPU 0 instructions: 18000116 cycles: 4611729 heartbeat IPC: 3.592 cumulative IPC: 3.903 (Simulation time: 00 hr 01 min 16 sec)
Heartbeat CPU 0 instructions: 18500119 cycles: 4746254 heartbeat IPC: 3.717 cumulative IPC: 3.898 (Simulation time: 00 hr 01 min 19 sec)
Heartbeat CPU 0 instructions: 19000125 cycles: 4878431 heartbeat IPC: 3.783 cumulative IPC: 3.895 (Simulation time: 00 hr 01 min 20 sec)
Heartbeat CPU 0 instructions: 19500131 cycles: 5001044 heartbeat IPC: 4.078 cumulative IPC: 3.899 (Simulation time: 00 hr 01 min 23 sec)
Heartbeat CPU 0 instructions: 20000133 cycles: 5105654 heartbeat IPC: 4.78 cumulative IPC: 3.917 (Simulation time: 00 hr 01 min 25 sec)
Heartbeat CPU 0 instructions: 20500140 cycles: 5215340 heartbeat IPC: 4.559 cumulative IPC: 3.931 (Simulation time: 00 hr 01 min 26 sec)
Heartbeat CPU 0 instructions: 21000146 cycles: 5326284 heartbeat IPC: 4.507 cumulative IPC: 3.943 (Simulation time: 00 hr 01 min 28 sec)
Heartbeat CPU 0 instructions: 21500149 cycles: 5429839 heartbeat IPC: 4.828 cumulative IPC: 3.96 (Simulation time: 00 hr 01 min 30 sec)
Heartbeat CPU 0 instructions: 22000154 cycles: 5541065 heartbeat IPC: 4.495 cumulative IPC: 3.97 (Simulation time: 00 hr 01 min 33 sec)
Heartbeat CPU 0 instructions: 22500154 cycles: 5645650 heartbeat IPC: 4.781 cumulative IPC: 3.985 (Simulation time: 00 hr 01 min 34 sec)
Heartbeat CPU 0 instructions: 23000159 cycles: 5756924 heartbeat IPC: 4.493 cumulative IPC: 3.995 (Simulation time: 00 hr 01 min 37 sec)
Heartbeat CPU 0 instructions: 23500166 cycles: 5865688 heartbeat IPC: 4.597 cumulative IPC: 4.006 (Simulation time: 00 hr 01 min 38 sec)
Heartbeat CPU 0 instructions: 24000172 cycles: 5976033 heartbeat IPC: 4.531 cumulative IPC: 4.016 (Simulation time: 00 hr 01 min 41 sec)
Heartbeat CPU 0 instructions: 24500179 cycles: 6091741 heartbeat IPC: 4.321 cumulative IPC: 4.022 (Simulation time: 00 hr 01 min 43 sec)
Heartbeat CPU 0 instructions: 25000182 cycles: 6210237 heartbeat IPC: 4.22 cumulative IPC: 4.026 (Simulation time: 00 hr 01 min 45 sec)
Heartbeat CPU 0 instructions: 25500189 cycles: 6328402 heartbeat IPC: 4.231 cumulative IPC: 4.029 (Simulation time: 00 hr 01 min 47 sec)
Heartbeat CPU 0 instructions: 26000192 cycles: 6450681 heartbeat IPC: 4.089 cumulative IPC: 4.031 (Simulation time: 00 hr 01 min 49 sec)
Heartbeat CPU 0 instructions: 26500198 cycles: 6576248 heartbeat IPC: 3.982 cumulative IPC: 4.03 (Simulation time: 00 hr 01 min 51 sec)
Heartbeat CPU 0 instructions: 27000199 cycles: 6707842 heartbeat IPC: 3.8 cumulative IPC: 4.025 (Simulation time: 00 hr 01 min 53 sec)
Heartbeat CPU 0 instructions: 27500203 cycles: 6834317 heartbeat IPC: 3.953 cumulative IPC: 4.024 (Simulation time: 00 hr 01 min 56 sec)
Heartbeat CPU 0 instructions: 28000203 cycles: 6961558 heartbeat IPC: 3.93 cumulative IPC: 4.022 (Simulation time: 00 hr 01 min 58 sec)
Heartbeat CPU 0 instructions: 28500204 cycles: 7088303 heartbeat IPC: 3.945 cumulative IPC: 4.021 (Simulation time: 00 hr 02 min 00 sec)
Heartbeat CPU 0 instructions: 29000211 cycles: 7212597 heartbeat IPC: 4.023 cumulative IPC: 4.021 (Simulation time: 00 hr 02 min 01 sec)
Heartbeat CPU 0 instructions: 29500214 cycles: 7321726 heartbeat IPC: 4.582 cumulative IPC: 4.029 (Simulation time: 00 hr 02 min 04 sec)
Heartbeat CPU 0 instructions: 30000218 cycles: 7429709 heartbeat IPC: 4.63 cumulative IPC: 4.038 (Simulation time: 00 hr 02 min 06 sec)
Heartbeat CPU 0 instructions: 30500224 cycles: 7529708 heartbeat IPC: 5 cumulative IPC: 4.051 (Simulation time: 00 hr 02 min 07 sec)
Heartbeat CPU 0 instructions: 31000229 cycles: 7629752 heartbeat IPC: 4.998 cumulative IPC: 4.063 (Simulation time: 00 hr 02 min 09 sec)
Heartbeat CPU 0 instructions: 31500231 cycles: 7729712 heartbeat IPC: 5.002 cumulative IPC: 4.075 (Simulation time: 00 hr 02 min 11 sec)
Heartbeat CPU 0 instructions: 32000236 cycles: 7829748 heartbeat IPC: 4.998 cumulative IPC: 4.087 (Simulation time: 00 hr 02 min 13 sec)
Heartbeat CPU 0 instructions: 32500243 cycles: 7929732 heartbeat IPC: 5.001 cumulative IPC: 4.099 (Simulation time: 00 hr 02 min 14 sec)
Heartbeat CPU 0 instructions: 33000243 cycles: 8034099 heartbeat IPC: 4.791 cumulative IPC: 4.108 (Simulation time: 00 hr 02 min 16 sec)
Heartbeat CPU 0 instructions: 33500246 cycles: 8139704 heartbeat IPC: 4.735 cumulative IPC: 4.116 (Simulation time: 00 hr 02 min 18 sec)
Heartbeat CPU 0 instructions: 34000248 cycles: 8245835 heartbeat IPC: 4.711 cumulative IPC: 4.123 (Simulation time: 00 hr 02 min 20 sec)
Heartbeat CPU 0 instructions: 34500253 cycles: 8351897 heartbeat IPC: 4.714 cumulative IPC: 4.131 (Simulation time: 00 hr 02 min 22 sec)
Heartbeat CPU 0 instructions: 35000253 cycles: 8451900 heartbeat IPC: 5 cumulative IPC: 4.141 (Simulation time: 00 hr 02 min 24 sec)
Heartbeat CPU 0 instructions: 35500260 cycles: 8551931 heartbeat IPC: 4.999 cumulative IPC: 4.151 (Simulation time: 00 hr 02 min 26 sec)
Heartbeat CPU 0 instructions: 36000266 cycles: 8655779 heartbeat IPC: 4.815 cumulative IPC: 4.159 (Simulation time: 00 hr 02 min 28 sec)
Heartbeat CPU 0 instructions: 36500271 cycles: 8758260 heartbeat IPC: 4.879 cumulative IPC: 4.168 (Simulation time: 00 hr 02 min 30 sec)
Heartbeat CPU 0 instructions: 37000274 cycles: 8869020 heartbeat IPC: 4.514 cumulative IPC: 4.172 (Simulation time: 00 hr 02 min 32 sec)
Heartbeat CPU 0 instructions: 37500276 cycles: 8972777 heartbeat IPC: 4.819 cumulative IPC: 4.179 (Simulation time: 00 hr 02 min 34 sec)
Heartbeat CPU 0 instructions: 38000276 cycles: 9072785 heartbeat IPC: 5 cumulative IPC: 4.188 (Simulation time: 00 hr 02 min 36 sec)
Heartbeat CPU 0 instructions: 38500283 cycles: 9177768 heartbeat IPC: 4.763 cumulative IPC: 4.195 (Simulation time: 00 hr 02 min 38 sec)
Heartbeat CPU 0 instructions: 39000285 cycles: 9277782 heartbeat IPC: 4.999 cumulative IPC: 4.204 (Simulation time: 00 hr 02 min 39 sec)
Heartbeat CPU 0 instructions: 39500290 cycles: 9380664 heartbeat IPC: 4.86 cumulative IPC: 4.211 (Simulation time: 00 hr 02 min 41 sec)
Heartbeat CPU 0 instructions: 40000296 cycles: 9480684 heartbeat IPC: 4.999 cumulative IPC: 4.219 (Simulation time: 00 hr 02 min 43 sec)
Heartbeat CPU 0 instructions: 40500303 cycles: 9583082 heartbeat IPC: 4.883 cumulative IPC: 4.226 (Simulation time: 00 hr 02 min 45 sec)
Heartbeat CPU 0 instructions: 41000303 cycles: 9688880 heartbeat IPC: 4.726 cumulative IPC: 4.232 (Simulation time: 00 hr 02 min 47 sec)
Heartbeat CPU 0 instructions: 41500305 cycles: 9793240 heartbeat IPC: 4.791 cumulative IPC: 4.238 (Simulation time: 00 hr 02 min 49 sec)
Heartbeat CPU 0 instructions: 42000310 cycles: 9898516 heartbeat IPC: 4.749 cumulative IPC: 4.243 (Simulation time: 00 hr 02 min 51 sec)
Heartbeat CPU 0 instructions: 42500314 cycles: 10006364 heartbeat IPC: 4.636 cumulative IPC: 4.247 (Simulation time: 00 hr 02 min 53 sec)
Heartbeat CPU 0 instructions: 43000317 cycles: 10111761 heartbeat IPC: 4.744 cumulative IPC: 4.253 (Simulation time: 00 hr 02 min 55 sec)
Heartbeat CPU 0 instructions: 43500323 cycles: 10217201 heartbeat IPC: 4.742 cumulative IPC: 4.258 (Simulation time: 00 hr 02 min 57 sec)
Heartbeat CPU 0 instructions: 44000325 cycles: 10329764 heartbeat IPC: 4.442 cumulative IPC: 4.26 (Simulation time: 00 hr 02 min 59 sec)
Heartbeat CPU 0 instructions: 44500329 cycles: 10441645 heartbeat IPC: 4.469 cumulative IPC: 4.262 (Simulation time: 00 hr 03 min 01 sec)
Heartbeat CPU 0 instructions: 45000336 cycles: 10558644 heartbeat IPC: 4.274 cumulative IPC: 4.262 (Simulation time: 00 hr 03 min 03 sec)
Heartbeat CPU 0 instructions: 45500340 cycles: 10679688 heartbeat IPC: 4.131 cumulative IPC: 4.26 (Simulation time: 00 hr 03 min 05 sec)
Heartbeat CPU 0 instructions: 46000344 cycles: 10804504 heartbeat IPC: 4.006 cumulative IPC: 4.258 (Simulation time: 00 hr 03 min 07 sec)
Heartbeat CPU 0 instructions: 46500347 cycles: 10940514 heartbeat IPC: 3.676 cumulative IPC: 4.25 (Simulation time: 00 hr 03 min 09 sec)
Heartbeat CPU 0 instructions: 47000352 cycles: 11072087 heartbeat IPC: 3.8 cumulative IPC: 4.245 (Simulation time: 00 hr 03 min 11 sec)
Heartbeat CPU 0 instructions: 47500354 cycles: 11202677 heartbeat IPC: 3.829 cumulative IPC: 4.24 (Simulation time: 00 hr 03 min 13 sec)
Heartbeat CPU 0 instructions: 48000359 cycles: 11323032 heartbeat IPC: 4.154 cumulative IPC: 4.239 (Simulation time: 00 hr 03 min 15 sec)
Heartbeat CPU 0 instructions: 48500363 cycles: 11434658 heartbeat IPC: 4.479 cumulative IPC: 4.242 (Simulation time: 00 hr 03 min 17 sec)
Heartbeat CPU 0 instructions: 49000369 cycles: 11549509 heartbeat IPC: 4.354 cumulative IPC: 4.243 (Simulation time: 00 hr 03 min 19 sec)
Heartbeat CPU 0 instructions: 49500372 cycles: 11674058 heartbeat IPC: 4.015 cumulative IPC: 4.24 (Simulation time: 00 hr 03 min 21 sec)
Warmup halting CPU 0 at instruction 50000004 cycle 11800438 for remainder of phase
Warmup finished CPU 0 instructions: 50000004 cycles: 11800438 cumulative IPC: 4.237 (Simulation time: 00 hr 03 min 23 sec)
Warmup complete CPU 0 instructions: 50000004 cycles: 11800438 cumulative IPC: 4.237 (Simulation time: 00 hr 03 min 23 sec)
Heartbeat CPU 0 instructions: 50000373 cycles: 11800494 heartbeat IPC: 3.955 cumulative IPC: 6.589 (Simulation time: 00 hr 03 min 23 sec)
Heartbeat CPU 0 instructions: 50500375 cycles: 12256026 heartbeat IPC: 1.098 cumulative IPC: 1.098 (Simulation time: 00 hr 03 min 28 sec)
Heartbeat CPU 0 instructions: 51000378 cycles: 13625093 heartbeat IPC: 0.3652 cumulative IPC: 0.5483 (Simulation time: 00 hr 03 min 40 sec)
Heartbeat CPU 0 instructions: 51500382 cycles: 14395281 heartbeat IPC: 0.6492 cumulative IPC: 0.5782 (Simulation time: 00 hr 03 min 47 sec)
Heartbeat CPU 0 instructions: 52000384 cycles: 15027188 heartbeat IPC: 0.7913 cumulative IPC: 0.6199 (Simulation time: 00 hr 03 min 53 sec)
Heartbeat CPU 0 instructions: 52500386 cycles: 15523095 heartbeat IPC: 1.008 cumulative IPC: 0.6717 (Simulation time: 00 hr 03 min 58 sec)
Heartbeat CPU 0 instructions: 53000387 cycles: 15903639 heartbeat IPC: 1.314 cumulative IPC: 0.7312 (Simulation time: 00 hr 04 min 02 sec)
Heartbeat CPU 0 instructions: 53500387 cycles: 16920556 heartbeat IPC: 0.4917 cumulative IPC: 0.6837 (Simulation time: 00 hr 04 min 12 sec)
Heartbeat CPU 0 instructions: 54000391 cycles: 17684103 heartbeat IPC: 0.6548 cumulative IPC: 0.6799 (Simulation time: 00 hr 04 min 19 sec)
Heartbeat CPU 0 instructions: 54500395 cycles: 18255049 heartbeat IPC: 0.8757 cumulative IPC: 0.6972 (Simulation time: 00 hr 04 min 25 sec)
Heartbeat CPU 0 instructions: 55000398 cycles: 19353825 heartbeat IPC: 0.4551 cumulative IPC: 0.662 (Simulation time: 00 hr 04 min 35 sec)
Heartbeat CPU 0 instructions: 55500398 cycles: 20302978 heartbeat IPC: 0.5268 cumulative IPC: 0.6469 (Simulation time: 00 hr 04 min 44 sec)
Heartbeat CPU 0 instructions: 56000399 cycles: 20851788 heartbeat IPC: 0.9111 cumulative IPC: 0.6629 (Simulation time: 00 hr 04 min 50 sec)
Heartbeat CPU 0 instructions: 56500400 cycles: 21256302 heartbeat IPC: 1.236 cumulative IPC: 0.6874 (Simulation time: 00 hr 04 min 54 sec)
Heartbeat CPU 0 instructions: 57000400 cycles: 22135313 heartbeat IPC: 0.5688 cumulative IPC: 0.6774 (Simulation time: 00 hr 05 min 03 sec)
Heartbeat CPU 0 instructions: 57500404 cycles: 22710796 heartbeat IPC: 0.8688 cumulative IPC: 0.6875 (Simulation time: 00 hr 05 min 09 sec)
Heartbeat CPU 0 instructions: 58000406 cycles: 23086006 heartbeat IPC: 1.333 cumulative IPC: 0.7089 (Simulation time: 00 hr 05 min 13 sec)
Heartbeat CPU 0 instructions: 58500409 cycles: 24039462 heartbeat IPC: 0.5244 cumulative IPC: 0.6945 (Simulation time: 00 hr 05 min 22 sec)
Heartbeat CPU 0 instructions: 59000413 cycles: 24784931 heartbeat IPC: 0.6707 cumulative IPC: 0.6932 (Simulation time: 00 hr 05 min 28 sec)
Heartbeat CPU 0 instructions: 59500414 cycles: 25213599 heartbeat IPC: 1.166 cumulative IPC: 0.7083 (Simulation time: 00 hr 05 min 33 sec)
Heartbeat CPU 0 instructions: 60000414 cycles: 25532926 heartbeat IPC: 1.566 cumulative IPC: 0.7282 (Simulation time: 00 hr 05 min 36 sec)
Heartbeat CPU 0 instructions: 60500417 cycles: 26728822 heartbeat IPC: 0.4181 cumulative IPC: 0.7034 (Simulation time: 00 hr 05 min 47 sec)
Heartbeat CPU 0 instructions: 61000418 cycles: 27383046 heartbeat IPC: 0.7643 cumulative IPC: 0.7059 (Simulation time: 00 hr 05 min 53 sec)
Heartbeat CPU 0 instructions: 61500425 cycles: 27857747 heartbeat IPC: 1.053 cumulative IPC: 0.7162 (Simulation time: 00 hr 05 min 58 sec)
Heartbeat CPU 0 instructions: 62000428 cycles: 28231338 heartbeat IPC: 1.338 cumulative IPC: 0.7304 (Simulation time: 00 hr 06 min 02 sec)
Heartbeat CPU 0 instructions: 62500429 cycles: 29051066 heartbeat IPC: 0.61 cumulative IPC: 0.7246 (Simulation time: 00 hr 06 min 10 sec)
Heartbeat CPU 0 instructions: 63000430 cycles: 29636157 heartbeat IPC: 0.8546 cumulative IPC: 0.7289 (Simulation time: 00 hr 06 min 16 sec)
Heartbeat CPU 0 instructions: 63500430 cycles: 30020873 heartbeat IPC: 1.3 cumulative IPC: 0.7409 (Simulation time: 00 hr 06 min 20 sec)
Heartbeat CPU 0 instructions: 64000430 cycles: 30662523 heartbeat IPC: 0.7792 cumulative IPC: 0.7423 (Simulation time: 00 hr 06 min 26 sec)
Heartbeat CPU 0 instructions: 64500431 cycles: 31410419 heartbeat IPC: 0.6685 cumulative IPC: 0.7394 (Simulation time: 00 hr 06 min 33 sec)
Heartbeat CPU 0 instructions: 65000431 cycles: 31902343 heartbeat IPC: 1.016 cumulative IPC: 0.7462 (Simulation time: 00 hr 06 min 38 sec)
Heartbeat CPU 0 instructions: 65500431 cycles: 32297025 heartbeat IPC: 1.267 cumulative IPC: 0.7562 (Simulation time: 00 hr 06 min 42 sec)
Heartbeat CPU 0 instructions: 66000431 cycles: 32626179 heartbeat IPC: 1.519 cumulative IPC: 0.7683 (Simulation time: 00 hr 06 min 45 sec)
Heartbeat CPU 0 instructions: 66500433 cycles: 33788789 heartbeat IPC: 0.4301 cumulative IPC: 0.7504 (Simulation time: 00 hr 06 min 56 sec)
Heartbeat CPU 0 instructions: 67000434 cycles: 34641398 heartbeat IPC: 0.5864 cumulative IPC: 0.7443 (Simulation time: 00 hr 07 min 04 sec)
Heartbeat CPU 0 instructions: 67500435 cycles: 35122361 heartbeat IPC: 1.04 cumulative IPC: 0.7504 (Simulation time: 00 hr 07 min 09 sec)
Heartbeat CPU 0 instructions: 68000439 cycles: 35982744 heartbeat IPC: 0.5811 cumulative IPC: 0.7444 (Simulation time: 00 hr 07 min 17 sec)
Heartbeat CPU 0 instructions: 68500443 cycles: 36773951 heartbeat IPC: 0.632 cumulative IPC: 0.7408 (Simulation time: 00 hr 07 min 24 sec)
Heartbeat CPU 0 instructions: 69000444 cycles: 37440123 heartbeat IPC: 0.7506 cumulative IPC: 0.7411 (Simulation time: 00 hr 07 min 30 sec)
Heartbeat CPU 0 instructions: 69500447 cycles: 37996332 heartbeat IPC: 0.8989 cumulative IPC: 0.7444 (Simulation time: 00 hr 07 min 36 sec)
Heartbeat CPU 0 instructions: 70000448 cycles: 38692437 heartbeat IPC: 0.7183 cumulative IPC: 0.7437 (Simulation time: 00 hr 07 min 43 sec)
Heartbeat CPU 0 instructions: 70500450 cycles: 39452776 heartbeat IPC: 0.6576 cumulative IPC: 0.7414 (Simulation time: 00 hr 07 min 51 sec)
Heartbeat CPU 0 instructions: 71000456 cycles: 39897343 heartbeat IPC: 1.125 cumulative IPC: 0.7474 (Simulation time: 00 hr 07 min 55 sec)
Heartbeat CPU 0 instructions: 71500458 cycles: 40665628 heartbeat IPC: 0.6508 cumulative IPC: 0.7449 (Simulation time: 00 hr 08 min 03 sec)
Heartbeat CPU 0 instructions: 72000461 cycles: 41826870 heartbeat IPC: 0.4306 cumulative IPC: 0.7327 (Simulation time: 00 hr 08 min 13 sec)
Heartbeat CPU 0 instructions: 72500463 cycles: 42292241 heartbeat IPC: 1.074 cumulative IPC: 0.7379 (Simulation time: 00 hr 08 min 18 sec)
Heartbeat CPU 0 instructions: 73000463 cycles: 42859046 heartbeat IPC: 0.8821 cumulative IPC: 0.7406 (Simulation time: 00 hr 08 min 24 sec)
Heartbeat CPU 0 instructions: 73500464 cycles: 43872315 heartbeat IPC: 0.4935 cumulative IPC: 0.7327 (Simulation time: 00 hr 08 min 32 sec)
Heartbeat CPU 0 instructions: 74000465 cycles: 44408033 heartbeat IPC: 0.9333 cumulative IPC: 0.736 (Simulation time: 00 hr 08 min 37 sec)
Heartbeat CPU 0 instructions: 74500467 cycles: 44876243 heartbeat IPC: 1.068 cumulative IPC: 0.7407 (Simulation time: 00 hr 08 min 41 sec)
Heartbeat CPU 0 instructions: 75000467 cycles: 45392997 heartbeat IPC: 0.9676 cumulative IPC: 0.7442 (Simulation time: 00 hr 08 min 46 sec)
Heartbeat CPU 0 instructions: 75500468 cycles: 45848447 heartbeat IPC: 1.098 cumulative IPC: 0.749 (Simulation time: 00 hr 08 min 51 sec)
Heartbeat CPU 0 instructions: 76000470 cycles: 46200377 heartbeat IPC: 1.421 cumulative IPC: 0.7558 (Simulation time: 00 hr 08 min 55 sec)
Heartbeat CPU 0 instructions: 76500471 cycles: 47201403 heartbeat IPC: 0.4995 cumulative IPC: 0.7486 (Simulation time: 00 hr 09 min 04 sec)
Heartbeat CPU 0 instructions: 77000472 cycles: 47852880 heartbeat IPC: 0.7675 cumulative IPC: 0.7489 (Simulation time: 00 hr 09 min 10 sec)
Heartbeat CPU 0 instructions: 77500472 cycles: 48279487 heartbeat IPC: 1.172 cumulative IPC: 0.7539 (Simulation time: 00 hr 09 min 15 sec)
Heartbeat CPU 0 instructions: 78000478 cycles: 49529478 heartbeat IPC: 0.4 cumulative IPC: 0.7421 (Simulation time: 00 hr 09 min 26 sec)
Heartbeat CPU 0 instructions: 78500480 cycles: 50276931 heartbeat IPC: 0.6689 cumulative IPC: 0.7407 (Simulation time: 00 hr 09 min 33 sec)
Heartbeat CPU 0 instructions: 79000481 cycles: 50740719 heartbeat IPC: 1.078 cumulative IPC: 0.7447 (Simulation time: 00 hr 09 min 38 sec)
Heartbeat CPU 0 instructions: 79500481 cycles: 51350937 heartbeat IPC: 0.8194 cumulative IPC: 0.7459 (Simulation time: 00 hr 09 min 44 sec)
Heartbeat CPU 0 instructions: 80000481 cycles: 52033626 heartbeat IPC: 0.7324 cumulative IPC: 0.7457 (Simulation time: 00 hr 09 min 50 sec)
Heartbeat CPU 0 instructions: 80500481 cycles: 52454611 heartbeat IPC: 1.188 cumulative IPC: 0.7502 (Simulation time: 00 hr 09 min 55 sec)
Heartbeat CPU 0 instructions: 81000481 cycles: 52818398 heartbeat IPC: 1.374 cumulative IPC: 0.7558 (Simulation time: 00 hr 09 min 59 sec)
Heartbeat CPU 0 instructions: 81500487 cycles: 53862245 heartbeat IPC: 0.479 cumulative IPC: 0.7489 (Simulation time: 00 hr 10 min 07 sec)
Heartbeat CPU 0 instructions: 82000488 cycles: 54624536 heartbeat IPC: 0.6559 cumulative IPC: 0.7473 (Simulation time: 00 hr 10 min 14 sec)
Heartbeat CPU 0 instructions: 82500492 cycles: 55188564 heartbeat IPC: 0.8865 cumulative IPC: 0.7491 (Simulation time: 00 hr 10 min 18 sec)
Heartbeat CPU 0 instructions: 83000494 cycles: 55734689 heartbeat IPC: 0.9155 cumulative IPC: 0.7511 (Simulation time: 00 hr 10 min 23 sec)
Heartbeat CPU 0 instructions: 83500498 cycles: 56257628 heartbeat IPC: 0.9561 cumulative IPC: 0.7535 (Simulation time: 00 hr 10 min 27 sec)
Heartbeat CPU 0 instructions: 84000500 cycles: 56760659 heartbeat IPC: 0.994 cumulative IPC: 0.7562 (Simulation time: 00 hr 10 min 31 sec)
Heartbeat CPU 0 instructions: 84500503 cycles: 57255063 heartbeat IPC: 1.011 cumulative IPC: 0.759 (Simulation time: 00 hr 10 min 35 sec)
Heartbeat CPU 0 instructions: 85000503 cycles: 57763390 heartbeat IPC: 0.9836 cumulative IPC: 0.7615 (Simulation time: 00 hr 10 min 40 sec)
Heartbeat CPU 0 instructions: 85500505 cycles: 58245260 heartbeat IPC: 1.038 cumulative IPC: 0.7644 (Simulation time: 00 hr 10 min 44 sec)
Heartbeat CPU 0 instructions: 86000506 cycles: 58713532 heartbeat IPC: 1.068 cumulative IPC: 0.7674 (Simulation time: 00 hr 10 min 49 sec)
Heartbeat CPU 0 instructions: 86500506 cycles: 59101021 heartbeat IPC: 1.29 cumulative IPC: 0.7717 (Simulation time: 00 hr 10 min 53 sec)
Heartbeat CPU 0 instructions: 87000508 cycles: 59958220 heartbeat IPC: 0.5833 cumulative IPC: 0.7683 (Simulation time: 00 hr 11 min 00 sec)
Heartbeat CPU 0 instructions: 87500514 cycles: 60614916 heartbeat IPC: 0.7614 cumulative IPC: 0.7682 (Simulation time: 00 hr 11 min 05 sec)
Heartbeat CPU 0 instructions: 88000515 cycles: 61092424 heartbeat IPC: 1.047 cumulative IPC: 0.7709 (Simulation time: 00 hr 11 min 10 sec)
Heartbeat CPU 0 instructions: 88500515 cycles: 61452109 heartbeat IPC: 1.39 cumulative IPC: 0.7754 (Simulation time: 00 hr 11 min 14 sec)
Heartbeat CPU 0 instructions: 89000516 cycles: 61731719 heartbeat IPC: 1.788 cumulative IPC: 0.7811 (Simulation time: 00 hr 11 min 17 sec)
Heartbeat CPU 0 instructions: 89500517 cycles: 62482528 heartbeat IPC: 0.6659 cumulative IPC: 0.7794 (Simulation time: 00 hr 11 min 23 sec)
Heartbeat CPU 0 instructions: 90000517 cycles: 63244168 heartbeat IPC: 0.6565 cumulative IPC: 0.7776 (Simulation time: 00 hr 11 min 29 sec)
Heartbeat CPU 0 instructions: 90500520 cycles: 63825805 heartbeat IPC: 0.8596 cumulative IPC: 0.7785 (Simulation time: 00 hr 11 min 33 sec)
Heartbeat CPU 0 instructions: 91000521 cycles: 64360418 heartbeat IPC: 0.9353 cumulative IPC: 0.7801 (Simulation time: 00 hr 11 min 38 sec)
Heartbeat CPU 0 instructions: 91500522 cycles: 64922816 heartbeat IPC: 0.8891 cumulative IPC: 0.7812 (Simulation time: 00 hr 11 min 42 sec)
Heartbeat CPU 0 instructions: 92000524 cycles: 65425381 heartbeat IPC: 0.9949 cumulative IPC: 0.7832 (Simulation time: 00 hr 11 min 46 sec)
Heartbeat CPU 0 instructions: 92500525 cycles: 66017693 heartbeat IPC: 0.8442 cumulative IPC: 0.7839 (Simulation time: 00 hr 11 min 52 sec)
Heartbeat CPU 0 instructions: 93000529 cycles: 66555224 heartbeat IPC: 0.9302 cumulative IPC: 0.7853 (Simulation time: 00 hr 11 min 56 sec)
Heartbeat CPU 0 instructions: 93500530 cycles: 67039611 heartbeat IPC: 1.032 cumulative IPC: 0.7875 (Simulation time: 00 hr 12 min 01 sec)
Heartbeat CPU 0 instructions: 94000530 cycles: 67488761 heartbeat IPC: 1.113 cumulative IPC: 0.7901 (Simulation time: 00 hr 12 min 05 sec)
Heartbeat CPU 0 instructions: 94500533 cycles: 67962250 heartbeat IPC: 1.056 cumulative IPC: 0.7924 (Simulation time: 00 hr 12 min 10 sec)
Heartbeat CPU 0 instructions: 95000533 cycles: 69074977 heartbeat IPC: 0.4493 cumulative IPC: 0.7857 (Simulation time: 00 hr 12 min 20 sec)
Heartbeat CPU 0 instructions: 95500536 cycles: 69813084 heartbeat IPC: 0.6774 cumulative IPC: 0.7843 (Simulation time: 00 hr 12 min 26 sec)
Heartbeat CPU 0 instructions: 96000538 cycles: 70259279 heartbeat IPC: 1.121 cumulative IPC: 0.7869 (Simulation time: 00 hr 12 min 31 sec)
Heartbeat CPU 0 instructions: 96500539 cycles: 70590218 heartbeat IPC: 1.511 cumulative IPC: 0.791 (Simulation time: 00 hr 12 min 34 sec)
Heartbeat CPU 0 instructions: 97000540 cycles: 71751187 heartbeat IPC: 0.4307 cumulative IPC: 0.784 (Simulation time: 00 hr 12 min 45 sec)
Heartbeat CPU 0 instructions: 97500541 cycles: 72362517 heartbeat IPC: 0.8179 cumulative IPC: 0.7843 (Simulation time: 00 hr 12 min 50 sec)
Heartbeat CPU 0 instructions: 98000541 cycles: 72869777 heartbeat IPC: 0.9857 cumulative IPC: 0.786 (Simulation time: 00 hr 12 min 55 sec)
Heartbeat CPU 0 instructions: 98500542 cycles: 73292663 heartbeat IPC: 1.182 cumulative IPC: 0.7887 (Simulation time: 00 hr 12 min 59 sec)
Heartbeat CPU 0 instructions: 99000543 cycles: 74437589 heartbeat IPC: 0.4367 cumulative IPC: 0.7823 (Simulation time: 00 hr 13 min 10 sec)
Heartbeat CPU 0 instructions: 99500543 cycles: 75169567 heartbeat IPC: 0.6831 cumulative IPC: 0.7811 (Simulation time: 00 hr 13 min 17 sec)
Heartbeat CPU 0 instructions: 100000549 cycles: 75565415 heartbeat IPC: 1.263 cumulative IPC: 0.7841 (Simulation time: 00 hr 13 min 21 sec)
Heartbeat CPU 0 instructions: 100500549 cycles: 75873785 heartbeat IPC: 1.621 cumulative IPC: 0.7882 (Simulation time: 00 hr 13 min 25 sec)
Heartbeat CPU 0 instructions: 101000549 cycles: 76877846 heartbeat IPC: 0.498 cumulative IPC: 0.7837 (Simulation time: 00 hr 13 min 34 sec)
Heartbeat CPU 0 instructions: 101500549 cycles: 77364170 heartbeat IPC: 1.028 cumulative IPC: 0.7855 (Simulation time: 00 hr 13 min 39 sec)
Heartbeat CPU 0 instructions: 102000549 cycles: 77744652 heartbeat IPC: 1.314 cumulative IPC: 0.7886 (Simulation time: 00 hr 13 min 43 sec)
Heartbeat CPU 0 instructions: 102500552 cycles: 78811343 heartbeat IPC: 0.4687 cumulative IPC: 0.7835 (Simulation time: 00 hr 13 min 52 sec)
Heartbeat CPU 0 instructions: 103000555 cycles: 79520896 heartbeat IPC: 0.7047 cumulative IPC: 0.7826 (Simulation time: 00 hr 13 min 58 sec)
Heartbeat CPU 0 instructions: 103500556 cycles: 80070133 heartbeat IPC: 0.9104 cumulative IPC: 0.7837 (Simulation time: 00 hr 14 min 03 sec)
Heartbeat CPU 0 instructions: 104000557 cycles: 80666440 heartbeat IPC: 0.8385 cumulative IPC: 0.7841 (Simulation time: 00 hr 14 min 08 sec)
Heartbeat CPU 0 instructions: 104500560 cycles: 81138618 heartbeat IPC: 1.059 cumulative IPC: 0.786 (Simulation time: 00 hr 14 min 13 sec)
Heartbeat CPU 0 instructions: 105000563 cycles: 81543188 heartbeat IPC: 1.236 cumulative IPC: 0.7886 (Simulation time: 00 hr 14 min 17 sec)
Heartbeat CPU 0 instructions: 105500569 cycles: 82173200 heartbeat IPC: 0.7936 cumulative IPC: 0.7887 (Simulation time: 00 hr 14 min 24 sec)
Heartbeat CPU 0 instructions: 106000574 cycles: 82963023 heartbeat IPC: 0.6331 cumulative IPC: 0.7869 (Simulation time: 00 hr 14 min 31 sec)
Heartbeat CPU 0 instructions: 106500574 cycles: 83449941 heartbeat IPC: 1.027 cumulative IPC: 0.7886 (Simulation time: 00 hr 14 min 36 sec)
Heartbeat CPU 0 instructions: 107000574 cycles: 83796747 heartbeat IPC: 1.442 cumulative IPC: 0.7917 (Simulation time: 00 hr 14 min 40 sec)
Heartbeat CPU 0 instructions: 107500576 cycles: 85220414 heartbeat IPC: 0.3512 cumulative IPC: 0.7832 (Simulation time: 00 hr 14 min 53 sec)
Heartbeat CPU 0 instructions: 108000577 cycles: 85855470 heartbeat IPC: 0.7873 cumulative IPC: 0.7832 (Simulation time: 00 hr 14 min 59 sec)
Heartbeat CPU 0 instructions: 108500577 cycles: 86315633 heartbeat IPC: 1.087 cumulative IPC: 0.7851 (Simulation time: 00 hr 15 min 04 sec)
Heartbeat CPU 0 instructions: 109000578 cycles: 86940224 heartbeat IPC: 0.8005 cumulative IPC: 0.7852 (Simulation time: 00 hr 15 min 10 sec)
Heartbeat CPU 0 instructions: 109500580 cycles: 87855414 heartbeat IPC: 0.5463 cumulative IPC: 0.7823 (Simulation time: 00 hr 15 min 18 sec)
Heartbeat CPU 0 instructions: 110000582 cycles: 88417847 heartbeat IPC: 0.889 cumulative IPC: 0.7831 (Simulation time: 00 hr 15 min 24 sec)
Heartbeat CPU 0 instructions: 110500584 cycles: 88824501 heartbeat IPC: 1.23 cumulative IPC: 0.7855 (Simulation time: 00 hr 15 min 28 sec)
Heartbeat CPU 0 instructions: 111000584 cycles: 89731107 heartbeat IPC: 0.5515 cumulative IPC: 0.7828 (Simulation time: 00 hr 15 min 35 sec)
Heartbeat CPU 0 instructions: 111500586 cycles: 90548880 heartbeat IPC: 0.6114 cumulative IPC: 0.781 (Simulation time: 00 hr 15 min 42 sec)
Heartbeat CPU 0 instructions: 112000587 cycles: 91139824 heartbeat IPC: 0.8461 cumulative IPC: 0.7815 (Simulation time: 00 hr 15 min 48 sec)
Heartbeat CPU 0 instructions: 112500587 cycles: 91636191 heartbeat IPC: 1.007 cumulative IPC: 0.7829 (Simulation time: 00 hr 15 min 52 sec)
Heartbeat CPU 0 instructions: 113000587 cycles: 92027989 heartbeat IPC: 1.276 cumulative IPC: 0.7853 (Simulation time: 00 hr 15 min 56 sec)
Heartbeat CPU 0 instructions: 113500589 cycles: 92560282 heartbeat IPC: 0.9393 cumulative IPC: 0.7863 (Simulation time: 00 hr 16 min 02 sec)
Heartbeat CPU 0 instructions: 114000592 cycles: 93667942 heartbeat IPC: 0.4514 cumulative IPC: 0.7818 (Simulation time: 00 hr 16 min 12 sec)
Heartbeat CPU 0 instructions: 114500594 cycles: 94325168 heartbeat IPC: 0.7608 cumulative IPC: 0.7816 (Simulation time: 00 hr 16 min 19 sec)
Heartbeat CPU 0 instructions: 115000596 cycles: 94839218 heartbeat IPC: 0.9727 cumulative IPC: 0.7828 (Simulation time: 00 hr 16 min 24 sec)
Heartbeat CPU 0 instructions: 115500597 cycles: 95959503 heartbeat IPC: 0.4463 cumulative IPC: 0.7783 (Simulation time: 00 hr 16 min 34 sec)
Heartbeat CPU 0 instructions: 116000600 cycles: 96474098 heartbeat IPC: 0.9716 cumulative IPC: 0.7795 (Simulation time: 00 hr 16 min 39 sec)
Heartbeat CPU 0 instructions: 116500601 cycles: 96880487 heartbeat IPC: 1.23 cumulative IPC: 0.7816 (Simulation time: 00 hr 16 min 44 sec)
Heartbeat CPU 0 instructions: 117000602 cycles: 97949591 heartbeat IPC: 0.4677 cumulative IPC: 0.7777 (Simulation time: 00 hr 16 min 53 sec)
Heartbeat CPU 0 instructions: 117500604 cycles: 98674119 heartbeat IPC: 0.6901 cumulative IPC: 0.777 (Simulation time: 00 hr 17 min 00 sec)
Heartbeat CPU 0 instructions: 118000610 cycles: 99221357 heartbeat IPC: 0.9137 cumulative IPC: 0.7779 (Simulation time: 00 hr 17 min 05 sec)
Heartbeat CPU 0 instructions: 118500612 cycles: 99619858 heartbeat IPC: 1.255 cumulative IPC: 0.78 (Simulation time: 00 hr 17 min 09 sec)
Heartbeat CPU 0 instructions: 119000614 cycles: 100722929 heartbeat IPC: 0.4533 cumulative IPC: 0.776 (Simulation time: 00 hr 17 min 18 sec)
Heartbeat CPU 0 instructions: 119500614 cycles: 101493193 heartbeat IPC: 0.6491 cumulative IPC: 0.7749 (Simulation time: 00 hr 17 min 25 sec)
Heartbeat CPU 0 instructions: 120000614 cycles: 102067278 heartbeat IPC: 0.871 cumulative IPC: 0.7755 (Simulation time: 00 hr 17 min 30 sec)
Heartbeat CPU 0 instructions: 120500614 cycles: 102560414 heartbeat IPC: 1.014 cumulative IPC: 0.7768 (Simulation time: 00 hr 17 min 35 sec)
Heartbeat CPU 0 instructions: 121000618 cycles: 102989951 heartbeat IPC: 1.164 cumulative IPC: 0.7786 (Simulation time: 00 hr 17 min 39 sec)
Heartbeat CPU 0 instructions: 121500619 cycles: 103806045 heartbeat IPC: 0.6127 cumulative IPC: 0.7771 (Simulation time: 00 hr 17 min 46 sec)
Heartbeat CPU 0 instructions: 122000619 cycles: 104744983 heartbeat IPC: 0.5325 cumulative IPC: 0.7747 (Simulation time: 00 hr 17 min 54 sec)
Heartbeat CPU 0 instructions: 122500620 cycles: 105379163 heartbeat IPC: 0.7884 cumulative IPC: 0.7748 (Simulation time: 00 hr 18 min 00 sec)
Heartbeat CPU 0 instructions: 123000621 cycles: 105914523 heartbeat IPC: 0.934 cumulative IPC: 0.7757 (Simulation time: 00 hr 18 min 06 sec)
Heartbeat CPU 0 instructions: 123500626 cycles: 106317861 heartbeat IPC: 1.24 cumulative IPC: 0.7776 (Simulation time: 00 hr 18 min 10 sec)
Heartbeat CPU 0 instructions: 124000628 cycles: 106876694 heartbeat IPC: 0.8947 cumulative IPC: 0.7783 (Simulation time: 00 hr 18 min 15 sec)
Heartbeat CPU 0 instructions: 124500628 cycles: 107807538 heartbeat IPC: 0.5371 cumulative IPC: 0.776 (Simulation time: 00 hr 18 min 24 sec)
Heartbeat CPU 0 instructions: 125000630 cycles: 108358947 heartbeat IPC: 0.9068 cumulative IPC: 0.7767 (Simulation time: 00 hr 18 min 29 sec)
Heartbeat CPU 0 instructions: 125500630 cycles: 108761294 heartbeat IPC: 1.243 cumulative IPC: 0.7787 (Simulation time: 00 hr 18 min 33 sec)
Heartbeat CPU 0 instructions: 126000630 cycles: 109608335 heartbeat IPC: 0.5903 cumulative IPC: 0.777 (Simulation time: 00 hr 18 min 41 sec)
Heartbeat CPU 0 instructions: 126500630 cycles: 110243363 heartbeat IPC: 0.7874 cumulative IPC: 0.7771 (Simulation time: 00 hr 18 min 47 sec)
Heartbeat CPU 0 instructions: 127000635 cycles: 110733898 heartbeat IPC: 1.019 cumulative IPC: 0.7783 (Simulation time: 00 hr 18 min 51 sec)
Heartbeat CPU 0 instructions: 127500638 cycles: 111134436 heartbeat IPC: 1.248 cumulative IPC: 0.7802 (Simulation time: 00 hr 18 min 55 sec)
Heartbeat CPU 0 instructions: 128000645 cycles: 111542044 heartbeat IPC: 1.227 cumulative IPC: 0.782 (Simulation time: 00 hr 18 min 59 sec)
Heartbeat CPU 0 instructions: 128500648 cycles: 112431546 heartbeat IPC: 0.5621 cumulative IPC: 0.7801 (Simulation time: 00 hr 19 min 07 sec)
Heartbeat CPU 0 instructions: 129000648 cycles: 112926424 heartbeat IPC: 1.01 cumulative IPC: 0.7812 (Simulation time: 00 hr 19 min 11 sec)
Heartbeat CPU 0 instructions: 129500652 cycles: 113333129 heartbeat IPC: 1.229 cumulative IPC: 0.783 (Simulation time: 00 hr 19 min 15 sec)
Heartbeat CPU 0 instructions: 130000658 cycles: 113686542 heartbeat IPC: 1.415 cumulative IPC: 0.7852 (Simulation time: 00 hr 19 min 19 sec)
Heartbeat CPU 0 instructions: 130500659 cycles: 114376871 heartbeat IPC: 0.7243 cumulative IPC: 0.7848 (Simulation time: 00 hr 19 min 25 sec)
Heartbeat CPU 0 instructions: 131000660 cycles: 115296918 heartbeat IPC: 0.5435 cumulative IPC: 0.7826 (Simulation time: 00 hr 19 min 33 sec)
Heartbeat CPU 0 instructions: 131500661 cycles: 115894798 heartbeat IPC: 0.8363 cumulative IPC: 0.7829 (Simulation time: 00 hr 19 min 38 sec)
Heartbeat CPU 0 instructions: 132000664 cycles: 116415376 heartbeat IPC: 0.9605 cumulative IPC: 0.7838 (Simulation time: 00 hr 19 min 42 sec)
Heartbeat CPU 0 instructions: 132500666 cycles: 116932182 heartbeat IPC: 0.9675 cumulative IPC: 0.7847 (Simulation time: 00 hr 19 min 46 sec)
Heartbeat CPU 0 instructions: 133000666 cycles: 117421464 heartbeat IPC: 1.022 cumulative IPC: 0.7858 (Simulation time: 00 hr 19 min 50 sec)
Heartbeat CPU 0 instructions: 133500666 cycles: 117917374 heartbeat IPC: 1.008 cumulative IPC: 0.7869 (Simulation time: 00 hr 19 min 54 sec)
Heartbeat CPU 0 instructions: 134000670 cycles: 118404892 heartbeat IPC: 1.026 cumulative IPC: 0.788 (Simulation time: 00 hr 19 min 58 sec)
Heartbeat CPU 0 instructions: 134500670 cycles: 118876826 heartbeat IPC: 1.059 cumulative IPC: 0.7892 (Simulation time: 00 hr 20 min 02 sec)
Heartbeat CPU 0 instructions: 135000672 cycles: 119273013 heartbeat IPC: 1.262 cumulative IPC: 0.7909 (Simulation time: 00 hr 20 min 06 sec)
Heartbeat CPU 0 instructions: 135500672 cycles: 119585330 heartbeat IPC: 1.601 cumulative IPC: 0.7933 (Simulation time: 00 hr 20 min 09 sec)
Heartbeat CPU 0 instructions: 136000673 cycles: 120718708 heartbeat IPC: 0.4412 cumulative IPC: 0.7896 (Simulation time: 00 hr 20 min 19 sec)
Heartbeat CPU 0 instructions: 136500673 cycles: 121580851 heartbeat IPC: 0.58 cumulative IPC: 0.7879 (Simulation time: 00 hr 20 min 28 sec)
Heartbeat CPU 0 instructions: 137000674 cycles: 122201591 heartbeat IPC: 0.8055 cumulative IPC: 0.788 (Simulation time: 00 hr 20 min 34 sec)
Heartbeat CPU 0 instructions: 137500680 cycles: 122617869 heartbeat IPC: 1.201 cumulative IPC: 0.7896 (Simulation time: 00 hr 20 min 38 sec)
Heartbeat CPU 0 instructions: 138000684 cycles: 123641231 heartbeat IPC: 0.4886 cumulative IPC: 0.7868 (Simulation time: 00 hr 20 min 47 sec)
Heartbeat CPU 0 instructions: 138500686 cycles: 124409444 heartbeat IPC: 0.6509 cumulative IPC: 0.7859 (Simulation time: 00 hr 20 min 54 sec)
Heartbeat CPU 0 instructions: 139000687 cycles: 125029378 heartbeat IPC: 0.8065 cumulative IPC: 0.786 (Simulation time: 00 hr 21 min 00 sec)
Heartbeat CPU 0 instructions: 139500691 cycles: 125468469 heartbeat IPC: 1.139 cumulative IPC: 0.7874 (Simulation time: 00 hr 21 min 04 sec)
Heartbeat CPU 0 instructions: 140000693 cycles: 126364028 heartbeat IPC: 0.5583 cumulative IPC: 0.7856 (Simulation time: 00 hr 21 min 12 sec)
Heartbeat CPU 0 instructions: 140500697 cycles: 127228154 heartbeat IPC: 0.5786 cumulative IPC: 0.784 (Simulation time: 00 hr 21 min 19 sec)
Heartbeat CPU 0 instructions: 141000697 cycles: 127825267 heartbeat IPC: 0.8374 cumulative IPC: 0.7843 (Simulation time: 00 hr 21 min 25 sec)
Heartbeat CPU 0 instructions: 141500699 cycles: 128207846 heartbeat IPC: 1.307 cumulative IPC: 0.786 (Simulation time: 00 hr 21 min 29 sec)
Heartbeat CPU 0 instructions: 142000706 cycles: 129379629 heartbeat IPC: 0.4267 cumulative IPC: 0.7825 (Simulation time: 00 hr 21 min 39 sec)
Heartbeat CPU 0 instructions: 142500708 cycles: 130029603 heartbeat IPC: 0.7693 cumulative IPC: 0.7824 (Simulation time: 00 hr 21 min 46 sec)
Heartbeat CPU 0 instructions: 143000708 cycles: 130600996 heartbeat IPC: 0.8751 cumulative IPC: 0.7828 (Simulation time: 00 hr 21 min 51 sec)
Heartbeat CPU 0 instructions: 143500709 cycles: 131030493 heartbeat IPC: 1.164 cumulative IPC: 0.7842 (Simulation time: 00 hr 21 min 56 sec)
Heartbeat CPU 0 instructions: 144000711 cycles: 131689827 heartbeat IPC: 0.7583 cumulative IPC: 0.7841 (Simulation time: 00 hr 22 min 01 sec)
Heartbeat CPU 0 instructions: 144500718 cycles: 132434338 heartbeat IPC: 0.6716 cumulative IPC: 0.7834 (Simulation time: 00 hr 22 min 07 sec)
Heartbeat CPU 0 instructions: 145000719 cycles: 133051536 heartbeat IPC: 0.8101 cumulative IPC: 0.7835 (Simulation time: 00 hr 22 min 12 sec)
Heartbeat CPU 0 instructions: 145500720 cycles: 133583882 heartbeat IPC: 0.9392 cumulative IPC: 0.7842 (Simulation time: 00 hr 22 min 16 sec)
Heartbeat CPU 0 instructions: 146000724 cycles: 134104018 heartbeat IPC: 0.9613 cumulative IPC: 0.7849 (Simulation time: 00 hr 22 min 21 sec)
Heartbeat CPU 0 instructions: 146500724 cycles: 134600986 heartbeat IPC: 1.006 cumulative IPC: 0.7858 (Simulation time: 00 hr 22 min 25 sec)
Heartbeat CPU 0 instructions: 147000724 cycles: 135074852 heartbeat IPC: 1.055 cumulative IPC: 0.7869 (Simulation time: 00 hr 22 min 29 sec)
Heartbeat CPU 0 instructions: 147500727 cycles: 135508445 heartbeat IPC: 1.153 cumulative IPC: 0.7882 (Simulation time: 00 hr 22 min 33 sec)
Heartbeat CPU 0 instructions: 148000729 cycles: 135923860 heartbeat IPC: 1.204 cumulative IPC: 0.7895 (Simulation time: 00 hr 22 min 38 sec)
Heartbeat CPU 0 instructions: 148500729 cycles: 136392952 heartbeat IPC: 1.066 cumulative IPC: 0.7906 (Simulation time: 00 hr 22 min 42 sec)
Heartbeat CPU 0 instructions: 149000729 cycles: 137542150 heartbeat IPC: 0.4351 cumulative IPC: 0.7873 (Simulation time: 00 hr 22 min 53 sec)
Heartbeat CPU 0 instructions: 149500731 cycles: 138210885 heartbeat IPC: 0.7477 cumulative IPC: 0.7871 (Simulation time: 00 hr 22 min 59 sec)
Heartbeat CPU 0 instructions: 150000737 cycles: 138623075 heartbeat IPC: 1.213 cumulative IPC: 0.7885 (Simulation time: 00 hr 23 min 03 sec)
Heartbeat CPU 0 instructions: 150500741 cycles: 139828646 heartbeat IPC: 0.4147 cumulative IPC: 0.785 (Simulation time: 00 hr 23 min 15 sec)
Heartbeat CPU 0 instructions: 151000742 cycles: 140360821 heartbeat IPC: 0.9395 cumulative IPC: 0.7856 (Simulation time: 00 hr 23 min 20 sec)
Heartbeat CPU 0 instructions: 151500743 cycles: 140742703 heartbeat IPC: 1.309 cumulative IPC: 0.7872 (Simulation time: 00 hr 23 min 24 sec)
Heartbeat CPU 0 instructions: 152000744 cycles: 142271522 heartbeat IPC: 0.3271 cumulative IPC: 0.7818 (Simulation time: 00 hr 23 min 37 sec)
Heartbeat CPU 0 instructions: 152500745 cycles: 143021313 heartbeat IPC: 0.6669 cumulative IPC: 0.7811 (Simulation time: 00 hr 23 min 44 sec)
Heartbeat CPU 0 instructions: 153000745 cycles: 143512029 heartbeat IPC: 1.019 cumulative IPC: 0.782 (Simulation time: 00 hr 23 min 49 sec)
Heartbeat CPU 0 instructions: 153500746 cycles: 143874050 heartbeat IPC: 1.381 cumulative IPC: 0.7837 (Simulation time: 00 hr 23 min 52 sec)
Heartbeat CPU 0 instructions: 154000749 cycles: 145231690 heartbeat IPC: 0.3683 cumulative IPC: 0.7794 (Simulation time: 00 hr 24 min 04 sec)
Heartbeat CPU 0 instructions: 154500754 cycles: 145915497 heartbeat IPC: 0.7312 cumulative IPC: 0.7792 (Simulation time: 00 hr 24 min 11 sec)
Heartbeat CPU 0 instructions: 155000756 cycles: 146375649 heartbeat IPC: 1.087 cumulative IPC: 0.7802 (Simulation time: 00 hr 24 min 15 sec)
Heartbeat CPU 0 instructions: 155500759 cycles: 146734108 heartbeat IPC: 1.395 cumulative IPC: 0.7819 (Simulation time: 00 hr 24 min 19 sec)
Heartbeat CPU 0 instructions: 156000759 cycles: 148030063 heartbeat IPC: 0.3858 cumulative IPC: 0.7781 (Simulation time: 00 hr 24 min 30 sec)
Heartbeat CPU 0 instructions: 156500759 cycles: 148664632 heartbeat IPC: 0.7879 cumulative IPC: 0.7781 (Simulation time: 00 hr 24 min 35 sec)
Heartbeat CPU 0 instructions: 157000765 cycles: 149174149 heartbeat IPC: 0.9813 cumulative IPC: 0.7789 (Simulation time: 00 hr 24 min 40 sec)
Heartbeat CPU 0 instructions: 157500768 cycles: 149545557 heartbeat IPC: 1.346 cumulative IPC: 0.7804 (Simulation time: 00 hr 24 min 44 sec)
Heartbeat CPU 0 instructions: 158000772 cycles: 150465194 heartbeat IPC: 0.5437 cumulative IPC: 0.7789 (Simulation time: 00 hr 24 min 53 sec)
Heartbeat CPU 0 instructions: 158500773 cycles: 151158740 heartbeat IPC: 0.7209 cumulative IPC: 0.7786 (Simulation time: 00 hr 24 min 59 sec)
Heartbeat CPU 0 instructions: 159000774 cycles: 151885276 heartbeat IPC: 0.6882 cumulative IPC: 0.7781 (Simulation time: 00 hr 25 min 06 sec)
Heartbeat CPU 0 instructions: 159500774 cycles: 152749764 heartbeat IPC: 0.5784 cumulative IPC: 0.7769 (Simulation time: 00 hr 25 min 13 sec)
Heartbeat CPU 0 instructions: 160000780 cycles: 153319872 heartbeat IPC: 0.877 cumulative IPC: 0.7773 (Simulation time: 00 hr 25 min 17 sec)
Heartbeat CPU 0 instructions: 160500781 cycles: 153881360 heartbeat IPC: 0.8905 cumulative IPC: 0.7777 (Simulation time: 00 hr 25 min 22 sec)
Heartbeat CPU 0 instructions: 161000786 cycles: 154445424 heartbeat IPC: 0.8864 cumulative IPC: 0.7782 (Simulation time: 00 hr 25 min 27 sec)
Heartbeat CPU 0 instructions: 161500787 cycles: 154956424 heartbeat IPC: 0.9785 cumulative IPC: 0.7789 (Simulation time: 00 hr 25 min 31 sec)
Heartbeat CPU 0 instructions: 162000792 cycles: 155466747 heartbeat IPC: 0.9798 cumulative IPC: 0.7796 (Simulation time: 00 hr 25 min 36 sec)
Heartbeat CPU 0 instructions: 162500794 cycles: 155861301 heartbeat IPC: 1.267 cumulative IPC: 0.7809 (Simulation time: 00 hr 25 min 40 sec)
Heartbeat CPU 0 instructions: 163000794 cycles: 156661897 heartbeat IPC: 0.6245 cumulative IPC: 0.7801 (Simulation time: 00 hr 25 min 47 sec)
Heartbeat CPU 0 instructions: 163500795 cycles: 157111497 heartbeat IPC: 1.112 cumulative IPC: 0.7811 (Simulation time: 00 hr 25 min 50 sec)
Heartbeat CPU 0 instructions: 164000798 cycles: 157578142 heartbeat IPC: 1.071 cumulative IPC: 0.782 (Simulation time: 00 hr 25 min 54 sec)
Heartbeat CPU 0 instructions: 164500798 cycles: 158054146 heartbeat IPC: 1.05 cumulative IPC: 0.7829 (Simulation time: 00 hr 25 min 57 sec)
Heartbeat CPU 0 instructions: 165000802 cycles: 158540452 heartbeat IPC: 1.028 cumulative IPC: 0.7837 (Simulation time: 00 hr 26 min 01 sec)
Heartbeat CPU 0 instructions: 165500805 cycles: 159189393 heartbeat IPC: 0.7705 cumulative IPC: 0.7836 (Simulation time: 00 hr 26 min 06 sec)
Heartbeat CPU 0 instructions: 166000805 cycles: 159642141 heartbeat IPC: 1.104 cumulative IPC: 0.7846 (Simulation time: 00 hr 26 min 10 sec)
Heartbeat CPU 0 instructions: 166500809 cycles: 160100112 heartbeat IPC: 1.092 cumulative IPC: 0.7856 (Simulation time: 00 hr 26 min 13 sec)
Heartbeat CPU 0 instructions: 167000811 cycles: 160563151 heartbeat IPC: 1.08 cumulative IPC: 0.7865 (Simulation time: 00 hr 26 min 16 sec)
Heartbeat CPU 0 instructions: 167500813 cycles: 161048114 heartbeat IPC: 1.031 cumulative IPC: 0.7873 (Simulation time: 00 hr 26 min 20 sec)
Heartbeat CPU 0 instructions: 168000815 cycles: 161517614 heartbeat IPC: 1.065 cumulative IPC: 0.7882 (Simulation time: 00 hr 26 min 23 sec)
Heartbeat CPU 0 instructions: 168500818 cycles: 162012953 heartbeat IPC: 1.009 cumulative IPC: 0.7889 (Simulation time: 00 hr 26 min 27 sec)
Heartbeat CPU 0 instructions: 169000823 cycles: 162543801 heartbeat IPC: 0.9419 cumulative IPC: 0.7894 (Simulation time: 00 hr 26 min 31 sec)
Heartbeat CPU 0 instructions: 169500823 cycles: 163025037 heartbeat IPC: 1.039 cumulative IPC: 0.7902 (Simulation time: 00 hr 26 min 35 sec)
Heartbeat CPU 0 instructions: 170000828 cycles: 163516909 heartbeat IPC: 1.017 cumulative IPC: 0.791 (Simulation time: 00 hr 26 min 38 sec)
Heartbeat CPU 0 instructions: 170500828 cycles: 164011811 heartbeat IPC: 1.01 cumulative IPC: 0.7917 (Simulation time: 00 hr 26 min 42 sec)
Heartbeat CPU 0 instructions: 171000829 cycles: 164518916 heartbeat IPC: 0.986 cumulative IPC: 0.7923 (Simulation time: 00 hr 26 min 46 sec)
Heartbeat CPU 0 instructions: 171500829 cycles: 165016603 heartbeat IPC: 1.005 cumulative IPC: 0.793 (Simulation time: 00 hr 26 min 49 sec)
Heartbeat CPU 0 instructions: 172000832 cycles: 165520787 heartbeat IPC: 0.9917 cumulative IPC: 0.7937 (Simulation time: 00 hr 26 min 53 sec)
Heartbeat CPU 0 instructions: 172500832 cycles: 166025740 heartbeat IPC: 0.9902 cumulative IPC: 0.7943 (Simulation time: 00 hr 26 min 57 sec)
Heartbeat CPU 0 instructions: 173000834 cycles: 166518488 heartbeat IPC: 1.015 cumulative IPC: 0.795 (Simulation time: 00 hr 27 min 01 sec)
Heartbeat CPU 0 instructions: 173500834 cycles: 166989640 heartbeat IPC: 1.061 cumulative IPC: 0.7958 (Simulation time: 00 hr 27 min 05 sec)
Heartbeat CPU 0 instructions: 174000835 cycles: 167419879 heartbeat IPC: 1.162 cumulative IPC: 0.7968 (Simulation time: 00 hr 27 min 09 sec)
Heartbeat CPU 0 instructions: 174500840 cycles: 168500841 heartbeat IPC: 0.4626 cumulative IPC: 0.7945 (Simulation time: 00 hr 27 min 19 sec)
Heartbeat CPU 0 instructions: 175000846 cycles: 169038802 heartbeat IPC: 0.9294 cumulative IPC: 0.795 (Simulation time: 00 hr 27 min 24 sec)
Heartbeat CPU 0 instructions: 175500849 cycles: 169442881 heartbeat IPC: 1.237 cumulative IPC: 0.7961 (Simulation time: 00 hr 27 min 28 sec)
Heartbeat CPU 0 instructions: 176000854 cycles: 170163911 heartbeat IPC: 0.6935 cumulative IPC: 0.7956 (Simulation time: 00 hr 27 min 34 sec)
Heartbeat CPU 0 instructions: 176500856 cycles: 171053992 heartbeat IPC: 0.5617 cumulative IPC: 0.7943 (Simulation time: 00 hr 27 min 43 sec)
Heartbeat CPU 0 instructions: 177000857 cycles: 171689198 heartbeat IPC: 0.7871 cumulative IPC: 0.7943 (Simulation time: 00 hr 27 min 49 sec)
Heartbeat CPU 0 instructions: 177500858 cycles: 172104107 heartbeat IPC: 1.205 cumulative IPC: 0.7954 (Simulation time: 00 hr 27 min 53 sec)
Heartbeat CPU 0 instructions: 178000858 cycles: 173164679 heartbeat IPC: 0.4714 cumulative IPC: 0.7932 (Simulation time: 00 hr 28 min 03 sec)
Heartbeat CPU 0 instructions: 178500864 cycles: 173752577 heartbeat IPC: 0.8505 cumulative IPC: 0.7934 (Simulation time: 00 hr 28 min 08 sec)
Heartbeat CPU 0 instructions: 179000865 cycles: 174148451 heartbeat IPC: 1.263 cumulative IPC: 0.7946 (Simulation time: 00 hr 28 min 12 sec)
Heartbeat CPU 0 instructions: 179500871 cycles: 174829618 heartbeat IPC: 0.734 cumulative IPC: 0.7943 (Simulation time: 00 hr 28 min 19 sec)
Heartbeat CPU 0 instructions: 180000877 cycles: 175392269 heartbeat IPC: 0.8887 cumulative IPC: 0.7947 (Simulation time: 00 hr 28 min 24 sec)
Heartbeat CPU 0 instructions: 180500882 cycles: 175800921 heartbeat IPC: 1.224 cumulative IPC: 0.7957 (Simulation time: 00 hr 28 min 28 sec)
Heartbeat CPU 0 instructions: 181000882 cycles: 176599542 heartbeat IPC: 0.6261 cumulative IPC: 0.7949 (Simulation time: 00 hr 28 min 35 sec)
Heartbeat CPU 0 instructions: 181500882 cycles: 177292308 heartbeat IPC: 0.7217 cumulative IPC: 0.7946 (Simulation time: 00 hr 28 min 40 sec)
Heartbeat CPU 0 instructions: 182000888 cycles: 177953739 heartbeat IPC: 0.7559 cumulative IPC: 0.7945 (Simulation time: 00 hr 28 min 46 sec)
Heartbeat CPU 0 instructions: 182500888 cycles: 178556334 heartbeat IPC: 0.8297 cumulative IPC: 0.7946 (Simulation time: 00 hr 28 min 51 sec)
Heartbeat CPU 0 instructions: 183000892 cycles: 179130735 heartbeat IPC: 0.8705 cumulative IPC: 0.7948 (Simulation time: 00 hr 28 min 56 sec)
Heartbeat CPU 0 instructions: 183500894 cycles: 179542023 heartbeat IPC: 1.216 cumulative IPC: 0.7959 (Simulation time: 00 hr 29 min 00 sec)
Heartbeat CPU 0 instructions: 184000894 cycles: 180503714 heartbeat IPC: 0.5199 cumulative IPC: 0.7943 (Simulation time: 00 hr 29 min 09 sec)
Heartbeat CPU 0 instructions: 184500900 cycles: 181140609 heartbeat IPC: 0.7851 cumulative IPC: 0.7943 (Simulation time: 00 hr 29 min 14 sec)
Heartbeat CPU 0 instructions: 185000903 cycles: 181664396 heartbeat IPC: 0.9546 cumulative IPC: 0.7948 (Simulation time: 00 hr 29 min 19 sec)
Heartbeat CPU 0 instructions: 185500906 cycles: 182044895 heartbeat IPC: 1.314 cumulative IPC: 0.7959 (Simulation time: 00 hr 29 min 23 sec)
Heartbeat CPU 0 instructions: 186000906 cycles: 182811049 heartbeat IPC: 0.6526 cumulative IPC: 0.7953 (Simulation time: 00 hr 29 min 30 sec)
Heartbeat CPU 0 instructions: 186500909 cycles: 183722776 heartbeat IPC: 0.5484 cumulative IPC: 0.794 (Simulation time: 00 hr 29 min 37 sec)
Heartbeat CPU 0 instructions: 187000913 cycles: 184312044 heartbeat IPC: 0.8485 cumulative IPC: 0.7942 (Simulation time: 00 hr 29 min 43 sec)
Heartbeat CPU 0 instructions: 187500914 cycles: 184733697 heartbeat IPC: 1.186 cumulative IPC: 0.7951 (Simulation time: 00 hr 29 min 47 sec)
Heartbeat CPU 0 instructions: 188000915 cycles: 185221079 heartbeat IPC: 1.026 cumulative IPC: 0.7958 (Simulation time: 00 hr 29 min 51 sec)
Heartbeat CPU 0 instructions: 188500915 cycles: 186213513 heartbeat IPC: 0.5038 cumulative IPC: 0.7941 (Simulation time: 00 hr 30 min 01 sec)
Heartbeat CPU 0 instructions: 189000916 cycles: 186873588 heartbeat IPC: 0.7575 cumulative IPC: 0.794 (Simulation time: 00 hr 30 min 07 sec)
Heartbeat CPU 0 instructions: 189500916 cycles: 187262883 heartbeat IPC: 1.284 cumulative IPC: 0.795 (Simulation time: 00 hr 30 min 10 sec)
Heartbeat CPU 0 instructions: 190000922 cycles: 188224228 heartbeat IPC: 0.5201 cumulative IPC: 0.7935 (Simulation time: 00 hr 30 min 18 sec)
Heartbeat CPU 0 instructions: 190500925 cycles: 188871798 heartbeat IPC: 0.7721 cumulative IPC: 0.7935 (Simulation time: 00 hr 30 min 22 sec)
Heartbeat CPU 0 instructions: 191000927 cycles: 189467807 heartbeat IPC: 0.8389 cumulative IPC: 0.7936 (Simulation time: 00 hr 30 min 27 sec)
Heartbeat CPU 0 instructions: 191500928 cycles: 189983710 heartbeat IPC: 0.9692 cumulative IPC: 0.7941 (Simulation time: 00 hr 30 min 30 sec)
Heartbeat CPU 0 instructions: 192000933 cycles: 190507921 heartbeat IPC: 0.9538 cumulative IPC: 0.7946 (Simulation time: 00 hr 30 min 34 sec)
Heartbeat CPU 0 instructions: 192500933 cycles: 191087595 heartbeat IPC: 0.8626 cumulative IPC: 0.7948 (Simulation time: 00 hr 30 min 39 sec)
Heartbeat CPU 0 instructions: 193000935 cycles: 191624687 heartbeat IPC: 0.9309 cumulative IPC: 0.7952 (Simulation time: 00 hr 30 min 43 sec)
Heartbeat CPU 0 instructions: 193500937 cycles: 192147345 heartbeat IPC: 0.9567 cumulative IPC: 0.7957 (Simulation time: 00 hr 30 min 47 sec)
Heartbeat CPU 0 instructions: 194000937 cycles: 192725741 heartbeat IPC: 0.8645 cumulative IPC: 0.7959 (Simulation time: 00 hr 30 min 52 sec)
Heartbeat CPU 0 instructions: 194500937 cycles: 193253583 heartbeat IPC: 0.9473 cumulative IPC: 0.7964 (Simulation time: 00 hr 30 min 57 sec)
Heartbeat CPU 0 instructions: 195000937 cycles: 193643172 heartbeat IPC: 1.283 cumulative IPC: 0.7974 (Simulation time: 00 hr 31 min 01 sec)
Heartbeat CPU 0 instructions: 195500939 cycles: 194509980 heartbeat IPC: 0.5768 cumulative IPC: 0.7964 (Simulation time: 00 hr 31 min 09 sec)
Heartbeat CPU 0 instructions: 196000941 cycles: 195327571 heartbeat IPC: 0.6116 cumulative IPC: 0.7955 (Simulation time: 00 hr 31 min 16 sec)
Heartbeat CPU 0 instructions: 196500944 cycles: 195914584 heartbeat IPC: 0.8518 cumulative IPC: 0.7957 (Simulation time: 00 hr 31 min 21 sec)
Heartbeat CPU 0 instructions: 197000951 cycles: 196652041 heartbeat IPC: 0.678 cumulative IPC: 0.7952 (Simulation time: 00 hr 31 min 28 sec)
Heartbeat CPU 0 instructions: 197500955 cycles: 197369339 heartbeat IPC: 0.6971 cumulative IPC: 0.7949 (Simulation time: 00 hr 31 min 33 sec)
Heartbeat CPU 0 instructions: 198000956 cycles: 197958775 heartbeat IPC: 0.8483 cumulative IPC: 0.795 (Simulation time: 00 hr 31 min 38 sec)
Heartbeat CPU 0 instructions: 198500958 cycles: 198528115 heartbeat IPC: 0.8782 cumulative IPC: 0.7953 (Simulation time: 00 hr 31 min 42 sec)
Heartbeat CPU 0 instructions: 199000958 cycles: 199159124 heartbeat IPC: 0.7924 cumulative IPC: 0.7953 (Simulation time: 00 hr 31 min 48 sec)
Heartbeat CPU 0 instructions: 199500960 cycles: 199653741 heartbeat IPC: 1.011 cumulative IPC: 0.7958 (Simulation time: 00 hr 31 min 53 sec)
Heartbeat CPU 0 instructions: 200000961 cycles: 200009011 heartbeat IPC: 1.407 cumulative IPC: 0.797 (Simulation time: 00 hr 31 min 56 sec)
Heartbeat CPU 0 instructions: 200500961 cycles: 201054013 heartbeat IPC: 0.4785 cumulative IPC: 0.7952 (Simulation time: 00 hr 32 min 05 sec)
Heartbeat CPU 0 instructions: 201000961 cycles: 201748349 heartbeat IPC: 0.7201 cumulative IPC: 0.795 (Simulation time: 00 hr 32 min 11 sec)
Heartbeat CPU 0 instructions: 201500962 cycles: 202206836 heartbeat IPC: 1.091 cumulative IPC: 0.7957 (Simulation time: 00 hr 32 min 16 sec)
Heartbeat CPU 0 instructions: 202000964 cycles: 202781156 heartbeat IPC: 0.8706 cumulative IPC: 0.7959 (Simulation time: 00 hr 32 min 21 sec)
Heartbeat CPU 0 instructions: 202500968 cycles: 203808180 heartbeat IPC: 0.4868 cumulative IPC: 0.7942 (Simulation time: 00 hr 32 min 30 sec)
Heartbeat CPU 0 instructions: 203000969 cycles: 204347666 heartbeat IPC: 0.9268 cumulative IPC: 0.7946 (Simulation time: 00 hr 32 min 35 sec)
Heartbeat CPU 0 instructions: 203500969 cycles: 205218642 heartbeat IPC: 0.5741 cumulative IPC: 0.7936 (Simulation time: 00 hr 32 min 43 sec)
Heartbeat CPU 0 instructions: 204000969 cycles: 205926703 heartbeat IPC: 0.7062 cumulative IPC: 0.7933 (Simulation time: 00 hr 32 min 50 sec)
Heartbeat CPU 0 instructions: 204500969 cycles: 206438252 heartbeat IPC: 0.9774 cumulative IPC: 0.7938 (Simulation time: 00 hr 32 min 54 sec)
Heartbeat CPU 0 instructions: 205000973 cycles: 207076458 heartbeat IPC: 0.7835 cumulative IPC: 0.7938 (Simulation time: 00 hr 33 min 00 sec)
Heartbeat CPU 0 instructions: 205500973 cycles: 208066252 heartbeat IPC: 0.5052 cumulative IPC: 0.7923 (Simulation time: 00 hr 33 min 08 sec)
Heartbeat CPU 0 instructions: 206000974 cycles: 208754097 heartbeat IPC: 0.7269 cumulative IPC: 0.7921 (Simulation time: 00 hr 33 min 13 sec)
Heartbeat CPU 0 instructions: 206500981 cycles: 209246158 heartbeat IPC: 1.016 cumulative IPC: 0.7926 (Simulation time: 00 hr 33 min 18 sec)
Heartbeat CPU 0 instructions: 207000984 cycles: 209631353 heartbeat IPC: 1.298 cumulative IPC: 0.7936 (Simulation time: 00 hr 33 min 22 sec)
Heartbeat CPU 0 instructions: 207500984 cycles: 210633852 heartbeat IPC: 0.4988 cumulative IPC: 0.7921 (Simulation time: 00 hr 33 min 30 sec)
Heartbeat CPU 0 instructions: 208000984 cycles: 211395902 heartbeat IPC: 0.6561 cumulative IPC: 0.7916 (Simulation time: 00 hr 33 min 36 sec)
Heartbeat CPU 0 instructions: 208500985 cycles: 211951557 heartbeat IPC: 0.8998 cumulative IPC: 0.7919 (Simulation time: 00 hr 33 min 40 sec)
Heartbeat CPU 0 instructions: 209000988 cycles: 212403641 heartbeat IPC: 1.106 cumulative IPC: 0.7926 (Simulation time: 00 hr 33 min 45 sec)
Heartbeat CPU 0 instructions: 209500991 cycles: 212844286 heartbeat IPC: 1.135 cumulative IPC: 0.7934 (Simulation time: 00 hr 33 min 49 sec)
Heartbeat CPU 0 instructions: 210000993 cycles: 213185394 heartbeat IPC: 1.466 cumulative IPC: 0.7945 (Simulation time: 00 hr 33 min 52 sec)
Heartbeat CPU 0 instructions: 210500995 cycles: 214011331 heartbeat IPC: 0.6054 cumulative IPC: 0.7937 (Simulation time: 00 hr 33 min 58 sec)
Heartbeat CPU 0 instructions: 211000997 cycles: 214678573 heartbeat IPC: 0.7494 cumulative IPC: 0.7936 (Simulation time: 00 hr 34 min 03 sec)
Heartbeat CPU 0 instructions: 211500997 cycles: 215240868 heartbeat IPC: 0.8892 cumulative IPC: 0.7938 (Simulation time: 00 hr 34 min 07 sec)
Heartbeat CPU 0 instructions: 212000998 cycles: 215850042 heartbeat IPC: 0.8208 cumulative IPC: 0.7939 (Simulation time: 00 hr 34 min 13 sec)
Heartbeat CPU 0 instructions: 212500999 cycles: 216392812 heartbeat IPC: 0.9212 cumulative IPC: 0.7943 (Simulation time: 00 hr 34 min 17 sec)
Heartbeat CPU 0 instructions: 213001003 cycles: 216814897 heartbeat IPC: 1.185 cumulative IPC: 0.7951 (Simulation time: 00 hr 34 min 21 sec)
Heartbeat CPU 0 instructions: 213501004 cycles: 217630679 heartbeat IPC: 0.6129 cumulative IPC: 0.7943 (Simulation time: 00 hr 34 min 28 sec)
Heartbeat CPU 0 instructions: 214001007 cycles: 218364393 heartbeat IPC: 0.6815 cumulative IPC: 0.7939 (Simulation time: 00 hr 34 min 33 sec)
Heartbeat CPU 0 instructions: 214501007 cycles: 218944766 heartbeat IPC: 0.8615 cumulative IPC: 0.7941 (Simulation time: 00 hr 34 min 37 sec)
Heartbeat CPU 0 instructions: 215001008 cycles: 219449685 heartbeat IPC: 0.9903 cumulative IPC: 0.7946 (Simulation time: 00 hr 34 min 41 sec)
Heartbeat CPU 0 instructions: 215501009 cycles: 219969549 heartbeat IPC: 0.9618 cumulative IPC: 0.795 (Simulation time: 00 hr 34 min 45 sec)
Heartbeat CPU 0 instructions: 216001009 cycles: 220431545 heartbeat IPC: 1.082 cumulative IPC: 0.7957 (Simulation time: 00 hr 34 min 49 sec)
Heartbeat CPU 0 instructions: 216501010 cycles: 220938632 heartbeat IPC: 0.986 cumulative IPC: 0.7961 (Simulation time: 00 hr 34 min 53 sec)
Heartbeat CPU 0 instructions: 217001016 cycles: 221456023 heartbeat IPC: 0.9664 cumulative IPC: 0.7965 (Simulation time: 00 hr 34 min 57 sec)
Heartbeat CPU 0 instructions: 217501021 cycles: 221911660 heartbeat IPC: 1.097 cumulative IPC: 0.7972 (Simulation time: 00 hr 35 min 01 sec)
Heartbeat CPU 0 instructions: 218001021 cycles: 222284399 heartbeat IPC: 1.341 cumulative IPC: 0.7982 (Simulation time: 00 hr 35 min 05 sec)
Heartbeat CPU 0 instructions: 218501021 cycles: 223024049 heartbeat IPC: 0.676 cumulative IPC: 0.7977 (Simulation time: 00 hr 35 min 11 sec)
Heartbeat CPU 0 instructions: 219001022 cycles: 223849132 heartbeat IPC: 0.606 cumulative IPC: 0.797 (Simulation time: 00 hr 35 min 17 sec)
Heartbeat CPU 0 instructions: 219501028 cycles: 224503047 heartbeat IPC: 0.7646 cumulative IPC: 0.7969 (Simulation time: 00 hr 35 min 22 sec)
Heartbeat CPU 0 instructions: 220001029 cycles: 225055969 heartbeat IPC: 0.9043 cumulative IPC: 0.7972 (Simulation time: 00 hr 35 min 27 sec)
Heartbeat CPU 0 instructions: 220501030 cycles: 225567033 heartbeat IPC: 0.9784 cumulative IPC: 0.7976 (Simulation time: 00 hr 35 min 31 sec)
Heartbeat CPU 0 instructions: 221001031 cycles: 226044573 heartbeat IPC: 1.047 cumulative IPC: 0.7982 (Simulation time: 00 hr 35 min 36 sec)
Heartbeat CPU 0 instructions: 221501033 cycles: 226503221 heartbeat IPC: 1.09 cumulative IPC: 0.7988 (Simulation time: 00 hr 35 min 40 sec)
Heartbeat CPU 0 instructions: 222001034 cycles: 227456045 heartbeat IPC: 0.5248 cumulative IPC: 0.7976 (Simulation time: 00 hr 35 min 47 sec)
Heartbeat CPU 0 instructions: 222501034 cycles: 228139876 heartbeat IPC: 0.7312 cumulative IPC: 0.7974 (Simulation time: 00 hr 35 min 53 sec)
Heartbeat CPU 0 instructions: 223001035 cycles: 228746667 heartbeat IPC: 0.824 cumulative IPC: 0.7974 (Simulation time: 00 hr 35 min 58 sec)
Heartbeat CPU 0 instructions: 223501035 cycles: 229227099 heartbeat IPC: 1.041 cumulative IPC: 0.798 (Simulation time: 00 hr 36 min 03 sec)
Heartbeat CPU 0 instructions: 224001035 cycles: 229601600 heartbeat IPC: 1.335 cumulative IPC: 0.7989 (Simulation time: 00 hr 36 min 06 sec)
Heartbeat CPU 0 instructions: 224501035 cycles: 230557123 heartbeat IPC: 0.5233 cumulative IPC: 0.7977 (Simulation time: 00 hr 36 min 14 sec)
Heartbeat CPU 0 instructions: 225001036 cycles: 231188370 heartbeat IPC: 0.7921 cumulative IPC: 0.7977 (Simulation time: 00 hr 36 min 20 sec)
Heartbeat CPU 0 instructions: 225501038 cycles: 231748754 heartbeat IPC: 0.8922 cumulative IPC: 0.7979 (Simulation time: 00 hr 36 min 24 sec)
Heartbeat CPU 0 instructions: 226001044 cycles: 232166783 heartbeat IPC: 1.196 cumulative IPC: 0.7987 (Simulation time: 00 hr 36 min 28 sec)
Heartbeat CPU 0 instructions: 226501046 cycles: 232933242 heartbeat IPC: 0.6524 cumulative IPC: 0.7982 (Simulation time: 00 hr 36 min 35 sec)
Heartbeat CPU 0 instructions: 227001051 cycles: 233745959 heartbeat IPC: 0.6152 cumulative IPC: 0.7975 (Simulation time: 00 hr 36 min 42 sec)
Heartbeat CPU 0 instructions: 227501053 cycles: 234368400 heartbeat IPC: 0.8033 cumulative IPC: 0.7975 (Simulation time: 00 hr 36 min 48 sec)
Heartbeat CPU 0 instructions: 228001053 cycles: 234771973 heartbeat IPC: 1.239 cumulative IPC: 0.7983 (Simulation time: 00 hr 36 min 52 sec)
Heartbeat CPU 0 instructions: 228501054 cycles: 235727285 heartbeat IPC: 0.5234 cumulative IPC: 0.7971 (Simulation time: 00 hr 36 min 59 sec)
Heartbeat CPU 0 instructions: 229001056 cycles: 236342437 heartbeat IPC: 0.8128 cumulative IPC: 0.7972 (Simulation time: 00 hr 37 min 03 sec)
Heartbeat CPU 0 instructions: 229501057 cycles: 236971192 heartbeat IPC: 0.7952 cumulative IPC: 0.7972 (Simulation time: 00 hr 37 min 08 sec)
Heartbeat CPU 0 instructions: 230001060 cycles: 237604622 heartbeat IPC: 0.7894 cumulative IPC: 0.7972 (Simulation time: 00 hr 37 min 13 sec)
Heartbeat CPU 0 instructions: 230501061 cycles: 238083398 heartbeat IPC: 1.044 cumulative IPC: 0.7977 (Simulation time: 00 hr 37 min 18 sec)
Heartbeat CPU 0 instructions: 231001061 cycles: 238861046 heartbeat IPC: 0.643 cumulative IPC: 0.7971 (Simulation time: 00 hr 37 min 24 sec)
Heartbeat CPU 0 instructions: 231501067 cycles: 239639156 heartbeat IPC: 0.6426 cumulative IPC: 0.7966 (Simulation time: 00 hr 37 min 30 sec)
Heartbeat CPU 0 instructions: 232001071 cycles: 240286368 heartbeat IPC: 0.7726 cumulative IPC: 0.7966 (Simulation time: 00 hr 37 min 36 sec)
Heartbeat CPU 0 instructions: 232501073 cycles: 240806482 heartbeat IPC: 0.9613 cumulative IPC: 0.7969 (Simulation time: 00 hr 37 min 41 sec)
Heartbeat CPU 0 instructions: 233001074 cycles: 241183390 heartbeat IPC: 1.327 cumulative IPC: 0.7978 (Simulation time: 00 hr 37 min 44 sec)
Heartbeat CPU 0 instructions: 233501076 cycles: 241940778 heartbeat IPC: 0.6602 cumulative IPC: 0.7973 (Simulation time: 00 hr 37 min 51 sec)
Heartbeat CPU 0 instructions: 234001078 cycles: 242459729 heartbeat IPC: 0.9635 cumulative IPC: 0.7977 (Simulation time: 00 hr 37 min 56 sec)
Heartbeat CPU 0 instructions: 234501079 cycles: 242845169 heartbeat IPC: 1.297 cumulative IPC: 0.7986 (Simulation time: 00 hr 37 min 59 sec)
Heartbeat CPU 0 instructions: 235001083 cycles: 243634281 heartbeat IPC: 0.6336 cumulative IPC: 0.798 (Simulation time: 00 hr 38 min 06 sec)
Heartbeat CPU 0 instructions: 235501083 cycles: 244472229 heartbeat IPC: 0.5967 cumulative IPC: 0.7973 (Simulation time: 00 hr 38 min 13 sec)
Heartbeat CPU 0 instructions: 236001083 cycles: 244947635 heartbeat IPC: 1.052 cumulative IPC: 0.7978 (Simulation time: 00 hr 38 min 18 sec)
Heartbeat CPU 0 instructions: 236501086 cycles: 245311729 heartbeat IPC: 1.373 cumulative IPC: 0.7987 (Simulation time: 00 hr 38 min 21 sec)
Heartbeat CPU 0 instructions: 237001088 cycles: 246395957 heartbeat IPC: 0.4612 cumulative IPC: 0.7971 (Simulation time: 00 hr 38 min 30 sec)
Heartbeat CPU 0 instructions: 237501088 cycles: 247109745 heartbeat IPC: 0.7005 cumulative IPC: 0.7968 (Simulation time: 00 hr 38 min 36 sec)
Heartbeat CPU 0 instructions: 238001090 cycles: 247674596 heartbeat IPC: 0.8852 cumulative IPC: 0.797 (Simulation time: 00 hr 38 min 41 sec)
Heartbeat CPU 0 instructions: 238501092 cycles: 248048133 heartbeat IPC: 1.339 cumulative IPC: 0.7979 (Simulation time: 00 hr 38 min 44 sec)
Heartbeat CPU 0 instructions: 239001096 cycles: 248965262 heartbeat IPC: 0.5452 cumulative IPC: 0.7969 (Simulation time: 00 hr 38 min 52 sec)
Heartbeat CPU 0 instructions: 239501096 cycles: 249557320 heartbeat IPC: 0.8445 cumulative IPC: 0.797 (Simulation time: 00 hr 38 min 57 sec)
Heartbeat CPU 0 instructions: 240001098 cycles: 249928765 heartbeat IPC: 1.346 cumulative IPC: 0.7979 (Simulation time: 00 hr 39 min 01 sec)
Heartbeat CPU 0 instructions: 240501099 cycles: 250661635 heartbeat IPC: 0.6823 cumulative IPC: 0.7975 (Simulation time: 00 hr 39 min 08 sec)
Heartbeat CPU 0 instructions: 241001102 cycles: 251293726 heartbeat IPC: 0.791 cumulative IPC: 0.7975 (Simulation time: 00 hr 39 min 13 sec)
Heartbeat CPU 0 instructions: 241501108 cycles: 251732299 heartbeat IPC: 1.14 cumulative IPC: 0.7981 (Simulation time: 00 hr 39 min 17 sec)
Heartbeat CPU 0 instructions: 242001111 cycles: 252396157 heartbeat IPC: 0.7532 cumulative IPC: 0.798 (Simulation time: 00 hr 39 min 23 sec)
Heartbeat CPU 0 instructions: 242501114 cycles: 253093884 heartbeat IPC: 0.7166 cumulative IPC: 0.7978 (Simulation time: 00 hr 39 min 29 sec)
Heartbeat CPU 0 instructions: 243001115 cycles: 253565244 heartbeat IPC: 1.061 cumulative IPC: 0.7983 (Simulation time: 00 hr 39 min 34 sec)
Heartbeat CPU 0 instructions: 243501115 cycles: 254202992 heartbeat IPC: 0.784 cumulative IPC: 0.7983 (Simulation time: 00 hr 39 min 39 sec)
Heartbeat CPU 0 instructions: 244001121 cycles: 254946027 heartbeat IPC: 0.6729 cumulative IPC: 0.7979 (Simulation time: 00 hr 39 min 46 sec)
Heartbeat CPU 0 instructions: 244501121 cycles: 255403451 heartbeat IPC: 1.093 cumulative IPC: 0.7984 (Simulation time: 00 hr 39 min 50 sec)
Heartbeat CPU 0 instructions: 245001124 cycles: 255746292 heartbeat IPC: 1.458 cumulative IPC: 0.7994 (Simulation time: 00 hr 39 min 53 sec)
Heartbeat CPU 0 instructions: 245501125 cycles: 256844247 heartbeat IPC: 0.4554 cumulative IPC: 0.7978 (Simulation time: 00 hr 40 min 01 sec)
Heartbeat CPU 0 instructions: 246001128 cycles: 257486579 heartbeat IPC: 0.7784 cumulative IPC: 0.7978 (Simulation time: 00 hr 40 min 06 sec)
Heartbeat CPU 0 instructions: 246501128 cycles: 257964976 heartbeat IPC: 1.045 cumulative IPC: 0.7983 (Simulation time: 00 hr 40 min 10 sec)
Heartbeat CPU 0 instructions: 247001132 cycles: 258404678 heartbeat IPC: 1.137 cumulative IPC: 0.7989 (Simulation time: 00 hr 40 min 14 sec)
Heartbeat CPU 0 instructions: 247501133 cycles: 258782777 heartbeat IPC: 1.322 cumulative IPC: 0.7997 (Simulation time: 00 hr 40 min 18 sec)
Heartbeat CPU 0 instructions: 248001136 cycles: 259112820 heartbeat IPC: 1.515 cumulative IPC: 0.8006 (Simulation time: 00 hr 40 min 21 sec)
Heartbeat CPU 0 instructions: 248501137 cycles: 259913231 heartbeat IPC: 0.6247 cumulative IPC: 0.8 (Simulation time: 00 hr 40 min 28 sec)
Heartbeat CPU 0 instructions: 249001138 cycles: 260585073 heartbeat IPC: 0.7442 cumulative IPC: 0.7999 (Simulation time: 00 hr 40 min 34 sec)
Heartbeat CPU 0 instructions: 249501138 cycles: 261103065 heartbeat IPC: 0.9653 cumulative IPC: 0.8002 (Simulation time: 00 hr 40 min 39 sec)
Simulation finished CPU 0 instructions: 200000001 cycles: 250105909 cumulative IPC: 0.7997 (Simulation time: 00 hr 40 min 45 sec)
Simulation complete CPU 0 instructions: 200000001 cycles: 250105909 cumulative IPC: 0.7997 (Simulation time: 00 hr 40 min 45 sec)

ChampSim completed all CPUs

=== Simulation ===
CPU 0 runs /local-ssd/ben/dpc4-traces/Graph/GMS/gms.k_clique_list_danisch_edge_parallel.soc-pokec-relationships.slice-367.champsimtrace.gz

Region of Interest Statistics

CPU 0 cumulative IPC: 0.7997 instructions: 200000001 cycles: 250105909
CPU 0 Branch Prediction Accuracy: 93.96% MPKI: 9.511 Average ROB Occupancy at Mispredict: 30.89
Branch type MPKI
BRANCH_DIRECT_JUMP: 0.5053
BRANCH_INDIRECT: 0
BRANCH_CONDITIONAL: 9.005
BRANCH_DIRECT_CALL: 0
BRANCH_INDIRECT_CALL: 0
BRANCH_RETURN: 0

cpu0->cpu0_STLB TOTAL        ACCESS:   13908115 HIT:   13236825 MISS:     671290 MSHR_MERGE:          0
cpu0->cpu0_STLB LOAD         ACCESS:   13908115 HIT:   13236825 MISS:     671290 MSHR_MERGE:          0
cpu0->cpu0_STLB RFO          ACCESS:          0 HIT:          0 MISS:          0 MSHR_MERGE:          0
cpu0->cpu0_STLB PREFETCH     ACCESS:          0 HIT:          0 MISS:          0 MSHR_MERGE:          0
cpu0->cpu0_STLB WRITE        ACCESS:          0 HIT:          0 MISS:          0 MSHR_MERGE:          0
cpu0->cpu0_STLB TRANSLATION  ACCESS:          0 HIT:          0 MISS:          0 MSHR_MERGE:          0
cpu0->cpu0_STLB PREFETCH REQUESTED:          0 ISSUED:          0 USEFUL:          0 USELESS:          0
cpu0->cpu0_STLB AVERAGE MISS LATENCY: 190.7 cycles
cpu0->cpu0_L2C TOTAL        ACCESS:   14664614 HIT:   11871207 MISS:    2793407 MSHR_MERGE:      84573
cpu0->cpu0_L2C LOAD         ACCESS:    3729111 HIT:    2730700 MISS:     998411 MSHR_MERGE:       9561
cpu0->cpu0_L2C RFO          ACCESS:    2141939 HIT:    2122698 MISS:      19241 MSHR_MERGE:          0
cpu0->cpu0_L2C PREFETCH     ACCESS:    5921005 HIT:    4197332 MISS:    1723673 MSHR_MERGE:      75012
cpu0->cpu0_L2C WRITE        ACCESS:    2304479 HIT:    2304433 MISS:         46 MSHR_MERGE:          0
cpu0->cpu0_L2C TRANSLATION  ACCESS:     568080 HIT:     516044 MISS:      52036 MSHR_MERGE:          0
cpu0->cpu0_L2C PREFETCH REQUESTED:    5210381 ISSUED:    4759923 USEFUL:     246019 USELESS:    1027711
cpu0->cpu0_L2C AVERAGE MISS LATENCY: 569.6 cycles
cpu0->cpu0_L1I TOTAL        ACCESS:   19540663 HIT:   19540663 MISS:          0 MSHR_MERGE:          0
cpu0->cpu0_L1I LOAD         ACCESS:   19540663 HIT:   19540663 MISS:          0 MSHR_MERGE:          0
cpu0->cpu0_L1I RFO          ACCESS:          0 HIT:          0 MISS:          0 MSHR_MERGE:          0
cpu0->cpu0_L1I PREFETCH     ACCESS:          0 HIT:          0 MISS:          0 MSHR_MERGE:          0
cpu0->cpu0_L1I WRITE        ACCESS:          0 HIT:          0 MISS:          0 MSHR_MERGE:          0
cpu0->cpu0_L1I TRANSLATION  ACCESS:          0 HIT:          0 MISS:          0 MSHR_MERGE:          0
cpu0->cpu0_L1I PREFETCH REQUESTED:          0 ISSUED:          0 USEFUL:          0 USELESS:          0
cpu0->cpu0_L1I AVERAGE MISS LATENCY: - cycles
cpu0->cpu0_L1D TOTAL        ACCESS:   73900386 HIT:   65145446 MISS:    8754940 MSHR_MERGE:    1153938
cpu0->cpu0_L1D LOAD         ACCESS:   39008535 HIT:   34444022 MISS:    4564513 MSHR_MERGE:     835352
cpu0->cpu0_L1D RFO          ACCESS:          0 HIT:          0 MISS:          0 MSHR_MERGE:          0
cpu0->cpu0_L1D PREFETCH     ACCESS:    2211044 HIT:     927958 MISS:    1283086 MSHR_MERGE:     121963
cpu0->cpu0_L1D WRITE        ACCESS:   31340649 HIT:   29021085 MISS:    2319564 MSHR_MERGE:     176926
cpu0->cpu0_L1D TRANSLATION  ACCESS:    1340158 HIT:     752381 MISS:     587777 MSHR_MERGE:      19697
cpu0->cpu0_L1D PREFETCH REQUESTED:   30986081 ISSUED:    2211044 USEFUL:     258104 USELESS:     902920
cpu0->cpu0_L1D AVERAGE MISS LATENCY: 104.6 cycles
cpu0->cpu0_ITLB TOTAL        ACCESS:   19492024 HIT:   19492024 MISS:          0 MSHR_MERGE:          0
cpu0->cpu0_ITLB LOAD         ACCESS:   19492024 HIT:   19492024 MISS:          0 MSHR_MERGE:          0
cpu0->cpu0_ITLB RFO          ACCESS:          0 HIT:          0 MISS:          0 MSHR_MERGE:          0
cpu0->cpu0_ITLB PREFETCH     ACCESS:          0 HIT:          0 MISS:          0 MSHR_MERGE:          0
cpu0->cpu0_ITLB WRITE        ACCESS:          0 HIT:          0 MISS:          0 MSHR_MERGE:          0
cpu0->cpu0_ITLB TRANSLATION  ACCESS:          0 HIT:          0 MISS:          0 MSHR_MERGE:          0
cpu0->cpu0_ITLB PREFETCH REQUESTED:          0 ISSUED:          0 USEFUL:          0 USELESS:          0
cpu0->cpu0_ITLB AVERAGE MISS LATENCY: - cycles
cpu0->cpu0_DTLB TOTAL        ACCESS:   70675917 HIT:   52911903 MISS:   17764014 MSHR_MERGE:    3855899
cpu0->cpu0_DTLB LOAD         ACCESS:   70675917 HIT:   52911903 MISS:   17764014 MSHR_MERGE:    3855899
cpu0->cpu0_DTLB RFO          ACCESS:          0 HIT:          0 MISS:          0 MSHR_MERGE:          0
cpu0->cpu0_DTLB PREFETCH     ACCESS:          0 HIT:          0 MISS:          0 MSHR_MERGE:          0
cpu0->cpu0_DTLB WRITE        ACCESS:          0 HIT:          0 MISS:          0 MSHR_MERGE:          0
cpu0->cpu0_DTLB TRANSLATION  ACCESS:          0 HIT:          0 MISS:          0 MSHR_MERGE:          0
cpu0->cpu0_DTLB PREFETCH REQUESTED:          0 ISSUED:          0 USEFUL:          0 USELESS:          0
cpu0->cpu0_DTLB AVERAGE MISS LATENCY: 14.27 cycles
cpu0->LLC TOTAL        ACCESS:    4691332 HIT:    1614906 MISS:    3076426 MSHR_MERGE:     566822
cpu0->LLC LOAD         ACCESS:     988850 HIT:     374678 MISS:     614172 MSHR_MERGE:        902
cpu0->LLC RFO          ACCESS:      19241 HIT:      10392 MISS:       8849 MSHR_MERGE:          0
cpu0->LLC PREFETCH     ACCESS:    3592820 HIT:    1205057 MISS:    2387763 MSHR_MERGE:     565920
cpu0->LLC WRITE        ACCESS:      38385 HIT:      22359 MISS:      16026 MSHR_MERGE:          0
cpu0->LLC TRANSLATION  ACCESS:      52036 HIT:       2420 MISS:      49616 MSHR_MERGE:          0
cpu0->LLC PREFETCH REQUESTED:    1954100 ISSUED:    1944159 USEFUL:      76957 USELESS:     772005
cpu0->LLC AVERAGE MISS LATENCY: 843.7 cycles

DRAM Statistics

Channel 0 RQ ROW_BUFFER_HIT:       5653
  ROW_BUFFER_MISS:    2487883
  AVG DBUS CONGESTED CYCLE: 4.092
Channel 0 WQ ROW_BUFFER_HIT:       3913
  ROW_BUFFER_MISS:      17275
  FULL:          0
Channel 0 REFRESHES ISSUED:      20842
