[VMEM] WARNING: physical memory size is smaller than virtual memory size.

*** ChampSim Multicore Out-of-Order Simulator ***
Warmup Instructions: 50000000
Simulation Instructions: 200000000
Number of CPUs: 1
Page size: 4096
Core 0: /local-ssd/ben/dpc4-traces/Graph/Ligra/ligra_Components-Shortcut.com-lj.ungraph.gcc_6.3.0_O3.drop_17000M.length_250M.champsimtrace.xz
sBerti (Smart Stride + Berti) Prefetcher Initialized
Off-chip DRAM Size: 64 GiB Channels: 1 Width: 64-bit Data Rate: 800 MT/s
Heartbeat CPU 0 instructions: 500005 cycles: 171783 heartbeat IPC: 2.911 cumulative IPC: 2.911 (Simulation time: 00 hr 00 min 02 sec)
Heartbeat CPU 0 instructions: 1000005 cycles: 353509 heartbeat IPC: 2.751 cumulative IPC: 2.829 (Simulation time: 00 hr 00 min 04 sec)
Heartbeat CPU 0 instructions: 1500005 cycles: 525982 heartbeat IPC: 2.899 cumulative IPC: 2.852 (Simulation time: 00 hr 00 min 06 sec)
Heartbeat CPU 0 instructions: 2000010 cycles: 713290 heartbeat IPC: 2.669 cumulative IPC: 2.804 (Simulation time: 00 hr 00 min 08 sec)
Heartbeat CPU 0 instructions: 2500016 cycles: 896768 heartbeat IPC: 2.725 cumulative IPC: 2.788 (Simulation time: 00 hr 00 min 10 sec)
Heartbeat CPU 0 instructions: 3000022 cycles: 1085529 heartbeat IPC: 2.649 cumulative IPC: 2.764 (Simulation time: 00 hr 00 min 13 sec)
Heartbeat CPU 0 instructions: 3500025 cycles: 1277408 heartbeat IPC: 2.606 cumulative IPC: 2.74 (Simulation time: 00 hr 00 min 15 sec)
Heartbeat CPU 0 instructions: 4000026 cycles: 1454245 heartbeat IPC: 2.827 cumulative IPC: 2.751 (Simulation time: 00 hr 00 min 17 sec)
Heartbeat CPU 0 instructions: 4500027 cycles: 1641183 heartbeat IPC: 2.675 cumulative IPC: 2.742 (Simulation time: 00 hr 00 min 20 sec)
Heartbeat CPU 0 instructions: 5000033 cycles: 1825892 heartbeat IPC: 2.707 cumulative IPC: 2.738 (Simulation time: 00 hr 00 min 22 sec)
Heartbeat CPU 0 instructions: 5500035 cycles: 2012068 heartbeat IPC: 2.686 cumulative IPC: 2.734 (Simulation time: 00 hr 00 min 25 sec)
Heartbeat CPU 0 instructions: 6000038 cycles: 2187259 heartbeat IPC: 2.854 cumulative IPC: 2.743 (Simulation time: 00 hr 00 min 27 sec)
Heartbeat CPU 0 instructions: 6500038 cycles: 2374658 heartbeat IPC: 2.668 cumulative IPC: 2.737 (Simulation time: 00 hr 00 min 29 sec)
Heartbeat CPU 0 instructions: 7000044 cycles: 2561703 heartbeat IPC: 2.673 cumulative IPC: 2.733 (Simulation time: 00 hr 00 min 32 sec)
Heartbeat CPU 0 instructions: 7500046 cycles: 2747723 heartbeat IPC: 2.688 cumulative IPC: 2.73 (Simulation time: 00 hr 00 min 34 sec)
Heartbeat CPU 0 instructions: 8000048 cycles: 2936789 heartbeat IPC: 2.645 cumulative IPC: 2.724 (Simulation time: 00 hr 00 min 36 sec)
Heartbeat CPU 0 instructions: 8500049 cycles: 3127126 heartbeat IPC: 2.627 cumulative IPC: 2.718 (Simulation time: 00 hr 00 min 39 sec)
Heartbeat CPU 0 instructions: 9000055 cycles: 3298055 heartbeat IPC: 2.925 cumulative IPC: 2.729 (Simulation time: 00 hr 00 min 41 sec)
Heartbeat CPU 0 instructions: 9500061 cycles: 3484070 heartbeat IPC: 2.688 cumulative IPC: 2.727 (Simulation time: 00 hr 00 min 44 sec)
Heartbeat CPU 0 instructions: 10000066 cycles: 3672748 heartbeat IPC: 2.65 cumulative IPC: 2.723 (Simulation time: 00 hr 00 min 46 sec)
Heartbeat CPU 0 instructions: 10500066 cycles: 3865295 heartbeat IPC: 2.597 cumulative IPC: 2.716 (Simulation time: 00 hr 00 min 48 sec)
Heartbeat CPU 0 instructions: 11000066 cycles: 4052374 heartbeat IPC: 2.673 cumulative IPC: 2.714 (Simulation time: 00 hr 00 min 51 sec)
Heartbeat CPU 0 instructions: 11500072 cycles: 4230052 heartbeat IPC: 2.814 cumulative IPC: 2.719 (Simulation time: 00 hr 00 min 53 sec)
Heartbeat CPU 0 instructions: 12000077 cycles: 4395332 heartbeat IPC: 3.025 cumulative IPC: 2.73 (Simulation time: 00 hr 00 min 55 sec)
Heartbeat CPU 0 instructions: 12500078 cycles: 4575349 heartbeat IPC: 2.778 cumulative IPC: 2.732 (Simulation time: 00 hr 00 min 58 sec)
Heartbeat CPU 0 instructions: 13000079 cycles: 4744530 heartbeat IPC: 2.955 cumulative IPC: 2.74 (Simulation time: 00 hr 01 min 00 sec)
Heartbeat CPU 0 instructions: 13500086 cycles: 4859903 heartbeat IPC: 4.334 cumulative IPC: 2.778 (Simulation time: 00 hr 01 min 01 sec)
Heartbeat CPU 0 instructions: 14000093 cycles: 4989711 heartbeat IPC: 3.852 cumulative IPC: 2.806 (Simulation time: 00 hr 01 min 03 sec)
Heartbeat CPU 0 instructions: 14500097 cycles: 5114773 heartbeat IPC: 3.998 cumulative IPC: 2.835 (Simulation time: 00 hr 01 min 05 sec)
Heartbeat CPU 0 instructions: 15000104 cycles: 5217903 heartbeat IPC: 4.848 cumulative IPC: 2.875 (Simulation time: 00 hr 01 min 07 sec)
Heartbeat CPU 0 instructions: 15500104 cycles: 5332234 heartbeat IPC: 4.373 cumulative IPC: 2.907 (Simulation time: 00 hr 01 min 09 sec)
Heartbeat CPU 0 instructions: 16000104 cycles: 5452998 heartbeat IPC: 4.14 cumulative IPC: 2.934 (Simulation time: 00 hr 01 min 11 sec)
Heartbeat CPU 0 instructions: 16500105 cycles: 5580422 heartbeat IPC: 3.924 cumulative IPC: 2.957 (Simulation time: 00 hr 01 min 13 sec)
Heartbeat CPU 0 instructions: 17000112 cycles: 5701319 heartbeat IPC: 4.136 cumulative IPC: 2.982 (Simulation time: 00 hr 01 min 16 sec)
Heartbeat CPU 0 instructions: 17500114 cycles: 5818673 heartbeat IPC: 4.261 cumulative IPC: 3.008 (Simulation time: 00 hr 01 min 18 sec)
Heartbeat CPU 0 instructions: 18000114 cycles: 5938974 heartbeat IPC: 4.156 cumulative IPC: 3.031 (Simulation time: 00 hr 01 min 20 sec)
Heartbeat CPU 0 instructions: 18500114 cycles: 6056419 heartbeat IPC: 4.257 cumulative IPC: 3.055 (Simulation time: 00 hr 01 min 22 sec)
Heartbeat CPU 0 instructions: 19000115 cycles: 6173560 heartbeat IPC: 4.268 cumulative IPC: 3.078 (Simulation time: 00 hr 01 min 25 sec)
Heartbeat CPU 0 instructions: 19500120 cycles: 6298257 heartbeat IPC: 4.01 cumulative IPC: 3.096 (Simulation time: 00 hr 01 min 27 sec)
Heartbeat CPU 0 instructions: 20000126 cycles: 6415431 heartbeat IPC: 4.267 cumulative IPC: 3.118 (Simulation time: 00 hr 01 min 29 sec)
Heartbeat CPU 0 instructions: 20500130 cycles: 6532815 heartbeat IPC: 4.26 cumulative IPC: 3.138 (Simulation time: 00 hr 01 min 31 sec)
Heartbeat CPU 0 instructions: 21000136 cycles: 6658685 heartbeat IPC: 3.972 cumulative IPC: 3.154 (Simulation time: 00 hr 01 min 33 sec)
Heartbeat CPU 0 instructions: 21500138 cycles: 6775735 heartbeat IPC: 4.272 cumulative IPC: 3.173 (Simulation time: 00 hr 01 min 36 sec)
Heartbeat CPU 0 instructions: 22000138 cycles: 6892895 heartbeat IPC: 4.268 cumulative IPC: 3.192 (Simulation time: 00 hr 01 min 38 sec)
Heartbeat CPU 0 instructions: 22500145 cycles: 7021948 heartbeat IPC: 3.874 cumulative IPC: 3.204 (Simulation time: 00 hr 01 min 40 sec)
Heartbeat CPU 0 instructions: 23000148 cycles: 7139164 heartbeat IPC: 4.266 cumulative IPC: 3.222 (Simulation time: 00 hr 01 min 42 sec)
Heartbeat CPU 0 instructions: 23500152 cycles: 7256134 heartbeat IPC: 4.275 cumulative IPC: 3.239 (Simulation time: 00 hr 01 min 45 sec)
Heartbeat CPU 0 instructions: 24000158 cycles: 7379439 heartbeat IPC: 4.055 cumulative IPC: 3.252 (Simulation time: 00 hr 01 min 47 sec)
Heartbeat CPU 0 instructions: 24500162 cycles: 7496294 heartbeat IPC: 4.279 cumulative IPC: 3.268 (Simulation time: 00 hr 01 min 49 sec)
Heartbeat CPU 0 instructions: 25000166 cycles: 7613440 heartbeat IPC: 4.268 cumulative IPC: 3.284 (Simulation time: 00 hr 01 min 51 sec)
Heartbeat CPU 0 instructions: 25500166 cycles: 7735840 heartbeat IPC: 4.085 cumulative IPC: 3.296 (Simulation time: 00 hr 01 min 53 sec)
Heartbeat CPU 0 instructions: 26000170 cycles: 7856942 heartbeat IPC: 4.129 cumulative IPC: 3.309 (Simulation time: 00 hr 01 min 56 sec)
Heartbeat CPU 0 instructions: 26500174 cycles: 7978013 heartbeat IPC: 4.13 cumulative IPC: 3.322 (Simulation time: 00 hr 01 min 58 sec)
Heartbeat CPU 0 instructions: 27000180 cycles: 8097597 heartbeat IPC: 4.181 cumulative IPC: 3.334 (Simulation time: 00 hr 02 min 00 sec)
Heartbeat CPU 0 instructions: 27500186 cycles: 8215303 heartbeat IPC: 4.248 cumulative IPC: 3.347 (Simulation time: 00 hr 02 min 02 sec)
Heartbeat CPU 0 instructions: 28000188 cycles: 8333026 heartbeat IPC: 4.247 cumulative IPC: 3.36 (Simulation time: 00 hr 02 min 05 sec)
Heartbeat CPU 0 instructions: 28500192 cycles: 8471647 heartbeat IPC: 3.607 cumulative IPC: 3.364 (Simulation time: 00 hr 02 min 07 sec)
Heartbeat CPU 0 instructions: 29000198 cycles: 8597058 heartbeat IPC: 3.987 cumulative IPC: 3.373 (Simulation time: 00 hr 02 min 09 sec)
Heartbeat CPU 0 instructions: 29500205 cycles: 8722417 heartbeat IPC: 3.989 cumulative IPC: 3.382 (Simulation time: 00 hr 02 min 11 sec)
Heartbeat CPU 0 instructions: 30000211 cycles: 8840481 heartbeat IPC: 4.235 cumulative IPC: 3.394 (Simulation time: 00 hr 02 min 13 sec)
Heartbeat CPU 0 instructions: 30500212 cycles: 8958406 heartbeat IPC: 4.24 cumulative IPC: 3.405 (Simulation time: 00 hr 02 min 16 sec)
Heartbeat CPU 0 instructions: 31000214 cycles: 9130989 heartbeat IPC: 2.897 cumulative IPC: 3.395 (Simulation time: 00 hr 02 min 18 sec)
Heartbeat CPU 0 instructions: 31500217 cycles: 9324012 heartbeat IPC: 2.59 cumulative IPC: 3.378 (Simulation time: 00 hr 02 min 21 sec)
Heartbeat CPU 0 instructions: 32000221 cycles: 9516182 heartbeat IPC: 2.602 cumulative IPC: 3.363 (Simulation time: 00 hr 02 min 23 sec)
Heartbeat CPU 0 instructions: 32500225 cycles: 9708360 heartbeat IPC: 2.602 cumulative IPC: 3.348 (Simulation time: 00 hr 02 min 25 sec)
Heartbeat CPU 0 instructions: 33000226 cycles: 9902991 heartbeat IPC: 2.569 cumulative IPC: 3.332 (Simulation time: 00 hr 02 min 28 sec)
Heartbeat CPU 0 instructions: 33500230 cycles: 10081496 heartbeat IPC: 2.801 cumulative IPC: 3.323 (Simulation time: 00 hr 02 min 30 sec)
Heartbeat CPU 0 instructions: 34000237 cycles: 10274669 heartbeat IPC: 2.588 cumulative IPC: 3.309 (Simulation time: 00 hr 02 min 33 sec)
Heartbeat CPU 0 instructions: 34500241 cycles: 10465673 heartbeat IPC: 2.618 cumulative IPC: 3.297 (Simulation time: 00 hr 02 min 35 sec)
Heartbeat CPU 0 instructions: 35000245 cycles: 10657852 heartbeat IPC: 2.602 cumulative IPC: 3.284 (Simulation time: 00 hr 02 min 38 sec)
Heartbeat CPU 0 instructions: 35500248 cycles: 10851644 heartbeat IPC: 2.58 cumulative IPC: 3.271 (Simulation time: 00 hr 02 min 40 sec)
Heartbeat CPU 0 instructions: 36000254 cycles: 11045800 heartbeat IPC: 2.575 cumulative IPC: 3.259 (Simulation time: 00 hr 02 min 43 sec)
Heartbeat CPU 0 instructions: 36500257 cycles: 11236541 heartbeat IPC: 2.621 cumulative IPC: 3.248 (Simulation time: 00 hr 02 min 45 sec)
Heartbeat CPU 0 instructions: 37000258 cycles: 11426551 heartbeat IPC: 2.631 cumulative IPC: 3.238 (Simulation time: 00 hr 02 min 47 sec)
Heartbeat CPU 0 instructions: 37500262 cycles: 11616880 heartbeat IPC: 2.627 cumulative IPC: 3.228 (Simulation time: 00 hr 02 min 50 sec)
Heartbeat CPU 0 instructions: 38000266 cycles: 11811010 heartbeat IPC: 2.576 cumulative IPC: 3.217 (Simulation time: 00 hr 02 min 52 sec)
Heartbeat CPU 0 instructions: 38500270 cycles: 12006970 heartbeat IPC: 2.552 cumulative IPC: 3.206 (Simulation time: 00 hr 02 min 55 sec)
Heartbeat CPU 0 instructions: 39000274 cycles: 12199628 heartbeat IPC: 2.595 cumulative IPC: 3.197 (Simulation time: 00 hr 02 min 57 sec)
Heartbeat CPU 0 instructions: 39500278 cycles: 12390253 heartbeat IPC: 2.623 cumulative IPC: 3.188 (Simulation time: 00 hr 03 min 00 sec)
Heartbeat CPU 0 instructions: 40000282 cycles: 12581172 heartbeat IPC: 2.619 cumulative IPC: 3.179 (Simulation time: 00 hr 03 min 02 sec)
Heartbeat CPU 0 instructions: 40500282 cycles: 12774818 heartbeat IPC: 2.582 cumulative IPC: 3.17 (Simulation time: 00 hr 03 min 05 sec)
Heartbeat CPU 0 instructions: 41000286 cycles: 12965964 heartbeat IPC: 2.616 cumulative IPC: 3.162 (Simulation time: 00 hr 03 min 07 sec)
Heartbeat CPU 0 instructions: 41500291 cycles: 13123367 heartbeat IPC: 3.177 cumulative IPC: 3.162 (Simulation time: 00 hr 03 min 09 sec)
Heartbeat CPU 0 instructions: 42000294 cycles: 13264205 heartbeat IPC: 3.55 cumulative IPC: 3.166 (Simulation time: 00 hr 03 min 11 sec)
Heartbeat CPU 0 instructions: 42500301 cycles: 13397386 heartbeat IPC: 3.754 cumulative IPC: 3.172 (Simulation time: 00 hr 03 min 13 sec)
Heartbeat CPU 0 instructions: 43000306 cycles: 13531120 heartbeat IPC: 3.739 cumulative IPC: 3.178 (Simulation time: 00 hr 03 min 15 sec)
Heartbeat CPU 0 instructions: 43500313 cycles: 13657084 heartbeat IPC: 3.969 cumulative IPC: 3.185 (Simulation time: 00 hr 03 min 18 sec)
Heartbeat CPU 0 instructions: 44000318 cycles: 13782798 heartbeat IPC: 3.977 cumulative IPC: 3.192 (Simulation time: 00 hr 03 min 20 sec)
Heartbeat CPU 0 instructions: 44500325 cycles: 13908645 heartbeat IPC: 3.973 cumulative IPC: 3.199 (Simulation time: 00 hr 03 min 22 sec)
Heartbeat CPU 0 instructions: 45000328 cycles: 14034790 heartbeat IPC: 3.964 cumulative IPC: 3.206 (Simulation time: 00 hr 03 min 24 sec)
Heartbeat CPU 0 instructions: 45500330 cycles: 14160777 heartbeat IPC: 3.969 cumulative IPC: 3.213 (Simulation time: 00 hr 03 min 27 sec)
Heartbeat CPU 0 instructions: 46000337 cycles: 14286520 heartbeat IPC: 3.976 cumulative IPC: 3.22 (Simulation time: 00 hr 03 min 29 sec)
Heartbeat CPU 0 instructions: 46500337 cycles: 14417363 heartbeat IPC: 3.821 cumulative IPC: 3.225 (Simulation time: 00 hr 03 min 31 sec)
Heartbeat CPU 0 instructions: 47000338 cycles: 14568745 heartbeat IPC: 3.303 cumulative IPC: 3.226 (Simulation time: 00 hr 03 min 33 sec)
Heartbeat CPU 0 instructions: 47500342 cycles: 14696076 heartbeat IPC: 3.927 cumulative IPC: 3.232 (Simulation time: 00 hr 03 min 36 sec)
Heartbeat CPU 0 instructions: 48000344 cycles: 14822144 heartbeat IPC: 3.966 cumulative IPC: 3.238 (Simulation time: 00 hr 03 min 38 sec)
Heartbeat CPU 0 instructions: 48500345 cycles: 14957917 heartbeat IPC: 3.683 cumulative IPC: 3.242 (Simulation time: 00 hr 03 min 40 sec)
Heartbeat CPU 0 instructions: 49000351 cycles: 15088525 heartbeat IPC: 3.828 cumulative IPC: 3.248 (Simulation time: 00 hr 03 min 42 sec)
Heartbeat CPU 0 instructions: 49500354 cycles: 15214324 heartbeat IPC: 3.975 cumulative IPC: 3.254 (Simulation time: 00 hr 03 min 45 sec)
Warmup halting CPU 0 at instruction 50000004 cycle 15340845 for remainder of phase
Warmup finished CPU 0 instructions: 50000004 cycles: 15340845 cumulative IPC: 3.259 (Simulation time: 00 hr 03 min 47 sec)
Warmup complete CPU 0 instructions: 50000004 cycles: 15340845 cumulative IPC: 3.259 (Simulation time: 00 hr 03 min 47 sec)
Heartbeat CPU 0 instructions: 50000358 cycles: 15341265 heartbeat IPC: 3.939 cumulative IPC: 0.8429 (Simulation time: 00 hr 03 min 47 sec)
Heartbeat CPU 0 instructions: 50500358 cycles: 15773743 heartbeat IPC: 1.156 cumulative IPC: 1.156 (Simulation time: 00 hr 03 min 52 sec)
Heartbeat CPU 0 instructions: 51000362 cycles: 16241038 heartbeat IPC: 1.07 cumulative IPC: 1.111 (Simulation time: 00 hr 03 min 57 sec)
Heartbeat CPU 0 instructions: 51500367 cycles: 16704199 heartbeat IPC: 1.08 cumulative IPC: 1.1 (Simulation time: 00 hr 04 min 02 sec)
Heartbeat CPU 0 instructions: 52000372 cycles: 17158442 heartbeat IPC: 1.101 cumulative IPC: 1.101 (Simulation time: 00 hr 04 min 07 sec)
Heartbeat CPU 0 instructions: 52500376 cycles: 17609682 heartbeat IPC: 1.108 cumulative IPC: 1.102 (Simulation time: 00 hr 04 min 12 sec)
Heartbeat CPU 0 instructions: 53000381 cycles: 18059581 heartbeat IPC: 1.111 cumulative IPC: 1.104 (Simulation time: 00 hr 04 min 16 sec)
Heartbeat CPU 0 instructions: 53500387 cycles: 18546754 heartbeat IPC: 1.026 cumulative IPC: 1.092 (Simulation time: 00 hr 04 min 22 sec)
Heartbeat CPU 0 instructions: 54000390 cycles: 20531976 heartbeat IPC: 0.2519 cumulative IPC: 0.7706 (Simulation time: 00 hr 04 min 39 sec)
Heartbeat CPU 0 instructions: 54500390 cycles: 22903931 heartbeat IPC: 0.2108 cumulative IPC: 0.595 (Simulation time: 00 hr 05 min 00 sec)
Heartbeat CPU 0 instructions: 55000394 cycles: 25451807 heartbeat IPC: 0.1962 cumulative IPC: 0.4946 (Simulation time: 00 hr 05 min 22 sec)
Heartbeat CPU 0 instructions: 55500401 cycles: 27649363 heartbeat IPC: 0.2275 cumulative IPC: 0.4469 (Simulation time: 00 hr 05 min 41 sec)
Heartbeat CPU 0 instructions: 56000408 cycles: 28158031 heartbeat IPC: 0.983 cumulative IPC: 0.4682 (Simulation time: 00 hr 05 min 47 sec)
Heartbeat CPU 0 instructions: 56500412 cycles: 28634606 heartbeat IPC: 1.049 cumulative IPC: 0.489 (Simulation time: 00 hr 05 min 52 sec)
Heartbeat CPU 0 instructions: 57000416 cycles: 29094058 heartbeat IPC: 1.088 cumulative IPC: 0.509 (Simulation time: 00 hr 05 min 57 sec)
Heartbeat CPU 0 instructions: 57500423 cycles: 29588835 heartbeat IPC: 1.011 cumulative IPC: 0.5264 (Simulation time: 00 hr 06 min 02 sec)
Heartbeat CPU 0 instructions: 58000429 cycles: 30117678 heartbeat IPC: 0.9455 cumulative IPC: 0.5414 (Simulation time: 00 hr 06 min 08 sec)
Heartbeat CPU 0 instructions: 58500435 cycles: 30611793 heartbeat IPC: 1.012 cumulative IPC: 0.5566 (Simulation time: 00 hr 06 min 13 sec)
Heartbeat CPU 0 instructions: 59000436 cycles: 31099461 heartbeat IPC: 1.025 cumulative IPC: 0.5711 (Simulation time: 00 hr 06 min 18 sec)
Heartbeat CPU 0 instructions: 59500437 cycles: 31573626 heartbeat IPC: 1.054 cumulative IPC: 0.5853 (Simulation time: 00 hr 06 min 24 sec)
Heartbeat CPU 0 instructions: 60000443 cycles: 32090139 heartbeat IPC: 0.968 cumulative IPC: 0.5971 (Simulation time: 00 hr 06 min 29 sec)
Heartbeat CPU 0 instructions: 60500449 cycles: 32606197 heartbeat IPC: 0.9689 cumulative IPC: 0.6082 (Simulation time: 00 hr 06 min 35 sec)
Heartbeat CPU 0 instructions: 61000456 cycles: 33093626 heartbeat IPC: 1.026 cumulative IPC: 0.6196 (Simulation time: 00 hr 06 min 40 sec)
Heartbeat CPU 0 instructions: 61500460 cycles: 33558802 heartbeat IPC: 1.075 cumulative IPC: 0.6313 (Simulation time: 00 hr 06 min 45 sec)
Heartbeat CPU 0 instructions: 62000465 cycles: 34069508 heartbeat IPC: 0.979 cumulative IPC: 0.6408 (Simulation time: 00 hr 06 min 50 sec)
Heartbeat CPU 0 instructions: 62500471 cycles: 34599421 heartbeat IPC: 0.9436 cumulative IPC: 0.6491 (Simulation time: 00 hr 06 min 56 sec)
Heartbeat CPU 0 instructions: 63000472 cycles: 35109546 heartbeat IPC: 0.9802 cumulative IPC: 0.6576 (Simulation time: 00 hr 07 min 02 sec)
Heartbeat CPU 0 instructions: 63500472 cycles: 35616871 heartbeat IPC: 0.9856 cumulative IPC: 0.6658 (Simulation time: 00 hr 07 min 07 sec)
Heartbeat CPU 0 instructions: 64000476 cycles: 36094666 heartbeat IPC: 1.046 cumulative IPC: 0.6746 (Simulation time: 00 hr 07 min 12 sec)
Heartbeat CPU 0 instructions: 64500478 cycles: 37462349 heartbeat IPC: 0.3656 cumulative IPC: 0.6555 (Simulation time: 00 hr 07 min 25 sec)
Heartbeat CPU 0 instructions: 65000484 cycles: 39671958 heartbeat IPC: 0.2263 cumulative IPC: 0.6165 (Simulation time: 00 hr 07 min 44 sec)
Heartbeat CPU 0 instructions: 65500484 cycles: 42440843 heartbeat IPC: 0.1806 cumulative IPC: 0.572 (Simulation time: 00 hr 08 min 08 sec)
Heartbeat CPU 0 instructions: 66000489 cycles: 43887041 heartbeat IPC: 0.3457 cumulative IPC: 0.5605 (Simulation time: 00 hr 08 min 21 sec)
Heartbeat CPU 0 instructions: 66500494 cycles: 44326612 heartbeat IPC: 1.137 cumulative IPC: 0.5693 (Simulation time: 00 hr 08 min 25 sec)
Heartbeat CPU 0 instructions: 67000496 cycles: 44739295 heartbeat IPC: 1.212 cumulative IPC: 0.5783 (Simulation time: 00 hr 08 min 30 sec)
Heartbeat CPU 0 instructions: 67500499 cycles: 45180618 heartbeat IPC: 1.133 cumulative IPC: 0.5865 (Simulation time: 00 hr 08 min 35 sec)
Heartbeat CPU 0 instructions: 68000505 cycles: 45649692 heartbeat IPC: 1.066 cumulative IPC: 0.5939 (Simulation time: 00 hr 08 min 40 sec)
Heartbeat CPU 0 instructions: 68500511 cycles: 46116237 heartbeat IPC: 1.072 cumulative IPC: 0.6011 (Simulation time: 00 hr 08 min 45 sec)
Heartbeat CPU 0 instructions: 69000516 cycles: 46539185 heartbeat IPC: 1.182 cumulative IPC: 0.609 (Simulation time: 00 hr 08 min 49 sec)
Heartbeat CPU 0 instructions: 69500520 cycles: 46929591 heartbeat IPC: 1.281 cumulative IPC: 0.6173 (Simulation time: 00 hr 08 min 54 sec)
Heartbeat CPU 0 instructions: 70000527 cycles: 47353862 heartbeat IPC: 1.179 cumulative IPC: 0.6248 (Simulation time: 00 hr 08 min 58 sec)
Heartbeat CPU 0 instructions: 70500533 cycles: 47807017 heartbeat IPC: 1.103 cumulative IPC: 0.6314 (Simulation time: 00 hr 09 min 03 sec)
Heartbeat CPU 0 instructions: 71000533 cycles: 48243125 heartbeat IPC: 1.147 cumulative IPC: 0.6383 (Simulation time: 00 hr 09 min 08 sec)
Heartbeat CPU 0 instructions: 71500540 cycles: 48644557 heartbeat IPC: 1.246 cumulative IPC: 0.6456 (Simulation time: 00 hr 09 min 12 sec)
Heartbeat CPU 0 instructions: 72000541 cycles: 49049390 heartbeat IPC: 1.235 cumulative IPC: 0.6527 (Simulation time: 00 hr 09 min 17 sec)
Heartbeat CPU 0 instructions: 72500541 cycles: 49474950 heartbeat IPC: 1.175 cumulative IPC: 0.6592 (Simulation time: 00 hr 09 min 21 sec)
Heartbeat CPU 0 instructions: 73000541 cycles: 49906882 heartbeat IPC: 1.158 cumulative IPC: 0.6654 (Simulation time: 00 hr 09 min 26 sec)
Heartbeat CPU 0 instructions: 73500544 cycles: 50335145 heartbeat IPC: 1.168 cumulative IPC: 0.6716 (Simulation time: 00 hr 09 min 31 sec)
Heartbeat CPU 0 instructions: 74000548 cycles: 50771318 heartbeat IPC: 1.146 cumulative IPC: 0.6774 (Simulation time: 00 hr 09 min 35 sec)
Heartbeat CPU 0 instructions: 74500548 cycles: 51214074 heartbeat IPC: 1.129 cumulative IPC: 0.683 (Simulation time: 00 hr 09 min 40 sec)
Heartbeat CPU 0 instructions: 75000548 cycles: 52914836 heartbeat IPC: 0.294 cumulative IPC: 0.6654 (Simulation time: 00 hr 09 min 55 sec)
Heartbeat CPU 0 instructions: 75500552 cycles: 55246136 heartbeat IPC: 0.2145 cumulative IPC: 0.639 (Simulation time: 00 hr 10 min 15 sec)
Heartbeat CPU 0 instructions: 76000555 cycles: 57907940 heartbeat IPC: 0.1878 cumulative IPC: 0.6108 (Simulation time: 00 hr 10 min 38 sec)
Heartbeat CPU 0 instructions: 76500560 cycles: 58647982 heartbeat IPC: 0.6756 cumulative IPC: 0.6119 (Simulation time: 00 hr 10 min 45 sec)
Heartbeat CPU 0 instructions: 77000564 cycles: 59110627 heartbeat IPC: 1.081 cumulative IPC: 0.6169 (Simulation time: 00 hr 10 min 50 sec)
Heartbeat CPU 0 instructions: 77500571 cycles: 59589694 heartbeat IPC: 1.044 cumulative IPC: 0.6215 (Simulation time: 00 hr 10 min 55 sec)
Heartbeat CPU 0 instructions: 78000578 cycles: 60067585 heartbeat IPC: 1.046 cumulative IPC: 0.626 (Simulation time: 00 hr 11 min 00 sec)
Heartbeat CPU 0 instructions: 78500579 cycles: 60530472 heartbeat IPC: 1.08 cumulative IPC: 0.6307 (Simulation time: 00 hr 11 min 05 sec)
Heartbeat CPU 0 instructions: 79000581 cycles: 60993071 heartbeat IPC: 1.081 cumulative IPC: 0.6353 (Simulation time: 00 hr 11 min 10 sec)
Heartbeat CPU 0 instructions: 79500584 cycles: 61481560 heartbeat IPC: 1.024 cumulative IPC: 0.6394 (Simulation time: 00 hr 11 min 15 sec)
Heartbeat CPU 0 instructions: 80000585 cycles: 62006486 heartbeat IPC: 0.9525 cumulative IPC: 0.6429 (Simulation time: 00 hr 11 min 21 sec)
Heartbeat CPU 0 instructions: 80500592 cycles: 62502560 heartbeat IPC: 1.008 cumulative IPC: 0.6467 (Simulation time: 00 hr 11 min 26 sec)
Heartbeat CPU 0 instructions: 81000595 cycles: 63039129 heartbeat IPC: 0.9319 cumulative IPC: 0.6499 (Simulation time: 00 hr 11 min 32 sec)
Heartbeat CPU 0 instructions: 81500596 cycles: 63559372 heartbeat IPC: 0.9611 cumulative IPC: 0.6533 (Simulation time: 00 hr 11 min 37 sec)
Heartbeat CPU 0 instructions: 82000603 cycles: 64097108 heartbeat IPC: 0.9298 cumulative IPC: 0.6563 (Simulation time: 00 hr 11 min 43 sec)
Heartbeat CPU 0 instructions: 82500607 cycles: 64590393 heartbeat IPC: 1.014 cumulative IPC: 0.6599 (Simulation time: 00 hr 11 min 48 sec)
Heartbeat CPU 0 instructions: 83000614 cycles: 65109561 heartbeat IPC: 0.9631 cumulative IPC: 0.6631 (Simulation time: 00 hr 11 min 54 sec)
Heartbeat CPU 0 instructions: 83500617 cycles: 65636785 heartbeat IPC: 0.9484 cumulative IPC: 0.6661 (Simulation time: 00 hr 11 min 59 sec)
Heartbeat CPU 0 instructions: 84000624 cycles: 66162002 heartbeat IPC: 0.952 cumulative IPC: 0.669 (Simulation time: 00 hr 12 min 05 sec)
Heartbeat CPU 0 instructions: 84500628 cycles: 67814484 heartbeat IPC: 0.3026 cumulative IPC: 0.6575 (Simulation time: 00 hr 12 min 20 sec)
Heartbeat CPU 0 instructions: 85000630 cycles: 70252034 heartbeat IPC: 0.2051 cumulative IPC: 0.6374 (Simulation time: 00 hr 12 min 41 sec)
Heartbeat CPU 0 instructions: 85500635 cycles: 72763145 heartbeat IPC: 0.1991 cumulative IPC: 0.6182 (Simulation time: 00 hr 13 min 02 sec)
Heartbeat CPU 0 instructions: 86000642 cycles: 73131246 heartbeat IPC: 1.358 cumulative IPC: 0.623 (Simulation time: 00 hr 13 min 06 sec)
Heartbeat CPU 0 instructions: 86500643 cycles: 73543188 heartbeat IPC: 1.214 cumulative IPC: 0.6271 (Simulation time: 00 hr 13 min 10 sec)
Heartbeat CPU 0 instructions: 87000646 cycles: 73995550 heartbeat IPC: 1.105 cumulative IPC: 0.6308 (Simulation time: 00 hr 13 min 15 sec)
Heartbeat CPU 0 instructions: 87500647 cycles: 74416349 heartbeat IPC: 1.188 cumulative IPC: 0.6348 (Simulation time: 00 hr 13 min 20 sec)
Heartbeat CPU 0 instructions: 88000649 cycles: 74818501 heartbeat IPC: 1.243 cumulative IPC: 0.6389 (Simulation time: 00 hr 13 min 24 sec)
Heartbeat CPU 0 instructions: 88500656 cycles: 75227759 heartbeat IPC: 1.222 cumulative IPC: 0.6429 (Simulation time: 00 hr 13 min 29 sec)
Heartbeat CPU 0 instructions: 89000661 cycles: 75642536 heartbeat IPC: 1.205 cumulative IPC: 0.6468 (Simulation time: 00 hr 13 min 33 sec)
Heartbeat CPU 0 instructions: 89500665 cycles: 76080849 heartbeat IPC: 1.141 cumulative IPC: 0.6503 (Simulation time: 00 hr 13 min 38 sec)
Heartbeat CPU 0 instructions: 90000671 cycles: 76499964 heartbeat IPC: 1.193 cumulative IPC: 0.654 (Simulation time: 00 hr 13 min 43 sec)
Heartbeat CPU 0 instructions: 90500672 cycles: 76902435 heartbeat IPC: 1.242 cumulative IPC: 0.6579 (Simulation time: 00 hr 13 min 47 sec)
Heartbeat CPU 0 instructions: 91000678 cycles: 77286162 heartbeat IPC: 1.303 cumulative IPC: 0.6619 (Simulation time: 00 hr 13 min 51 sec)
Heartbeat CPU 0 instructions: 91500685 cycles: 77696501 heartbeat IPC: 1.219 cumulative IPC: 0.6655 (Simulation time: 00 hr 13 min 56 sec)
Heartbeat CPU 0 instructions: 92000685 cycles: 78080478 heartbeat IPC: 1.302 cumulative IPC: 0.6694 (Simulation time: 00 hr 14 min 00 sec)
Heartbeat CPU 0 instructions: 92500685 cycles: 78476585 heartbeat IPC: 1.262 cumulative IPC: 0.6732 (Simulation time: 00 hr 14 min 04 sec)
Heartbeat CPU 0 instructions: 93000688 cycles: 78890735 heartbeat IPC: 1.207 cumulative IPC: 0.6766 (Simulation time: 00 hr 14 min 09 sec)
Heartbeat CPU 0 instructions: 93500690 cycles: 79287773 heartbeat IPC: 1.259 cumulative IPC: 0.6803 (Simulation time: 00 hr 14 min 13 sec)
Heartbeat CPU 0 instructions: 94000692 cycles: 81170022 heartbeat IPC: 0.2656 cumulative IPC: 0.6684 (Simulation time: 00 hr 14 min 30 sec)
Heartbeat CPU 0 instructions: 94500698 cycles: 83470638 heartbeat IPC: 0.2173 cumulative IPC: 0.6532 (Simulation time: 00 hr 14 min 49 sec)
Heartbeat CPU 0 instructions: 95000698 cycles: 85337882 heartbeat IPC: 0.2678 cumulative IPC: 0.6429 (Simulation time: 00 hr 15 min 05 sec)
Heartbeat CPU 0 instructions: 95500700 cycles: 85821042 heartbeat IPC: 1.035 cumulative IPC: 0.6456 (Simulation time: 00 hr 15 min 10 sec)
Heartbeat CPU 0 instructions: 96000701 cycles: 86297336 heartbeat IPC: 1.05 cumulative IPC: 0.6483 (Simulation time: 00 hr 15 min 15 sec)
Heartbeat CPU 0 instructions: 96500702 cycles: 86750305 heartbeat IPC: 1.104 cumulative IPC: 0.6512 (Simulation time: 00 hr 15 min 20 sec)
Heartbeat CPU 0 instructions: 97000707 cycles: 87226121 heartbeat IPC: 1.051 cumulative IPC: 0.6538 (Simulation time: 00 hr 15 min 25 sec)
Heartbeat CPU 0 instructions: 97500712 cycles: 87733946 heartbeat IPC: 0.9846 cumulative IPC: 0.6561 (Simulation time: 00 hr 15 min 31 sec)
Heartbeat CPU 0 instructions: 98000714 cycles: 88245623 heartbeat IPC: 0.9772 cumulative IPC: 0.6584 (Simulation time: 00 hr 15 min 36 sec)
Heartbeat CPU 0 instructions: 98500721 cycles: 88720128 heartbeat IPC: 1.054 cumulative IPC: 0.661 (Simulation time: 00 hr 15 min 41 sec)
Heartbeat CPU 0 instructions: 99000724 cycles: 89216518 heartbeat IPC: 1.007 cumulative IPC: 0.6633 (Simulation time: 00 hr 15 min 46 sec)
Heartbeat CPU 0 instructions: 99500727 cycles: 89762323 heartbeat IPC: 0.9161 cumulative IPC: 0.6651 (Simulation time: 00 hr 15 min 52 sec)
Heartbeat CPU 0 instructions: 100000729 cycles: 90269419 heartbeat IPC: 0.986 cumulative IPC: 0.6673 (Simulation time: 00 hr 15 min 58 sec)
Heartbeat CPU 0 instructions: 100500732 cycles: 90776799 heartbeat IPC: 0.9855 cumulative IPC: 0.6695 (Simulation time: 00 hr 16 min 03 sec)
Heartbeat CPU 0 instructions: 101000737 cycles: 91611775 heartbeat IPC: 0.5988 cumulative IPC: 0.6687 (Simulation time: 00 hr 16 min 11 sec)
Heartbeat CPU 0 instructions: 101500739 cycles: 93484053 heartbeat IPC: 0.2671 cumulative IPC: 0.6591 (Simulation time: 00 hr 16 min 27 sec)
Heartbeat CPU 0 instructions: 102000746 cycles: 95169833 heartbeat IPC: 0.2966 cumulative IPC: 0.6514 (Simulation time: 00 hr 16 min 42 sec)
Heartbeat CPU 0 instructions: 102500753 cycles: 95496213 heartbeat IPC: 1.532 cumulative IPC: 0.655 (Simulation time: 00 hr 16 min 46 sec)
Heartbeat CPU 0 instructions: 103000758 cycles: 95850013 heartbeat IPC: 1.413 cumulative IPC: 0.6583 (Simulation time: 00 hr 16 min 50 sec)
Heartbeat CPU 0 instructions: 103500758 cycles: 96152002 heartbeat IPC: 1.656 cumulative IPC: 0.662 (Simulation time: 00 hr 16 min 53 sec)
Heartbeat CPU 0 instructions: 104000760 cycles: 96458929 heartbeat IPC: 1.629 cumulative IPC: 0.6657 (Simulation time: 00 hr 16 min 57 sec)
Heartbeat CPU 0 instructions: 104500760 cycles: 96815634 heartbeat IPC: 1.402 cumulative IPC: 0.6689 (Simulation time: 00 hr 17 min 01 sec)
Heartbeat CPU 0 instructions: 105000760 cycles: 97159824 heartbeat IPC: 1.453 cumulative IPC: 0.6722 (Simulation time: 00 hr 17 min 05 sec)
Heartbeat CPU 0 instructions: 105500761 cycles: 97440135 heartbeat IPC: 1.784 cumulative IPC: 0.676 (Simulation time: 00 hr 17 min 08 sec)
Heartbeat CPU 0 instructions: 106000764 cycles: 97745270 heartbeat IPC: 1.639 cumulative IPC: 0.6796 (Simulation time: 00 hr 17 min 12 sec)
Heartbeat CPU 0 instructions: 106500767 cycles: 98064241 heartbeat IPC: 1.568 cumulative IPC: 0.683 (Simulation time: 00 hr 17 min 15 sec)
Heartbeat CPU 0 instructions: 107000771 cycles: 98345762 heartbeat IPC: 1.776 cumulative IPC: 0.6867 (Simulation time: 00 hr 17 min 19 sec)
Heartbeat CPU 0 instructions: 107500771 cycles: 98657523 heartbeat IPC: 1.604 cumulative IPC: 0.6901 (Simulation time: 00 hr 17 min 22 sec)
Heartbeat CPU 0 instructions: 108000778 cycles: 99243221 heartbeat IPC: 0.8537 cumulative IPC: 0.6913 (Simulation time: 00 hr 17 min 28 sec)
Heartbeat CPU 0 instructions: 108500781 cycles: 100596405 heartbeat IPC: 0.3695 cumulative IPC: 0.6862 (Simulation time: 00 hr 17 min 40 sec)
Heartbeat CPU 0 instructions: 109000783 cycles: 101983194 heartbeat IPC: 0.3605 cumulative IPC: 0.681 (Simulation time: 00 hr 17 min 52 sec)
Heartbeat CPU 0 instructions: 109500785 cycles: 102454188 heartbeat IPC: 1.062 cumulative IPC: 0.683 (Simulation time: 00 hr 17 min 57 sec)
Heartbeat CPU 0 instructions: 110000788 cycles: 102902932 heartbeat IPC: 1.114 cumulative IPC: 0.6852 (Simulation time: 00 hr 18 min 01 sec)
Heartbeat CPU 0 instructions: 110500791 cycles: 103329833 heartbeat IPC: 1.171 cumulative IPC: 0.6876 (Simulation time: 00 hr 18 min 06 sec)
Heartbeat CPU 0 instructions: 111000794 cycles: 103769471 heartbeat IPC: 1.137 cumulative IPC: 0.6898 (Simulation time: 00 hr 18 min 11 sec)
Heartbeat CPU 0 instructions: 111500797 cycles: 104217725 heartbeat IPC: 1.115 cumulative IPC: 0.692 (Simulation time: 00 hr 18 min 16 sec)
Heartbeat CPU 0 instructions: 112000804 cycles: 104709059 heartbeat IPC: 1.018 cumulative IPC: 0.6938 (Simulation time: 00 hr 18 min 21 sec)
Heartbeat CPU 0 instructions: 112500808 cycles: 105222039 heartbeat IPC: 0.9747 cumulative IPC: 0.6954 (Simulation time: 00 hr 18 min 26 sec)
Heartbeat CPU 0 instructions: 113000813 cycles: 105782263 heartbeat IPC: 0.8925 cumulative IPC: 0.6966 (Simulation time: 00 hr 18 min 32 sec)
Heartbeat CPU 0 instructions: 113500813 cycles: 107225947 heartbeat IPC: 0.3463 cumulative IPC: 0.6911 (Simulation time: 00 hr 18 min 45 sec)
Heartbeat CPU 0 instructions: 114000820 cycles: 107888411 heartbeat IPC: 0.7548 cumulative IPC: 0.6915 (Simulation time: 00 hr 18 min 51 sec)
Heartbeat CPU 0 instructions: 114500820 cycles: 108085871 heartbeat IPC: 2.532 cumulative IPC: 0.6955 (Simulation time: 00 hr 18 min 54 sec)
Heartbeat CPU 0 instructions: 115000820 cycles: 108279716 heartbeat IPC: 2.579 cumulative IPC: 0.6994 (Simulation time: 00 hr 18 min 57 sec)
Heartbeat CPU 0 instructions: 115500821 cycles: 108489751 heartbeat IPC: 2.381 cumulative IPC: 0.7032 (Simulation time: 00 hr 18 min 59 sec)
Heartbeat CPU 0 instructions: 116000823 cycles: 108701421 heartbeat IPC: 2.362 cumulative IPC: 0.7069 (Simulation time: 00 hr 19 min 02 sec)
Heartbeat CPU 0 instructions: 116500826 cycles: 108885765 heartbeat IPC: 2.712 cumulative IPC: 0.7109 (Simulation time: 00 hr 19 min 05 sec)
Heartbeat CPU 0 instructions: 117000827 cycles: 109090157 heartbeat IPC: 2.446 cumulative IPC: 0.7147 (Simulation time: 00 hr 19 min 07 sec)
Heartbeat CPU 0 instructions: 117500828 cycles: 109264079 heartbeat IPC: 2.875 cumulative IPC: 0.7187 (Simulation time: 00 hr 19 min 10 sec)
Heartbeat CPU 0 instructions: 118000828 cycles: 109581487 heartbeat IPC: 1.575 cumulative IPC: 0.7216 (Simulation time: 00 hr 19 min 13 sec)
Heartbeat CPU 0 instructions: 118500833 cycles: 110266835 heartbeat IPC: 0.7296 cumulative IPC: 0.7216 (Simulation time: 00 hr 19 min 20 sec)
Heartbeat CPU 0 instructions: 119000834 cycles: 110738502 heartbeat IPC: 1.06 cumulative IPC: 0.7233 (Simulation time: 00 hr 19 min 25 sec)
Heartbeat CPU 0 instructions: 119500838 cycles: 111158065 heartbeat IPC: 1.192 cumulative IPC: 0.7253 (Simulation time: 00 hr 19 min 29 sec)
Heartbeat CPU 0 instructions: 120000839 cycles: 111570483 heartbeat IPC: 1.212 cumulative IPC: 0.7274 (Simulation time: 00 hr 19 min 34 sec)
Heartbeat CPU 0 instructions: 120500839 cycles: 111998042 heartbeat IPC: 1.169 cumulative IPC: 0.7294 (Simulation time: 00 hr 19 min 38 sec)
Heartbeat CPU 0 instructions: 121000842 cycles: 112510477 heartbeat IPC: 0.9757 cumulative IPC: 0.7307 (Simulation time: 00 hr 19 min 44 sec)
Heartbeat CPU 0 instructions: 121500846 cycles: 112981823 heartbeat IPC: 1.061 cumulative IPC: 0.7323 (Simulation time: 00 hr 19 min 49 sec)
Heartbeat CPU 0 instructions: 122000850 cycles: 113474651 heartbeat IPC: 1.015 cumulative IPC: 0.7337 (Simulation time: 00 hr 19 min 54 sec)
Heartbeat CPU 0 instructions: 122500852 cycles: 113995447 heartbeat IPC: 0.9601 cumulative IPC: 0.7349 (Simulation time: 00 hr 19 min 59 sec)
Heartbeat CPU 0 instructions: 123000855 cycles: 114536405 heartbeat IPC: 0.9243 cumulative IPC: 0.7359 (Simulation time: 00 hr 20 min 05 sec)
Heartbeat CPU 0 instructions: 123500861 cycles: 115105703 heartbeat IPC: 0.8783 cumulative IPC: 0.7367 (Simulation time: 00 hr 20 min 11 sec)
Heartbeat CPU 0 instructions: 124000861 cycles: 115673736 heartbeat IPC: 0.8802 cumulative IPC: 0.7376 (Simulation time: 00 hr 20 min 16 sec)
Heartbeat CPU 0 instructions: 124500867 cycles: 117196898 heartbeat IPC: 0.3283 cumulative IPC: 0.7314 (Simulation time: 00 hr 20 min 30 sec)
Heartbeat CPU 0 instructions: 125000868 cycles: 119455417 heartbeat IPC: 0.2214 cumulative IPC: 0.7204 (Simulation time: 00 hr 20 min 49 sec)
Heartbeat CPU 0 instructions: 125500870 cycles: 119899498 heartbeat IPC: 1.126 cumulative IPC: 0.7221 (Simulation time: 00 hr 20 min 54 sec)
Heartbeat CPU 0 instructions: 126000873 cycles: 120201615 heartbeat IPC: 1.655 cumulative IPC: 0.7248 (Simulation time: 00 hr 20 min 57 sec)
Heartbeat CPU 0 instructions: 126500873 cycles: 120533490 heartbeat IPC: 1.507 cumulative IPC: 0.7272 (Simulation time: 00 hr 21 min 01 sec)
Heartbeat CPU 0 instructions: 127000875 cycles: 120836883 heartbeat IPC: 1.648 cumulative IPC: 0.7299 (Simulation time: 00 hr 21 min 05 sec)
Heartbeat CPU 0 instructions: 127500878 cycles: 121168727 heartbeat IPC: 1.507 cumulative IPC: 0.7323 (Simulation time: 00 hr 21 min 08 sec)
Heartbeat CPU 0 instructions: 128000878 cycles: 121493051 heartbeat IPC: 1.542 cumulative IPC: 0.7348 (Simulation time: 00 hr 21 min 12 sec)
Heartbeat CPU 0 instructions: 128500884 cycles: 121797584 heartbeat IPC: 1.642 cumulative IPC: 0.7374 (Simulation time: 00 hr 21 min 16 sec)
Heartbeat CPU 0 instructions: 129000886 cycles: 122075597 heartbeat IPC: 1.798 cumulative IPC: 0.7402 (Simulation time: 00 hr 21 min 19 sec)
Heartbeat CPU 0 instructions: 129500887 cycles: 122347787 heartbeat IPC: 1.837 cumulative IPC: 0.743 (Simulation time: 00 hr 21 min 22 sec)
Heartbeat CPU 0 instructions: 130000889 cycles: 122645579 heartbeat IPC: 1.679 cumulative IPC: 0.7455 (Simulation time: 00 hr 21 min 26 sec)
Heartbeat CPU 0 instructions: 130500891 cycles: 122954028 heartbeat IPC: 1.621 cumulative IPC: 0.7481 (Simulation time: 00 hr 21 min 29 sec)
Heartbeat CPU 0 instructions: 131000891 cycles: 123662795 heartbeat IPC: 0.7055 cumulative IPC: 0.7478 (Simulation time: 00 hr 21 min 36 sec)
Heartbeat CPU 0 instructions: 131500896 cycles: 125020919 heartbeat IPC: 0.3682 cumulative IPC: 0.7431 (Simulation time: 00 hr 21 min 47 sec)
Heartbeat CPU 0 instructions: 132000902 cycles: 125896603 heartbeat IPC: 0.571 cumulative IPC: 0.7417 (Simulation time: 00 hr 21 min 55 sec)
Heartbeat CPU 0 instructions: 132500908 cycles: 126365952 heartbeat IPC: 1.065 cumulative IPC: 0.7431 (Simulation time: 00 hr 22 min 00 sec)
Heartbeat CPU 0 instructions: 133000910 cycles: 126801069 heartbeat IPC: 1.149 cumulative IPC: 0.7447 (Simulation time: 00 hr 22 min 05 sec)
Heartbeat CPU 0 instructions: 133500914 cycles: 127222726 heartbeat IPC: 1.186 cumulative IPC: 0.7463 (Simulation time: 00 hr 22 min 09 sec)
Heartbeat CPU 0 instructions: 134000921 cycles: 127641500 heartbeat IPC: 1.194 cumulative IPC: 0.748 (Simulation time: 00 hr 22 min 14 sec)
Heartbeat CPU 0 instructions: 134500924 cycles: 128092953 heartbeat IPC: 1.108 cumulative IPC: 0.7494 (Simulation time: 00 hr 22 min 19 sec)
Heartbeat CPU 0 instructions: 135000925 cycles: 128610962 heartbeat IPC: 0.9652 cumulative IPC: 0.7504 (Simulation time: 00 hr 22 min 24 sec)
Heartbeat CPU 0 instructions: 135500929 cycles: 129125292 heartbeat IPC: 0.9721 cumulative IPC: 0.7514 (Simulation time: 00 hr 22 min 30 sec)
Heartbeat CPU 0 instructions: 136000936 cycles: 129655029 heartbeat IPC: 0.9439 cumulative IPC: 0.7523 (Simulation time: 00 hr 22 min 35 sec)
Heartbeat CPU 0 instructions: 136500942 cycles: 130664089 heartbeat IPC: 0.4955 cumulative IPC: 0.7501 (Simulation time: 00 hr 22 min 45 sec)
Heartbeat CPU 0 instructions: 137000948 cycles: 132333195 heartbeat IPC: 0.2996 cumulative IPC: 0.7436 (Simulation time: 00 hr 22 min 59 sec)
Heartbeat CPU 0 instructions: 137500955 cycles: 132536633 heartbeat IPC: 2.458 cumulative IPC: 0.7466 (Simulation time: 00 hr 23 min 02 sec)
Heartbeat CPU 0 instructions: 138000961 cycles: 132776948 heartbeat IPC: 2.081 cumulative IPC: 0.7494 (Simulation time: 00 hr 23 min 05 sec)
Heartbeat CPU 0 instructions: 138500961 cycles: 133000527 heartbeat IPC: 2.236 cumulative IPC: 0.7522 (Simulation time: 00 hr 23 min 08 sec)
Heartbeat CPU 0 instructions: 139000963 cycles: 133266860 heartbeat IPC: 1.877 cumulative IPC: 0.7547 (Simulation time: 00 hr 23 min 11 sec)
Heartbeat CPU 0 instructions: 139500970 cycles: 133510234 heartbeat IPC: 2.054 cumulative IPC: 0.7574 (Simulation time: 00 hr 23 min 14 sec)
Heartbeat CPU 0 instructions: 140000975 cycles: 133727839 heartbeat IPC: 2.298 cumulative IPC: 0.7602 (Simulation time: 00 hr 23 min 17 sec)
Heartbeat CPU 0 instructions: 140500975 cycles: 133954376 heartbeat IPC: 2.207 cumulative IPC: 0.763 (Simulation time: 00 hr 23 min 20 sec)
Heartbeat CPU 0 instructions: 141000980 cycles: 134171817 heartbeat IPC: 2.299 cumulative IPC: 0.7658 (Simulation time: 00 hr 23 min 23 sec)
Heartbeat CPU 0 instructions: 141500981 cycles: 134372608 heartbeat IPC: 2.49 cumulative IPC: 0.7687 (Simulation time: 00 hr 23 min 25 sec)
Heartbeat CPU 0 instructions: 142000983 cycles: 134994872 heartbeat IPC: 0.8035 cumulative IPC: 0.7689 (Simulation time: 00 hr 23 min 31 sec)
Heartbeat CPU 0 instructions: 142500989 cycles: 135754662 heartbeat IPC: 0.6581 cumulative IPC: 0.7682 (Simulation time: 00 hr 23 min 38 sec)
Heartbeat CPU 0 instructions: 143000996 cycles: 136212773 heartbeat IPC: 1.091 cumulative IPC: 0.7694 (Simulation time: 00 hr 23 min 43 sec)
Heartbeat CPU 0 instructions: 143500997 cycles: 136641561 heartbeat IPC: 1.166 cumulative IPC: 0.7708 (Simulation time: 00 hr 23 min 48 sec)
Heartbeat CPU 0 instructions: 144001002 cycles: 137054473 heartbeat IPC: 1.211 cumulative IPC: 0.7723 (Simulation time: 00 hr 23 min 52 sec)
Heartbeat CPU 0 instructions: 144501007 cycles: 137452139 heartbeat IPC: 1.257 cumulative IPC: 0.7739 (Simulation time: 00 hr 23 min 56 sec)
Heartbeat CPU 0 instructions: 145001008 cycles: 137854313 heartbeat IPC: 1.243 cumulative IPC: 0.7754 (Simulation time: 00 hr 24 min 01 sec)
Heartbeat CPU 0 instructions: 145501009 cycles: 138348392 heartbeat IPC: 1.012 cumulative IPC: 0.7764 (Simulation time: 00 hr 24 min 06 sec)
Heartbeat CPU 0 instructions: 146001016 cycles: 139162265 heartbeat IPC: 0.6144 cumulative IPC: 0.7753 (Simulation time: 00 hr 24 min 14 sec)
Heartbeat CPU 0 instructions: 146501022 cycles: 139989604 heartbeat IPC: 0.6044 cumulative IPC: 0.7742 (Simulation time: 00 hr 24 min 22 sec)
Heartbeat CPU 0 instructions: 147001023 cycles: 140151858 heartbeat IPC: 3.082 cumulative IPC: 0.7772 (Simulation time: 00 hr 24 min 24 sec)
Heartbeat CPU 0 instructions: 147501024 cycles: 140324004 heartbeat IPC: 2.905 cumulative IPC: 0.7801 (Simulation time: 00 hr 24 min 27 sec)
Heartbeat CPU 0 instructions: 148001025 cycles: 140490919 heartbeat IPC: 2.996 cumulative IPC: 0.7831 (Simulation time: 00 hr 24 min 29 sec)
Heartbeat CPU 0 instructions: 148501026 cycles: 140658025 heartbeat IPC: 2.992 cumulative IPC: 0.786 (Simulation time: 00 hr 24 min 31 sec)
Heartbeat CPU 0 instructions: 149001026 cycles: 140841650 heartbeat IPC: 2.723 cumulative IPC: 0.7888 (Simulation time: 00 hr 24 min 34 sec)
Heartbeat CPU 0 instructions: 149501031 cycles: 140979947 heartbeat IPC: 3.615 cumulative IPC: 0.792 (Simulation time: 00 hr 24 min 36 sec)
Heartbeat CPU 0 instructions: 150001036 cycles: 141173493 heartbeat IPC: 2.583 cumulative IPC: 0.7947 (Simulation time: 00 hr 24 min 38 sec)
Heartbeat CPU 0 instructions: 150501043 cycles: 141597942 heartbeat IPC: 1.178 cumulative IPC: 0.796 (Simulation time: 00 hr 24 min 43 sec)
Heartbeat CPU 0 instructions: 151001047 cycles: 142104164 heartbeat IPC: 0.9877 cumulative IPC: 0.7968 (Simulation time: 00 hr 24 min 48 sec)
Heartbeat CPU 0 instructions: 151501052 cycles: 142577741 heartbeat IPC: 1.056 cumulative IPC: 0.7977 (Simulation time: 00 hr 24 min 53 sec)
Heartbeat CPU 0 instructions: 152001052 cycles: 143035214 heartbeat IPC: 1.093 cumulative IPC: 0.7988 (Simulation time: 00 hr 24 min 58 sec)
Heartbeat CPU 0 instructions: 152501059 cycles: 143506466 heartbeat IPC: 1.061 cumulative IPC: 0.7998 (Simulation time: 00 hr 25 min 03 sec)
Heartbeat CPU 0 instructions: 153001063 cycles: 143993528 heartbeat IPC: 1.027 cumulative IPC: 0.8006 (Simulation time: 00 hr 25 min 08 sec)
Heartbeat CPU 0 instructions: 153501064 cycles: 144535842 heartbeat IPC: 0.922 cumulative IPC: 0.8011 (Simulation time: 00 hr 25 min 13 sec)
Heartbeat CPU 0 instructions: 154001068 cycles: 145070306 heartbeat IPC: 0.9355 cumulative IPC: 0.8017 (Simulation time: 00 hr 25 min 19 sec)
Heartbeat CPU 0 instructions: 154501068 cycles: 145616397 heartbeat IPC: 0.9156 cumulative IPC: 0.8022 (Simulation time: 00 hr 25 min 25 sec)
Heartbeat CPU 0 instructions: 155001073 cycles: 146179788 heartbeat IPC: 0.8875 cumulative IPC: 0.8025 (Simulation time: 00 hr 25 min 30 sec)
Heartbeat CPU 0 instructions: 155501075 cycles: 146748391 heartbeat IPC: 0.8794 cumulative IPC: 0.8029 (Simulation time: 00 hr 25 min 36 sec)
Heartbeat CPU 0 instructions: 156001075 cycles: 147318609 heartbeat IPC: 0.8769 cumulative IPC: 0.8032 (Simulation time: 00 hr 25 min 42 sec)
Heartbeat CPU 0 instructions: 156501076 cycles: 147805692 heartbeat IPC: 1.027 cumulative IPC: 0.804 (Simulation time: 00 hr 25 min 47 sec)
Heartbeat CPU 0 instructions: 157001077 cycles: 149648894 heartbeat IPC: 0.2713 cumulative IPC: 0.7967 (Simulation time: 00 hr 26 min 03 sec)
Heartbeat CPU 0 instructions: 157501084 cycles: 152168872 heartbeat IPC: 0.1984 cumulative IPC: 0.7857 (Simulation time: 00 hr 26 min 24 sec)
Heartbeat CPU 0 instructions: 158001090 cycles: 152559367 heartbeat IPC: 1.28 cumulative IPC: 0.7871 (Simulation time: 00 hr 26 min 28 sec)
Heartbeat CPU 0 instructions: 158501090 cycles: 152879912 heartbeat IPC: 1.56 cumulative IPC: 0.7889 (Simulation time: 00 hr 26 min 32 sec)
Heartbeat CPU 0 instructions: 159001095 cycles: 153255942 heartbeat IPC: 1.33 cumulative IPC: 0.7903 (Simulation time: 00 hr 26 min 36 sec)
Heartbeat CPU 0 instructions: 159501095 cycles: 153588204 heartbeat IPC: 1.505 cumulative IPC: 0.7921 (Simulation time: 00 hr 26 min 39 sec)
Heartbeat CPU 0 instructions: 160001098 cycles: 153958620 heartbeat IPC: 1.35 cumulative IPC: 0.7936 (Simulation time: 00 hr 26 min 43 sec)
Heartbeat CPU 0 instructions: 160501102 cycles: 154343370 heartbeat IPC: 1.3 cumulative IPC: 0.795 (Simulation time: 00 hr 26 min 47 sec)
Heartbeat CPU 0 instructions: 161001104 cycles: 154648451 heartbeat IPC: 1.639 cumulative IPC: 0.7968 (Simulation time: 00 hr 26 min 51 sec)
Heartbeat CPU 0 instructions: 161501111 cycles: 154969405 heartbeat IPC: 1.558 cumulative IPC: 0.7986 (Simulation time: 00 hr 26 min 54 sec)
Heartbeat CPU 0 instructions: 162001111 cycles: 155307968 heartbeat IPC: 1.477 cumulative IPC: 0.8002 (Simulation time: 00 hr 26 min 58 sec)
Heartbeat CPU 0 instructions: 162501112 cycles: 155625797 heartbeat IPC: 1.573 cumulative IPC: 0.8019 (Simulation time: 00 hr 27 min 02 sec)
Heartbeat CPU 0 instructions: 163001117 cycles: 155965976 heartbeat IPC: 1.47 cumulative IPC: 0.8036 (Simulation time: 00 hr 27 min 05 sec)
Heartbeat CPU 0 instructions: 163501124 cycles: 156296085 heartbeat IPC: 1.515 cumulative IPC: 0.8052 (Simulation time: 00 hr 27 min 09 sec)
Heartbeat CPU 0 instructions: 164001124 cycles: 157145242 heartbeat IPC: 0.5888 cumulative IPC: 0.8039 (Simulation time: 00 hr 27 min 17 sec)
Heartbeat CPU 0 instructions: 164501124 cycles: 158807649 heartbeat IPC: 0.3008 cumulative IPC: 0.7981 (Simulation time: 00 hr 27 min 31 sec)
Heartbeat CPU 0 instructions: 165001128 cycles: 159833623 heartbeat IPC: 0.4873 cumulative IPC: 0.7959 (Simulation time: 00 hr 27 min 40 sec)
Heartbeat CPU 0 instructions: 165501129 cycles: 160317484 heartbeat IPC: 1.033 cumulative IPC: 0.7967 (Simulation time: 00 hr 27 min 45 sec)
Heartbeat CPU 0 instructions: 166001135 cycles: 160776271 heartbeat IPC: 1.09 cumulative IPC: 0.7976 (Simulation time: 00 hr 27 min 50 sec)
Heartbeat CPU 0 instructions: 166501136 cycles: 161206031 heartbeat IPC: 1.163 cumulative IPC: 0.7987 (Simulation time: 00 hr 27 min 54 sec)
Heartbeat CPU 0 instructions: 167001137 cycles: 161632002 heartbeat IPC: 1.174 cumulative IPC: 0.7998 (Simulation time: 00 hr 27 min 59 sec)
Heartbeat CPU 0 instructions: 167501138 cycles: 162111466 heartbeat IPC: 1.043 cumulative IPC: 0.8006 (Simulation time: 00 hr 28 min 04 sec)
Heartbeat CPU 0 instructions: 168001139 cycles: 162626211 heartbeat IPC: 0.9714 cumulative IPC: 0.8012 (Simulation time: 00 hr 28 min 09 sec)
Heartbeat CPU 0 instructions: 168501140 cycles: 163156423 heartbeat IPC: 0.943 cumulative IPC: 0.8017 (Simulation time: 00 hr 28 min 14 sec)
Heartbeat CPU 0 instructions: 169001145 cycles: 163720856 heartbeat IPC: 0.8859 cumulative IPC: 0.802 (Simulation time: 00 hr 28 min 20 sec)
Heartbeat CPU 0 instructions: 169501147 cycles: 164246675 heartbeat IPC: 0.9509 cumulative IPC: 0.8025 (Simulation time: 00 hr 28 min 25 sec)
Heartbeat CPU 0 instructions: 170001148 cycles: 164784021 heartbeat IPC: 0.9305 cumulative IPC: 0.803 (Simulation time: 00 hr 28 min 31 sec)
Heartbeat CPU 0 instructions: 170501152 cycles: 165307756 heartbeat IPC: 0.9547 cumulative IPC: 0.8035 (Simulation time: 00 hr 28 min 36 sec)
Heartbeat CPU 0 instructions: 171001157 cycles: 165869774 heartbeat IPC: 0.8897 cumulative IPC: 0.8038 (Simulation time: 00 hr 28 min 41 sec)
Heartbeat CPU 0 instructions: 171501159 cycles: 166930712 heartbeat IPC: 0.4713 cumulative IPC: 0.8015 (Simulation time: 00 hr 28 min 51 sec)
Heartbeat CPU 0 instructions: 172001164 cycles: 169088513 heartbeat IPC: 0.2317 cumulative IPC: 0.7935 (Simulation time: 00 hr 29 min 09 sec)
Heartbeat CPU 0 instructions: 172501167 cycles: 171051090 heartbeat IPC: 0.2548 cumulative IPC: 0.7867 (Simulation time: 00 hr 29 min 25 sec)
Heartbeat CPU 0 instructions: 173001168 cycles: 171386916 heartbeat IPC: 1.489 cumulative IPC: 0.7882 (Simulation time: 00 hr 29 min 29 sec)
Heartbeat CPU 0 instructions: 173501174 cycles: 171780310 heartbeat IPC: 1.271 cumulative IPC: 0.7895 (Simulation time: 00 hr 29 min 33 sec)
Heartbeat CPU 0 instructions: 174001175 cycles: 172148076 heartbeat IPC: 1.36 cumulative IPC: 0.7908 (Simulation time: 00 hr 29 min 37 sec)
Heartbeat CPU 0 instructions: 174501176 cycles: 172462224 heartbeat IPC: 1.592 cumulative IPC: 0.7924 (Simulation time: 00 hr 29 min 40 sec)
Heartbeat CPU 0 instructions: 175001176 cycles: 172836347 heartbeat IPC: 1.336 cumulative IPC: 0.7937 (Simulation time: 00 hr 29 min 44 sec)
Heartbeat CPU 0 instructions: 175501178 cycles: 173222676 heartbeat IPC: 1.294 cumulative IPC: 0.7949 (Simulation time: 00 hr 29 min 48 sec)
Heartbeat CPU 0 instructions: 176001184 cycles: 173572982 heartbeat IPC: 1.427 cumulative IPC: 0.7963 (Simulation time: 00 hr 29 min 52 sec)
Heartbeat CPU 0 instructions: 176501185 cycles: 173918564 heartbeat IPC: 1.447 cumulative IPC: 0.7977 (Simulation time: 00 hr 29 min 55 sec)
Heartbeat CPU 0 instructions: 177001186 cycles: 174264832 heartbeat IPC: 1.444 cumulative IPC: 0.7991 (Simulation time: 00 hr 29 min 59 sec)
Heartbeat CPU 0 instructions: 177501193 cycles: 174598026 heartbeat IPC: 1.501 cumulative IPC: 0.8006 (Simulation time: 00 hr 30 min 03 sec)
Heartbeat CPU 0 instructions: 178001193 cycles: 174942432 heartbeat IPC: 1.452 cumulative IPC: 0.802 (Simulation time: 00 hr 30 min 06 sec)
Heartbeat CPU 0 instructions: 178501194 cycles: 175300429 heartbeat IPC: 1.397 cumulative IPC: 0.8033 (Simulation time: 00 hr 30 min 10 sec)
Heartbeat CPU 0 instructions: 179001197 cycles: 175631918 heartbeat IPC: 1.508 cumulative IPC: 0.8048 (Simulation time: 00 hr 30 min 14 sec)
Heartbeat CPU 0 instructions: 179501200 cycles: 176983220 heartbeat IPC: 0.37 cumulative IPC: 0.8012 (Simulation time: 00 hr 30 min 25 sec)
Heartbeat CPU 0 instructions: 180001201 cycles: 179042574 heartbeat IPC: 0.2428 cumulative IPC: 0.7941 (Simulation time: 00 hr 30 min 42 sec)
Heartbeat CPU 0 instructions: 180501208 cycles: 179848404 heartbeat IPC: 0.6205 cumulative IPC: 0.7933 (Simulation time: 00 hr 30 min 49 sec)
Heartbeat CPU 0 instructions: 181001215 cycles: 180317795 heartbeat IPC: 1.065 cumulative IPC: 0.7941 (Simulation time: 00 hr 30 min 54 sec)
Heartbeat CPU 0 instructions: 181501222 cycles: 180763010 heartbeat IPC: 1.123 cumulative IPC: 0.7949 (Simulation time: 00 hr 30 min 58 sec)
Heartbeat CPU 0 instructions: 182001225 cycles: 181228615 heartbeat IPC: 1.074 cumulative IPC: 0.7957 (Simulation time: 00 hr 31 min 03 sec)
Heartbeat CPU 0 instructions: 182501231 cycles: 181702718 heartbeat IPC: 1.055 cumulative IPC: 0.7965 (Simulation time: 00 hr 31 min 08 sec)
Heartbeat CPU 0 instructions: 183001232 cycles: 182189520 heartbeat IPC: 1.027 cumulative IPC: 0.7971 (Simulation time: 00 hr 31 min 13 sec)
Heartbeat CPU 0 instructions: 183501237 cycles: 182683558 heartbeat IPC: 1.012 cumulative IPC: 0.7978 (Simulation time: 00 hr 31 min 18 sec)
Heartbeat CPU 0 instructions: 184001244 cycles: 183192402 heartbeat IPC: 0.9826 cumulative IPC: 0.7983 (Simulation time: 00 hr 31 min 23 sec)
Heartbeat CPU 0 instructions: 184501247 cycles: 183747687 heartbeat IPC: 0.9004 cumulative IPC: 0.7987 (Simulation time: 00 hr 31 min 28 sec)
Heartbeat CPU 0 instructions: 185001248 cycles: 184391195 heartbeat IPC: 0.777 cumulative IPC: 0.7986 (Simulation time: 00 hr 31 min 34 sec)
Heartbeat CPU 0 instructions: 185501251 cycles: 185947613 heartbeat IPC: 0.3213 cumulative IPC: 0.7942 (Simulation time: 00 hr 31 min 47 sec)
Heartbeat CPU 0 instructions: 186001254 cycles: 187049054 heartbeat IPC: 0.454 cumulative IPC: 0.792 (Simulation time: 00 hr 31 min 57 sec)
Heartbeat CPU 0 instructions: 186501260 cycles: 187279278 heartbeat IPC: 2.172 cumulative IPC: 0.7939 (Simulation time: 00 hr 31 min 59 sec)
Heartbeat CPU 0 instructions: 187001267 cycles: 187503564 heartbeat IPC: 2.229 cumulative IPC: 0.7958 (Simulation time: 00 hr 32 min 02 sec)
Heartbeat CPU 0 instructions: 187501274 cycles: 187738104 heartbeat IPC: 2.132 cumulative IPC: 0.7976 (Simulation time: 00 hr 32 min 05 sec)
Heartbeat CPU 0 instructions: 188001277 cycles: 188008655 heartbeat IPC: 1.848 cumulative IPC: 0.7992 (Simulation time: 00 hr 32 min 08 sec)
Heartbeat CPU 0 instructions: 188501278 cycles: 188252268 heartbeat IPC: 2.052 cumulative IPC: 0.801 (Simulation time: 00 hr 32 min 11 sec)
Heartbeat CPU 0 instructions: 189001282 cycles: 188520536 heartbeat IPC: 1.864 cumulative IPC: 0.8026 (Simulation time: 00 hr 32 min 14 sec)
Heartbeat CPU 0 instructions: 189501289 cycles: 188770939 heartbeat IPC: 1.997 cumulative IPC: 0.8044 (Simulation time: 00 hr 32 min 17 sec)
Heartbeat CPU 0 instructions: 190001296 cycles: 188987694 heartbeat IPC: 2.307 cumulative IPC: 0.8062 (Simulation time: 00 hr 32 min 19 sec)
Heartbeat CPU 0 instructions: 190501303 cycles: 189231546 heartbeat IPC: 2.05 cumulative IPC: 0.808 (Simulation time: 00 hr 32 min 22 sec)
Heartbeat CPU 0 instructions: 191001306 cycles: 189827708 heartbeat IPC: 0.8387 cumulative IPC: 0.8081 (Simulation time: 00 hr 32 min 28 sec)
Heartbeat CPU 0 instructions: 191501310 cycles: 190889725 heartbeat IPC: 0.4708 cumulative IPC: 0.8061 (Simulation time: 00 hr 32 min 36 sec)
Heartbeat CPU 0 instructions: 192001312 cycles: 191363481 heartbeat IPC: 1.055 cumulative IPC: 0.8067 (Simulation time: 00 hr 32 min 41 sec)
Heartbeat CPU 0 instructions: 192501313 cycles: 191764398 heartbeat IPC: 1.247 cumulative IPC: 0.8077 (Simulation time: 00 hr 32 min 45 sec)
Heartbeat CPU 0 instructions: 193001320 cycles: 192186563 heartbeat IPC: 1.184 cumulative IPC: 0.8086 (Simulation time: 00 hr 32 min 49 sec)
Heartbeat CPU 0 instructions: 193501327 cycles: 192616498 heartbeat IPC: 1.163 cumulative IPC: 0.8095 (Simulation time: 00 hr 32 min 54 sec)
Heartbeat CPU 0 instructions: 194001330 cycles: 193090903 heartbeat IPC: 1.054 cumulative IPC: 0.8101 (Simulation time: 00 hr 32 min 58 sec)
Heartbeat CPU 0 instructions: 194501335 cycles: 193576339 heartbeat IPC: 1.03 cumulative IPC: 0.8107 (Simulation time: 00 hr 33 min 03 sec)
Heartbeat CPU 0 instructions: 195001339 cycles: 194074356 heartbeat IPC: 1.004 cumulative IPC: 0.8113 (Simulation time: 00 hr 33 min 08 sec)
Heartbeat CPU 0 instructions: 195501342 cycles: 194594480 heartbeat IPC: 0.9613 cumulative IPC: 0.8117 (Simulation time: 00 hr 33 min 13 sec)
Heartbeat CPU 0 instructions: 196001344 cycles: 195187414 heartbeat IPC: 0.8433 cumulative IPC: 0.8118 (Simulation time: 00 hr 33 min 19 sec)
Heartbeat CPU 0 instructions: 196501344 cycles: 195850584 heartbeat IPC: 0.754 cumulative IPC: 0.8116 (Simulation time: 00 hr 33 min 25 sec)
Heartbeat CPU 0 instructions: 197001349 cycles: 197567423 heartbeat IPC: 0.2912 cumulative IPC: 0.8067 (Simulation time: 00 hr 33 min 39 sec)
Heartbeat CPU 0 instructions: 197501355 cycles: 198817139 heartbeat IPC: 0.4001 cumulative IPC: 0.8039 (Simulation time: 00 hr 33 min 50 sec)
Heartbeat CPU 0 instructions: 198001360 cycles: 199084748 heartbeat IPC: 1.868 cumulative IPC: 0.8055 (Simulation time: 00 hr 33 min 53 sec)
Heartbeat CPU 0 instructions: 198501363 cycles: 199355305 heartbeat IPC: 1.848 cumulative IPC: 0.807 (Simulation time: 00 hr 33 min 56 sec)
Heartbeat CPU 0 instructions: 199001366 cycles: 199613114 heartbeat IPC: 1.939 cumulative IPC: 0.8086 (Simulation time: 00 hr 33 min 59 sec)
Heartbeat CPU 0 instructions: 199501371 cycles: 199912184 heartbeat IPC: 1.672 cumulative IPC: 0.81 (Simulation time: 00 hr 34 min 02 sec)
Heartbeat CPU 0 instructions: 200001377 cycles: 200189160 heartbeat IPC: 1.805 cumulative IPC: 0.8115 (Simulation time: 00 hr 34 min 05 sec)
Heartbeat CPU 0 instructions: 200501384 cycles: 200428325 heartbeat IPC: 2.091 cumulative IPC: 0.8131 (Simulation time: 00 hr 34 min 08 sec)
Heartbeat CPU 0 instructions: 201001387 cycles: 200711271 heartbeat IPC: 1.767 cumulative IPC: 0.8146 (Simulation time: 00 hr 34 min 11 sec)
Heartbeat CPU 0 instructions: 201501388 cycles: 200977824 heartbeat IPC: 1.876 cumulative IPC: 0.8161 (Simulation time: 00 hr 34 min 14 sec)
Heartbeat CPU 0 instructions: 202001390 cycles: 201230853 heartbeat IPC: 1.976 cumulative IPC: 0.8177 (Simulation time: 00 hr 34 min 17 sec)
Heartbeat CPU 0 instructions: 202501397 cycles: 201651118 heartbeat IPC: 1.19 cumulative IPC: 0.8185 (Simulation time: 00 hr 34 min 21 sec)
Heartbeat CPU 0 instructions: 203001402 cycles: 202678766 heartbeat IPC: 0.4866 cumulative IPC: 0.8167 (Simulation time: 00 hr 34 min 29 sec)
Heartbeat CPU 0 instructions: 203501407 cycles: 203425662 heartbeat IPC: 0.6694 cumulative IPC: 0.8161 (Simulation time: 00 hr 34 min 36 sec)
Heartbeat CPU 0 instructions: 204001410 cycles: 203891202 heartbeat IPC: 1.074 cumulative IPC: 0.8168 (Simulation time: 00 hr 34 min 40 sec)
Heartbeat CPU 0 instructions: 204501412 cycles: 204316784 heartbeat IPC: 1.175 cumulative IPC: 0.8176 (Simulation time: 00 hr 34 min 45 sec)
Heartbeat CPU 0 instructions: 205001412 cycles: 204747450 heartbeat IPC: 1.161 cumulative IPC: 0.8184 (Simulation time: 00 hr 34 min 49 sec)
Heartbeat CPU 0 instructions: 205501415 cycles: 205179097 heartbeat IPC: 1.158 cumulative IPC: 0.8191 (Simulation time: 00 hr 34 min 53 sec)
Heartbeat CPU 0 instructions: 206001419 cycles: 205628231 heartbeat IPC: 1.113 cumulative IPC: 0.8198 (Simulation time: 00 hr 34 min 58 sec)
Heartbeat CPU 0 instructions: 206501421 cycles: 206105663 heartbeat IPC: 1.047 cumulative IPC: 0.8204 (Simulation time: 00 hr 35 min 03 sec)
Heartbeat CPU 0 instructions: 207001428 cycles: 206670078 heartbeat IPC: 0.8859 cumulative IPC: 0.8206 (Simulation time: 00 hr 35 min 08 sec)
Heartbeat CPU 0 instructions: 207501431 cycles: 207196186 heartbeat IPC: 0.9504 cumulative IPC: 0.8209 (Simulation time: 00 hr 35 min 13 sec)
Heartbeat CPU 0 instructions: 208001436 cycles: 207756375 heartbeat IPC: 0.8926 cumulative IPC: 0.8211 (Simulation time: 00 hr 35 min 18 sec)
Heartbeat CPU 0 instructions: 208501437 cycles: 208674879 heartbeat IPC: 0.5444 cumulative IPC: 0.8198 (Simulation time: 00 hr 35 min 26 sec)
Heartbeat CPU 0 instructions: 209001437 cycles: 210669631 heartbeat IPC: 0.2507 cumulative IPC: 0.814 (Simulation time: 00 hr 35 min 43 sec)
Heartbeat CPU 0 instructions: 209501439 cycles: 211520531 heartbeat IPC: 0.5876 cumulative IPC: 0.813 (Simulation time: 00 hr 35 min 50 sec)
Heartbeat CPU 0 instructions: 210001444 cycles: 211821510 heartbeat IPC: 1.661 cumulative IPC: 0.8143 (Simulation time: 00 hr 35 min 53 sec)
Heartbeat CPU 0 instructions: 210501445 cycles: 212116273 heartbeat IPC: 1.696 cumulative IPC: 0.8157 (Simulation time: 00 hr 35 min 56 sec)
Heartbeat CPU 0 instructions: 211001447 cycles: 212374272 heartbeat IPC: 1.938 cumulative IPC: 0.8171 (Simulation time: 00 hr 35 min 59 sec)
Heartbeat CPU 0 instructions: 211501447 cycles: 212632895 heartbeat IPC: 1.933 cumulative IPC: 0.8186 (Simulation time: 00 hr 36 min 02 sec)
Heartbeat CPU 0 instructions: 212001451 cycles: 212908045 heartbeat IPC: 1.817 cumulative IPC: 0.82 (Simulation time: 00 hr 36 min 05 sec)
Heartbeat CPU 0 instructions: 212501452 cycles: 213162413 heartbeat IPC: 1.966 cumulative IPC: 0.8215 (Simulation time: 00 hr 36 min 08 sec)
Heartbeat CPU 0 instructions: 213001452 cycles: 213432273 heartbeat IPC: 1.853 cumulative IPC: 0.8229 (Simulation time: 00 hr 36 min 11 sec)
Heartbeat CPU 0 instructions: 213501452 cycles: 213670362 heartbeat IPC: 2.1 cumulative IPC: 0.8244 (Simulation time: 00 hr 36 min 14 sec)
Heartbeat CPU 0 instructions: 214001457 cycles: 213934770 heartbeat IPC: 1.891 cumulative IPC: 0.8258 (Simulation time: 00 hr 36 min 17 sec)
Heartbeat CPU 0 instructions: 214501463 cycles: 214411566 heartbeat IPC: 1.049 cumulative IPC: 0.8263 (Simulation time: 00 hr 36 min 21 sec)
Heartbeat CPU 0 instructions: 215001465 cycles: 215455803 heartbeat IPC: 0.4788 cumulative IPC: 0.8245 (Simulation time: 00 hr 36 min 30 sec)
Heartbeat CPU 0 instructions: 215501472 cycles: 216255644 heartbeat IPC: 0.6251 cumulative IPC: 0.8237 (Simulation time: 00 hr 36 min 37 sec)
Heartbeat CPU 0 instructions: 216001477 cycles: 216702631 heartbeat IPC: 1.119 cumulative IPC: 0.8244 (Simulation time: 00 hr 36 min 41 sec)
Heartbeat CPU 0 instructions: 216501483 cycles: 217118546 heartbeat IPC: 1.202 cumulative IPC: 0.8252 (Simulation time: 00 hr 36 min 45 sec)
Heartbeat CPU 0 instructions: 217001484 cycles: 217528258 heartbeat IPC: 1.22 cumulative IPC: 0.826 (Simulation time: 00 hr 36 min 49 sec)
Heartbeat CPU 0 instructions: 217501489 cycles: 217950759 heartbeat IPC: 1.183 cumulative IPC: 0.8267 (Simulation time: 00 hr 36 min 54 sec)
Heartbeat CPU 0 instructions: 218001494 cycles: 218393414 heartbeat IPC: 1.13 cumulative IPC: 0.8274 (Simulation time: 00 hr 36 min 58 sec)
Heartbeat CPU 0 instructions: 218501495 cycles: 218901117 heartbeat IPC: 0.9848 cumulative IPC: 0.8278 (Simulation time: 00 hr 37 min 03 sec)
Heartbeat CPU 0 instructions: 219001500 cycles: 219443324 heartbeat IPC: 0.9222 cumulative IPC: 0.828 (Simulation time: 00 hr 37 min 08 sec)
Heartbeat CPU 0 instructions: 219501503 cycles: 220030495 heartbeat IPC: 0.8515 cumulative IPC: 0.8281 (Simulation time: 00 hr 37 min 14 sec)
Heartbeat CPU 0 instructions: 220001507 cycles: 220581431 heartbeat IPC: 0.9076 cumulative IPC: 0.8283 (Simulation time: 00 hr 37 min 19 sec)
Heartbeat CPU 0 instructions: 220501513 cycles: 221807282 heartbeat IPC: 0.4079 cumulative IPC: 0.8258 (Simulation time: 00 hr 37 min 29 sec)
Heartbeat CPU 0 instructions: 221001515 cycles: 223783398 heartbeat IPC: 0.253 cumulative IPC: 0.8204 (Simulation time: 00 hr 37 min 45 sec)
Heartbeat CPU 0 instructions: 221501517 cycles: 224025547 heartbeat IPC: 2.065 cumulative IPC: 0.8218 (Simulation time: 00 hr 37 min 48 sec)
Heartbeat CPU 0 instructions: 222001523 cycles: 224311631 heartbeat IPC: 1.748 cumulative IPC: 0.8231 (Simulation time: 00 hr 37 min 51 sec)
Heartbeat CPU 0 instructions: 222501526 cycles: 224570253 heartbeat IPC: 1.933 cumulative IPC: 0.8245 (Simulation time: 00 hr 37 min 54 sec)
Heartbeat CPU 0 instructions: 223001531 cycles: 224855224 heartbeat IPC: 1.755 cumulative IPC: 0.8257 (Simulation time: 00 hr 37 min 57 sec)
Heartbeat CPU 0 instructions: 223501535 cycles: 225121899 heartbeat IPC: 1.875 cumulative IPC: 0.8271 (Simulation time: 00 hr 38 min 00 sec)
Heartbeat CPU 0 instructions: 224001540 cycles: 225351554 heartbeat IPC: 2.177 cumulative IPC: 0.8285 (Simulation time: 00 hr 38 min 02 sec)
Heartbeat CPU 0 instructions: 224501541 cycles: 225627401 heartbeat IPC: 1.813 cumulative IPC: 0.8298 (Simulation time: 00 hr 38 min 05 sec)
Heartbeat CPU 0 instructions: 225001541 cycles: 225857003 heartbeat IPC: 2.178 cumulative IPC: 0.8313 (Simulation time: 00 hr 38 min 08 sec)
Heartbeat CPU 0 instructions: 225501543 cycles: 226098253 heartbeat IPC: 2.073 cumulative IPC: 0.8327 (Simulation time: 00 hr 38 min 11 sec)
Heartbeat CPU 0 instructions: 226001550 cycles: 226372917 heartbeat IPC: 1.82 cumulative IPC: 0.834 (Simulation time: 00 hr 38 min 14 sec)
Heartbeat CPU 0 instructions: 226501555 cycles: 227201419 heartbeat IPC: 0.6035 cumulative IPC: 0.8331 (Simulation time: 00 hr 38 min 21 sec)
Heartbeat CPU 0 instructions: 227001560 cycles: 228172248 heartbeat IPC: 0.515 cumulative IPC: 0.8317 (Simulation time: 00 hr 38 min 29 sec)
Heartbeat CPU 0 instructions: 227501565 cycles: 228631836 heartbeat IPC: 1.088 cumulative IPC: 0.8322 (Simulation time: 00 hr 38 min 33 sec)
Heartbeat CPU 0 instructions: 228001571 cycles: 229070458 heartbeat IPC: 1.14 cumulative IPC: 0.8328 (Simulation time: 00 hr 38 min 37 sec)
Heartbeat CPU 0 instructions: 228501571 cycles: 229504240 heartbeat IPC: 1.153 cumulative IPC: 0.8335 (Simulation time: 00 hr 38 min 42 sec)
Heartbeat CPU 0 instructions: 229001571 cycles: 229931260 heartbeat IPC: 1.171 cumulative IPC: 0.8342 (Simulation time: 00 hr 38 min 46 sec)
Heartbeat CPU 0 instructions: 229501576 cycles: 230367157 heartbeat IPC: 1.147 cumulative IPC: 0.8348 (Simulation time: 00 hr 38 min 50 sec)
Heartbeat CPU 0 instructions: 230001576 cycles: 230850068 heartbeat IPC: 1.035 cumulative IPC: 0.8352 (Simulation time: 00 hr 38 min 55 sec)
Heartbeat CPU 0 instructions: 230501583 cycles: 231413320 heartbeat IPC: 0.8877 cumulative IPC: 0.8354 (Simulation time: 00 hr 39 min 00 sec)
Heartbeat CPU 0 instructions: 231001587 cycles: 231957038 heartbeat IPC: 0.9196 cumulative IPC: 0.8356 (Simulation time: 00 hr 39 min 05 sec)
Heartbeat CPU 0 instructions: 231501587 cycles: 232480389 heartbeat IPC: 0.9554 cumulative IPC: 0.8359 (Simulation time: 00 hr 39 min 10 sec)
Heartbeat CPU 0 instructions: 232001592 cycles: 233355983 heartbeat IPC: 0.571 cumulative IPC: 0.8348 (Simulation time: 00 hr 39 min 18 sec)
Heartbeat CPU 0 instructions: 232501592 cycles: 235280416 heartbeat IPC: 0.2598 cumulative IPC: 0.8298 (Simulation time: 00 hr 39 min 34 sec)
Heartbeat CPU 0 instructions: 233001594 cycles: 236139059 heartbeat IPC: 0.5823 cumulative IPC: 0.8288 (Simulation time: 00 hr 39 min 41 sec)
Heartbeat CPU 0 instructions: 233501598 cycles: 236395320 heartbeat IPC: 1.951 cumulative IPC: 0.8301 (Simulation time: 00 hr 39 min 44 sec)
Heartbeat CPU 0 instructions: 234001604 cycles: 236662175 heartbeat IPC: 1.874 cumulative IPC: 0.8314 (Simulation time: 00 hr 39 min 46 sec)
Heartbeat CPU 0 instructions: 234501605 cycles: 236927764 heartbeat IPC: 1.883 cumulative IPC: 0.8326 (Simulation time: 00 hr 39 min 49 sec)
Heartbeat CPU 0 instructions: 235001609 cycles: 237219407 heartbeat IPC: 1.714 cumulative IPC: 0.8338 (Simulation time: 00 hr 39 min 53 sec)
Heartbeat CPU 0 instructions: 235501609 cycles: 237480364 heartbeat IPC: 1.916 cumulative IPC: 0.8351 (Simulation time: 00 hr 39 min 55 sec)
Heartbeat CPU 0 instructions: 236001612 cycles: 237753990 heartbeat IPC: 1.827 cumulative IPC: 0.8363 (Simulation time: 00 hr 39 min 58 sec)
Heartbeat CPU 0 instructions: 236501618 cycles: 238008403 heartbeat IPC: 1.965 cumulative IPC: 0.8376 (Simulation time: 00 hr 40 min 01 sec)
Heartbeat CPU 0 instructions: 237001621 cycles: 238236121 heartbeat IPC: 2.196 cumulative IPC: 0.839 (Simulation time: 00 hr 40 min 04 sec)
Heartbeat CPU 0 instructions: 237501625 cycles: 238488954 heartbeat IPC: 1.978 cumulative IPC: 0.8403 (Simulation time: 00 hr 40 min 07 sec)
Heartbeat CPU 0 instructions: 238001630 cycles: 239081081 heartbeat IPC: 0.8444 cumulative IPC: 0.8403 (Simulation time: 00 hr 40 min 12 sec)
Heartbeat CPU 0 instructions: 238501634 cycles: 240203791 heartbeat IPC: 0.4454 cumulative IPC: 0.8383 (Simulation time: 00 hr 40 min 21 sec)
Heartbeat CPU 0 instructions: 239001637 cycles: 240759642 heartbeat IPC: 0.8995 cumulative IPC: 0.8384 (Simulation time: 00 hr 40 min 26 sec)
Heartbeat CPU 0 instructions: 239501641 cycles: 241202719 heartbeat IPC: 1.128 cumulative IPC: 0.839 (Simulation time: 00 hr 40 min 30 sec)
Heartbeat CPU 0 instructions: 240001645 cycles: 241617712 heartbeat IPC: 1.205 cumulative IPC: 0.8397 (Simulation time: 00 hr 40 min 34 sec)
Heartbeat CPU 0 instructions: 240501650 cycles: 242024592 heartbeat IPC: 1.229 cumulative IPC: 0.8404 (Simulation time: 00 hr 40 min 38 sec)
Heartbeat CPU 0 instructions: 241001650 cycles: 242465993 heartbeat IPC: 1.133 cumulative IPC: 0.841 (Simulation time: 00 hr 40 min 42 sec)
Heartbeat CPU 0 instructions: 241501652 cycles: 242942050 heartbeat IPC: 1.05 cumulative IPC: 0.8414 (Simulation time: 00 hr 40 min 47 sec)
Heartbeat CPU 0 instructions: 242001659 cycles: 243455095 heartbeat IPC: 0.9746 cumulative IPC: 0.8417 (Simulation time: 00 hr 40 min 52 sec)
Heartbeat CPU 0 instructions: 242501663 cycles: 243965618 heartbeat IPC: 0.9794 cumulative IPC: 0.842 (Simulation time: 00 hr 40 min 57 sec)
Heartbeat CPU 0 instructions: 243001668 cycles: 244511223 heartbeat IPC: 0.9164 cumulative IPC: 0.8422 (Simulation time: 00 hr 41 min 02 sec)
Heartbeat CPU 0 instructions: 243501675 cycles: 245063539 heartbeat IPC: 0.9053 cumulative IPC: 0.8423 (Simulation time: 00 hr 41 min 07 sec)
Heartbeat CPU 0 instructions: 244001678 cycles: 245643929 heartbeat IPC: 0.8615 cumulative IPC: 0.8424 (Simulation time: 00 hr 41 min 12 sec)
Heartbeat CPU 0 instructions: 244501680 cycles: 247120673 heartbeat IPC: 0.3386 cumulative IPC: 0.8392 (Simulation time: 00 hr 41 min 24 sec)
Heartbeat CPU 0 instructions: 245001684 cycles: 249320895 heartbeat IPC: 0.2273 cumulative IPC: 0.8334 (Simulation time: 00 hr 41 min 41 sec)
Heartbeat CPU 0 instructions: 245501685 cycles: 249711898 heartbeat IPC: 1.279 cumulative IPC: 0.8342 (Simulation time: 00 hr 41 min 45 sec)
Heartbeat CPU 0 instructions: 246001690 cycles: 250005053 heartbeat IPC: 1.706 cumulative IPC: 0.8352 (Simulation time: 00 hr 41 min 48 sec)
Heartbeat CPU 0 instructions: 246501693 cycles: 250301609 heartbeat IPC: 1.686 cumulative IPC: 0.8363 (Simulation time: 00 hr 41 min 51 sec)
Heartbeat CPU 0 instructions: 247001696 cycles: 250567588 heartbeat IPC: 1.88 cumulative IPC: 0.8375 (Simulation time: 00 hr 41 min 54 sec)
Heartbeat CPU 0 instructions: 247501697 cycles: 250900350 heartbeat IPC: 1.503 cumulative IPC: 0.8384 (Simulation time: 00 hr 41 min 58 sec)
Heartbeat CPU 0 instructions: 248001703 cycles: 251216014 heartbeat IPC: 1.584 cumulative IPC: 0.8394 (Simulation time: 00 hr 42 min 01 sec)
Heartbeat CPU 0 instructions: 248501706 cycles: 251495914 heartbeat IPC: 1.786 cumulative IPC: 0.8406 (Simulation time: 00 hr 42 min 04 sec)
Heartbeat CPU 0 instructions: 249001711 cycles: 251792615 heartbeat IPC: 1.685 cumulative IPC: 0.8416 (Simulation time: 00 hr 42 min 07 sec)
Heartbeat CPU 0 instructions: 249501718 cycles: 252068697 heartbeat IPC: 1.811 cumulative IPC: 0.8427 (Simulation time: 00 hr 42 min 10 sec)
*** Reached end of trace: (0, "/local-ssd/ben/dpc4-traces/Graph/Ligra/ligra_Components-Shortcut.com-lj.ungraph.gcc_6.3.0_O3.drop_17000M.length_250M.champsimtrace.xz")
Simulation finished CPU 0 instructions: 200000007 cycles: 236997773 cumulative IPC: 0.8439 (Simulation time: 00 hr 42 min 13 sec)
Simulation complete CPU 0 instructions: 200000007 cycles: 236997773 cumulative IPC: 0.8439 (Simulation time: 00 hr 42 min 13 sec)

ChampSim completed all CPUs

=== Simulation ===
CPU 0 runs /local-ssd/ben/dpc4-traces/Graph/Ligra/ligra_Components-Shortcut.com-lj.ungraph.gcc_6.3.0_O3.drop_17000M.length_250M.champsimtrace.xz

Region of Interest Statistics

CPU 0 cumulative IPC: 0.8439 instructions: 200000007 cycles: 236997773
CPU 0 Branch Prediction Accuracy: 99.03% MPKI: 0.9837 Average ROB Occupancy at Mispredict: 187.8
Branch type MPKI
BRANCH_DIRECT_JUMP: 0
BRANCH_INDIRECT: 0
BRANCH_CONDITIONAL: 0.9836
BRANCH_DIRECT_CALL: 0
BRANCH_INDIRECT_CALL: 0
BRANCH_RETURN: 0.000155

cpu0->cpu0_STLB TOTAL        ACCESS:     110722 HIT:      90633 MISS:      20089 MSHR_MERGE:          0
cpu0->cpu0_STLB LOAD         ACCESS:     110722 HIT:      90633 MISS:      20089 MSHR_MERGE:          0
cpu0->cpu0_STLB RFO          ACCESS:          0 HIT:          0 MISS:          0 MSHR_MERGE:          0
cpu0->cpu0_STLB PREFETCH     ACCESS:          0 HIT:          0 MISS:          0 MSHR_MERGE:          0
cpu0->cpu0_STLB WRITE        ACCESS:          0 HIT:          0 MISS:          0 MSHR_MERGE:          0
cpu0->cpu0_STLB TRANSLATION  ACCESS:          0 HIT:          0 MISS:          0 MSHR_MERGE:          0
cpu0->cpu0_STLB PREFETCH REQUESTED:          0 ISSUED:          0 USEFUL:          0 USELESS:          0
cpu0->cpu0_STLB AVERAGE MISS LATENCY: 406.1 cycles
cpu0->cpu0_L2C TOTAL        ACCESS:   17842521 HIT:   10245783 MISS:    7596738 MSHR_MERGE:    3741941
cpu0->cpu0_L2C LOAD         ACCESS:    1931137 HIT:    1676572 MISS:     254565 MSHR_MERGE:     179811
cpu0->cpu0_L2C RFO          ACCESS:    2219442 HIT:     225475 MISS:    1993967 MSHR_MERGE:         84
cpu0->cpu0_L2C PREFETCH     ACCESS:   11457606 HIT:    6112580 MISS:    5345026 MSHR_MERGE:    3562046
cpu0->cpu0_L2C WRITE        ACCESS:    2228522 HIT:    2228517 MISS:          5 MSHR_MERGE:          0
cpu0->cpu0_L2C TRANSLATION  ACCESS:       5814 HIT:       2639 MISS:       3175 MSHR_MERGE:          0
cpu0->cpu0_L2C PREFETCH REQUESTED:   11473499 ISSUED:   10589336 USEFUL:    1470075 USELESS:     161822
cpu0->cpu0_L2C AVERAGE MISS LATENCY: 1008 cycles
cpu0->cpu0_L1I TOTAL        ACCESS:   26584221 HIT:   26584221 MISS:          0 MSHR_MERGE:          0
cpu0->cpu0_L1I LOAD         ACCESS:   26584221 HIT:   26584221 MISS:          0 MSHR_MERGE:          0
cpu0->cpu0_L1I RFO          ACCESS:          0 HIT:          0 MISS:          0 MSHR_MERGE:          0
cpu0->cpu0_L1I PREFETCH     ACCESS:          0 HIT:          0 MISS:          0 MSHR_MERGE:          0
cpu0->cpu0_L1I WRITE        ACCESS:          0 HIT:          0 MISS:          0 MSHR_MERGE:          0
cpu0->cpu0_L1I TRANSLATION  ACCESS:          0 HIT:          0 MISS:          0 MSHR_MERGE:          0
cpu0->cpu0_L1I PREFETCH REQUESTED:          0 ISSUED:          0 USEFUL:          0 USELESS:          0
cpu0->cpu0_L1I AVERAGE MISS LATENCY: - cycles
cpu0->cpu0_L1D TOTAL        ACCESS:   56691198 HIT:   37177159 MISS:   19514039 MSHR_MERGE:   14489316
cpu0->cpu0_L1D LOAD         ACCESS:   15563052 HIT:   12617086 MISS:    2945966 MSHR_MERGE:    1014822
cpu0->cpu0_L1D RFO          ACCESS:          0 HIT:          0 MISS:          0 MSHR_MERGE:          0
cpu0->cpu0_L1D PREFETCH     ACCESS:    1859361 HIT:     845814 MISS:    1013547 MSHR_MERGE:     145276
cpu0->cpu0_L1D WRITE        ACCESS:   39230328 HIT:   23683589 MISS:   15546739 MSHR_MERGE:   13327246
cpu0->cpu0_L1D TRANSLATION  ACCESS:      38457 HIT:      30670 MISS:       7787 MSHR_MERGE:       1972
cpu0->cpu0_L1D PREFETCH REQUESTED:   51450296 ISSUED:    1859358 USEFUL:     825776 USELESS:      42503
cpu0->cpu0_L1D AVERAGE MISS LATENCY: 556.8 cycles
cpu0->cpu0_ITLB TOTAL        ACCESS:   26244320 HIT:   26244320 MISS:          0 MSHR_MERGE:          0
cpu0->cpu0_ITLB LOAD         ACCESS:   26244320 HIT:   26244320 MISS:          0 MSHR_MERGE:          0
cpu0->cpu0_ITLB RFO          ACCESS:          0 HIT:          0 MISS:          0 MSHR_MERGE:          0
cpu0->cpu0_ITLB PREFETCH     ACCESS:          0 HIT:          0 MISS:          0 MSHR_MERGE:          0
cpu0->cpu0_ITLB WRITE        ACCESS:          0 HIT:          0 MISS:          0 MSHR_MERGE:          0
cpu0->cpu0_ITLB TRANSLATION  ACCESS:          0 HIT:          0 MISS:          0 MSHR_MERGE:          0
cpu0->cpu0_ITLB PREFETCH REQUESTED:          0 ISSUED:          0 USEFUL:          0 USELESS:          0
cpu0->cpu0_ITLB AVERAGE MISS LATENCY: - cycles
cpu0->cpu0_DTLB TOTAL        ACCESS:   51458152 HIT:   51080296 MISS:     377856 MSHR_MERGE:     267134
cpu0->cpu0_DTLB LOAD         ACCESS:   51458152 HIT:   51080296 MISS:     377856 MSHR_MERGE:     267134
cpu0->cpu0_DTLB RFO          ACCESS:          0 HIT:          0 MISS:          0 MSHR_MERGE:          0
cpu0->cpu0_DTLB PREFETCH     ACCESS:          0 HIT:          0 MISS:          0 MSHR_MERGE:          0
cpu0->cpu0_DTLB WRITE        ACCESS:          0 HIT:          0 MISS:          0 MSHR_MERGE:          0
cpu0->cpu0_DTLB TRANSLATION  ACCESS:          0 HIT:          0 MISS:          0 MSHR_MERGE:          0
cpu0->cpu0_DTLB PREFETCH REQUESTED:          0 ISSUED:          0 USEFUL:          0 USELESS:          0
cpu0->cpu0_DTLB AVERAGE MISS LATENCY: 78.85 cycles
cpu0->LLC TOTAL        ACCESS:    7709218 HIT:    2975855 MISS:    4733363 MSHR_MERGE:     684023
cpu0->LLC LOAD         ACCESS:      74754 HIT:      40065 MISS:      34689 MSHR_MERGE:       2336
cpu0->LLC RFO          ACCESS:    1993882 HIT:     573209 MISS:    1420673 MSHR_MERGE:          6
cpu0->LLC PREFETCH     ACCESS:    3569684 HIT:    1707122 MISS:    1862562 MSHR_MERGE:     681681
cpu0->LLC WRITE        ACCESS:    2067723 HIT:     655455 MISS:    1412268 MSHR_MERGE:          0
cpu0->LLC TRANSLATION  ACCESS:       3175 HIT:          4 MISS:       3171 MSHR_MERGE:          0
cpu0->LLC PREFETCH REQUESTED:    1924170 ISSUED:    1786704 USEFUL:     382141 USELESS:     612527
cpu0->LLC AVERAGE MISS LATENCY: 725 cycles

DRAM Statistics

Channel 0 RQ ROW_BUFFER_HIT:      91099
  ROW_BUFFER_MISS:    2543191
  AVG DBUS CONGESTED CYCLE: 4.077
Channel 0 WQ ROW_BUFFER_HIT:      24397
  ROW_BUFFER_MISS:    1621541
  FULL:     117609
Channel 0 REFRESHES ISSUED:      19750
