[VMEM] WARNING: physical memory size is smaller than virtual memory size.

*** ChampSim Multicore Out-of-Order Simulator ***
Warmup Instructions: 50000000
Simulation Instructions: 200000000
Number of CPUs: 1
Page size: 4096
Core 0: /local-ssd/ben/dpc4-traces/Graph/GAP/bc-12.trace.gz
sBerti (Smart Stride + Berti) Prefetcher Initialized
Off-chip DRAM Size: 64 GiB Channels: 1 Width: 64-bit Data Rate: 800 MT/s
Heartbeat CPU 0 instructions: 500001 cycles: 508964 heartbeat IPC: 0.9824 cumulative IPC: 0.9824 (Simulation time: 00 hr 00 min 04 sec)
Heartbeat CPU 0 instructions: 1000001 cycles: 1015395 heartbeat IPC: 0.9873 cumulative IPC: 0.9848 (Simulation time: 00 hr 00 min 08 sec)
Heartbeat CPU 0 instructions: 1500001 cycles: 1521585 heartbeat IPC: 0.9878 cumulative IPC: 0.9858 (Simulation time: 00 hr 00 min 12 sec)
Heartbeat CPU 0 instructions: 2000002 cycles: 1875229 heartbeat IPC: 1.414 cumulative IPC: 1.067 (Simulation time: 00 hr 00 min 15 sec)
Heartbeat CPU 0 instructions: 2500004 cycles: 1988028 heartbeat IPC: 4.433 cumulative IPC: 1.258 (Simulation time: 00 hr 00 min 18 sec)
Heartbeat CPU 0 instructions: 3000005 cycles: 2091356 heartbeat IPC: 4.839 cumulative IPC: 1.434 (Simulation time: 00 hr 00 min 20 sec)
Heartbeat CPU 0 instructions: 3500009 cycles: 2206193 heartbeat IPC: 4.354 cumulative IPC: 1.586 (Simulation time: 00 hr 00 min 23 sec)
Heartbeat CPU 0 instructions: 4000011 cycles: 2310979 heartbeat IPC: 4.772 cumulative IPC: 1.731 (Simulation time: 00 hr 00 min 25 sec)
Heartbeat CPU 0 instructions: 4500015 cycles: 2425818 heartbeat IPC: 4.354 cumulative IPC: 1.855 (Simulation time: 00 hr 00 min 28 sec)
Heartbeat CPU 0 instructions: 5000019 cycles: 2530458 heartbeat IPC: 4.778 cumulative IPC: 1.976 (Simulation time: 00 hr 00 min 31 sec)
Heartbeat CPU 0 instructions: 5500025 cycles: 2643658 heartbeat IPC: 4.417 cumulative IPC: 2.08 (Simulation time: 00 hr 00 min 33 sec)
Heartbeat CPU 0 instructions: 6000025 cycles: 2751511 heartbeat IPC: 4.636 cumulative IPC: 2.181 (Simulation time: 00 hr 00 min 36 sec)
Heartbeat CPU 0 instructions: 6500028 cycles: 2865839 heartbeat IPC: 4.373 cumulative IPC: 2.268 (Simulation time: 00 hr 00 min 39 sec)
Heartbeat CPU 0 instructions: 7000035 cycles: 2972859 heartbeat IPC: 4.672 cumulative IPC: 2.355 (Simulation time: 00 hr 00 min 42 sec)
Heartbeat CPU 0 instructions: 7500037 cycles: 3079550 heartbeat IPC: 4.686 cumulative IPC: 2.435 (Simulation time: 00 hr 00 min 44 sec)
Heartbeat CPU 0 instructions: 8000040 cycles: 3193324 heartbeat IPC: 4.395 cumulative IPC: 2.505 (Simulation time: 00 hr 00 min 47 sec)
Heartbeat CPU 0 instructions: 8500044 cycles: 3299288 heartbeat IPC: 4.719 cumulative IPC: 2.576 (Simulation time: 00 hr 00 min 50 sec)
Heartbeat CPU 0 instructions: 9000047 cycles: 3407560 heartbeat IPC: 4.618 cumulative IPC: 2.641 (Simulation time: 00 hr 00 min 52 sec)
Heartbeat CPU 0 instructions: 9500048 cycles: 3520413 heartbeat IPC: 4.431 cumulative IPC: 2.699 (Simulation time: 00 hr 00 min 55 sec)
Heartbeat CPU 0 instructions: 10000048 cycles: 3626347 heartbeat IPC: 4.72 cumulative IPC: 2.758 (Simulation time: 00 hr 00 min 58 sec)
Heartbeat CPU 0 instructions: 10500048 cycles: 3730990 heartbeat IPC: 4.778 cumulative IPC: 2.814 (Simulation time: 00 hr 01 min 01 sec)
Heartbeat CPU 0 instructions: 11000050 cycles: 3836679 heartbeat IPC: 4.731 cumulative IPC: 2.867 (Simulation time: 00 hr 01 min 03 sec)
Heartbeat CPU 0 instructions: 11500052 cycles: 3952276 heartbeat IPC: 4.325 cumulative IPC: 2.91 (Simulation time: 00 hr 01 min 06 sec)
Heartbeat CPU 0 instructions: 12000055 cycles: 4060055 heartbeat IPC: 4.639 cumulative IPC: 2.956 (Simulation time: 00 hr 01 min 09 sec)
Heartbeat CPU 0 instructions: 12500055 cycles: 4168148 heartbeat IPC: 4.626 cumulative IPC: 2.999 (Simulation time: 00 hr 01 min 12 sec)
Heartbeat CPU 0 instructions: 13000056 cycles: 4274444 heartbeat IPC: 4.704 cumulative IPC: 3.041 (Simulation time: 00 hr 01 min 14 sec)
Heartbeat CPU 0 instructions: 13500063 cycles: 4389461 heartbeat IPC: 4.347 cumulative IPC: 3.076 (Simulation time: 00 hr 01 min 17 sec)
Heartbeat CPU 0 instructions: 14000067 cycles: 4497427 heartbeat IPC: 4.631 cumulative IPC: 3.113 (Simulation time: 00 hr 01 min 20 sec)
Heartbeat CPU 0 instructions: 14500068 cycles: 4603908 heartbeat IPC: 4.696 cumulative IPC: 3.15 (Simulation time: 00 hr 01 min 23 sec)
Heartbeat CPU 0 instructions: 15000068 cycles: 4710277 heartbeat IPC: 4.701 cumulative IPC: 3.185 (Simulation time: 00 hr 01 min 26 sec)
Heartbeat CPU 0 instructions: 15500071 cycles: 4824131 heartbeat IPC: 4.392 cumulative IPC: 3.213 (Simulation time: 00 hr 01 min 28 sec)
Heartbeat CPU 0 instructions: 16000078 cycles: 4928607 heartbeat IPC: 4.786 cumulative IPC: 3.246 (Simulation time: 00 hr 01 min 31 sec)
Heartbeat CPU 0 instructions: 16500083 cycles: 5037907 heartbeat IPC: 4.575 cumulative IPC: 3.275 (Simulation time: 00 hr 01 min 34 sec)
Heartbeat CPU 0 instructions: 17000083 cycles: 5143238 heartbeat IPC: 4.747 cumulative IPC: 3.305 (Simulation time: 00 hr 01 min 37 sec)
Heartbeat CPU 0 instructions: 17500089 cycles: 5248393 heartbeat IPC: 4.755 cumulative IPC: 3.334 (Simulation time: 00 hr 01 min 39 sec)
Heartbeat CPU 0 instructions: 18000090 cycles: 5364353 heartbeat IPC: 4.312 cumulative IPC: 3.356 (Simulation time: 00 hr 01 min 42 sec)
Heartbeat CPU 0 instructions: 18500091 cycles: 5472982 heartbeat IPC: 4.603 cumulative IPC: 3.38 (Simulation time: 00 hr 01 min 45 sec)
Heartbeat CPU 0 instructions: 19000095 cycles: 5577390 heartbeat IPC: 4.789 cumulative IPC: 3.407 (Simulation time: 00 hr 01 min 48 sec)
Heartbeat CPU 0 instructions: 19500101 cycles: 5683897 heartbeat IPC: 4.695 cumulative IPC: 3.431 (Simulation time: 00 hr 01 min 51 sec)
Heartbeat CPU 0 instructions: 20000101 cycles: 5790315 heartbeat IPC: 4.698 cumulative IPC: 3.454 (Simulation time: 00 hr 01 min 53 sec)
Heartbeat CPU 0 instructions: 20500101 cycles: 5906816 heartbeat IPC: 4.292 cumulative IPC: 3.471 (Simulation time: 00 hr 01 min 56 sec)
Heartbeat CPU 0 instructions: 21000105 cycles: 6014751 heartbeat IPC: 4.632 cumulative IPC: 3.491 (Simulation time: 00 hr 01 min 59 sec)
Heartbeat CPU 0 instructions: 21500107 cycles: 6121288 heartbeat IPC: 4.693 cumulative IPC: 3.512 (Simulation time: 00 hr 02 min 02 sec)
Heartbeat CPU 0 instructions: 22000110 cycles: 6227313 heartbeat IPC: 4.716 cumulative IPC: 3.533 (Simulation time: 00 hr 02 min 05 sec)
Heartbeat CPU 0 instructions: 22500111 cycles: 6335069 heartbeat IPC: 4.64 cumulative IPC: 3.552 (Simulation time: 00 hr 02 min 07 sec)
Heartbeat CPU 0 instructions: 23000111 cycles: 6442356 heartbeat IPC: 4.66 cumulative IPC: 3.57 (Simulation time: 00 hr 02 min 10 sec)
Heartbeat CPU 0 instructions: 23500114 cycles: 6556219 heartbeat IPC: 4.391 cumulative IPC: 3.584 (Simulation time: 00 hr 02 min 13 sec)
Heartbeat CPU 0 instructions: 24000120 cycles: 6662927 heartbeat IPC: 4.686 cumulative IPC: 3.602 (Simulation time: 00 hr 02 min 16 sec)
Heartbeat CPU 0 instructions: 24500124 cycles: 6770859 heartbeat IPC: 4.633 cumulative IPC: 3.618 (Simulation time: 00 hr 02 min 19 sec)
Heartbeat CPU 0 instructions: 25000129 cycles: 6877034 heartbeat IPC: 4.709 cumulative IPC: 3.635 (Simulation time: 00 hr 02 min 22 sec)
Heartbeat CPU 0 instructions: 25500132 cycles: 6983171 heartbeat IPC: 4.711 cumulative IPC: 3.652 (Simulation time: 00 hr 02 min 25 sec)
Heartbeat CPU 0 instructions: 26000135 cycles: 7087651 heartbeat IPC: 4.786 cumulative IPC: 3.668 (Simulation time: 00 hr 02 min 27 sec)
Heartbeat CPU 0 instructions: 26500135 cycles: 7194478 heartbeat IPC: 4.68 cumulative IPC: 3.683 (Simulation time: 00 hr 02 min 30 sec)
Heartbeat CPU 0 instructions: 27000140 cycles: 7307593 heartbeat IPC: 4.42 cumulative IPC: 3.695 (Simulation time: 00 hr 02 min 33 sec)
Heartbeat CPU 0 instructions: 27500144 cycles: 7415657 heartbeat IPC: 4.627 cumulative IPC: 3.708 (Simulation time: 00 hr 02 min 36 sec)
Heartbeat CPU 0 instructions: 28000151 cycles: 7523746 heartbeat IPC: 4.626 cumulative IPC: 3.722 (Simulation time: 00 hr 02 min 39 sec)
Heartbeat CPU 0 instructions: 28500157 cycles: 7630782 heartbeat IPC: 4.671 cumulative IPC: 3.735 (Simulation time: 00 hr 02 min 41 sec)
Heartbeat CPU 0 instructions: 29000163 cycles: 7739884 heartbeat IPC: 4.583 cumulative IPC: 3.747 (Simulation time: 00 hr 02 min 44 sec)
Heartbeat CPU 0 instructions: 29500165 cycles: 7847335 heartbeat IPC: 4.653 cumulative IPC: 3.759 (Simulation time: 00 hr 02 min 47 sec)
Heartbeat CPU 0 instructions: 30000167 cycles: 7956030 heartbeat IPC: 4.6 cumulative IPC: 3.771 (Simulation time: 00 hr 02 min 50 sec)
Heartbeat CPU 0 instructions: 30500173 cycles: 8064912 heartbeat IPC: 4.592 cumulative IPC: 3.782 (Simulation time: 00 hr 02 min 53 sec)
Heartbeat CPU 0 instructions: 31000176 cycles: 8180139 heartbeat IPC: 4.339 cumulative IPC: 3.79 (Simulation time: 00 hr 02 min 56 sec)
Heartbeat CPU 0 instructions: 31500178 cycles: 8287967 heartbeat IPC: 4.637 cumulative IPC: 3.801 (Simulation time: 00 hr 02 min 59 sec)
Heartbeat CPU 0 instructions: 32000182 cycles: 8394642 heartbeat IPC: 4.687 cumulative IPC: 3.812 (Simulation time: 00 hr 03 min 01 sec)
Heartbeat CPU 0 instructions: 32500188 cycles: 8502037 heartbeat IPC: 4.656 cumulative IPC: 3.823 (Simulation time: 00 hr 03 min 04 sec)
Heartbeat CPU 0 instructions: 33000188 cycles: 8607370 heartbeat IPC: 4.747 cumulative IPC: 3.834 (Simulation time: 00 hr 03 min 07 sec)
Heartbeat CPU 0 instructions: 33500192 cycles: 8714796 heartbeat IPC: 4.654 cumulative IPC: 3.844 (Simulation time: 00 hr 03 min 10 sec)
Heartbeat CPU 0 instructions: 34000197 cycles: 8820430 heartbeat IPC: 4.733 cumulative IPC: 3.855 (Simulation time: 00 hr 03 min 13 sec)
Heartbeat CPU 0 instructions: 34500199 cycles: 8926875 heartbeat IPC: 4.697 cumulative IPC: 3.865 (Simulation time: 00 hr 03 min 16 sec)
Heartbeat CPU 0 instructions: 35000204 cycles: 9042192 heartbeat IPC: 4.336 cumulative IPC: 3.871 (Simulation time: 00 hr 03 min 18 sec)
Heartbeat CPU 0 instructions: 35500204 cycles: 9148458 heartbeat IPC: 4.705 cumulative IPC: 3.88 (Simulation time: 00 hr 03 min 21 sec)
Heartbeat CPU 0 instructions: 36000207 cycles: 9255637 heartbeat IPC: 4.665 cumulative IPC: 3.89 (Simulation time: 00 hr 03 min 24 sec)
Heartbeat CPU 0 instructions: 36500214 cycles: 9362868 heartbeat IPC: 4.663 cumulative IPC: 3.898 (Simulation time: 00 hr 03 min 27 sec)
Heartbeat CPU 0 instructions: 37000219 cycles: 9470391 heartbeat IPC: 4.65 cumulative IPC: 3.907 (Simulation time: 00 hr 03 min 30 sec)
Heartbeat CPU 0 instructions: 37500220 cycles: 9578528 heartbeat IPC: 4.624 cumulative IPC: 3.915 (Simulation time: 00 hr 03 min 33 sec)
Heartbeat CPU 0 instructions: 38000224 cycles: 9684717 heartbeat IPC: 4.709 cumulative IPC: 3.924 (Simulation time: 00 hr 03 min 36 sec)
Heartbeat CPU 0 instructions: 38500230 cycles: 9790738 heartbeat IPC: 4.716 cumulative IPC: 3.932 (Simulation time: 00 hr 03 min 38 sec)
Heartbeat CPU 0 instructions: 39000230 cycles: 9896761 heartbeat IPC: 4.716 cumulative IPC: 3.941 (Simulation time: 00 hr 03 min 41 sec)
Heartbeat CPU 0 instructions: 39500236 cycles: 10012185 heartbeat IPC: 4.332 cumulative IPC: 3.945 (Simulation time: 00 hr 03 min 44 sec)
Heartbeat CPU 0 instructions: 40000238 cycles: 10118246 heartbeat IPC: 4.714 cumulative IPC: 3.953 (Simulation time: 00 hr 03 min 47 sec)
Heartbeat CPU 0 instructions: 40500244 cycles: 10221932 heartbeat IPC: 4.822 cumulative IPC: 3.962 (Simulation time: 00 hr 03 min 49 sec)
Heartbeat CPU 0 instructions: 41000248 cycles: 10328553 heartbeat IPC: 4.69 cumulative IPC: 3.97 (Simulation time: 00 hr 03 min 52 sec)
Heartbeat CPU 0 instructions: 41500252 cycles: 10434981 heartbeat IPC: 4.698 cumulative IPC: 3.977 (Simulation time: 00 hr 03 min 55 sec)
Heartbeat CPU 0 instructions: 42000258 cycles: 10540012 heartbeat IPC: 4.761 cumulative IPC: 3.985 (Simulation time: 00 hr 03 min 58 sec)
Heartbeat CPU 0 instructions: 42500258 cycles: 10647558 heartbeat IPC: 4.649 cumulative IPC: 3.992 (Simulation time: 00 hr 04 min 00 sec)
Heartbeat CPU 0 instructions: 43000259 cycles: 10753199 heartbeat IPC: 4.733 cumulative IPC: 3.999 (Simulation time: 00 hr 04 min 03 sec)
Heartbeat CPU 0 instructions: 43500263 cycles: 10861378 heartbeat IPC: 4.622 cumulative IPC: 4.005 (Simulation time: 00 hr 04 min 06 sec)
Heartbeat CPU 0 instructions: 44000265 cycles: 10976029 heartbeat IPC: 4.361 cumulative IPC: 4.009 (Simulation time: 00 hr 04 min 09 sec)
Heartbeat CPU 0 instructions: 44500265 cycles: 11083362 heartbeat IPC: 4.658 cumulative IPC: 4.015 (Simulation time: 00 hr 04 min 12 sec)
Heartbeat CPU 0 instructions: 45000266 cycles: 11190500 heartbeat IPC: 4.667 cumulative IPC: 4.021 (Simulation time: 00 hr 04 min 15 sec)
Heartbeat CPU 0 instructions: 45500266 cycles: 11299357 heartbeat IPC: 4.593 cumulative IPC: 4.027 (Simulation time: 00 hr 04 min 18 sec)
Heartbeat CPU 0 instructions: 46000267 cycles: 11405635 heartbeat IPC: 4.705 cumulative IPC: 4.033 (Simulation time: 00 hr 04 min 20 sec)
Heartbeat CPU 0 instructions: 46500267 cycles: 11514241 heartbeat IPC: 4.604 cumulative IPC: 4.039 (Simulation time: 00 hr 04 min 23 sec)
Heartbeat CPU 0 instructions: 47000268 cycles: 11619127 heartbeat IPC: 4.767 cumulative IPC: 4.045 (Simulation time: 00 hr 04 min 26 sec)
Heartbeat CPU 0 instructions: 47500269 cycles: 11725247 heartbeat IPC: 4.712 cumulative IPC: 4.051 (Simulation time: 00 hr 04 min 29 sec)
Heartbeat CPU 0 instructions: 48000272 cycles: 11831357 heartbeat IPC: 4.712 cumulative IPC: 4.057 (Simulation time: 00 hr 04 min 31 sec)
Heartbeat CPU 0 instructions: 48500272 cycles: 11938201 heartbeat IPC: 4.68 cumulative IPC: 4.063 (Simulation time: 00 hr 04 min 34 sec)
Heartbeat CPU 0 instructions: 49000273 cycles: 12044109 heartbeat IPC: 4.721 cumulative IPC: 4.068 (Simulation time: 00 hr 04 min 37 sec)
Heartbeat CPU 0 instructions: 49500273 cycles: 12159067 heartbeat IPC: 4.349 cumulative IPC: 4.071 (Simulation time: 00 hr 04 min 40 sec)
Warmup halting CPU 0 at instruction 50000004 cycle 12265039 for remainder of phase
Warmup finished CPU 0 instructions: 50000004 cycles: 12265039 cumulative IPC: 4.077 (Simulation time: 00 hr 04 min 43 sec)
Warmup complete CPU 0 instructions: 50000004 cycles: 12265039 cumulative IPC: 4.077 (Simulation time: 00 hr 04 min 43 sec)
Heartbeat CPU 0 instructions: 50000273 cycles: 12265885 heartbeat IPC: 4.681 cumulative IPC: 0.318 (Simulation time: 00 hr 04 min 43 sec)
Heartbeat CPU 0 instructions: 50500273 cycles: 17526108 heartbeat IPC: 0.09505 cumulative IPC: 0.09509 (Simulation time: 00 hr 05 min 16 sec)
Heartbeat CPU 0 instructions: 51000276 cycles: 22088505 heartbeat IPC: 0.1096 cumulative IPC: 0.1018 (Simulation time: 00 hr 05 min 46 sec)
Heartbeat CPU 0 instructions: 51500283 cycles: 27551212 heartbeat IPC: 0.09153 cumulative IPC: 0.09815 (Simulation time: 00 hr 06 min 21 sec)
Heartbeat CPU 0 instructions: 52000285 cycles: 32603855 heartbeat IPC: 0.09896 cumulative IPC: 0.09835 (Simulation time: 00 hr 06 min 53 sec)
Heartbeat CPU 0 instructions: 52500287 cycles: 36969669 heartbeat IPC: 0.1145 cumulative IPC: 0.1012 (Simulation time: 00 hr 07 min 22 sec)
Heartbeat CPU 0 instructions: 53000287 cycles: 42218432 heartbeat IPC: 0.09526 cumulative IPC: 0.1002 (Simulation time: 00 hr 07 min 57 sec)
Heartbeat CPU 0 instructions: 53500289 cycles: 46869449 heartbeat IPC: 0.1075 cumulative IPC: 0.1012 (Simulation time: 00 hr 08 min 26 sec)
Heartbeat CPU 0 instructions: 54000293 cycles: 51657652 heartbeat IPC: 0.1044 cumulative IPC: 0.1015 (Simulation time: 00 hr 08 min 56 sec)
Heartbeat CPU 0 instructions: 54500293 cycles: 56249718 heartbeat IPC: 0.1089 cumulative IPC: 0.1023 (Simulation time: 00 hr 09 min 25 sec)
Heartbeat CPU 0 instructions: 55000297 cycles: 61341405 heartbeat IPC: 0.0982 cumulative IPC: 0.1019 (Simulation time: 00 hr 09 min 57 sec)
Heartbeat CPU 0 instructions: 55500298 cycles: 66078774 heartbeat IPC: 0.1055 cumulative IPC: 0.1022 (Simulation time: 00 hr 10 min 27 sec)
Heartbeat CPU 0 instructions: 56000299 cycles: 70901909 heartbeat IPC: 0.1037 cumulative IPC: 0.1023 (Simulation time: 00 hr 10 min 58 sec)
Heartbeat CPU 0 instructions: 56500301 cycles: 75594133 heartbeat IPC: 0.1066 cumulative IPC: 0.1026 (Simulation time: 00 hr 11 min 27 sec)
Heartbeat CPU 0 instructions: 57000305 cycles: 80536431 heartbeat IPC: 0.1012 cumulative IPC: 0.1025 (Simulation time: 00 hr 11 min 58 sec)
Heartbeat CPU 0 instructions: 57500307 cycles: 85232133 heartbeat IPC: 0.1065 cumulative IPC: 0.1028 (Simulation time: 00 hr 12 min 28 sec)
Heartbeat CPU 0 instructions: 58000308 cycles: 90524818 heartbeat IPC: 0.09447 cumulative IPC: 0.1022 (Simulation time: 00 hr 13 min 03 sec)
Heartbeat CPU 0 instructions: 58500308 cycles: 95329464 heartbeat IPC: 0.1041 cumulative IPC: 0.1023 (Simulation time: 00 hr 13 min 33 sec)
Heartbeat CPU 0 instructions: 59000308 cycles: 99905330 heartbeat IPC: 0.1093 cumulative IPC: 0.1027 (Simulation time: 00 hr 14 min 02 sec)
Heartbeat CPU 0 instructions: 59500311 cycles: 104442353 heartbeat IPC: 0.1102 cumulative IPC: 0.1031 (Simulation time: 00 hr 14 min 30 sec)
Heartbeat CPU 0 instructions: 60000315 cycles: 109244817 heartbeat IPC: 0.1041 cumulative IPC: 0.1031 (Simulation time: 00 hr 15 min 00 sec)
Heartbeat CPU 0 instructions: 60500316 cycles: 114322425 heartbeat IPC: 0.09847 cumulative IPC: 0.1029 (Simulation time: 00 hr 15 min 32 sec)
Heartbeat CPU 0 instructions: 61000316 cycles: 118986953 heartbeat IPC: 0.1072 cumulative IPC: 0.1031 (Simulation time: 00 hr 16 min 01 sec)
Heartbeat CPU 0 instructions: 61500319 cycles: 123363436 heartbeat IPC: 0.1142 cumulative IPC: 0.1035 (Simulation time: 00 hr 16 min 29 sec)
Heartbeat CPU 0 instructions: 62000319 cycles: 128030402 heartbeat IPC: 0.1071 cumulative IPC: 0.1037 (Simulation time: 00 hr 16 min 58 sec)
Heartbeat CPU 0 instructions: 62500323 cycles: 132966954 heartbeat IPC: 0.1013 cumulative IPC: 0.1036 (Simulation time: 00 hr 17 min 29 sec)
Heartbeat CPU 0 instructions: 63000323 cycles: 137845702 heartbeat IPC: 0.1025 cumulative IPC: 0.1035 (Simulation time: 00 hr 17 min 59 sec)
Heartbeat CPU 0 instructions: 63500329 cycles: 142395842 heartbeat IPC: 0.1099 cumulative IPC: 0.1037 (Simulation time: 00 hr 18 min 28 sec)
Heartbeat CPU 0 instructions: 64000332 cycles: 147405468 heartbeat IPC: 0.09981 cumulative IPC: 0.1036 (Simulation time: 00 hr 18 min 59 sec)
Heartbeat CPU 0 instructions: 64500334 cycles: 152218089 heartbeat IPC: 0.1039 cumulative IPC: 0.1036 (Simulation time: 00 hr 19 min 29 sec)
Heartbeat CPU 0 instructions: 65000334 cycles: 157069240 heartbeat IPC: 0.1031 cumulative IPC: 0.1036 (Simulation time: 00 hr 19 min 59 sec)
Heartbeat CPU 0 instructions: 65500335 cycles: 162053174 heartbeat IPC: 0.1003 cumulative IPC: 0.1035 (Simulation time: 00 hr 20 min 30 sec)
Heartbeat CPU 0 instructions: 66000335 cycles: 166462303 heartbeat IPC: 0.1134 cumulative IPC: 0.1038 (Simulation time: 00 hr 20 min 57 sec)
Heartbeat CPU 0 instructions: 66500335 cycles: 171074982 heartbeat IPC: 0.1084 cumulative IPC: 0.1039 (Simulation time: 00 hr 21 min 26 sec)
Heartbeat CPU 0 instructions: 67000339 cycles: 176027964 heartbeat IPC: 0.101 cumulative IPC: 0.1038 (Simulation time: 00 hr 21 min 57 sec)
Heartbeat CPU 0 instructions: 67500344 cycles: 180574419 heartbeat IPC: 0.11 cumulative IPC: 0.104 (Simulation time: 00 hr 22 min 25 sec)
Heartbeat CPU 0 instructions: 68000344 cycles: 185121931 heartbeat IPC: 0.11 cumulative IPC: 0.1041 (Simulation time: 00 hr 22 min 53 sec)
Heartbeat CPU 0 instructions: 68500348 cycles: 190087914 heartbeat IPC: 0.1007 cumulative IPC: 0.104 (Simulation time: 00 hr 23 min 26 sec)
Heartbeat CPU 0 instructions: 69000352 cycles: 195257267 heartbeat IPC: 0.09672 cumulative IPC: 0.1038 (Simulation time: 00 hr 23 min 58 sec)
Heartbeat CPU 0 instructions: 69500359 cycles: 200072711 heartbeat IPC: 0.1038 cumulative IPC: 0.1038 (Simulation time: 00 hr 24 min 28 sec)
Heartbeat CPU 0 instructions: 70000359 cycles: 204904945 heartbeat IPC: 0.1035 cumulative IPC: 0.1038 (Simulation time: 00 hr 24 min 57 sec)
Heartbeat CPU 0 instructions: 70500361 cycles: 209693315 heartbeat IPC: 0.1044 cumulative IPC: 0.1038 (Simulation time: 00 hr 25 min 26 sec)
Heartbeat CPU 0 instructions: 71000366 cycles: 214514764 heartbeat IPC: 0.1037 cumulative IPC: 0.1038 (Simulation time: 00 hr 25 min 56 sec)
Heartbeat CPU 0 instructions: 71500371 cycles: 219379982 heartbeat IPC: 0.1028 cumulative IPC: 0.1038 (Simulation time: 00 hr 26 min 25 sec)
Heartbeat CPU 0 instructions: 72000371 cycles: 224075555 heartbeat IPC: 0.1065 cumulative IPC: 0.1039 (Simulation time: 00 hr 26 min 54 sec)
Heartbeat CPU 0 instructions: 72500376 cycles: 228802399 heartbeat IPC: 0.1058 cumulative IPC: 0.1039 (Simulation time: 00 hr 27 min 22 sec)
Heartbeat CPU 0 instructions: 73000378 cycles: 233568070 heartbeat IPC: 0.1049 cumulative IPC: 0.1039 (Simulation time: 00 hr 27 min 51 sec)
Heartbeat CPU 0 instructions: 73500380 cycles: 238358871 heartbeat IPC: 0.1044 cumulative IPC: 0.1039 (Simulation time: 00 hr 28 min 20 sec)
Heartbeat CPU 0 instructions: 74000380 cycles: 242988184 heartbeat IPC: 0.108 cumulative IPC: 0.104 (Simulation time: 00 hr 28 min 48 sec)
Heartbeat CPU 0 instructions: 74500382 cycles: 247354463 heartbeat IPC: 0.1145 cumulative IPC: 0.1042 (Simulation time: 00 hr 29 min 14 sec)
Heartbeat CPU 0 instructions: 75000382 cycles: 251537984 heartbeat IPC: 0.1195 cumulative IPC: 0.1045 (Simulation time: 00 hr 29 min 39 sec)
Heartbeat CPU 0 instructions: 75500384 cycles: 256122988 heartbeat IPC: 0.1091 cumulative IPC: 0.1046 (Simulation time: 00 hr 30 min 07 sec)
Heartbeat CPU 0 instructions: 76000385 cycles: 260693394 heartbeat IPC: 0.1094 cumulative IPC: 0.1047 (Simulation time: 00 hr 30 min 34 sec)
Heartbeat CPU 0 instructions: 76500388 cycles: 265605925 heartbeat IPC: 0.1018 cumulative IPC: 0.1046 (Simulation time: 00 hr 31 min 03 sec)
Heartbeat CPU 0 instructions: 77000392 cycles: 270177931 heartbeat IPC: 0.1094 cumulative IPC: 0.1047 (Simulation time: 00 hr 31 min 31 sec)
Heartbeat CPU 0 instructions: 77500394 cycles: 275431360 heartbeat IPC: 0.09518 cumulative IPC: 0.1045 (Simulation time: 00 hr 32 min 04 sec)
Heartbeat CPU 0 instructions: 78000396 cycles: 279868105 heartbeat IPC: 0.1127 cumulative IPC: 0.1046 (Simulation time: 00 hr 32 min 29 sec)
Heartbeat CPU 0 instructions: 78500402 cycles: 284463764 heartbeat IPC: 0.1088 cumulative IPC: 0.1047 (Simulation time: 00 hr 32 min 56 sec)
Heartbeat CPU 0 instructions: 79000409 cycles: 289158616 heartbeat IPC: 0.1065 cumulative IPC: 0.1047 (Simulation time: 00 hr 33 min 23 sec)
Heartbeat CPU 0 instructions: 79500412 cycles: 293684783 heartbeat IPC: 0.1105 cumulative IPC: 0.1048 (Simulation time: 00 hr 33 min 49 sec)
Heartbeat CPU 0 instructions: 80000417 cycles: 298559542 heartbeat IPC: 0.1026 cumulative IPC: 0.1048 (Simulation time: 00 hr 34 min 17 sec)
Heartbeat CPU 0 instructions: 80500420 cycles: 303190136 heartbeat IPC: 0.108 cumulative IPC: 0.1048 (Simulation time: 00 hr 34 min 44 sec)
Heartbeat CPU 0 instructions: 81000420 cycles: 308275159 heartbeat IPC: 0.09833 cumulative IPC: 0.1047 (Simulation time: 00 hr 35 min 13 sec)
Heartbeat CPU 0 instructions: 81500424 cycles: 313100993 heartbeat IPC: 0.1036 cumulative IPC: 0.1047 (Simulation time: 00 hr 35 min 41 sec)
Heartbeat CPU 0 instructions: 82000425 cycles: 317915953 heartbeat IPC: 0.1038 cumulative IPC: 0.1047 (Simulation time: 00 hr 36 min 08 sec)
Heartbeat CPU 0 instructions: 82500429 cycles: 323103535 heartbeat IPC: 0.09638 cumulative IPC: 0.1046 (Simulation time: 00 hr 36 min 37 sec)
Heartbeat CPU 0 instructions: 83000434 cycles: 327733343 heartbeat IPC: 0.108 cumulative IPC: 0.1046 (Simulation time: 00 hr 37 min 04 sec)
Heartbeat CPU 0 instructions: 83500440 cycles: 332453996 heartbeat IPC: 0.1059 cumulative IPC: 0.1046 (Simulation time: 00 hr 37 min 31 sec)
Heartbeat CPU 0 instructions: 84000444 cycles: 337079633 heartbeat IPC: 0.1081 cumulative IPC: 0.1047 (Simulation time: 00 hr 37 min 57 sec)
Heartbeat CPU 0 instructions: 84500447 cycles: 341833515 heartbeat IPC: 0.1052 cumulative IPC: 0.1047 (Simulation time: 00 hr 38 min 24 sec)
Heartbeat CPU 0 instructions: 85000448 cycles: 346326469 heartbeat IPC: 0.1113 cumulative IPC: 0.1048 (Simulation time: 00 hr 38 min 49 sec)
Heartbeat CPU 0 instructions: 85500452 cycles: 351113170 heartbeat IPC: 0.1045 cumulative IPC: 0.1048 (Simulation time: 00 hr 39 min 17 sec)
Heartbeat CPU 0 instructions: 86000458 cycles: 355903577 heartbeat IPC: 0.1044 cumulative IPC: 0.1048 (Simulation time: 00 hr 39 min 44 sec)
Heartbeat CPU 0 instructions: 86500465 cycles: 360399104 heartbeat IPC: 0.1112 cumulative IPC: 0.1048 (Simulation time: 00 hr 40 min 09 sec)
Heartbeat CPU 0 instructions: 87000465 cycles: 364714004 heartbeat IPC: 0.1159 cumulative IPC: 0.105 (Simulation time: 00 hr 40 min 34 sec)
Heartbeat CPU 0 instructions: 87500466 cycles: 369567864 heartbeat IPC: 0.103 cumulative IPC: 0.105 (Simulation time: 00 hr 41 min 01 sec)
Heartbeat CPU 0 instructions: 88000466 cycles: 374348692 heartbeat IPC: 0.1046 cumulative IPC: 0.1049 (Simulation time: 00 hr 41 min 28 sec)
Heartbeat CPU 0 instructions: 88500466 cycles: 379415012 heartbeat IPC: 0.09869 cumulative IPC: 0.1049 (Simulation time: 00 hr 41 min 56 sec)
Heartbeat CPU 0 instructions: 89000472 cycles: 384221964 heartbeat IPC: 0.104 cumulative IPC: 0.1049 (Simulation time: 00 hr 42 min 23 sec)
Heartbeat CPU 0 instructions: 89500472 cycles: 388926568 heartbeat IPC: 0.1063 cumulative IPC: 0.1049 (Simulation time: 00 hr 42 min 49 sec)
Heartbeat CPU 0 instructions: 90000477 cycles: 393308016 heartbeat IPC: 0.1141 cumulative IPC: 0.105 (Simulation time: 00 hr 43 min 14 sec)
Heartbeat CPU 0 instructions: 90500480 cycles: 397920152 heartbeat IPC: 0.1084 cumulative IPC: 0.105 (Simulation time: 00 hr 43 min 39 sec)
Heartbeat CPU 0 instructions: 91000483 cycles: 402322415 heartbeat IPC: 0.1136 cumulative IPC: 0.1051 (Simulation time: 00 hr 44 min 03 sec)
Heartbeat CPU 0 instructions: 91500488 cycles: 406730915 heartbeat IPC: 0.1134 cumulative IPC: 0.1052 (Simulation time: 00 hr 44 min 27 sec)
Heartbeat CPU 0 instructions: 92000488 cycles: 411069589 heartbeat IPC: 0.1152 cumulative IPC: 0.1053 (Simulation time: 00 hr 44 min 51 sec)
Heartbeat CPU 0 instructions: 92500489 cycles: 415794554 heartbeat IPC: 0.1058 cumulative IPC: 0.1053 (Simulation time: 00 hr 45 min 17 sec)
Heartbeat CPU 0 instructions: 93000489 cycles: 420313263 heartbeat IPC: 0.1107 cumulative IPC: 0.1054 (Simulation time: 00 hr 45 min 41 sec)
Heartbeat CPU 0 instructions: 93500495 cycles: 424964340 heartbeat IPC: 0.1075 cumulative IPC: 0.1054 (Simulation time: 00 hr 46 min 07 sec)
Heartbeat CPU 0 instructions: 94000499 cycles: 429623045 heartbeat IPC: 0.1073 cumulative IPC: 0.1054 (Simulation time: 00 hr 46 min 32 sec)
Heartbeat CPU 0 instructions: 94500499 cycles: 434517134 heartbeat IPC: 0.1022 cumulative IPC: 0.1054 (Simulation time: 00 hr 46 min 58 sec)
Heartbeat CPU 0 instructions: 95000503 cycles: 439503826 heartbeat IPC: 0.1003 cumulative IPC: 0.1053 (Simulation time: 00 hr 47 min 25 sec)
Heartbeat CPU 0 instructions: 95500504 cycles: 444382304 heartbeat IPC: 0.1025 cumulative IPC: 0.1053 (Simulation time: 00 hr 47 min 51 sec)
Heartbeat CPU 0 instructions: 96000505 cycles: 448899253 heartbeat IPC: 0.1107 cumulative IPC: 0.1054 (Simulation time: 00 hr 48 min 15 sec)
Heartbeat CPU 0 instructions: 96500509 cycles: 453686519 heartbeat IPC: 0.1044 cumulative IPC: 0.1053 (Simulation time: 00 hr 48 min 41 sec)
Heartbeat CPU 0 instructions: 97000514 cycles: 458736275 heartbeat IPC: 0.09902 cumulative IPC: 0.1053 (Simulation time: 00 hr 49 min 07 sec)
Heartbeat CPU 0 instructions: 97500516 cycles: 463670816 heartbeat IPC: 0.1013 cumulative IPC: 0.1052 (Simulation time: 00 hr 49 min 34 sec)
Heartbeat CPU 0 instructions: 98000518 cycles: 468680192 heartbeat IPC: 0.09981 cumulative IPC: 0.1052 (Simulation time: 00 hr 50 min 00 sec)
Heartbeat CPU 0 instructions: 98500525 cycles: 473558678 heartbeat IPC: 0.1025 cumulative IPC: 0.1051 (Simulation time: 00 hr 50 min 26 sec)
Heartbeat CPU 0 instructions: 99000525 cycles: 478268455 heartbeat IPC: 0.1062 cumulative IPC: 0.1052 (Simulation time: 00 hr 50 min 50 sec)
Heartbeat CPU 0 instructions: 99500527 cycles: 483086052 heartbeat IPC: 0.1038 cumulative IPC: 0.1051 (Simulation time: 00 hr 51 min 16 sec)
Heartbeat CPU 0 instructions: 100000531 cycles: 487642062 heartbeat IPC: 0.1097 cumulative IPC: 0.1052 (Simulation time: 00 hr 51 min 39 sec)
Heartbeat CPU 0 instructions: 100500534 cycles: 492377472 heartbeat IPC: 0.1056 cumulative IPC: 0.1052 (Simulation time: 00 hr 52 min 04 sec)
Heartbeat CPU 0 instructions: 101000537 cycles: 497105155 heartbeat IPC: 0.1058 cumulative IPC: 0.1052 (Simulation time: 00 hr 52 min 29 sec)
Heartbeat CPU 0 instructions: 101500543 cycles: 501837153 heartbeat IPC: 0.1057 cumulative IPC: 0.1052 (Simulation time: 00 hr 52 min 53 sec)
Heartbeat CPU 0 instructions: 102000548 cycles: 506516895 heartbeat IPC: 0.1068 cumulative IPC: 0.1052 (Simulation time: 00 hr 53 min 17 sec)
Heartbeat CPU 0 instructions: 102500553 cycles: 511265994 heartbeat IPC: 0.1053 cumulative IPC: 0.1052 (Simulation time: 00 hr 53 min 42 sec)
Heartbeat CPU 0 instructions: 103000553 cycles: 516070015 heartbeat IPC: 0.1041 cumulative IPC: 0.1052 (Simulation time: 00 hr 54 min 07 sec)
Heartbeat CPU 0 instructions: 103500553 cycles: 520901989 heartbeat IPC: 0.1035 cumulative IPC: 0.1052 (Simulation time: 00 hr 54 min 32 sec)
Heartbeat CPU 0 instructions: 104000557 cycles: 525453893 heartbeat IPC: 0.1098 cumulative IPC: 0.1052 (Simulation time: 00 hr 54 min 55 sec)
Heartbeat CPU 0 instructions: 104500564 cycles: 530111124 heartbeat IPC: 0.1074 cumulative IPC: 0.1052 (Simulation time: 00 hr 55 min 20 sec)
Heartbeat CPU 0 instructions: 105000567 cycles: 535208337 heartbeat IPC: 0.09809 cumulative IPC: 0.1052 (Simulation time: 00 hr 55 min 46 sec)
Heartbeat CPU 0 instructions: 105500568 cycles: 540232516 heartbeat IPC: 0.09952 cumulative IPC: 0.1051 (Simulation time: 00 hr 56 min 12 sec)
Heartbeat CPU 0 instructions: 106000574 cycles: 545157535 heartbeat IPC: 0.1015 cumulative IPC: 0.1051 (Simulation time: 00 hr 56 min 37 sec)
Heartbeat CPU 0 instructions: 106500575 cycles: 550144431 heartbeat IPC: 0.1003 cumulative IPC: 0.105 (Simulation time: 00 hr 57 min 03 sec)
Heartbeat CPU 0 instructions: 107000575 cycles: 554791773 heartbeat IPC: 0.1076 cumulative IPC: 0.1051 (Simulation time: 00 hr 57 min 27 sec)
Heartbeat CPU 0 instructions: 107500580 cycles: 559262234 heartbeat IPC: 0.1118 cumulative IPC: 0.1051 (Simulation time: 00 hr 57 min 50 sec)
Heartbeat CPU 0 instructions: 108000587 cycles: 563571033 heartbeat IPC: 0.116 cumulative IPC: 0.1052 (Simulation time: 00 hr 58 min 12 sec)
Heartbeat CPU 0 instructions: 108500587 cycles: 568037854 heartbeat IPC: 0.1119 cumulative IPC: 0.1053 (Simulation time: 00 hr 58 min 36 sec)
Heartbeat CPU 0 instructions: 109000594 cycles: 572612762 heartbeat IPC: 0.1093 cumulative IPC: 0.1053 (Simulation time: 00 hr 59 min 06 sec)
Heartbeat CPU 0 instructions: 109500595 cycles: 577319083 heartbeat IPC: 0.1062 cumulative IPC: 0.1053 (Simulation time: 00 hr 59 min 38 sec)
Heartbeat CPU 0 instructions: 110000600 cycles: 581915803 heartbeat IPC: 0.1088 cumulative IPC: 0.1053 (Simulation time: 01 hr 00 min 09 sec)
Heartbeat CPU 0 instructions: 110500603 cycles: 586543133 heartbeat IPC: 0.1081 cumulative IPC: 0.1054 (Simulation time: 01 hr 00 min 40 sec)
Heartbeat CPU 0 instructions: 111000603 cycles: 591226485 heartbeat IPC: 0.1068 cumulative IPC: 0.1054 (Simulation time: 01 hr 01 min 12 sec)
Heartbeat CPU 0 instructions: 111500603 cycles: 595892144 heartbeat IPC: 0.1072 cumulative IPC: 0.1054 (Simulation time: 01 hr 01 min 43 sec)
Heartbeat CPU 0 instructions: 112000603 cycles: 600379992 heartbeat IPC: 0.1114 cumulative IPC: 0.1054 (Simulation time: 01 hr 02 min 14 sec)
Heartbeat CPU 0 instructions: 112500605 cycles: 605087432 heartbeat IPC: 0.1062 cumulative IPC: 0.1054 (Simulation time: 01 hr 02 min 46 sec)
Heartbeat CPU 0 instructions: 113000610 cycles: 609759716 heartbeat IPC: 0.107 cumulative IPC: 0.1054 (Simulation time: 01 hr 03 min 17 sec)
Heartbeat CPU 0 instructions: 113500611 cycles: 614506621 heartbeat IPC: 0.1053 cumulative IPC: 0.1054 (Simulation time: 01 hr 03 min 49 sec)
Heartbeat CPU 0 instructions: 114000612 cycles: 619136055 heartbeat IPC: 0.108 cumulative IPC: 0.1055 (Simulation time: 01 hr 04 min 21 sec)
Heartbeat CPU 0 instructions: 114500612 cycles: 623467888 heartbeat IPC: 0.1154 cumulative IPC: 0.1055 (Simulation time: 01 hr 04 min 50 sec)
Heartbeat CPU 0 instructions: 115000612 cycles: 628282261 heartbeat IPC: 0.1039 cumulative IPC: 0.1055 (Simulation time: 01 hr 05 min 23 sec)
Heartbeat CPU 0 instructions: 115500615 cycles: 632687742 heartbeat IPC: 0.1135 cumulative IPC: 0.1056 (Simulation time: 01 hr 05 min 52 sec)
Heartbeat CPU 0 instructions: 116000617 cycles: 637543558 heartbeat IPC: 0.103 cumulative IPC: 0.1056 (Simulation time: 01 hr 06 min 25 sec)
Heartbeat CPU 0 instructions: 116500622 cycles: 642365948 heartbeat IPC: 0.1037 cumulative IPC: 0.1055 (Simulation time: 01 hr 06 min 59 sec)
Heartbeat CPU 0 instructions: 117000627 cycles: 647644902 heartbeat IPC: 0.09472 cumulative IPC: 0.1054 (Simulation time: 01 hr 07 min 36 sec)
Heartbeat CPU 0 instructions: 117500633 cycles: 652375647 heartbeat IPC: 0.1057 cumulative IPC: 0.1055 (Simulation time: 01 hr 08 min 08 sec)
Heartbeat CPU 0 instructions: 118000633 cycles: 657106124 heartbeat IPC: 0.1057 cumulative IPC: 0.1055 (Simulation time: 01 hr 08 min 40 sec)
Heartbeat CPU 0 instructions: 118500633 cycles: 661797903 heartbeat IPC: 0.1066 cumulative IPC: 0.1055 (Simulation time: 01 hr 09 min 12 sec)
Heartbeat CPU 0 instructions: 119000639 cycles: 666395507 heartbeat IPC: 0.1088 cumulative IPC: 0.1055 (Simulation time: 01 hr 09 min 43 sec)
Heartbeat CPU 0 instructions: 119500640 cycles: 671162774 heartbeat IPC: 0.1049 cumulative IPC: 0.1055 (Simulation time: 01 hr 10 min 17 sec)
Heartbeat CPU 0 instructions: 120000641 cycles: 676607836 heartbeat IPC: 0.09183 cumulative IPC: 0.1054 (Simulation time: 01 hr 10 min 55 sec)
Heartbeat CPU 0 instructions: 120500647 cycles: 681166914 heartbeat IPC: 0.1097 cumulative IPC: 0.1054 (Simulation time: 01 hr 11 min 25 sec)
Heartbeat CPU 0 instructions: 121000648 cycles: 685840125 heartbeat IPC: 0.107 cumulative IPC: 0.1054 (Simulation time: 01 hr 11 min 57 sec)
Heartbeat CPU 0 instructions: 121500653 cycles: 690511629 heartbeat IPC: 0.107 cumulative IPC: 0.1054 (Simulation time: 01 hr 12 min 29 sec)
Heartbeat CPU 0 instructions: 122000654 cycles: 695495990 heartbeat IPC: 0.1003 cumulative IPC: 0.1054 (Simulation time: 01 hr 13 min 03 sec)
Heartbeat CPU 0 instructions: 122500657 cycles: 700446683 heartbeat IPC: 0.101 cumulative IPC: 0.1054 (Simulation time: 01 hr 13 min 36 sec)
Heartbeat CPU 0 instructions: 123000657 cycles: 705126835 heartbeat IPC: 0.1068 cumulative IPC: 0.1054 (Simulation time: 01 hr 14 min 08 sec)
Heartbeat CPU 0 instructions: 123500658 cycles: 710069796 heartbeat IPC: 0.1012 cumulative IPC: 0.1053 (Simulation time: 01 hr 14 min 41 sec)
Heartbeat CPU 0 instructions: 124000658 cycles: 714843395 heartbeat IPC: 0.1047 cumulative IPC: 0.1053 (Simulation time: 01 hr 15 min 14 sec)
Heartbeat CPU 0 instructions: 124500663 cycles: 719416546 heartbeat IPC: 0.1093 cumulative IPC: 0.1054 (Simulation time: 01 hr 15 min 45 sec)
Heartbeat CPU 0 instructions: 125000664 cycles: 723918701 heartbeat IPC: 0.1111 cumulative IPC: 0.1054 (Simulation time: 01 hr 16 min 15 sec)
Heartbeat CPU 0 instructions: 125500667 cycles: 728863162 heartbeat IPC: 0.1011 cumulative IPC: 0.1054 (Simulation time: 01 hr 16 min 48 sec)
Heartbeat CPU 0 instructions: 126000667 cycles: 733336745 heartbeat IPC: 0.1118 cumulative IPC: 0.1054 (Simulation time: 01 hr 17 min 19 sec)
Heartbeat CPU 0 instructions: 126500671 cycles: 738112628 heartbeat IPC: 0.1047 cumulative IPC: 0.1054 (Simulation time: 01 hr 17 min 51 sec)
Heartbeat CPU 0 instructions: 127000676 cycles: 742771544 heartbeat IPC: 0.1073 cumulative IPC: 0.1054 (Simulation time: 01 hr 18 min 22 sec)
Heartbeat CPU 0 instructions: 127500683 cycles: 747641675 heartbeat IPC: 0.1027 cumulative IPC: 0.1054 (Simulation time: 01 hr 18 min 55 sec)
Heartbeat CPU 0 instructions: 128000683 cycles: 752469163 heartbeat IPC: 0.1036 cumulative IPC: 0.1054 (Simulation time: 01 hr 19 min 28 sec)
Heartbeat CPU 0 instructions: 128500687 cycles: 756702799 heartbeat IPC: 0.1181 cumulative IPC: 0.1054 (Simulation time: 01 hr 19 min 56 sec)
Heartbeat CPU 0 instructions: 129000688 cycles: 761229554 heartbeat IPC: 0.1105 cumulative IPC: 0.1055 (Simulation time: 01 hr 20 min 27 sec)
Heartbeat CPU 0 instructions: 129500691 cycles: 765799654 heartbeat IPC: 0.1094 cumulative IPC: 0.1055 (Simulation time: 01 hr 20 min 58 sec)
Heartbeat CPU 0 instructions: 130000692 cycles: 770176303 heartbeat IPC: 0.1142 cumulative IPC: 0.1056 (Simulation time: 01 hr 21 min 27 sec)
Heartbeat CPU 0 instructions: 130500697 cycles: 774657510 heartbeat IPC: 0.1116 cumulative IPC: 0.1056 (Simulation time: 01 hr 21 min 58 sec)
Heartbeat CPU 0 instructions: 131000697 cycles: 780022204 heartbeat IPC: 0.0932 cumulative IPC: 0.1055 (Simulation time: 01 hr 22 min 37 sec)
Heartbeat CPU 0 instructions: 131500700 cycles: 784750683 heartbeat IPC: 0.1057 cumulative IPC: 0.1055 (Simulation time: 01 hr 23 min 09 sec)
Heartbeat CPU 0 instructions: 132000700 cycles: 789383703 heartbeat IPC: 0.1079 cumulative IPC: 0.1055 (Simulation time: 01 hr 23 min 40 sec)
Heartbeat CPU 0 instructions: 132500700 cycles: 794111863 heartbeat IPC: 0.1057 cumulative IPC: 0.1055 (Simulation time: 01 hr 24 min 12 sec)
Heartbeat CPU 0 instructions: 133000702 cycles: 798693122 heartbeat IPC: 0.1091 cumulative IPC: 0.1055 (Simulation time: 01 hr 24 min 43 sec)
Heartbeat CPU 0 instructions: 133500704 cycles: 803650942 heartbeat IPC: 0.1009 cumulative IPC: 0.1055 (Simulation time: 01 hr 25 min 16 sec)
Heartbeat CPU 0 instructions: 134000708 cycles: 808471607 heartbeat IPC: 0.1037 cumulative IPC: 0.1055 (Simulation time: 01 hr 25 min 48 sec)
Heartbeat CPU 0 instructions: 134500710 cycles: 813083913 heartbeat IPC: 0.1084 cumulative IPC: 0.1055 (Simulation time: 01 hr 26 min 20 sec)
Heartbeat CPU 0 instructions: 135000712 cycles: 817407479 heartbeat IPC: 0.1156 cumulative IPC: 0.1056 (Simulation time: 01 hr 26 min 49 sec)
Heartbeat CPU 0 instructions: 135500712 cycles: 822073422 heartbeat IPC: 0.1072 cumulative IPC: 0.1056 (Simulation time: 01 hr 27 min 20 sec)
Heartbeat CPU 0 instructions: 136000719 cycles: 827002270 heartbeat IPC: 0.1014 cumulative IPC: 0.1056 (Simulation time: 01 hr 27 min 54 sec)
Heartbeat CPU 0 instructions: 136500723 cycles: 832013992 heartbeat IPC: 0.09977 cumulative IPC: 0.1055 (Simulation time: 01 hr 28 min 27 sec)
Heartbeat CPU 0 instructions: 137000729 cycles: 836820025 heartbeat IPC: 0.104 cumulative IPC: 0.1055 (Simulation time: 01 hr 29 min 00 sec)
Heartbeat CPU 0 instructions: 137500733 cycles: 841656529 heartbeat IPC: 0.1034 cumulative IPC: 0.1055 (Simulation time: 01 hr 29 min 34 sec)
Heartbeat CPU 0 instructions: 138000733 cycles: 846983613 heartbeat IPC: 0.09386 cumulative IPC: 0.1054 (Simulation time: 01 hr 30 min 11 sec)
Heartbeat CPU 0 instructions: 138500739 cycles: 851847341 heartbeat IPC: 0.1028 cumulative IPC: 0.1054 (Simulation time: 01 hr 30 min 44 sec)
Heartbeat CPU 0 instructions: 139000739 cycles: 856510834 heartbeat IPC: 0.1072 cumulative IPC: 0.1054 (Simulation time: 01 hr 31 min 16 sec)
Heartbeat CPU 0 instructions: 139500744 cycles: 860964073 heartbeat IPC: 0.1123 cumulative IPC: 0.1055 (Simulation time: 01 hr 31 min 46 sec)
Heartbeat CPU 0 instructions: 140000748 cycles: 865527355 heartbeat IPC: 0.1096 cumulative IPC: 0.1055 (Simulation time: 01 hr 32 min 16 sec)
Heartbeat CPU 0 instructions: 140500754 cycles: 870102774 heartbeat IPC: 0.1093 cumulative IPC: 0.1055 (Simulation time: 01 hr 32 min 47 sec)
Heartbeat CPU 0 instructions: 141000761 cycles: 874742224 heartbeat IPC: 0.1078 cumulative IPC: 0.1055 (Simulation time: 01 hr 33 min 18 sec)
Heartbeat CPU 0 instructions: 141500761 cycles: 879752532 heartbeat IPC: 0.09979 cumulative IPC: 0.1055 (Simulation time: 01 hr 33 min 52 sec)
Heartbeat CPU 0 instructions: 142000766 cycles: 884423784 heartbeat IPC: 0.107 cumulative IPC: 0.1055 (Simulation time: 01 hr 34 min 24 sec)
Heartbeat CPU 0 instructions: 142500768 cycles: 889150886 heartbeat IPC: 0.1058 cumulative IPC: 0.1055 (Simulation time: 01 hr 34 min 56 sec)
Heartbeat CPU 0 instructions: 143000771 cycles: 894038376 heartbeat IPC: 0.1023 cumulative IPC: 0.1055 (Simulation time: 01 hr 35 min 29 sec)
Heartbeat CPU 0 instructions: 143500772 cycles: 898788084 heartbeat IPC: 0.1053 cumulative IPC: 0.1055 (Simulation time: 01 hr 36 min 01 sec)
Heartbeat CPU 0 instructions: 144000774 cycles: 903471903 heartbeat IPC: 0.1068 cumulative IPC: 0.1055 (Simulation time: 01 hr 36 min 32 sec)
Heartbeat CPU 0 instructions: 144500778 cycles: 908148048 heartbeat IPC: 0.1069 cumulative IPC: 0.1055 (Simulation time: 01 hr 37 min 04 sec)
Heartbeat CPU 0 instructions: 145000779 cycles: 912826526 heartbeat IPC: 0.1069 cumulative IPC: 0.1055 (Simulation time: 01 hr 37 min 36 sec)
Heartbeat CPU 0 instructions: 145500780 cycles: 917288444 heartbeat IPC: 0.1121 cumulative IPC: 0.1055 (Simulation time: 01 hr 38 min 06 sec)
Heartbeat CPU 0 instructions: 146000781 cycles: 922183105 heartbeat IPC: 0.1022 cumulative IPC: 0.1055 (Simulation time: 01 hr 38 min 39 sec)
Heartbeat CPU 0 instructions: 146500782 cycles: 927117181 heartbeat IPC: 0.1013 cumulative IPC: 0.1055 (Simulation time: 01 hr 39 min 12 sec)
Heartbeat CPU 0 instructions: 147000782 cycles: 931736594 heartbeat IPC: 0.1082 cumulative IPC: 0.1055 (Simulation time: 01 hr 39 min 44 sec)
Heartbeat CPU 0 instructions: 147500782 cycles: 936550562 heartbeat IPC: 0.1039 cumulative IPC: 0.1055 (Simulation time: 01 hr 40 min 16 sec)
Heartbeat CPU 0 instructions: 148000782 cycles: 941092154 heartbeat IPC: 0.1101 cumulative IPC: 0.1055 (Simulation time: 01 hr 40 min 47 sec)
Heartbeat CPU 0 instructions: 148500783 cycles: 946001928 heartbeat IPC: 0.1018 cumulative IPC: 0.1055 (Simulation time: 01 hr 41 min 20 sec)
Heartbeat CPU 0 instructions: 149000789 cycles: 950890454 heartbeat IPC: 0.1023 cumulative IPC: 0.1055 (Simulation time: 01 hr 41 min 53 sec)
Heartbeat CPU 0 instructions: 149500792 cycles: 955851212 heartbeat IPC: 0.1008 cumulative IPC: 0.1054 (Simulation time: 01 hr 42 min 27 sec)
Heartbeat CPU 0 instructions: 150000794 cycles: 960850221 heartbeat IPC: 0.1 cumulative IPC: 0.1054 (Simulation time: 01 hr 43 min 01 sec)
Heartbeat CPU 0 instructions: 150500796 cycles: 965748418 heartbeat IPC: 0.1021 cumulative IPC: 0.1054 (Simulation time: 01 hr 43 min 34 sec)
Heartbeat CPU 0 instructions: 151000799 cycles: 970339393 heartbeat IPC: 0.1089 cumulative IPC: 0.1054 (Simulation time: 01 hr 44 min 05 sec)
Heartbeat CPU 0 instructions: 151500799 cycles: 974771738 heartbeat IPC: 0.1128 cumulative IPC: 0.1055 (Simulation time: 01 hr 44 min 35 sec)
Heartbeat CPU 0 instructions: 152000799 cycles: 979529023 heartbeat IPC: 0.1051 cumulative IPC: 0.1055 (Simulation time: 01 hr 45 min 08 sec)
Heartbeat CPU 0 instructions: 152500800 cycles: 984286789 heartbeat IPC: 0.1051 cumulative IPC: 0.1055 (Simulation time: 01 hr 45 min 41 sec)
Heartbeat CPU 0 instructions: 153000807 cycles: 989718678 heartbeat IPC: 0.09205 cumulative IPC: 0.1054 (Simulation time: 01 hr 46 min 21 sec)
Heartbeat CPU 0 instructions: 153500808 cycles: 995323612 heartbeat IPC: 0.08921 cumulative IPC: 0.1053 (Simulation time: 01 hr 47 min 01 sec)
Heartbeat CPU 0 instructions: 154000808 cycles: 999855816 heartbeat IPC: 0.1103 cumulative IPC: 0.1053 (Simulation time: 01 hr 47 min 31 sec)
Heartbeat CPU 0 instructions: 154500808 cycles: 1004512126 heartbeat IPC: 0.1074 cumulative IPC: 0.1053 (Simulation time: 01 hr 48 min 02 sec)
Heartbeat CPU 0 instructions: 155000808 cycles: 1009407918 heartbeat IPC: 0.1021 cumulative IPC: 0.1053 (Simulation time: 01 hr 48 min 35 sec)
Heartbeat CPU 0 instructions: 155500810 cycles: 1014043126 heartbeat IPC: 0.1079 cumulative IPC: 0.1053 (Simulation time: 01 hr 49 min 06 sec)
Heartbeat CPU 0 instructions: 156000817 cycles: 1018946165 heartbeat IPC: 0.102 cumulative IPC: 0.1053 (Simulation time: 01 hr 49 min 39 sec)
Heartbeat CPU 0 instructions: 156500819 cycles: 1023838063 heartbeat IPC: 0.1022 cumulative IPC: 0.1053 (Simulation time: 01 hr 50 min 11 sec)
Heartbeat CPU 0 instructions: 157000821 cycles: 1028615350 heartbeat IPC: 0.1047 cumulative IPC: 0.1053 (Simulation time: 01 hr 50 min 43 sec)
Heartbeat CPU 0 instructions: 157500827 cycles: 1033207599 heartbeat IPC: 0.1089 cumulative IPC: 0.1053 (Simulation time: 01 hr 51 min 13 sec)
Heartbeat CPU 0 instructions: 158000829 cycles: 1038020408 heartbeat IPC: 0.1039 cumulative IPC: 0.1053 (Simulation time: 01 hr 51 min 45 sec)
Heartbeat CPU 0 instructions: 158500829 cycles: 1042870062 heartbeat IPC: 0.1031 cumulative IPC: 0.1053 (Simulation time: 01 hr 52 min 17 sec)
Heartbeat CPU 0 instructions: 159000832 cycles: 1047639895 heartbeat IPC: 0.1048 cumulative IPC: 0.1053 (Simulation time: 01 hr 52 min 50 sec)
Heartbeat CPU 0 instructions: 159500834 cycles: 1053052292 heartbeat IPC: 0.09238 cumulative IPC: 0.1052 (Simulation time: 01 hr 53 min 26 sec)
Heartbeat CPU 0 instructions: 160000835 cycles: 1057908109 heartbeat IPC: 0.103 cumulative IPC: 0.1052 (Simulation time: 01 hr 53 min 58 sec)
Heartbeat CPU 0 instructions: 160500837 cycles: 1062611042 heartbeat IPC: 0.1063 cumulative IPC: 0.1052 (Simulation time: 01 hr 54 min 28 sec)
Heartbeat CPU 0 instructions: 161000842 cycles: 1067479943 heartbeat IPC: 0.1027 cumulative IPC: 0.1052 (Simulation time: 01 hr 54 min 59 sec)
Heartbeat CPU 0 instructions: 161500849 cycles: 1072118296 heartbeat IPC: 0.1078 cumulative IPC: 0.1052 (Simulation time: 01 hr 55 min 30 sec)
Heartbeat CPU 0 instructions: 162000854 cycles: 1077402995 heartbeat IPC: 0.09461 cumulative IPC: 0.1052 (Simulation time: 01 hr 56 min 06 sec)
Heartbeat CPU 0 instructions: 162500858 cycles: 1082027164 heartbeat IPC: 0.1081 cumulative IPC: 0.1052 (Simulation time: 01 hr 56 min 34 sec)
Heartbeat CPU 0 instructions: 163000861 cycles: 1087332610 heartbeat IPC: 0.09424 cumulative IPC: 0.1051 (Simulation time: 01 hr 57 min 08 sec)
Heartbeat CPU 0 instructions: 163500861 cycles: 1092340163 heartbeat IPC: 0.09985 cumulative IPC: 0.1051 (Simulation time: 01 hr 57 min 39 sec)
Heartbeat CPU 0 instructions: 164000861 cycles: 1096693486 heartbeat IPC: 0.1149 cumulative IPC: 0.1051 (Simulation time: 01 hr 58 min 06 sec)
Heartbeat CPU 0 instructions: 164500863 cycles: 1100972471 heartbeat IPC: 0.1169 cumulative IPC: 0.1052 (Simulation time: 01 hr 58 min 33 sec)
Heartbeat CPU 0 instructions: 165000869 cycles: 1106157171 heartbeat IPC: 0.09644 cumulative IPC: 0.1051 (Simulation time: 01 hr 59 min 07 sec)
Heartbeat CPU 0 instructions: 165500872 cycles: 1110947066 heartbeat IPC: 0.1044 cumulative IPC: 0.1051 (Simulation time: 01 hr 59 min 36 sec)
Heartbeat CPU 0 instructions: 166000873 cycles: 1115672842 heartbeat IPC: 0.1058 cumulative IPC: 0.1051 (Simulation time: 02 hr 00 min 05 sec)
Heartbeat CPU 0 instructions: 166500879 cycles: 1120593743 heartbeat IPC: 0.1016 cumulative IPC: 0.1051 (Simulation time: 02 hr 00 min 38 sec)
Heartbeat CPU 0 instructions: 167000881 cycles: 1126265166 heartbeat IPC: 0.08816 cumulative IPC: 0.105 (Simulation time: 02 hr 01 min 13 sec)
Heartbeat CPU 0 instructions: 167500886 cycles: 1130928412 heartbeat IPC: 0.1072 cumulative IPC: 0.105 (Simulation time: 02 hr 01 min 42 sec)
Heartbeat CPU 0 instructions: 168000892 cycles: 1135572444 heartbeat IPC: 0.1077 cumulative IPC: 0.105 (Simulation time: 02 hr 02 min 10 sec)
Heartbeat CPU 0 instructions: 168500892 cycles: 1140152623 heartbeat IPC: 0.1092 cumulative IPC: 0.1051 (Simulation time: 02 hr 02 min 38 sec)
Heartbeat CPU 0 instructions: 169000895 cycles: 1145375396 heartbeat IPC: 0.09574 cumulative IPC: 0.105 (Simulation time: 02 hr 03 min 12 sec)
Heartbeat CPU 0 instructions: 169500899 cycles: 1150519753 heartbeat IPC: 0.09719 cumulative IPC: 0.105 (Simulation time: 02 hr 03 min 43 sec)
Heartbeat CPU 0 instructions: 170000901 cycles: 1155312415 heartbeat IPC: 0.1043 cumulative IPC: 0.105 (Simulation time: 02 hr 04 min 11 sec)
Heartbeat CPU 0 instructions: 170500905 cycles: 1160199912 heartbeat IPC: 0.1023 cumulative IPC: 0.105 (Simulation time: 02 hr 04 min 41 sec)
Heartbeat CPU 0 instructions: 171000906 cycles: 1165014814 heartbeat IPC: 0.1038 cumulative IPC: 0.105 (Simulation time: 02 hr 05 min 10 sec)
Heartbeat CPU 0 instructions: 171500913 cycles: 1170152892 heartbeat IPC: 0.09731 cumulative IPC: 0.1049 (Simulation time: 02 hr 05 min 42 sec)
Heartbeat CPU 0 instructions: 172000920 cycles: 1175233445 heartbeat IPC: 0.09842 cumulative IPC: 0.1049 (Simulation time: 02 hr 06 min 12 sec)
Heartbeat CPU 0 instructions: 172500921 cycles: 1180214287 heartbeat IPC: 0.1004 cumulative IPC: 0.1049 (Simulation time: 02 hr 06 min 41 sec)
Heartbeat CPU 0 instructions: 173000928 cycles: 1184729947 heartbeat IPC: 0.1107 cumulative IPC: 0.1049 (Simulation time: 02 hr 07 min 07 sec)
Heartbeat CPU 0 instructions: 173500928 cycles: 1189690766 heartbeat IPC: 0.1008 cumulative IPC: 0.1049 (Simulation time: 02 hr 07 min 36 sec)
Heartbeat CPU 0 instructions: 174000928 cycles: 1194417110 heartbeat IPC: 0.1058 cumulative IPC: 0.1049 (Simulation time: 02 hr 08 min 03 sec)
Heartbeat CPU 0 instructions: 174500934 cycles: 1198977581 heartbeat IPC: 0.1096 cumulative IPC: 0.1049 (Simulation time: 02 hr 08 min 29 sec)
Heartbeat CPU 0 instructions: 175000938 cycles: 1203753843 heartbeat IPC: 0.1047 cumulative IPC: 0.1049 (Simulation time: 02 hr 08 min 57 sec)
Heartbeat CPU 0 instructions: 175500943 cycles: 1208485446 heartbeat IPC: 0.1057 cumulative IPC: 0.1049 (Simulation time: 02 hr 09 min 24 sec)
Heartbeat CPU 0 instructions: 176000943 cycles: 1212957933 heartbeat IPC: 0.1118 cumulative IPC: 0.1049 (Simulation time: 02 hr 09 min 49 sec)
Heartbeat CPU 0 instructions: 176500945 cycles: 1217447666 heartbeat IPC: 0.1114 cumulative IPC: 0.105 (Simulation time: 02 hr 10 min 15 sec)
Heartbeat CPU 0 instructions: 177000945 cycles: 1222629927 heartbeat IPC: 0.09648 cumulative IPC: 0.1049 (Simulation time: 02 hr 10 min 45 sec)
Heartbeat CPU 0 instructions: 177500945 cycles: 1227116592 heartbeat IPC: 0.1114 cumulative IPC: 0.105 (Simulation time: 02 hr 11 min 10 sec)
Heartbeat CPU 0 instructions: 178000946 cycles: 1232315923 heartbeat IPC: 0.09617 cumulative IPC: 0.1049 (Simulation time: 02 hr 11 min 40 sec)
Heartbeat CPU 0 instructions: 178500949 cycles: 1236901401 heartbeat IPC: 0.109 cumulative IPC: 0.1049 (Simulation time: 02 hr 12 min 06 sec)
Heartbeat CPU 0 instructions: 179000951 cycles: 1241819373 heartbeat IPC: 0.1017 cumulative IPC: 0.1049 (Simulation time: 02 hr 12 min 34 sec)
Heartbeat CPU 0 instructions: 179500955 cycles: 1246477048 heartbeat IPC: 0.1074 cumulative IPC: 0.1049 (Simulation time: 02 hr 13 min 01 sec)
Heartbeat CPU 0 instructions: 180000955 cycles: 1251132017 heartbeat IPC: 0.1074 cumulative IPC: 0.1049 (Simulation time: 02 hr 13 min 27 sec)
Heartbeat CPU 0 instructions: 180500962 cycles: 1256217376 heartbeat IPC: 0.09832 cumulative IPC: 0.1049 (Simulation time: 02 hr 13 min 56 sec)
Heartbeat CPU 0 instructions: 181000967 cycles: 1260886908 heartbeat IPC: 0.1071 cumulative IPC: 0.1049 (Simulation time: 02 hr 14 min 22 sec)
Heartbeat CPU 0 instructions: 181500968 cycles: 1265627146 heartbeat IPC: 0.1055 cumulative IPC: 0.1049 (Simulation time: 02 hr 14 min 49 sec)
Heartbeat CPU 0 instructions: 182000973 cycles: 1270383816 heartbeat IPC: 0.1051 cumulative IPC: 0.1049 (Simulation time: 02 hr 15 min 16 sec)
Heartbeat CPU 0 instructions: 182500973 cycles: 1275037643 heartbeat IPC: 0.1074 cumulative IPC: 0.1049 (Simulation time: 02 hr 15 min 42 sec)
Heartbeat CPU 0 instructions: 183000973 cycles: 1280200683 heartbeat IPC: 0.09684 cumulative IPC: 0.1049 (Simulation time: 02 hr 16 min 10 sec)
Heartbeat CPU 0 instructions: 183500978 cycles: 1284759742 heartbeat IPC: 0.1097 cumulative IPC: 0.1049 (Simulation time: 02 hr 16 min 36 sec)
Heartbeat CPU 0 instructions: 184000983 cycles: 1289744232 heartbeat IPC: 0.1003 cumulative IPC: 0.1049 (Simulation time: 02 hr 17 min 03 sec)
Heartbeat CPU 0 instructions: 184500985 cycles: 1294583315 heartbeat IPC: 0.1033 cumulative IPC: 0.1049 (Simulation time: 02 hr 17 min 30 sec)
Heartbeat CPU 0 instructions: 185000987 cycles: 1299392673 heartbeat IPC: 0.104 cumulative IPC: 0.1049 (Simulation time: 02 hr 17 min 57 sec)
Heartbeat CPU 0 instructions: 185500987 cycles: 1303961676 heartbeat IPC: 0.1094 cumulative IPC: 0.1049 (Simulation time: 02 hr 18 min 21 sec)
Heartbeat CPU 0 instructions: 186000989 cycles: 1307686056 heartbeat IPC: 0.1343 cumulative IPC: 0.105 (Simulation time: 02 hr 18 min 43 sec)
Heartbeat CPU 0 instructions: 186500993 cycles: 1310468047 heartbeat IPC: 0.1797 cumulative IPC: 0.1051 (Simulation time: 02 hr 19 min 00 sec)
Heartbeat CPU 0 instructions: 187000999 cycles: 1313523521 heartbeat IPC: 0.1636 cumulative IPC: 0.1053 (Simulation time: 02 hr 19 min 19 sec)
Heartbeat CPU 0 instructions: 187501003 cycles: 1318450936 heartbeat IPC: 0.1015 cumulative IPC: 0.1053 (Simulation time: 02 hr 19 min 46 sec)
Heartbeat CPU 0 instructions: 188001008 cycles: 1323473619 heartbeat IPC: 0.09955 cumulative IPC: 0.1052 (Simulation time: 02 hr 20 min 12 sec)
Heartbeat CPU 0 instructions: 188501011 cycles: 1328264080 heartbeat IPC: 0.1044 cumulative IPC: 0.1052 (Simulation time: 02 hr 20 min 38 sec)
Heartbeat CPU 0 instructions: 189001011 cycles: 1332731942 heartbeat IPC: 0.1119 cumulative IPC: 0.1053 (Simulation time: 02 hr 21 min 01 sec)
Heartbeat CPU 0 instructions: 189501013 cycles: 1337484076 heartbeat IPC: 0.1052 cumulative IPC: 0.1053 (Simulation time: 02 hr 21 min 26 sec)
Heartbeat CPU 0 instructions: 190001014 cycles: 1341788192 heartbeat IPC: 0.1162 cumulative IPC: 0.1053 (Simulation time: 02 hr 21 min 49 sec)
Heartbeat CPU 0 instructions: 190501015 cycles: 1346322544 heartbeat IPC: 0.1103 cumulative IPC: 0.1053 (Simulation time: 02 hr 22 min 12 sec)
Heartbeat CPU 0 instructions: 191001022 cycles: 1350867841 heartbeat IPC: 0.11 cumulative IPC: 0.1053 (Simulation time: 02 hr 22 min 36 sec)
Heartbeat CPU 0 instructions: 191501025 cycles: 1355727188 heartbeat IPC: 0.1029 cumulative IPC: 0.1053 (Simulation time: 02 hr 23 min 01 sec)
Heartbeat CPU 0 instructions: 192001025 cycles: 1359908628 heartbeat IPC: 0.1196 cumulative IPC: 0.1054 (Simulation time: 02 hr 23 min 23 sec)
Heartbeat CPU 0 instructions: 192501030 cycles: 1364489647 heartbeat IPC: 0.1091 cumulative IPC: 0.1054 (Simulation time: 02 hr 23 min 46 sec)
Heartbeat CPU 0 instructions: 193001030 cycles: 1368893956 heartbeat IPC: 0.1135 cumulative IPC: 0.1054 (Simulation time: 02 hr 24 min 09 sec)
Heartbeat CPU 0 instructions: 193501036 cycles: 1373318797 heartbeat IPC: 0.113 cumulative IPC: 0.1054 (Simulation time: 02 hr 24 min 32 sec)
Heartbeat CPU 0 instructions: 194001039 cycles: 1377938870 heartbeat IPC: 0.1082 cumulative IPC: 0.1054 (Simulation time: 02 hr 24 min 56 sec)
Heartbeat CPU 0 instructions: 194501046 cycles: 1382347842 heartbeat IPC: 0.1134 cumulative IPC: 0.1055 (Simulation time: 02 hr 25 min 19 sec)
Heartbeat CPU 0 instructions: 195001047 cycles: 1386922311 heartbeat IPC: 0.1093 cumulative IPC: 0.1055 (Simulation time: 02 hr 25 min 42 sec)
Heartbeat CPU 0 instructions: 195501047 cycles: 1391364220 heartbeat IPC: 0.1126 cumulative IPC: 0.1055 (Simulation time: 02 hr 26 min 05 sec)
Heartbeat CPU 0 instructions: 196001048 cycles: 1395800821 heartbeat IPC: 0.1127 cumulative IPC: 0.1055 (Simulation time: 02 hr 26 min 28 sec)
Heartbeat CPU 0 instructions: 196501052 cycles: 1399949212 heartbeat IPC: 0.1205 cumulative IPC: 0.1056 (Simulation time: 02 hr 26 min 50 sec)
Heartbeat CPU 0 instructions: 197001059 cycles: 1404570534 heartbeat IPC: 0.1082 cumulative IPC: 0.1056 (Simulation time: 02 hr 27 min 13 sec)
Heartbeat CPU 0 instructions: 197501060 cycles: 1408694004 heartbeat IPC: 0.1213 cumulative IPC: 0.1056 (Simulation time: 02 hr 27 min 35 sec)
Heartbeat CPU 0 instructions: 198001060 cycles: 1412773822 heartbeat IPC: 0.1226 cumulative IPC: 0.1057 (Simulation time: 02 hr 27 min 56 sec)
Heartbeat CPU 0 instructions: 198501063 cycles: 1417112775 heartbeat IPC: 0.1152 cumulative IPC: 0.1057 (Simulation time: 02 hr 28 min 18 sec)
Heartbeat CPU 0 instructions: 199001065 cycles: 1421733963 heartbeat IPC: 0.1082 cumulative IPC: 0.1057 (Simulation time: 02 hr 28 min 42 sec)
Heartbeat CPU 0 instructions: 199501066 cycles: 1425945298 heartbeat IPC: 0.1187 cumulative IPC: 0.1058 (Simulation time: 02 hr 29 min 04 sec)
Heartbeat CPU 0 instructions: 200001067 cycles: 1430068617 heartbeat IPC: 0.1213 cumulative IPC: 0.1058 (Simulation time: 02 hr 29 min 25 sec)
Heartbeat CPU 0 instructions: 200501073 cycles: 1434466480 heartbeat IPC: 0.1137 cumulative IPC: 0.1058 (Simulation time: 02 hr 29 min 48 sec)
Heartbeat CPU 0 instructions: 201001074 cycles: 1438808312 heartbeat IPC: 0.1152 cumulative IPC: 0.1059 (Simulation time: 02 hr 30 min 10 sec)
Heartbeat CPU 0 instructions: 201501078 cycles: 1443075603 heartbeat IPC: 0.1172 cumulative IPC: 0.1059 (Simulation time: 02 hr 30 min 32 sec)
Heartbeat CPU 0 instructions: 202001083 cycles: 1447599876 heartbeat IPC: 0.1105 cumulative IPC: 0.1059 (Simulation time: 02 hr 30 min 55 sec)
Heartbeat CPU 0 instructions: 202501087 cycles: 1451937361 heartbeat IPC: 0.1153 cumulative IPC: 0.1059 (Simulation time: 02 hr 31 min 17 sec)
Heartbeat CPU 0 instructions: 203001093 cycles: 1456199813 heartbeat IPC: 0.1173 cumulative IPC: 0.106 (Simulation time: 02 hr 31 min 39 sec)
Heartbeat CPU 0 instructions: 203501097 cycles: 1460437615 heartbeat IPC: 0.118 cumulative IPC: 0.106 (Simulation time: 02 hr 32 min 01 sec)
Heartbeat CPU 0 instructions: 204001102 cycles: 1464971542 heartbeat IPC: 0.1103 cumulative IPC: 0.106 (Simulation time: 02 hr 32 min 24 sec)
Heartbeat CPU 0 instructions: 204501109 cycles: 1469285894 heartbeat IPC: 0.1159 cumulative IPC: 0.106 (Simulation time: 02 hr 32 min 46 sec)
Heartbeat CPU 0 instructions: 205001109 cycles: 1473365212 heartbeat IPC: 0.1226 cumulative IPC: 0.1061 (Simulation time: 02 hr 33 min 07 sec)
Heartbeat CPU 0 instructions: 205501113 cycles: 1477879641 heartbeat IPC: 0.1108 cumulative IPC: 0.1061 (Simulation time: 02 hr 33 min 31 sec)
Heartbeat CPU 0 instructions: 206001116 cycles: 1482296864 heartbeat IPC: 0.1132 cumulative IPC: 0.1061 (Simulation time: 02 hr 33 min 54 sec)
Heartbeat CPU 0 instructions: 206501119 cycles: 1486477348 heartbeat IPC: 0.1196 cumulative IPC: 0.1062 (Simulation time: 02 hr 34 min 15 sec)
Heartbeat CPU 0 instructions: 207001120 cycles: 1490805489 heartbeat IPC: 0.1155 cumulative IPC: 0.1062 (Simulation time: 02 hr 34 min 38 sec)
Heartbeat CPU 0 instructions: 207501120 cycles: 1495198058 heartbeat IPC: 0.1138 cumulative IPC: 0.1062 (Simulation time: 02 hr 35 min 00 sec)
Heartbeat CPU 0 instructions: 208001120 cycles: 1499383975 heartbeat IPC: 0.1194 cumulative IPC: 0.1062 (Simulation time: 02 hr 35 min 22 sec)
Heartbeat CPU 0 instructions: 208501122 cycles: 1504011740 heartbeat IPC: 0.108 cumulative IPC: 0.1063 (Simulation time: 02 hr 35 min 46 sec)
Heartbeat CPU 0 instructions: 209001126 cycles: 1508475367 heartbeat IPC: 0.112 cumulative IPC: 0.1063 (Simulation time: 02 hr 36 min 09 sec)
Heartbeat CPU 0 instructions: 209501129 cycles: 1512726197 heartbeat IPC: 0.1176 cumulative IPC: 0.1063 (Simulation time: 02 hr 36 min 31 sec)
Heartbeat CPU 0 instructions: 210001131 cycles: 1516769212 heartbeat IPC: 0.1237 cumulative IPC: 0.1063 (Simulation time: 02 hr 36 min 52 sec)
Heartbeat CPU 0 instructions: 210501138 cycles: 1521181996 heartbeat IPC: 0.1133 cumulative IPC: 0.1064 (Simulation time: 02 hr 37 min 14 sec)
Heartbeat CPU 0 instructions: 211001145 cycles: 1525455295 heartbeat IPC: 0.117 cumulative IPC: 0.1064 (Simulation time: 02 hr 37 min 36 sec)
Heartbeat CPU 0 instructions: 211501145 cycles: 1529590743 heartbeat IPC: 0.1209 cumulative IPC: 0.1064 (Simulation time: 02 hr 37 min 58 sec)
Heartbeat CPU 0 instructions: 212001150 cycles: 1533956859 heartbeat IPC: 0.1145 cumulative IPC: 0.1065 (Simulation time: 02 hr 38 min 20 sec)
Heartbeat CPU 0 instructions: 212501150 cycles: 1538133785 heartbeat IPC: 0.1197 cumulative IPC: 0.1065 (Simulation time: 02 hr 38 min 42 sec)
Heartbeat CPU 0 instructions: 213001152 cycles: 1542334277 heartbeat IPC: 0.119 cumulative IPC: 0.1065 (Simulation time: 02 hr 39 min 04 sec)
Heartbeat CPU 0 instructions: 213501158 cycles: 1546551025 heartbeat IPC: 0.1186 cumulative IPC: 0.1066 (Simulation time: 02 hr 39 min 25 sec)
Heartbeat CPU 0 instructions: 214001158 cycles: 1550773894 heartbeat IPC: 0.1184 cumulative IPC: 0.1066 (Simulation time: 02 hr 39 min 47 sec)
Heartbeat CPU 0 instructions: 214501158 cycles: 1555194127 heartbeat IPC: 0.1131 cumulative IPC: 0.1066 (Simulation time: 02 hr 40 min 10 sec)
Heartbeat CPU 0 instructions: 215001162 cycles: 1559739286 heartbeat IPC: 0.11 cumulative IPC: 0.1066 (Simulation time: 02 hr 40 min 33 sec)
Heartbeat CPU 0 instructions: 215501164 cycles: 1564606202 heartbeat IPC: 0.1027 cumulative IPC: 0.1066 (Simulation time: 02 hr 40 min 59 sec)
Heartbeat CPU 0 instructions: 216001170 cycles: 1568911798 heartbeat IPC: 0.1161 cumulative IPC: 0.1066 (Simulation time: 02 hr 41 min 21 sec)
Heartbeat CPU 0 instructions: 216501175 cycles: 1573122025 heartbeat IPC: 0.1188 cumulative IPC: 0.1067 (Simulation time: 02 hr 41 min 42 sec)
Heartbeat CPU 0 instructions: 217001175 cycles: 1577536355 heartbeat IPC: 0.1133 cumulative IPC: 0.1067 (Simulation time: 02 hr 42 min 05 sec)
Heartbeat CPU 0 instructions: 217501182 cycles: 1582116403 heartbeat IPC: 0.1092 cumulative IPC: 0.1067 (Simulation time: 02 hr 42 min 29 sec)
Heartbeat CPU 0 instructions: 218001183 cycles: 1586362634 heartbeat IPC: 0.1178 cumulative IPC: 0.1067 (Simulation time: 02 hr 42 min 51 sec)
Heartbeat CPU 0 instructions: 218501190 cycles: 1590688273 heartbeat IPC: 0.1156 cumulative IPC: 0.1068 (Simulation time: 02 hr 43 min 13 sec)
Heartbeat CPU 0 instructions: 219001194 cycles: 1594935019 heartbeat IPC: 0.1177 cumulative IPC: 0.1068 (Simulation time: 02 hr 43 min 35 sec)
Heartbeat CPU 0 instructions: 219501196 cycles: 1599065716 heartbeat IPC: 0.121 cumulative IPC: 0.1068 (Simulation time: 02 hr 43 min 56 sec)
Heartbeat CPU 0 instructions: 220001197 cycles: 1603239564 heartbeat IPC: 0.1198 cumulative IPC: 0.1069 (Simulation time: 02 hr 44 min 18 sec)
Heartbeat CPU 0 instructions: 220501199 cycles: 1607459093 heartbeat IPC: 0.1185 cumulative IPC: 0.1069 (Simulation time: 02 hr 44 min 40 sec)
Heartbeat CPU 0 instructions: 221001203 cycles: 1611707300 heartbeat IPC: 0.1177 cumulative IPC: 0.1069 (Simulation time: 02 hr 45 min 02 sec)
Heartbeat CPU 0 instructions: 221501204 cycles: 1615867150 heartbeat IPC: 0.1202 cumulative IPC: 0.1069 (Simulation time: 02 hr 45 min 23 sec)
Heartbeat CPU 0 instructions: 222001208 cycles: 1620083454 heartbeat IPC: 0.1186 cumulative IPC: 0.107 (Simulation time: 02 hr 45 min 45 sec)
Heartbeat CPU 0 instructions: 222501208 cycles: 1624233063 heartbeat IPC: 0.1205 cumulative IPC: 0.107 (Simulation time: 02 hr 46 min 06 sec)
Heartbeat CPU 0 instructions: 223001208 cycles: 1628241113 heartbeat IPC: 0.1247 cumulative IPC: 0.1071 (Simulation time: 02 hr 46 min 27 sec)
Heartbeat CPU 0 instructions: 223501208 cycles: 1632244665 heartbeat IPC: 0.1249 cumulative IPC: 0.1071 (Simulation time: 02 hr 46 min 48 sec)
Heartbeat CPU 0 instructions: 224001211 cycles: 1636454303 heartbeat IPC: 0.1188 cumulative IPC: 0.1071 (Simulation time: 02 hr 47 min 09 sec)
Heartbeat CPU 0 instructions: 224501211 cycles: 1640660973 heartbeat IPC: 0.1189 cumulative IPC: 0.1072 (Simulation time: 02 hr 47 min 31 sec)
Heartbeat CPU 0 instructions: 225001215 cycles: 1644888245 heartbeat IPC: 0.1183 cumulative IPC: 0.1072 (Simulation time: 02 hr 47 min 53 sec)
Heartbeat CPU 0 instructions: 225501215 cycles: 1649082052 heartbeat IPC: 0.1192 cumulative IPC: 0.1072 (Simulation time: 02 hr 48 min 14 sec)
Heartbeat CPU 0 instructions: 226001215 cycles: 1653637302 heartbeat IPC: 0.1098 cumulative IPC: 0.1072 (Simulation time: 02 hr 48 min 38 sec)
Heartbeat CPU 0 instructions: 226501217 cycles: 1657889846 heartbeat IPC: 0.1176 cumulative IPC: 0.1073 (Simulation time: 02 hr 49 min 00 sec)
Heartbeat CPU 0 instructions: 227001221 cycles: 1662219493 heartbeat IPC: 0.1155 cumulative IPC: 0.1073 (Simulation time: 02 hr 49 min 22 sec)
Heartbeat CPU 0 instructions: 227501221 cycles: 1666416350 heartbeat IPC: 0.1191 cumulative IPC: 0.1073 (Simulation time: 02 hr 49 min 44 sec)
Heartbeat CPU 0 instructions: 228001221 cycles: 1670495104 heartbeat IPC: 0.1226 cumulative IPC: 0.1073 (Simulation time: 02 hr 50 min 05 sec)
Heartbeat CPU 0 instructions: 228501228 cycles: 1674635796 heartbeat IPC: 0.1208 cumulative IPC: 0.1074 (Simulation time: 02 hr 50 min 26 sec)
Heartbeat CPU 0 instructions: 229001234 cycles: 1678863761 heartbeat IPC: 0.1183 cumulative IPC: 0.1074 (Simulation time: 02 hr 50 min 48 sec)
Heartbeat CPU 0 instructions: 229501240 cycles: 1683149213 heartbeat IPC: 0.1167 cumulative IPC: 0.1074 (Simulation time: 02 hr 51 min 10 sec)
Heartbeat CPU 0 instructions: 230001242 cycles: 1687219007 heartbeat IPC: 0.1229 cumulative IPC: 0.1075 (Simulation time: 02 hr 51 min 31 sec)
Heartbeat CPU 0 instructions: 230501242 cycles: 1691469230 heartbeat IPC: 0.1176 cumulative IPC: 0.1075 (Simulation time: 02 hr 51 min 53 sec)
Heartbeat CPU 0 instructions: 231001242 cycles: 1695806662 heartbeat IPC: 0.1153 cumulative IPC: 0.1075 (Simulation time: 02 hr 52 min 15 sec)
Heartbeat CPU 0 instructions: 231501242 cycles: 1700174005 heartbeat IPC: 0.1145 cumulative IPC: 0.1075 (Simulation time: 02 hr 52 min 37 sec)
Heartbeat CPU 0 instructions: 232001242 cycles: 1704428307 heartbeat IPC: 0.1175 cumulative IPC: 0.1076 (Simulation time: 02 hr 52 min 59 sec)
Heartbeat CPU 0 instructions: 232501243 cycles: 1708602925 heartbeat IPC: 0.1198 cumulative IPC: 0.1076 (Simulation time: 02 hr 53 min 21 sec)
Heartbeat CPU 0 instructions: 233001250 cycles: 1712608737 heartbeat IPC: 0.1248 cumulative IPC: 0.1076 (Simulation time: 02 hr 53 min 42 sec)
Heartbeat CPU 0 instructions: 233501256 cycles: 1716908765 heartbeat IPC: 0.1163 cumulative IPC: 0.1076 (Simulation time: 02 hr 54 min 04 sec)
Heartbeat CPU 0 instructions: 234001257 cycles: 1721526956 heartbeat IPC: 0.1083 cumulative IPC: 0.1076 (Simulation time: 02 hr 54 min 28 sec)
Heartbeat CPU 0 instructions: 234501259 cycles: 1725754043 heartbeat IPC: 0.1183 cumulative IPC: 0.1077 (Simulation time: 02 hr 54 min 50 sec)
Heartbeat CPU 0 instructions: 235001263 cycles: 1729954589 heartbeat IPC: 0.119 cumulative IPC: 0.1077 (Simulation time: 02 hr 55 min 11 sec)
Heartbeat CPU 0 instructions: 235501266 cycles: 1734383177 heartbeat IPC: 0.1129 cumulative IPC: 0.1077 (Simulation time: 02 hr 55 min 34 sec)
Heartbeat CPU 0 instructions: 236001266 cycles: 1738658324 heartbeat IPC: 0.117 cumulative IPC: 0.1077 (Simulation time: 02 hr 55 min 56 sec)
Heartbeat CPU 0 instructions: 236501272 cycles: 1742958994 heartbeat IPC: 0.1163 cumulative IPC: 0.1078 (Simulation time: 02 hr 56 min 18 sec)
Heartbeat CPU 0 instructions: 237001272 cycles: 1746983094 heartbeat IPC: 0.1243 cumulative IPC: 0.1078 (Simulation time: 02 hr 56 min 39 sec)
Heartbeat CPU 0 instructions: 237501272 cycles: 1750999439 heartbeat IPC: 0.1245 cumulative IPC: 0.1078 (Simulation time: 02 hr 56 min 59 sec)
Heartbeat CPU 0 instructions: 238001275 cycles: 1755198196 heartbeat IPC: 0.1191 cumulative IPC: 0.1079 (Simulation time: 02 hr 57 min 21 sec)
Heartbeat CPU 0 instructions: 238501282 cycles: 1759492385 heartbeat IPC: 0.1164 cumulative IPC: 0.1079 (Simulation time: 02 hr 57 min 43 sec)
Heartbeat CPU 0 instructions: 239001283 cycles: 1763806015 heartbeat IPC: 0.1159 cumulative IPC: 0.1079 (Simulation time: 02 hr 58 min 05 sec)
Heartbeat CPU 0 instructions: 239501288 cycles: 1767912782 heartbeat IPC: 0.1218 cumulative IPC: 0.1079 (Simulation time: 02 hr 58 min 26 sec)
Heartbeat CPU 0 instructions: 240001288 cycles: 1772145031 heartbeat IPC: 0.1181 cumulative IPC: 0.108 (Simulation time: 02 hr 58 min 48 sec)
Heartbeat CPU 0 instructions: 240501292 cycles: 1776392623 heartbeat IPC: 0.1177 cumulative IPC: 0.108 (Simulation time: 02 hr 59 min 10 sec)
Heartbeat CPU 0 instructions: 241001295 cycles: 1780469663 heartbeat IPC: 0.1226 cumulative IPC: 0.108 (Simulation time: 02 hr 59 min 31 sec)
Heartbeat CPU 0 instructions: 241501300 cycles: 1784518565 heartbeat IPC: 0.1235 cumulative IPC: 0.1081 (Simulation time: 02 hr 59 min 52 sec)
Heartbeat CPU 0 instructions: 242001306 cycles: 1788525533 heartbeat IPC: 0.1248 cumulative IPC: 0.1081 (Simulation time: 03 hr 00 min 13 sec)
Heartbeat CPU 0 instructions: 242501309 cycles: 1792592372 heartbeat IPC: 0.1229 cumulative IPC: 0.1081 (Simulation time: 03 hr 00 min 33 sec)
Heartbeat CPU 0 instructions: 243001314 cycles: 1796954760 heartbeat IPC: 0.1146 cumulative IPC: 0.1081 (Simulation time: 03 hr 00 min 56 sec)
Heartbeat CPU 0 instructions: 243501315 cycles: 1801074192 heartbeat IPC: 0.1214 cumulative IPC: 0.1082 (Simulation time: 03 hr 01 min 17 sec)
Heartbeat CPU 0 instructions: 244001316 cycles: 1805282487 heartbeat IPC: 0.1188 cumulative IPC: 0.1082 (Simulation time: 03 hr 01 min 39 sec)
Heartbeat CPU 0 instructions: 244501321 cycles: 1809640202 heartbeat IPC: 0.1147 cumulative IPC: 0.1082 (Simulation time: 03 hr 02 min 01 sec)
Heartbeat CPU 0 instructions: 245001328 cycles: 1813838112 heartbeat IPC: 0.1191 cumulative IPC: 0.1082 (Simulation time: 03 hr 02 min 23 sec)
Heartbeat CPU 0 instructions: 245501329 cycles: 1817841885 heartbeat IPC: 0.1249 cumulative IPC: 0.1083 (Simulation time: 03 hr 02 min 43 sec)
Heartbeat CPU 0 instructions: 246001332 cycles: 1821805503 heartbeat IPC: 0.1261 cumulative IPC: 0.1083 (Simulation time: 03 hr 03 min 04 sec)
Heartbeat CPU 0 instructions: 246501339 cycles: 1825886217 heartbeat IPC: 0.1225 cumulative IPC: 0.1083 (Simulation time: 03 hr 03 min 25 sec)
Heartbeat CPU 0 instructions: 247001340 cycles: 1830072430 heartbeat IPC: 0.1194 cumulative IPC: 0.1084 (Simulation time: 03 hr 03 min 46 sec)
Heartbeat CPU 0 instructions: 247501344 cycles: 1834263463 heartbeat IPC: 0.1193 cumulative IPC: 0.1084 (Simulation time: 03 hr 04 min 08 sec)
Heartbeat CPU 0 instructions: 248001345 cycles: 1838235585 heartbeat IPC: 0.1259 cumulative IPC: 0.1084 (Simulation time: 03 hr 04 min 28 sec)
Heartbeat CPU 0 instructions: 248501349 cycles: 1842237513 heartbeat IPC: 0.1249 cumulative IPC: 0.1085 (Simulation time: 03 hr 04 min 49 sec)
Heartbeat CPU 0 instructions: 249001353 cycles: 1846415512 heartbeat IPC: 0.1197 cumulative IPC: 0.1085 (Simulation time: 03 hr 05 min 10 sec)
Heartbeat CPU 0 instructions: 249501355 cycles: 1850600986 heartbeat IPC: 0.1195 cumulative IPC: 0.1085 (Simulation time: 03 hr 05 min 32 sec)
Simulation finished CPU 0 instructions: 200000000 cycles: 1842319354 cumulative IPC: 0.1086 (Simulation time: 03 hr 05 min 52 sec)
Simulation complete CPU 0 instructions: 200000000 cycles: 1842319354 cumulative IPC: 0.1086 (Simulation time: 03 hr 05 min 52 sec)

ChampSim completed all CPUs

=== Simulation ===
CPU 0 runs /local-ssd/ben/dpc4-traces/Graph/GAP/bc-12.trace.gz

Region of Interest Statistics

CPU 0 cumulative IPC: 0.1086 instructions: 200000000 cycles: 1842319354
CPU 0 Branch Prediction Accuracy: 84.19% MPKI: 27.85 Average ROB Occupancy at Mispredict: 43.08
Branch type MPKI
BRANCH_DIRECT_JUMP: 0
BRANCH_INDIRECT: 0
BRANCH_CONDITIONAL: 27.85
BRANCH_DIRECT_CALL: 0
BRANCH_INDIRECT_CALL: 0
BRANCH_RETURN: 0

cpu0->cpu0_STLB TOTAL        ACCESS:    8804356 HIT:    5303352 MISS:    3501004 MSHR_MERGE:          0
cpu0->cpu0_STLB LOAD         ACCESS:    8804356 HIT:    5303352 MISS:    3501004 MSHR_MERGE:          0
cpu0->cpu0_STLB RFO          ACCESS:          0 HIT:          0 MISS:          0 MSHR_MERGE:          0
cpu0->cpu0_STLB PREFETCH     ACCESS:          0 HIT:          0 MISS:          0 MSHR_MERGE:          0
cpu0->cpu0_STLB WRITE        ACCESS:          0 HIT:          0 MISS:          0 MSHR_MERGE:          0
cpu0->cpu0_STLB TRANSLATION  ACCESS:          0 HIT:          0 MISS:          0 MSHR_MERGE:          0
cpu0->cpu0_STLB PREFETCH REQUESTED:          0 ISSUED:          0 USEFUL:          0 USELESS:          0
cpu0->cpu0_STLB AVERAGE MISS LATENCY: 24.27 cycles
cpu0->cpu0_L2C TOTAL        ACCESS:   53891152 HIT:   24571470 MISS:   29319682 MSHR_MERGE:    1665129
cpu0->cpu0_L2C LOAD         ACCESS:   16004153 HIT:    6007726 MISS:    9996427 MSHR_MERGE:     161843
cpu0->cpu0_L2C RFO          ACCESS:      50411 HIT:      21458 MISS:      28953 MSHR_MERGE:          0
cpu0->cpu0_L2C PREFETCH     ACCESS:   30881888 HIT:   11627460 MISS:   19254428 MSHR_MERGE:    1503286
cpu0->cpu0_L2C WRITE        ACCESS:    5565847 HIT:    5565824 MISS:         23 MSHR_MERGE:          0
cpu0->cpu0_L2C TRANSLATION  ACCESS:    1388853 HIT:    1349002 MISS:      39851 MSHR_MERGE:          0
cpu0->cpu0_L2C PREFETCH REQUESTED:   24245653 ISSUED:   23562649 USEFUL:    2833574 USELESS:   10199907
cpu0->cpu0_L2C AVERAGE MISS LATENCY: 365.3 cycles
cpu0->cpu0_L1I TOTAL        ACCESS:     463514 HIT:     463514 MISS:          0 MSHR_MERGE:          0
cpu0->cpu0_L1I LOAD         ACCESS:     463514 HIT:     463514 MISS:          0 MSHR_MERGE:          0
cpu0->cpu0_L1I RFO          ACCESS:          0 HIT:          0 MISS:          0 MSHR_MERGE:          0
cpu0->cpu0_L1I PREFETCH     ACCESS:          0 HIT:          0 MISS:          0 MSHR_MERGE:          0
cpu0->cpu0_L1I WRITE        ACCESS:          0 HIT:          0 MISS:          0 MSHR_MERGE:          0
cpu0->cpu0_L1I TRANSLATION  ACCESS:          0 HIT:          0 MISS:          0 MSHR_MERGE:          0
cpu0->cpu0_L1I PREFETCH REQUESTED:          0 ISSUED:          0 USEFUL:          0 USELESS:          0
cpu0->cpu0_L1I AVERAGE MISS LATENCY: - cycles
cpu0->cpu0_L1D TOTAL        ACCESS:   79191313 HIT:   53873006 MISS:   25318307 MSHR_MERGE:     555663
cpu0->cpu0_L1D LOAD         ACCESS:   53098814 HIT:   36749903 MISS:   16348911 MSHR_MERGE:     344758
cpu0->cpu0_L1D RFO          ACCESS:          0 HIT:          0 MISS:          0 MSHR_MERGE:          0
cpu0->cpu0_L1D PREFETCH     ACCESS:    7979343 HIT:     570061 MISS:    7409282 MSHR_MERGE:      90058
cpu0->cpu0_L1D WRITE        ACCESS:   11239546 HIT:   11144736 MISS:      94810 MSHR_MERGE:      44396
cpu0->cpu0_L1D TRANSLATION  ACCESS:    6873610 HIT:    5408306 MISS:    1465304 MSHR_MERGE:      76451
cpu0->cpu0_L1D PREFETCH REQUESTED:   11678273 ISSUED:    7979340 USEFUL:    1239798 USELESS:    6079422
cpu0->cpu0_L1D AVERAGE MISS LATENCY: 222.3 cycles
cpu0->cpu0_ITLB TOTAL        ACCESS:     447317 HIT:     447317 MISS:          0 MSHR_MERGE:          0
cpu0->cpu0_ITLB LOAD         ACCESS:     447317 HIT:     447317 MISS:          0 MSHR_MERGE:          0
cpu0->cpu0_ITLB RFO          ACCESS:          0 HIT:          0 MISS:          0 MSHR_MERGE:          0
cpu0->cpu0_ITLB PREFETCH     ACCESS:          0 HIT:          0 MISS:          0 MSHR_MERGE:          0
cpu0->cpu0_ITLB WRITE        ACCESS:          0 HIT:          0 MISS:          0 MSHR_MERGE:          0
cpu0->cpu0_ITLB TRANSLATION  ACCESS:          0 HIT:          0 MISS:          0 MSHR_MERGE:          0
cpu0->cpu0_ITLB PREFETCH REQUESTED:          0 ISSUED:          0 USEFUL:          0 USELESS:          0
cpu0->cpu0_ITLB AVERAGE MISS LATENCY: - cycles
cpu0->cpu0_DTLB TOTAL        ACCESS:   70901611 HIT:   60389929 MISS:   10511682 MSHR_MERGE:    1707326
cpu0->cpu0_DTLB LOAD         ACCESS:   70901611 HIT:   60389929 MISS:   10511682 MSHR_MERGE:    1707326
cpu0->cpu0_DTLB RFO          ACCESS:          0 HIT:          0 MISS:          0 MSHR_MERGE:          0
cpu0->cpu0_DTLB PREFETCH     ACCESS:          0 HIT:          0 MISS:          0 MSHR_MERGE:          0
cpu0->cpu0_DTLB WRITE        ACCESS:          0 HIT:          0 MISS:          0 MSHR_MERGE:          0
cpu0->cpu0_DTLB TRANSLATION  ACCESS:          0 HIT:          0 MISS:          0 MSHR_MERGE:          0
cpu0->cpu0_DTLB PREFETCH REQUESTED:          0 ISSUED:          0 USEFUL:          0 USELESS:          0
cpu0->cpu0_DTLB AVERAGE MISS LATENCY: 15.05 cycles
cpu0->LLC TOTAL        ACCESS:   56294879 HIT:   20794078 MISS:   35500801 MSHR_MERGE:    4232767
cpu0->LLC LOAD         ACCESS:    9834582 HIT:    4127260 MISS:    5707322 MSHR_MERGE:     166090
cpu0->LLC RFO          ACCESS:      28953 HIT:        150 MISS:      28803 MSHR_MERGE:          0
cpu0->LLC PREFETCH     ACCESS:   41435848 HIT:   14584242 MISS:   26851606 MSHR_MERGE:    4066677
cpu0->LLC WRITE        ACCESS:    4955645 HIT:    2082390 MISS:    2873255 MSHR_MERGE:          0
cpu0->LLC TRANSLATION  ACCESS:      39851 HIT:         36 MISS:      39815 MSHR_MERGE:          0
cpu0->LLC PREFETCH REQUESTED:   23846381 ISSUED:   23684706 USEFUL:    1484803 USELESS:   10695018
cpu0->LLC AVERAGE MISS LATENCY: 393 cycles

DRAM Statistics

Channel 0 RQ ROW_BUFFER_HIT:    1002954
  ROW_BUFFER_MISS:   27376297
  AVG DBUS CONGESTED CYCLE: 4.058
Channel 0 WQ ROW_BUFFER_HIT:     100612
  ROW_BUFFER_MISS:    3257102
  FULL:          0
Channel 0 REFRESHES ISSUED:     153526
