[VMEM] WARNING: physical memory size is smaller than virtual memory size.

*** ChampSim Multicore Out-of-Order Simulator ***
Warmup Instructions: 50000000
Simulation Instructions: 200000000
Number of CPUs: 1
Page size: 4096
Core 0: /local-ssd/ben/dpc4-traces/gtraces_v2/yankee_0001.champsim.gz
sBerti (Smart Stride + Berti) Prefetcher Initialized
Off-chip DRAM Size: 64 GiB Channels: 1 Width: 64-bit Data Rate: 800 MT/s
[BTB] WARNING: target of return is a lower address than the corresponding call. This is usually a problem with your trace.
[BTB] WARNING: target of return is a lower address than the corresponding call. This is usually a problem with your trace.
[BTB] WARNING: target of return is a lower address than the corresponding call. This is usually a problem with your trace.
[BTB] WARNING: target of return is a lower address than the corresponding call. This is usually a problem with your trace.
[BTB] WARNING: target of return is a lower address than the corresponding call. This is usually a problem with your trace.
[BTB] WARNING: target of return is a lower address than the corresponding call. This is usually a problem with your trace.
[BTB] WARNING: target of return is a lower address than the corresponding call. This is usually a problem with your trace.
[BTB] WARNING: target of return is a lower address than the corresponding call. This is usually a problem with your trace.
Heartbeat CPU 0 instructions: 500002 cycles: 289230 heartbeat IPC: 1.729 cumulative IPC: 1.729 (Simulation time: 00 hr 00 min 05 sec)
[BTB] WARNING: target of return is a lower address than the corresponding call. This is usually a problem with your trace.
[BTB] WARNING: target of return is a lower address than the corresponding call. This is usually a problem with your trace.
Heartbeat CPU 0 instructions: 1000005 cycles: 530488 heartbeat IPC: 2.072 cumulative IPC: 1.885 (Simulation time: 00 hr 00 min 08 sec)
Heartbeat CPU 0 instructions: 1500010 cycles: 712032 heartbeat IPC: 2.754 cumulative IPC: 2.107 (Simulation time: 00 hr 00 min 11 sec)
Heartbeat CPU 0 instructions: 2000014 cycles: 859394 heartbeat IPC: 3.393 cumulative IPC: 2.327 (Simulation time: 00 hr 00 min 14 sec)
Heartbeat CPU 0 instructions: 2500014 cycles: 981710 heartbeat IPC: 4.088 cumulative IPC: 2.547 (Simulation time: 00 hr 00 min 16 sec)
Heartbeat CPU 0 instructions: 3000017 cycles: 1118494 heartbeat IPC: 3.655 cumulative IPC: 2.682 (Simulation time: 00 hr 00 min 18 sec)
Heartbeat CPU 0 instructions: 3500018 cycles: 1283760 heartbeat IPC: 3.025 cumulative IPC: 2.726 (Simulation time: 00 hr 00 min 21 sec)
Heartbeat CPU 0 instructions: 4000021 cycles: 1402643 heartbeat IPC: 4.206 cumulative IPC: 2.852 (Simulation time: 00 hr 00 min 23 sec)
Heartbeat CPU 0 instructions: 4500024 cycles: 1541688 heartbeat IPC: 3.596 cumulative IPC: 2.919 (Simulation time: 00 hr 00 min 26 sec)
Heartbeat CPU 0 instructions: 5000029 cycles: 1698817 heartbeat IPC: 3.182 cumulative IPC: 2.943 (Simulation time: 00 hr 00 min 28 sec)
Heartbeat CPU 0 instructions: 5500029 cycles: 1848209 heartbeat IPC: 3.347 cumulative IPC: 2.976 (Simulation time: 00 hr 00 min 30 sec)
Heartbeat CPU 0 instructions: 6000032 cycles: 1994332 heartbeat IPC: 3.422 cumulative IPC: 3.009 (Simulation time: 00 hr 00 min 33 sec)
Heartbeat CPU 0 instructions: 6500035 cycles: 2117531 heartbeat IPC: 4.058 cumulative IPC: 3.07 (Simulation time: 00 hr 00 min 35 sec)
Heartbeat CPU 0 instructions: 7000036 cycles: 2278242 heartbeat IPC: 3.111 cumulative IPC: 3.073 (Simulation time: 00 hr 00 min 38 sec)
Heartbeat CPU 0 instructions: 7500040 cycles: 2429703 heartbeat IPC: 3.301 cumulative IPC: 3.087 (Simulation time: 00 hr 00 min 41 sec)
Heartbeat CPU 0 instructions: 8000042 cycles: 2566947 heartbeat IPC: 3.643 cumulative IPC: 3.117 (Simulation time: 00 hr 00 min 43 sec)
Heartbeat CPU 0 instructions: 8500048 cycles: 2696875 heartbeat IPC: 3.848 cumulative IPC: 3.152 (Simulation time: 00 hr 00 min 45 sec)
Heartbeat CPU 0 instructions: 9000048 cycles: 2883244 heartbeat IPC: 2.683 cumulative IPC: 3.122 (Simulation time: 00 hr 00 min 48 sec)
Heartbeat CPU 0 instructions: 9500049 cycles: 3020229 heartbeat IPC: 3.65 cumulative IPC: 3.145 (Simulation time: 00 hr 00 min 51 sec)
Heartbeat CPU 0 instructions: 10000052 cycles: 3217810 heartbeat IPC: 2.531 cumulative IPC: 3.108 (Simulation time: 00 hr 00 min 54 sec)
Heartbeat CPU 0 instructions: 10500058 cycles: 3367822 heartbeat IPC: 3.333 cumulative IPC: 3.118 (Simulation time: 00 hr 00 min 56 sec)
Heartbeat CPU 0 instructions: 11000063 cycles: 3502252 heartbeat IPC: 3.719 cumulative IPC: 3.141 (Simulation time: 00 hr 00 min 59 sec)
Heartbeat CPU 0 instructions: 11500069 cycles: 3632658 heartbeat IPC: 3.834 cumulative IPC: 3.166 (Simulation time: 00 hr 01 min 01 sec)
Heartbeat CPU 0 instructions: 12000074 cycles: 3767552 heartbeat IPC: 3.707 cumulative IPC: 3.185 (Simulation time: 00 hr 01 min 03 sec)
Heartbeat CPU 0 instructions: 12500081 cycles: 3892030 heartbeat IPC: 4.017 cumulative IPC: 3.212 (Simulation time: 00 hr 01 min 05 sec)
Heartbeat CPU 0 instructions: 13000081 cycles: 4011242 heartbeat IPC: 4.194 cumulative IPC: 3.241 (Simulation time: 00 hr 01 min 08 sec)
Heartbeat CPU 0 instructions: 13500087 cycles: 4142251 heartbeat IPC: 3.817 cumulative IPC: 3.259 (Simulation time: 00 hr 01 min 10 sec)
Heartbeat CPU 0 instructions: 14000087 cycles: 4289862 heartbeat IPC: 3.387 cumulative IPC: 3.264 (Simulation time: 00 hr 01 min 12 sec)
Heartbeat CPU 0 instructions: 14500092 cycles: 4423272 heartbeat IPC: 3.748 cumulative IPC: 3.278 (Simulation time: 00 hr 01 min 15 sec)
Heartbeat CPU 0 instructions: 15000098 cycles: 4570693 heartbeat IPC: 3.392 cumulative IPC: 3.282 (Simulation time: 00 hr 01 min 17 sec)
Heartbeat CPU 0 instructions: 15500100 cycles: 4690027 heartbeat IPC: 4.19 cumulative IPC: 3.305 (Simulation time: 00 hr 01 min 19 sec)
Heartbeat CPU 0 instructions: 16000103 cycles: 4810992 heartbeat IPC: 4.133 cumulative IPC: 3.326 (Simulation time: 00 hr 01 min 21 sec)
Heartbeat CPU 0 instructions: 16500109 cycles: 4934714 heartbeat IPC: 4.041 cumulative IPC: 3.344 (Simulation time: 00 hr 01 min 23 sec)
Heartbeat CPU 0 instructions: 17000112 cycles: 5076799 heartbeat IPC: 3.519 cumulative IPC: 3.349 (Simulation time: 00 hr 01 min 26 sec)
Heartbeat CPU 0 instructions: 17500113 cycles: 5201340 heartbeat IPC: 4.015 cumulative IPC: 3.365 (Simulation time: 00 hr 01 min 28 sec)
Heartbeat CPU 0 instructions: 18000115 cycles: 5327113 heartbeat IPC: 3.975 cumulative IPC: 3.379 (Simulation time: 00 hr 01 min 30 sec)
Heartbeat CPU 0 instructions: 18500118 cycles: 5447550 heartbeat IPC: 4.152 cumulative IPC: 3.396 (Simulation time: 00 hr 01 min 32 sec)
Heartbeat CPU 0 instructions: 19000119 cycles: 5569070 heartbeat IPC: 4.115 cumulative IPC: 3.412 (Simulation time: 00 hr 01 min 34 sec)
Heartbeat CPU 0 instructions: 19500125 cycles: 5685392 heartbeat IPC: 4.298 cumulative IPC: 3.43 (Simulation time: 00 hr 01 min 36 sec)
Heartbeat CPU 0 instructions: 20000128 cycles: 5852759 heartbeat IPC: 2.987 cumulative IPC: 3.417 (Simulation time: 00 hr 01 min 39 sec)
Heartbeat CPU 0 instructions: 20500133 cycles: 6008517 heartbeat IPC: 3.21 cumulative IPC: 3.412 (Simulation time: 00 hr 01 min 42 sec)
Heartbeat CPU 0 instructions: 21000138 cycles: 6140291 heartbeat IPC: 3.794 cumulative IPC: 3.42 (Simulation time: 00 hr 01 min 44 sec)
Heartbeat CPU 0 instructions: 21500141 cycles: 6270402 heartbeat IPC: 3.843 cumulative IPC: 3.429 (Simulation time: 00 hr 01 min 46 sec)
Heartbeat CPU 0 instructions: 22000145 cycles: 6400208 heartbeat IPC: 3.852 cumulative IPC: 3.437 (Simulation time: 00 hr 01 min 49 sec)
Heartbeat CPU 0 instructions: 22500149 cycles: 6554396 heartbeat IPC: 3.243 cumulative IPC: 3.433 (Simulation time: 00 hr 01 min 51 sec)
Heartbeat CPU 0 instructions: 23000153 cycles: 6681022 heartbeat IPC: 3.949 cumulative IPC: 3.443 (Simulation time: 00 hr 01 min 53 sec)
Heartbeat CPU 0 instructions: 23500158 cycles: 6819451 heartbeat IPC: 3.612 cumulative IPC: 3.446 (Simulation time: 00 hr 01 min 56 sec)
Heartbeat CPU 0 instructions: 24000161 cycles: 6944916 heartbeat IPC: 3.985 cumulative IPC: 3.456 (Simulation time: 00 hr 01 min 58 sec)
Heartbeat CPU 0 instructions: 24500166 cycles: 7073479 heartbeat IPC: 3.889 cumulative IPC: 3.464 (Simulation time: 00 hr 02 min 00 sec)
Heartbeat CPU 0 instructions: 25000169 cycles: 7228796 heartbeat IPC: 3.219 cumulative IPC: 3.458 (Simulation time: 00 hr 02 min 03 sec)
Heartbeat CPU 0 instructions: 25500171 cycles: 7388095 heartbeat IPC: 3.139 cumulative IPC: 3.452 (Simulation time: 00 hr 02 min 06 sec)
Heartbeat CPU 0 instructions: 26000175 cycles: 7538198 heartbeat IPC: 3.331 cumulative IPC: 3.449 (Simulation time: 00 hr 02 min 09 sec)
Heartbeat CPU 0 instructions: 26500180 cycles: 7664040 heartbeat IPC: 3.973 cumulative IPC: 3.458 (Simulation time: 00 hr 02 min 11 sec)
Heartbeat CPU 0 instructions: 27000181 cycles: 7812533 heartbeat IPC: 3.367 cumulative IPC: 3.456 (Simulation time: 00 hr 02 min 13 sec)
Heartbeat CPU 0 instructions: 27500181 cycles: 7933581 heartbeat IPC: 4.131 cumulative IPC: 3.466 (Simulation time: 00 hr 02 min 16 sec)
Heartbeat CPU 0 instructions: 28000184 cycles: 8059649 heartbeat IPC: 3.966 cumulative IPC: 3.474 (Simulation time: 00 hr 02 min 18 sec)
Heartbeat CPU 0 instructions: 28500184 cycles: 8190378 heartbeat IPC: 3.825 cumulative IPC: 3.48 (Simulation time: 00 hr 02 min 20 sec)
Heartbeat CPU 0 instructions: 29000190 cycles: 8312090 heartbeat IPC: 4.108 cumulative IPC: 3.489 (Simulation time: 00 hr 02 min 22 sec)
Heartbeat CPU 0 instructions: 29500195 cycles: 8466778 heartbeat IPC: 3.232 cumulative IPC: 3.484 (Simulation time: 00 hr 02 min 25 sec)
Heartbeat CPU 0 instructions: 30000196 cycles: 8615283 heartbeat IPC: 3.367 cumulative IPC: 3.482 (Simulation time: 00 hr 02 min 28 sec)
Heartbeat CPU 0 instructions: 30500202 cycles: 8760817 heartbeat IPC: 3.436 cumulative IPC: 3.481 (Simulation time: 00 hr 02 min 30 sec)
Heartbeat CPU 0 instructions: 31000206 cycles: 8888820 heartbeat IPC: 3.906 cumulative IPC: 3.488 (Simulation time: 00 hr 02 min 33 sec)
Heartbeat CPU 0 instructions: 31500210 cycles: 9041252 heartbeat IPC: 3.28 cumulative IPC: 3.484 (Simulation time: 00 hr 02 min 35 sec)
Heartbeat CPU 0 instructions: 32000212 cycles: 9168458 heartbeat IPC: 3.931 cumulative IPC: 3.49 (Simulation time: 00 hr 02 min 37 sec)
Heartbeat CPU 0 instructions: 32500213 cycles: 9289758 heartbeat IPC: 4.122 cumulative IPC: 3.498 (Simulation time: 00 hr 02 min 39 sec)
Heartbeat CPU 0 instructions: 33000217 cycles: 9411195 heartbeat IPC: 4.117 cumulative IPC: 3.506 (Simulation time: 00 hr 02 min 41 sec)
Heartbeat CPU 0 instructions: 33500218 cycles: 9535878 heartbeat IPC: 4.01 cumulative IPC: 3.513 (Simulation time: 00 hr 02 min 44 sec)
Heartbeat CPU 0 instructions: 34000219 cycles: 9660579 heartbeat IPC: 4.01 cumulative IPC: 3.519 (Simulation time: 00 hr 02 min 46 sec)
Heartbeat CPU 0 instructions: 34500225 cycles: 9786319 heartbeat IPC: 3.977 cumulative IPC: 3.525 (Simulation time: 00 hr 02 min 48 sec)
Heartbeat CPU 0 instructions: 35000228 cycles: 9923139 heartbeat IPC: 3.654 cumulative IPC: 3.527 (Simulation time: 00 hr 02 min 51 sec)
Heartbeat CPU 0 instructions: 35500228 cycles: 10070908 heartbeat IPC: 3.384 cumulative IPC: 3.525 (Simulation time: 00 hr 02 min 53 sec)
Heartbeat CPU 0 instructions: 36000230 cycles: 10215166 heartbeat IPC: 3.466 cumulative IPC: 3.524 (Simulation time: 00 hr 02 min 56 sec)
Heartbeat CPU 0 instructions: 36500233 cycles: 10393043 heartbeat IPC: 2.811 cumulative IPC: 3.512 (Simulation time: 00 hr 02 min 59 sec)
Heartbeat CPU 0 instructions: 37000235 cycles: 10546267 heartbeat IPC: 3.263 cumulative IPC: 3.508 (Simulation time: 00 hr 03 min 02 sec)
Heartbeat CPU 0 instructions: 37500241 cycles: 10684604 heartbeat IPC: 3.614 cumulative IPC: 3.51 (Simulation time: 00 hr 03 min 04 sec)
Heartbeat CPU 0 instructions: 38000247 cycles: 10841810 heartbeat IPC: 3.181 cumulative IPC: 3.505 (Simulation time: 00 hr 03 min 07 sec)
Heartbeat CPU 0 instructions: 38500248 cycles: 10981129 heartbeat IPC: 3.589 cumulative IPC: 3.506 (Simulation time: 00 hr 03 min 10 sec)
Heartbeat CPU 0 instructions: 39000250 cycles: 11111987 heartbeat IPC: 3.821 cumulative IPC: 3.51 (Simulation time: 00 hr 03 min 12 sec)
Heartbeat CPU 0 instructions: 39500256 cycles: 11250848 heartbeat IPC: 3.601 cumulative IPC: 3.511 (Simulation time: 00 hr 03 min 15 sec)
Heartbeat CPU 0 instructions: 40000259 cycles: 11390017 heartbeat IPC: 3.593 cumulative IPC: 3.512 (Simulation time: 00 hr 03 min 17 sec)
Heartbeat CPU 0 instructions: 40500265 cycles: 11532579 heartbeat IPC: 3.507 cumulative IPC: 3.512 (Simulation time: 00 hr 03 min 20 sec)
Heartbeat CPU 0 instructions: 41000267 cycles: 11643957 heartbeat IPC: 4.489 cumulative IPC: 3.521 (Simulation time: 00 hr 03 min 21 sec)
Heartbeat CPU 0 instructions: 41500269 cycles: 11766673 heartbeat IPC: 4.074 cumulative IPC: 3.527 (Simulation time: 00 hr 03 min 23 sec)
Heartbeat CPU 0 instructions: 42000273 cycles: 11886977 heartbeat IPC: 4.156 cumulative IPC: 3.533 (Simulation time: 00 hr 03 min 25 sec)
Heartbeat CPU 0 instructions: 42500277 cycles: 12044749 heartbeat IPC: 3.169 cumulative IPC: 3.529 (Simulation time: 00 hr 03 min 28 sec)
Heartbeat CPU 0 instructions: 43000283 cycles: 12174806 heartbeat IPC: 3.845 cumulative IPC: 3.532 (Simulation time: 00 hr 03 min 30 sec)
Heartbeat CPU 0 instructions: 43500287 cycles: 12324311 heartbeat IPC: 3.344 cumulative IPC: 3.53 (Simulation time: 00 hr 03 min 33 sec)
Heartbeat CPU 0 instructions: 44000289 cycles: 12446997 heartbeat IPC: 4.075 cumulative IPC: 3.535 (Simulation time: 00 hr 03 min 35 sec)
Heartbeat CPU 0 instructions: 44500291 cycles: 12571096 heartbeat IPC: 4.029 cumulative IPC: 3.54 (Simulation time: 00 hr 03 min 37 sec)
Heartbeat CPU 0 instructions: 45000298 cycles: 12676693 heartbeat IPC: 4.735 cumulative IPC: 3.55 (Simulation time: 00 hr 03 min 39 sec)
Heartbeat CPU 0 instructions: 45500301 cycles: 12779833 heartbeat IPC: 4.848 cumulative IPC: 3.56 (Simulation time: 00 hr 03 min 41 sec)
Heartbeat CPU 0 instructions: 46000302 cycles: 12882528 heartbeat IPC: 4.869 cumulative IPC: 3.571 (Simulation time: 00 hr 03 min 43 sec)
Heartbeat CPU 0 instructions: 46500304 cycles: 13001901 heartbeat IPC: 4.189 cumulative IPC: 3.576 (Simulation time: 00 hr 03 min 45 sec)
Heartbeat CPU 0 instructions: 47000311 cycles: 13119967 heartbeat IPC: 4.235 cumulative IPC: 3.582 (Simulation time: 00 hr 03 min 47 sec)
Heartbeat CPU 0 instructions: 47500313 cycles: 13237577 heartbeat IPC: 4.251 cumulative IPC: 3.588 (Simulation time: 00 hr 03 min 49 sec)
Heartbeat CPU 0 instructions: 48000316 cycles: 13369028 heartbeat IPC: 3.804 cumulative IPC: 3.59 (Simulation time: 00 hr 03 min 51 sec)
Heartbeat CPU 0 instructions: 48500321 cycles: 13527097 heartbeat IPC: 3.163 cumulative IPC: 3.585 (Simulation time: 00 hr 03 min 54 sec)
Heartbeat CPU 0 instructions: 49000325 cycles: 13670587 heartbeat IPC: 3.485 cumulative IPC: 3.584 (Simulation time: 00 hr 03 min 56 sec)
Heartbeat CPU 0 instructions: 49500328 cycles: 13804508 heartbeat IPC: 3.734 cumulative IPC: 3.586 (Simulation time: 00 hr 03 min 59 sec)
Warmup halting CPU 0 at instruction 50000006 cycle 13953878 for remainder of phase
Warmup finished CPU 0 instructions: 50000006 cycles: 13953878 cumulative IPC: 3.583 (Simulation time: 00 hr 04 min 01 sec)
Warmup complete CPU 0 instructions: 50000006 cycles: 13953878 cumulative IPC: 3.583 (Simulation time: 00 hr 04 min 01 sec)
Heartbeat CPU 0 instructions: 50000328 cycles: 13953933 heartbeat IPC: 3.346 cumulative IPC: 5.855 (Simulation time: 00 hr 04 min 01 sec)
Heartbeat CPU 0 instructions: 50500329 cycles: 15206294 heartbeat IPC: 0.3992 cumulative IPC: 0.3995 (Simulation time: 00 hr 04 min 10 sec)
Heartbeat CPU 0 instructions: 51000331 cycles: 16466623 heartbeat IPC: 0.3967 cumulative IPC: 0.3981 (Simulation time: 00 hr 04 min 18 sec)
Heartbeat CPU 0 instructions: 51500338 cycles: 18822172 heartbeat IPC: 0.2123 cumulative IPC: 0.3082 (Simulation time: 00 hr 04 min 33 sec)
Heartbeat CPU 0 instructions: 52000338 cycles: 19928507 heartbeat IPC: 0.4519 cumulative IPC: 0.3348 (Simulation time: 00 hr 04 min 41 sec)
Heartbeat CPU 0 instructions: 52500340 cycles: 20779576 heartbeat IPC: 0.5875 cumulative IPC: 0.3663 (Simulation time: 00 hr 04 min 47 sec)
Heartbeat CPU 0 instructions: 53000340 cycles: 22406384 heartbeat IPC: 0.3074 cumulative IPC: 0.355 (Simulation time: 00 hr 04 min 58 sec)
Heartbeat CPU 0 instructions: 53500340 cycles: 25119535 heartbeat IPC: 0.1843 cumulative IPC: 0.3135 (Simulation time: 00 hr 05 min 15 sec)
Heartbeat CPU 0 instructions: 54000344 cycles: 26744483 heartbeat IPC: 0.3077 cumulative IPC: 0.3128 (Simulation time: 00 hr 05 min 25 sec)
Heartbeat CPU 0 instructions: 54500345 cycles: 28546497 heartbeat IPC: 0.2775 cumulative IPC: 0.3084 (Simulation time: 00 hr 05 min 36 sec)
Heartbeat CPU 0 instructions: 55000345 cycles: 30189867 heartbeat IPC: 0.3043 cumulative IPC: 0.308 (Simulation time: 00 hr 05 min 48 sec)
Heartbeat CPU 0 instructions: 55500347 cycles: 31214077 heartbeat IPC: 0.4882 cumulative IPC: 0.3187 (Simulation time: 00 hr 05 min 56 sec)
Heartbeat CPU 0 instructions: 56000354 cycles: 32436700 heartbeat IPC: 0.409 cumulative IPC: 0.3246 (Simulation time: 00 hr 06 min 04 sec)
Heartbeat CPU 0 instructions: 56500354 cycles: 33226242 heartbeat IPC: 0.6333 cumulative IPC: 0.3373 (Simulation time: 00 hr 06 min 10 sec)
Heartbeat CPU 0 instructions: 57000360 cycles: 34444087 heartbeat IPC: 0.4106 cumulative IPC: 0.3416 (Simulation time: 00 hr 06 min 18 sec)
Heartbeat CPU 0 instructions: 57500360 cycles: 35489360 heartbeat IPC: 0.4783 cumulative IPC: 0.3483 (Simulation time: 00 hr 06 min 25 sec)
Heartbeat CPU 0 instructions: 58000360 cycles: 36381318 heartbeat IPC: 0.5606 cumulative IPC: 0.3567 (Simulation time: 00 hr 06 min 32 sec)
Heartbeat CPU 0 instructions: 58500364 cycles: 37359161 heartbeat IPC: 0.5113 cumulative IPC: 0.3632 (Simulation time: 00 hr 06 min 39 sec)
Heartbeat CPU 0 instructions: 59000367 cycles: 40243190 heartbeat IPC: 0.1734 cumulative IPC: 0.3424 (Simulation time: 00 hr 06 min 56 sec)
Heartbeat CPU 0 instructions: 59500369 cycles: 41053583 heartbeat IPC: 0.617 cumulative IPC: 0.3506 (Simulation time: 00 hr 07 min 03 sec)
Heartbeat CPU 0 instructions: 60000369 cycles: 42593553 heartbeat IPC: 0.3247 cumulative IPC: 0.3492 (Simulation time: 00 hr 07 min 13 sec)
Heartbeat CPU 0 instructions: 60500369 cycles: 45778648 heartbeat IPC: 0.157 cumulative IPC: 0.3299 (Simulation time: 00 hr 07 min 32 sec)
Heartbeat CPU 0 instructions: 61000372 cycles: 47442306 heartbeat IPC: 0.3005 cumulative IPC: 0.3285 (Simulation time: 00 hr 07 min 43 sec)
Heartbeat CPU 0 instructions: 61500378 cycles: 48198505 heartbeat IPC: 0.6612 cumulative IPC: 0.3358 (Simulation time: 00 hr 07 min 49 sec)
Heartbeat CPU 0 instructions: 62000378 cycles: 49004537 heartbeat IPC: 0.6203 cumulative IPC: 0.3424 (Simulation time: 00 hr 07 min 55 sec)
Heartbeat CPU 0 instructions: 62500378 cycles: 49935661 heartbeat IPC: 0.537 cumulative IPC: 0.3474 (Simulation time: 00 hr 08 min 01 sec)
Heartbeat CPU 0 instructions: 63000378 cycles: 51772193 heartbeat IPC: 0.2723 cumulative IPC: 0.3438 (Simulation time: 00 hr 08 min 13 sec)
Heartbeat CPU 0 instructions: 63500378 cycles: 53002944 heartbeat IPC: 0.4063 cumulative IPC: 0.3457 (Simulation time: 00 hr 08 min 21 sec)
Heartbeat CPU 0 instructions: 64000378 cycles: 53831642 heartbeat IPC: 0.6034 cumulative IPC: 0.3511 (Simulation time: 00 hr 08 min 27 sec)
Heartbeat CPU 0 instructions: 64500378 cycles: 54561090 heartbeat IPC: 0.6854 cumulative IPC: 0.3571 (Simulation time: 00 hr 08 min 32 sec)
Heartbeat CPU 0 instructions: 65000382 cycles: 56890901 heartbeat IPC: 0.2146 cumulative IPC: 0.3494 (Simulation time: 00 hr 08 min 46 sec)
Heartbeat CPU 0 instructions: 65500389 cycles: 58316534 heartbeat IPC: 0.3507 cumulative IPC: 0.3494 (Simulation time: 00 hr 08 min 55 sec)
Heartbeat CPU 0 instructions: 66000390 cycles: 59126813 heartbeat IPC: 0.6171 cumulative IPC: 0.3542 (Simulation time: 00 hr 09 min 01 sec)
Heartbeat CPU 0 instructions: 66500390 cycles: 60176299 heartbeat IPC: 0.4764 cumulative IPC: 0.357 (Simulation time: 00 hr 09 min 08 sec)
Heartbeat CPU 0 instructions: 67000396 cycles: 62259018 heartbeat IPC: 0.2401 cumulative IPC: 0.3519 (Simulation time: 00 hr 09 min 20 sec)
Heartbeat CPU 0 instructions: 67500396 cycles: 64315282 heartbeat IPC: 0.2432 cumulative IPC: 0.3475 (Simulation time: 00 hr 09 min 33 sec)
Heartbeat CPU 0 instructions: 68000400 cycles: 65791404 heartbeat IPC: 0.3387 cumulative IPC: 0.3472 (Simulation time: 00 hr 09 min 43 sec)
Heartbeat CPU 0 instructions: 68500402 cycles: 67395923 heartbeat IPC: 0.3116 cumulative IPC: 0.3462 (Simulation time: 00 hr 09 min 53 sec)
Heartbeat CPU 0 instructions: 69000402 cycles: 69092826 heartbeat IPC: 0.2947 cumulative IPC: 0.3446 (Simulation time: 00 hr 10 min 03 sec)
Heartbeat CPU 0 instructions: 69500402 cycles: 69745208 heartbeat IPC: 0.7664 cumulative IPC: 0.3495 (Simulation time: 00 hr 10 min 08 sec)
Heartbeat CPU 0 instructions: 70000402 cycles: 70588714 heartbeat IPC: 0.5928 cumulative IPC: 0.3531 (Simulation time: 00 hr 10 min 14 sec)
Heartbeat CPU 0 instructions: 70500406 cycles: 71926396 heartbeat IPC: 0.3738 cumulative IPC: 0.3536 (Simulation time: 00 hr 10 min 23 sec)
Heartbeat CPU 0 instructions: 71000406 cycles: 73297409 heartbeat IPC: 0.3647 cumulative IPC: 0.3539 (Simulation time: 00 hr 10 min 32 sec)
Heartbeat CPU 0 instructions: 71500407 cycles: 74350316 heartbeat IPC: 0.4749 cumulative IPC: 0.356 (Simulation time: 00 hr 10 min 39 sec)
Heartbeat CPU 0 instructions: 72000413 cycles: 77148126 heartbeat IPC: 0.1787 cumulative IPC: 0.3481 (Simulation time: 00 hr 10 min 56 sec)
Heartbeat CPU 0 instructions: 72500414 cycles: 79394558 heartbeat IPC: 0.2226 cumulative IPC: 0.3438 (Simulation time: 00 hr 11 min 10 sec)
Heartbeat CPU 0 instructions: 73000415 cycles: 80768150 heartbeat IPC: 0.364 cumulative IPC: 0.3442 (Simulation time: 00 hr 11 min 19 sec)
Heartbeat CPU 0 instructions: 73500418 cycles: 82583045 heartbeat IPC: 0.2755 cumulative IPC: 0.3424 (Simulation time: 00 hr 11 min 30 sec)
Heartbeat CPU 0 instructions: 74000420 cycles: 83881700 heartbeat IPC: 0.385 cumulative IPC: 0.3432 (Simulation time: 00 hr 11 min 39 sec)
Heartbeat CPU 0 instructions: 74500421 cycles: 84746431 heartbeat IPC: 0.5782 cumulative IPC: 0.3461 (Simulation time: 00 hr 11 min 45 sec)
Heartbeat CPU 0 instructions: 75000421 cycles: 85825864 heartbeat IPC: 0.4632 cumulative IPC: 0.3478 (Simulation time: 00 hr 11 min 52 sec)
Heartbeat CPU 0 instructions: 75500425 cycles: 87370370 heartbeat IPC: 0.3237 cumulative IPC: 0.3473 (Simulation time: 00 hr 12 min 02 sec)
Heartbeat CPU 0 instructions: 76000427 cycles: 90615467 heartbeat IPC: 0.1541 cumulative IPC: 0.3392 (Simulation time: 00 hr 12 min 22 sec)
Heartbeat CPU 0 instructions: 76500427 cycles: 92114018 heartbeat IPC: 0.3337 cumulative IPC: 0.3391 (Simulation time: 00 hr 12 min 32 sec)
Heartbeat CPU 0 instructions: 77000430 cycles: 93187564 heartbeat IPC: 0.4657 cumulative IPC: 0.3408 (Simulation time: 00 hr 12 min 39 sec)
Heartbeat CPU 0 instructions: 77500434 cycles: 94614969 heartbeat IPC: 0.3503 cumulative IPC: 0.3409 (Simulation time: 00 hr 12 min 48 sec)
Heartbeat CPU 0 instructions: 78000434 cycles: 96629092 heartbeat IPC: 0.2482 cumulative IPC: 0.3387 (Simulation time: 00 hr 13 min 01 sec)
Heartbeat CPU 0 instructions: 78500437 cycles: 97339985 heartbeat IPC: 0.7033 cumulative IPC: 0.3418 (Simulation time: 00 hr 13 min 06 sec)
Heartbeat CPU 0 instructions: 79000437 cycles: 97695066 heartbeat IPC: 1.408 cumulative IPC: 0.3463 (Simulation time: 00 hr 13 min 09 sec)
Heartbeat CPU 0 instructions: 79500438 cycles: 98515247 heartbeat IPC: 0.6096 cumulative IPC: 0.3489 (Simulation time: 00 hr 13 min 15 sec)
Heartbeat CPU 0 instructions: 80000442 cycles: 99308475 heartbeat IPC: 0.6303 cumulative IPC: 0.3515 (Simulation time: 00 hr 13 min 21 sec)
Heartbeat CPU 0 instructions: 80500442 cycles: 100900456 heartbeat IPC: 0.3141 cumulative IPC: 0.3508 (Simulation time: 00 hr 13 min 31 sec)
Heartbeat CPU 0 instructions: 81000444 cycles: 101776605 heartbeat IPC: 0.5707 cumulative IPC: 0.353 (Simulation time: 00 hr 13 min 37 sec)
Heartbeat CPU 0 instructions: 81500445 cycles: 102472656 heartbeat IPC: 0.7183 cumulative IPC: 0.3559 (Simulation time: 00 hr 13 min 43 sec)
Heartbeat CPU 0 instructions: 82000448 cycles: 104370770 heartbeat IPC: 0.2634 cumulative IPC: 0.3539 (Simulation time: 00 hr 13 min 54 sec)
Heartbeat CPU 0 instructions: 82500449 cycles: 107725871 heartbeat IPC: 0.149 cumulative IPC: 0.3466 (Simulation time: 00 hr 14 min 15 sec)
Heartbeat CPU 0 instructions: 83000452 cycles: 109980933 heartbeat IPC: 0.2217 cumulative IPC: 0.3437 (Simulation time: 00 hr 14 min 28 sec)
Heartbeat CPU 0 instructions: 83500459 cycles: 111774130 heartbeat IPC: 0.2788 cumulative IPC: 0.3425 (Simulation time: 00 hr 14 min 40 sec)
Heartbeat CPU 0 instructions: 84000459 cycles: 113006612 heartbeat IPC: 0.4057 cumulative IPC: 0.3433 (Simulation time: 00 hr 14 min 48 sec)
Heartbeat CPU 0 instructions: 84500459 cycles: 113827505 heartbeat IPC: 0.6091 cumulative IPC: 0.3454 (Simulation time: 00 hr 14 min 54 sec)
Heartbeat CPU 0 instructions: 85000460 cycles: 115710497 heartbeat IPC: 0.2655 cumulative IPC: 0.344 (Simulation time: 00 hr 15 min 05 sec)
Heartbeat CPU 0 instructions: 85500460 cycles: 118000349 heartbeat IPC: 0.2184 cumulative IPC: 0.3412 (Simulation time: 00 hr 15 min 19 sec)
Heartbeat CPU 0 instructions: 86000460 cycles: 119494434 heartbeat IPC: 0.3347 cumulative IPC: 0.3411 (Simulation time: 00 hr 15 min 28 sec)
Heartbeat CPU 0 instructions: 86500460 cycles: 121245991 heartbeat IPC: 0.2855 cumulative IPC: 0.3402 (Simulation time: 00 hr 15 min 39 sec)
Heartbeat CPU 0 instructions: 87000462 cycles: 123426686 heartbeat IPC: 0.2293 cumulative IPC: 0.338 (Simulation time: 00 hr 15 min 53 sec)
Heartbeat CPU 0 instructions: 87500463 cycles: 124475496 heartbeat IPC: 0.4767 cumulative IPC: 0.3393 (Simulation time: 00 hr 16 min 00 sec)
Heartbeat CPU 0 instructions: 88000470 cycles: 125185819 heartbeat IPC: 0.7039 cumulative IPC: 0.3416 (Simulation time: 00 hr 16 min 05 sec)
Heartbeat CPU 0 instructions: 88500474 cycles: 127053688 heartbeat IPC: 0.2677 cumulative IPC: 0.3404 (Simulation time: 00 hr 16 min 16 sec)
Heartbeat CPU 0 instructions: 89000475 cycles: 129618571 heartbeat IPC: 0.1949 cumulative IPC: 0.3372 (Simulation time: 00 hr 16 min 32 sec)
Heartbeat CPU 0 instructions: 89500476 cycles: 131525779 heartbeat IPC: 0.2622 cumulative IPC: 0.336 (Simulation time: 00 hr 16 min 44 sec)
Heartbeat CPU 0 instructions: 90000476 cycles: 133114041 heartbeat IPC: 0.3148 cumulative IPC: 0.3357 (Simulation time: 00 hr 16 min 54 sec)
Heartbeat CPU 0 instructions: 90500479 cycles: 134386174 heartbeat IPC: 0.393 cumulative IPC: 0.3363 (Simulation time: 00 hr 17 min 02 sec)
Heartbeat CPU 0 instructions: 91000479 cycles: 135377427 heartbeat IPC: 0.5044 cumulative IPC: 0.3377 (Simulation time: 00 hr 17 min 09 sec)
Heartbeat CPU 0 instructions: 91500479 cycles: 136088518 heartbeat IPC: 0.7031 cumulative IPC: 0.3398 (Simulation time: 00 hr 17 min 14 sec)
Heartbeat CPU 0 instructions: 92000482 cycles: 136351473 heartbeat IPC: 1.901 cumulative IPC: 0.3431 (Simulation time: 00 hr 17 min 17 sec)
Heartbeat CPU 0 instructions: 92500482 cycles: 136667489 heartbeat IPC: 1.582 cumulative IPC: 0.3463 (Simulation time: 00 hr 17 min 20 sec)
Heartbeat CPU 0 instructions: 93000483 cycles: 137435339 heartbeat IPC: 0.6512 cumulative IPC: 0.3482 (Simulation time: 00 hr 17 min 26 sec)
Heartbeat CPU 0 instructions: 93500486 cycles: 139966360 heartbeat IPC: 0.1975 cumulative IPC: 0.3452 (Simulation time: 00 hr 17 min 42 sec)
Heartbeat CPU 0 instructions: 94000491 cycles: 141696198 heartbeat IPC: 0.289 cumulative IPC: 0.3444 (Simulation time: 00 hr 17 min 53 sec)
Heartbeat CPU 0 instructions: 94500496 cycles: 142924465 heartbeat IPC: 0.4071 cumulative IPC: 0.345 (Simulation time: 00 hr 18 min 01 sec)
Heartbeat CPU 0 instructions: 95000503 cycles: 143692024 heartbeat IPC: 0.6514 cumulative IPC: 0.3469 (Simulation time: 00 hr 18 min 06 sec)
Heartbeat CPU 0 instructions: 95500504 cycles: 144262801 heartbeat IPC: 0.876 cumulative IPC: 0.3492 (Simulation time: 00 hr 18 min 11 sec)
Heartbeat CPU 0 instructions: 96000508 cycles: 144957491 heartbeat IPC: 0.7198 cumulative IPC: 0.3511 (Simulation time: 00 hr 18 min 16 sec)
Heartbeat CPU 0 instructions: 96500509 cycles: 145420745 heartbeat IPC: 1.079 cumulative IPC: 0.3537 (Simulation time: 00 hr 18 min 19 sec)
Heartbeat CPU 0 instructions: 97000515 cycles: 145717492 heartbeat IPC: 1.685 cumulative IPC: 0.3567 (Simulation time: 00 hr 18 min 22 sec)
Heartbeat CPU 0 instructions: 97500516 cycles: 145972828 heartbeat IPC: 1.958 cumulative IPC: 0.3598 (Simulation time: 00 hr 18 min 25 sec)
Heartbeat CPU 0 instructions: 98000517 cycles: 147042223 heartbeat IPC: 0.4676 cumulative IPC: 0.3607 (Simulation time: 00 hr 18 min 32 sec)
Heartbeat CPU 0 instructions: 98500519 cycles: 147487264 heartbeat IPC: 1.123 cumulative IPC: 0.3632 (Simulation time: 00 hr 18 min 36 sec)
Heartbeat CPU 0 instructions: 99000520 cycles: 147702825 heartbeat IPC: 2.32 cumulative IPC: 0.3664 (Simulation time: 00 hr 18 min 38 sec)
Heartbeat CPU 0 instructions: 99500521 cycles: 148479899 heartbeat IPC: 0.6434 cumulative IPC: 0.368 (Simulation time: 00 hr 18 min 44 sec)
Heartbeat CPU 0 instructions: 100000523 cycles: 150380540 heartbeat IPC: 0.2631 cumulative IPC: 0.3665 (Simulation time: 00 hr 18 min 55 sec)
Heartbeat CPU 0 instructions: 100500523 cycles: 152327676 heartbeat IPC: 0.2568 cumulative IPC: 0.365 (Simulation time: 00 hr 19 min 08 sec)
Heartbeat CPU 0 instructions: 101000526 cycles: 153256113 heartbeat IPC: 0.5385 cumulative IPC: 0.3661 (Simulation time: 00 hr 19 min 14 sec)
Heartbeat CPU 0 instructions: 101500526 cycles: 154075974 heartbeat IPC: 0.6099 cumulative IPC: 0.3675 (Simulation time: 00 hr 19 min 20 sec)
Heartbeat CPU 0 instructions: 102000526 cycles: 154821151 heartbeat IPC: 0.671 cumulative IPC: 0.3691 (Simulation time: 00 hr 19 min 25 sec)
Heartbeat CPU 0 instructions: 102500531 cycles: 155392550 heartbeat IPC: 0.8751 cumulative IPC: 0.3712 (Simulation time: 00 hr 19 min 30 sec)
Heartbeat CPU 0 instructions: 103000538 cycles: 155922136 heartbeat IPC: 0.9441 cumulative IPC: 0.3733 (Simulation time: 00 hr 19 min 35 sec)
Heartbeat CPU 0 instructions: 103500540 cycles: 158037714 heartbeat IPC: 0.2363 cumulative IPC: 0.3713 (Simulation time: 00 hr 19 min 48 sec)
Heartbeat CPU 0 instructions: 104000540 cycles: 159722423 heartbeat IPC: 0.2968 cumulative IPC: 0.3705 (Simulation time: 00 hr 19 min 59 sec)
Heartbeat CPU 0 instructions: 104500542 cycles: 160602130 heartbeat IPC: 0.5684 cumulative IPC: 0.3716 (Simulation time: 00 hr 20 min 05 sec)
Heartbeat CPU 0 instructions: 105000546 cycles: 161337222 heartbeat IPC: 0.6802 cumulative IPC: 0.3732 (Simulation time: 00 hr 20 min 10 sec)
Heartbeat CPU 0 instructions: 105500548 cycles: 161824606 heartbeat IPC: 1.026 cumulative IPC: 0.3753 (Simulation time: 00 hr 20 min 14 sec)
Heartbeat CPU 0 instructions: 106000550 cycles: 162437934 heartbeat IPC: 0.8152 cumulative IPC: 0.3771 (Simulation time: 00 hr 20 min 19 sec)
Heartbeat CPU 0 instructions: 106500552 cycles: 163904373 heartbeat IPC: 0.341 cumulative IPC: 0.3768 (Simulation time: 00 hr 20 min 28 sec)
Heartbeat CPU 0 instructions: 107000552 cycles: 166600101 heartbeat IPC: 0.1855 cumulative IPC: 0.3734 (Simulation time: 00 hr 20 min 45 sec)
Heartbeat CPU 0 instructions: 107500552 cycles: 168057456 heartbeat IPC: 0.3431 cumulative IPC: 0.3731 (Simulation time: 00 hr 20 min 54 sec)
Heartbeat CPU 0 instructions: 108000558 cycles: 168510063 heartbeat IPC: 1.105 cumulative IPC: 0.3753 (Simulation time: 00 hr 20 min 58 sec)
Heartbeat CPU 0 instructions: 108500563 cycles: 169177253 heartbeat IPC: 0.7494 cumulative IPC: 0.3769 (Simulation time: 00 hr 21 min 03 sec)
Heartbeat CPU 0 instructions: 109000563 cycles: 170373926 heartbeat IPC: 0.4178 cumulative IPC: 0.3772 (Simulation time: 00 hr 21 min 11 sec)
Heartbeat CPU 0 instructions: 109500563 cycles: 171832722 heartbeat IPC: 0.3427 cumulative IPC: 0.3769 (Simulation time: 00 hr 21 min 21 sec)
Heartbeat CPU 0 instructions: 110000564 cycles: 173453140 heartbeat IPC: 0.3086 cumulative IPC: 0.3762 (Simulation time: 00 hr 21 min 30 sec)
Heartbeat CPU 0 instructions: 110500570 cycles: 175728540 heartbeat IPC: 0.2197 cumulative IPC: 0.374 (Simulation time: 00 hr 21 min 45 sec)
Heartbeat CPU 0 instructions: 111000573 cycles: 177178762 heartbeat IPC: 0.3448 cumulative IPC: 0.3737 (Simulation time: 00 hr 21 min 54 sec)
Heartbeat CPU 0 instructions: 111500576 cycles: 178148645 heartbeat IPC: 0.5155 cumulative IPC: 0.3746 (Simulation time: 00 hr 22 min 01 sec)
Heartbeat CPU 0 instructions: 112000577 cycles: 179161625 heartbeat IPC: 0.4936 cumulative IPC: 0.3753 (Simulation time: 00 hr 22 min 08 sec)
Heartbeat CPU 0 instructions: 112500579 cycles: 180856333 heartbeat IPC: 0.295 cumulative IPC: 0.3745 (Simulation time: 00 hr 22 min 18 sec)
Heartbeat CPU 0 instructions: 113000579 cycles: 182416978 heartbeat IPC: 0.3204 cumulative IPC: 0.374 (Simulation time: 00 hr 22 min 28 sec)
Heartbeat CPU 0 instructions: 113500586 cycles: 183343313 heartbeat IPC: 0.5398 cumulative IPC: 0.3749 (Simulation time: 00 hr 22 min 34 sec)
Heartbeat CPU 0 instructions: 114000590 cycles: 184033667 heartbeat IPC: 0.7243 cumulative IPC: 0.3763 (Simulation time: 00 hr 22 min 39 sec)
Heartbeat CPU 0 instructions: 114500594 cycles: 184726091 heartbeat IPC: 0.7221 cumulative IPC: 0.3777 (Simulation time: 00 hr 22 min 45 sec)
Heartbeat CPU 0 instructions: 115000594 cycles: 186657963 heartbeat IPC: 0.2588 cumulative IPC: 0.3764 (Simulation time: 00 hr 22 min 56 sec)
Heartbeat CPU 0 instructions: 115500600 cycles: 189237356 heartbeat IPC: 0.1938 cumulative IPC: 0.3737 (Simulation time: 00 hr 23 min 11 sec)
Heartbeat CPU 0 instructions: 116000607 cycles: 190371724 heartbeat IPC: 0.4408 cumulative IPC: 0.3741 (Simulation time: 00 hr 23 min 20 sec)
Heartbeat CPU 0 instructions: 116500607 cycles: 192355363 heartbeat IPC: 0.2521 cumulative IPC: 0.3728 (Simulation time: 00 hr 23 min 33 sec)
Heartbeat CPU 0 instructions: 117000609 cycles: 193789893 heartbeat IPC: 0.3485 cumulative IPC: 0.3726 (Simulation time: 00 hr 23 min 42 sec)
Heartbeat CPU 0 instructions: 117500609 cycles: 194881853 heartbeat IPC: 0.4579 cumulative IPC: 0.3731 (Simulation time: 00 hr 23 min 50 sec)
Heartbeat CPU 0 instructions: 118000611 cycles: 195853999 heartbeat IPC: 0.5143 cumulative IPC: 0.3738 (Simulation time: 00 hr 23 min 56 sec)
Heartbeat CPU 0 instructions: 118500616 cycles: 196328420 heartbeat IPC: 1.054 cumulative IPC: 0.3756 (Simulation time: 00 hr 24 min 00 sec)
Heartbeat CPU 0 instructions: 119000623 cycles: 197063959 heartbeat IPC: 0.6798 cumulative IPC: 0.3768 (Simulation time: 00 hr 24 min 06 sec)
Heartbeat CPU 0 instructions: 119500628 cycles: 199209161 heartbeat IPC: 0.2331 cumulative IPC: 0.3752 (Simulation time: 00 hr 24 min 19 sec)
Heartbeat CPU 0 instructions: 120000628 cycles: 201341555 heartbeat IPC: 0.2345 cumulative IPC: 0.3736 (Simulation time: 00 hr 24 min 32 sec)
Heartbeat CPU 0 instructions: 120500628 cycles: 202871807 heartbeat IPC: 0.3267 cumulative IPC: 0.3732 (Simulation time: 00 hr 24 min 41 sec)
Heartbeat CPU 0 instructions: 121000628 cycles: 204358330 heartbeat IPC: 0.3364 cumulative IPC: 0.3729 (Simulation time: 00 hr 24 min 51 sec)
Heartbeat CPU 0 instructions: 121500628 cycles: 205879523 heartbeat IPC: 0.3287 cumulative IPC: 0.3725 (Simulation time: 00 hr 25 min 02 sec)
Heartbeat CPU 0 instructions: 122000634 cycles: 207115161 heartbeat IPC: 0.4047 cumulative IPC: 0.3727 (Simulation time: 00 hr 25 min 09 sec)
Heartbeat CPU 0 instructions: 122500635 cycles: 208433227 heartbeat IPC: 0.3793 cumulative IPC: 0.3728 (Simulation time: 00 hr 25 min 18 sec)
Heartbeat CPU 0 instructions: 123000635 cycles: 210592740 heartbeat IPC: 0.2315 cumulative IPC: 0.3712 (Simulation time: 00 hr 25 min 31 sec)
Heartbeat CPU 0 instructions: 123500642 cycles: 211907370 heartbeat IPC: 0.3803 cumulative IPC: 0.3713 (Simulation time: 00 hr 25 min 39 sec)
Heartbeat CPU 0 instructions: 124000646 cycles: 212740978 heartbeat IPC: 0.5998 cumulative IPC: 0.3723 (Simulation time: 00 hr 25 min 45 sec)
Heartbeat CPU 0 instructions: 124500648 cycles: 213385903 heartbeat IPC: 0.7753 cumulative IPC: 0.3736 (Simulation time: 00 hr 25 min 50 sec)
Heartbeat CPU 0 instructions: 125000653 cycles: 215500023 heartbeat IPC: 0.2365 cumulative IPC: 0.3721 (Simulation time: 00 hr 26 min 03 sec)
Heartbeat CPU 0 instructions: 125500654 cycles: 217110406 heartbeat IPC: 0.3105 cumulative IPC: 0.3716 (Simulation time: 00 hr 26 min 13 sec)
Heartbeat CPU 0 instructions: 126000654 cycles: 218074340 heartbeat IPC: 0.5187 cumulative IPC: 0.3723 (Simulation time: 00 hr 26 min 19 sec)
Heartbeat CPU 0 instructions: 126500654 cycles: 219272986 heartbeat IPC: 0.4171 cumulative IPC: 0.3726 (Simulation time: 00 hr 26 min 27 sec)
Heartbeat CPU 0 instructions: 127000656 cycles: 221359376 heartbeat IPC: 0.2396 cumulative IPC: 0.3713 (Simulation time: 00 hr 26 min 39 sec)
Heartbeat CPU 0 instructions: 127500660 cycles: 222880632 heartbeat IPC: 0.3287 cumulative IPC: 0.3709 (Simulation time: 00 hr 26 min 49 sec)
Heartbeat CPU 0 instructions: 128000663 cycles: 224156775 heartbeat IPC: 0.3918 cumulative IPC: 0.3711 (Simulation time: 00 hr 26 min 57 sec)
Heartbeat CPU 0 instructions: 128500667 cycles: 225218808 heartbeat IPC: 0.4708 cumulative IPC: 0.3716 (Simulation time: 00 hr 27 min 04 sec)
Heartbeat CPU 0 instructions: 129000667 cycles: 226513745 heartbeat IPC: 0.3861 cumulative IPC: 0.3717 (Simulation time: 00 hr 27 min 12 sec)
Heartbeat CPU 0 instructions: 129500674 cycles: 229125577 heartbeat IPC: 0.1914 cumulative IPC: 0.3695 (Simulation time: 00 hr 27 min 30 sec)
Heartbeat CPU 0 instructions: 130000679 cycles: 230835620 heartbeat IPC: 0.2924 cumulative IPC: 0.3689 (Simulation time: 00 hr 27 min 40 sec)
Heartbeat CPU 0 instructions: 130500679 cycles: 231868736 heartbeat IPC: 0.484 cumulative IPC: 0.3694 (Simulation time: 00 hr 27 min 47 sec)
Heartbeat CPU 0 instructions: 131000682 cycles: 232820702 heartbeat IPC: 0.5252 cumulative IPC: 0.3701 (Simulation time: 00 hr 27 min 54 sec)
Heartbeat CPU 0 instructions: 131500683 cycles: 233414572 heartbeat IPC: 0.8419 cumulative IPC: 0.3714 (Simulation time: 00 hr 27 min 58 sec)
Heartbeat CPU 0 instructions: 132000683 cycles: 235643055 heartbeat IPC: 0.2244 cumulative IPC: 0.3699 (Simulation time: 00 hr 28 min 11 sec)
Heartbeat CPU 0 instructions: 132500688 cycles: 237304431 heartbeat IPC: 0.301 cumulative IPC: 0.3694 (Simulation time: 00 hr 28 min 21 sec)
Heartbeat CPU 0 instructions: 133000691 cycles: 238463143 heartbeat IPC: 0.4315 cumulative IPC: 0.3697 (Simulation time: 00 hr 28 min 29 sec)
Heartbeat CPU 0 instructions: 133500691 cycles: 239896470 heartbeat IPC: 0.3488 cumulative IPC: 0.3696 (Simulation time: 00 hr 28 min 37 sec)
Heartbeat CPU 0 instructions: 134000692 cycles: 241777234 heartbeat IPC: 0.2658 cumulative IPC: 0.3687 (Simulation time: 00 hr 28 min 48 sec)
Heartbeat CPU 0 instructions: 134500696 cycles: 243245801 heartbeat IPC: 0.3405 cumulative IPC: 0.3685 (Simulation time: 00 hr 28 min 57 sec)
Heartbeat CPU 0 instructions: 135000701 cycles: 244337290 heartbeat IPC: 0.4581 cumulative IPC: 0.369 (Simulation time: 00 hr 29 min 04 sec)
Heartbeat CPU 0 instructions: 135500701 cycles: 246086193 heartbeat IPC: 0.2859 cumulative IPC: 0.3683 (Simulation time: 00 hr 29 min 14 sec)
Heartbeat CPU 0 instructions: 136000702 cycles: 247907149 heartbeat IPC: 0.2746 cumulative IPC: 0.3676 (Simulation time: 00 hr 29 min 25 sec)
Heartbeat CPU 0 instructions: 136500703 cycles: 248545104 heartbeat IPC: 0.7838 cumulative IPC: 0.3687 (Simulation time: 00 hr 29 min 30 sec)
Heartbeat CPU 0 instructions: 137000703 cycles: 249202424 heartbeat IPC: 0.7607 cumulative IPC: 0.3698 (Simulation time: 00 hr 29 min 35 sec)
Heartbeat CPU 0 instructions: 137500704 cycles: 250527582 heartbeat IPC: 0.3773 cumulative IPC: 0.3699 (Simulation time: 00 hr 29 min 43 sec)
Heartbeat CPU 0 instructions: 138000710 cycles: 252555982 heartbeat IPC: 0.2465 cumulative IPC: 0.3688 (Simulation time: 00 hr 29 min 55 sec)
Heartbeat CPU 0 instructions: 138500715 cycles: 254233219 heartbeat IPC: 0.2981 cumulative IPC: 0.3683 (Simulation time: 00 hr 30 min 05 sec)
Heartbeat CPU 0 instructions: 139000715 cycles: 254918402 heartbeat IPC: 0.7297 cumulative IPC: 0.3694 (Simulation time: 00 hr 30 min 10 sec)
Heartbeat CPU 0 instructions: 139500719 cycles: 255931429 heartbeat IPC: 0.4936 cumulative IPC: 0.3699 (Simulation time: 00 hr 30 min 17 sec)
Heartbeat CPU 0 instructions: 140000721 cycles: 257407693 heartbeat IPC: 0.3387 cumulative IPC: 0.3697 (Simulation time: 00 hr 30 min 25 sec)
Heartbeat CPU 0 instructions: 140500721 cycles: 259889405 heartbeat IPC: 0.2015 cumulative IPC: 0.368 (Simulation time: 00 hr 30 min 40 sec)
Heartbeat CPU 0 instructions: 141000721 cycles: 262447413 heartbeat IPC: 0.1955 cumulative IPC: 0.3662 (Simulation time: 00 hr 30 min 54 sec)
Heartbeat CPU 0 instructions: 141500721 cycles: 264062309 heartbeat IPC: 0.3096 cumulative IPC: 0.3658 (Simulation time: 00 hr 31 min 04 sec)
Heartbeat CPU 0 instructions: 142000721 cycles: 265402630 heartbeat IPC: 0.373 cumulative IPC: 0.3659 (Simulation time: 00 hr 31 min 12 sec)
Heartbeat CPU 0 instructions: 142500722 cycles: 266385262 heartbeat IPC: 0.5088 cumulative IPC: 0.3664 (Simulation time: 00 hr 31 min 19 sec)
Heartbeat CPU 0 instructions: 143000722 cycles: 268649795 heartbeat IPC: 0.2208 cumulative IPC: 0.3651 (Simulation time: 00 hr 31 min 32 sec)
Heartbeat CPU 0 instructions: 143500725 cycles: 270350522 heartbeat IPC: 0.294 cumulative IPC: 0.3647 (Simulation time: 00 hr 31 min 42 sec)
Heartbeat CPU 0 instructions: 144000725 cycles: 271302493 heartbeat IPC: 0.5252 cumulative IPC: 0.3653 (Simulation time: 00 hr 31 min 48 sec)
Heartbeat CPU 0 instructions: 144500726 cycles: 271953551 heartbeat IPC: 0.768 cumulative IPC: 0.3663 (Simulation time: 00 hr 31 min 53 sec)
Heartbeat CPU 0 instructions: 145000730 cycles: 272945682 heartbeat IPC: 0.504 cumulative IPC: 0.3668 (Simulation time: 00 hr 31 min 59 sec)
Heartbeat CPU 0 instructions: 145500730 cycles: 275604719 heartbeat IPC: 0.188 cumulative IPC: 0.365 (Simulation time: 00 hr 32 min 14 sec)
Heartbeat CPU 0 instructions: 146000733 cycles: 276386861 heartbeat IPC: 0.6393 cumulative IPC: 0.3658 (Simulation time: 00 hr 32 min 19 sec)
Heartbeat CPU 0 instructions: 146500733 cycles: 277555030 heartbeat IPC: 0.428 cumulative IPC: 0.3661 (Simulation time: 00 hr 32 min 27 sec)
Heartbeat CPU 0 instructions: 147000733 cycles: 278794890 heartbeat IPC: 0.4033 cumulative IPC: 0.3663 (Simulation time: 00 hr 32 min 35 sec)
Heartbeat CPU 0 instructions: 147500737 cycles: 279688144 heartbeat IPC: 0.5598 cumulative IPC: 0.3669 (Simulation time: 00 hr 32 min 41 sec)
Heartbeat CPU 0 instructions: 148000742 cycles: 280041896 heartbeat IPC: 1.413 cumulative IPC: 0.3683 (Simulation time: 00 hr 32 min 44 sec)
Heartbeat CPU 0 instructions: 148500743 cycles: 280409562 heartbeat IPC: 1.36 cumulative IPC: 0.3697 (Simulation time: 00 hr 32 min 47 sec)
Heartbeat CPU 0 instructions: 149000743 cycles: 280731392 heartbeat IPC: 1.554 cumulative IPC: 0.3711 (Simulation time: 00 hr 32 min 50 sec)
Heartbeat CPU 0 instructions: 149500744 cycles: 281266485 heartbeat IPC: 0.9344 cumulative IPC: 0.3722 (Simulation time: 00 hr 32 min 54 sec)
Heartbeat CPU 0 instructions: 150000747 cycles: 281869432 heartbeat IPC: 0.8293 cumulative IPC: 0.3733 (Simulation time: 00 hr 32 min 59 sec)
Heartbeat CPU 0 instructions: 150500747 cycles: 282407022 heartbeat IPC: 0.9301 cumulative IPC: 0.3744 (Simulation time: 00 hr 33 min 03 sec)
Heartbeat CPU 0 instructions: 151000747 cycles: 282858583 heartbeat IPC: 1.107 cumulative IPC: 0.3756 (Simulation time: 00 hr 33 min 07 sec)
Heartbeat CPU 0 instructions: 151500750 cycles: 283226498 heartbeat IPC: 1.359 cumulative IPC: 0.3769 (Simulation time: 00 hr 33 min 10 sec)
Heartbeat CPU 0 instructions: 152000750 cycles: 284085940 heartbeat IPC: 0.5818 cumulative IPC: 0.3776 (Simulation time: 00 hr 33 min 16 sec)
Heartbeat CPU 0 instructions: 152500751 cycles: 285956039 heartbeat IPC: 0.2674 cumulative IPC: 0.3768 (Simulation time: 00 hr 33 min 27 sec)
Heartbeat CPU 0 instructions: 153000752 cycles: 287051901 heartbeat IPC: 0.4563 cumulative IPC: 0.3772 (Simulation time: 00 hr 33 min 34 sec)
Heartbeat CPU 0 instructions: 153500753 cycles: 288539799 heartbeat IPC: 0.336 cumulative IPC: 0.3769 (Simulation time: 00 hr 33 min 42 sec)
Heartbeat CPU 0 instructions: 154000757 cycles: 290554946 heartbeat IPC: 0.2481 cumulative IPC: 0.376 (Simulation time: 00 hr 33 min 53 sec)
Heartbeat CPU 0 instructions: 154500759 cycles: 292768155 heartbeat IPC: 0.2259 cumulative IPC: 0.3748 (Simulation time: 00 hr 34 min 07 sec)
Heartbeat CPU 0 instructions: 155000759 cycles: 293718546 heartbeat IPC: 0.5261 cumulative IPC: 0.3753 (Simulation time: 00 hr 34 min 13 sec)
Heartbeat CPU 0 instructions: 155500762 cycles: 294481392 heartbeat IPC: 0.6554 cumulative IPC: 0.3761 (Simulation time: 00 hr 34 min 18 sec)
Heartbeat CPU 0 instructions: 156000766 cycles: 295719662 heartbeat IPC: 0.4038 cumulative IPC: 0.3762 (Simulation time: 00 hr 34 min 25 sec)
Heartbeat CPU 0 instructions: 156500770 cycles: 298641274 heartbeat IPC: 0.1711 cumulative IPC: 0.3741 (Simulation time: 00 hr 34 min 41 sec)
Heartbeat CPU 0 instructions: 157000775 cycles: 299823344 heartbeat IPC: 0.423 cumulative IPC: 0.3743 (Simulation time: 00 hr 34 min 48 sec)
Heartbeat CPU 0 instructions: 157500775 cycles: 300799471 heartbeat IPC: 0.5122 cumulative IPC: 0.3748 (Simulation time: 00 hr 34 min 54 sec)
Heartbeat CPU 0 instructions: 158000776 cycles: 301840959 heartbeat IPC: 0.4801 cumulative IPC: 0.3751 (Simulation time: 00 hr 35 min 01 sec)
Heartbeat CPU 0 instructions: 158500778 cycles: 304151866 heartbeat IPC: 0.2164 cumulative IPC: 0.3739 (Simulation time: 00 hr 35 min 13 sec)
Heartbeat CPU 0 instructions: 159000781 cycles: 306347927 heartbeat IPC: 0.2277 cumulative IPC: 0.3728 (Simulation time: 00 hr 35 min 25 sec)
Heartbeat CPU 0 instructions: 159500782 cycles: 308876544 heartbeat IPC: 0.1977 cumulative IPC: 0.3713 (Simulation time: 00 hr 35 min 39 sec)
Heartbeat CPU 0 instructions: 160000785 cycles: 310164488 heartbeat IPC: 0.3882 cumulative IPC: 0.3714 (Simulation time: 00 hr 35 min 48 sec)
Heartbeat CPU 0 instructions: 160500785 cycles: 312115312 heartbeat IPC: 0.2563 cumulative IPC: 0.3706 (Simulation time: 00 hr 35 min 59 sec)
Heartbeat CPU 0 instructions: 161000787 cycles: 313889847 heartbeat IPC: 0.2818 cumulative IPC: 0.3701 (Simulation time: 00 hr 36 min 09 sec)
Heartbeat CPU 0 instructions: 161500789 cycles: 315254101 heartbeat IPC: 0.3665 cumulative IPC: 0.3701 (Simulation time: 00 hr 36 min 17 sec)
Heartbeat CPU 0 instructions: 162000791 cycles: 316812026 heartbeat IPC: 0.3209 cumulative IPC: 0.3698 (Simulation time: 00 hr 36 min 27 sec)
Heartbeat CPU 0 instructions: 162500794 cycles: 318639833 heartbeat IPC: 0.2736 cumulative IPC: 0.3692 (Simulation time: 00 hr 36 min 37 sec)
Heartbeat CPU 0 instructions: 163000795 cycles: 321065178 heartbeat IPC: 0.2062 cumulative IPC: 0.3679 (Simulation time: 00 hr 36 min 50 sec)
Heartbeat CPU 0 instructions: 163500796 cycles: 322224031 heartbeat IPC: 0.4315 cumulative IPC: 0.3682 (Simulation time: 00 hr 36 min 57 sec)
Heartbeat CPU 0 instructions: 164000798 cycles: 324062136 heartbeat IPC: 0.272 cumulative IPC: 0.3676 (Simulation time: 00 hr 37 min 07 sec)
Heartbeat CPU 0 instructions: 164500800 cycles: 327498808 heartbeat IPC: 0.1455 cumulative IPC: 0.3652 (Simulation time: 00 hr 37 min 26 sec)
Heartbeat CPU 0 instructions: 165000800 cycles: 328971695 heartbeat IPC: 0.3395 cumulative IPC: 0.3651 (Simulation time: 00 hr 37 min 35 sec)
Heartbeat CPU 0 instructions: 165500801 cycles: 329620645 heartbeat IPC: 0.7705 cumulative IPC: 0.3659 (Simulation time: 00 hr 37 min 40 sec)
Heartbeat CPU 0 instructions: 166000801 cycles: 330304318 heartbeat IPC: 0.7313 cumulative IPC: 0.3667 (Simulation time: 00 hr 37 min 45 sec)
Heartbeat CPU 0 instructions: 166500801 cycles: 332726089 heartbeat IPC: 0.2065 cumulative IPC: 0.3655 (Simulation time: 00 hr 37 min 58 sec)
Heartbeat CPU 0 instructions: 167000805 cycles: 334471833 heartbeat IPC: 0.2864 cumulative IPC: 0.365 (Simulation time: 00 hr 38 min 08 sec)
Heartbeat CPU 0 instructions: 167500808 cycles: 334955819 heartbeat IPC: 1.033 cumulative IPC: 0.366 (Simulation time: 00 hr 38 min 12 sec)
Heartbeat CPU 0 instructions: 168000808 cycles: 335540602 heartbeat IPC: 0.855 cumulative IPC: 0.3669 (Simulation time: 00 hr 38 min 16 sec)
Heartbeat CPU 0 instructions: 168500809 cycles: 336676752 heartbeat IPC: 0.4401 cumulative IPC: 0.3672 (Simulation time: 00 hr 38 min 23 sec)
Heartbeat CPU 0 instructions: 169000810 cycles: 337793974 heartbeat IPC: 0.4475 cumulative IPC: 0.3675 (Simulation time: 00 hr 38 min 30 sec)
Heartbeat CPU 0 instructions: 169500813 cycles: 339712549 heartbeat IPC: 0.2606 cumulative IPC: 0.3668 (Simulation time: 00 hr 38 min 40 sec)
Heartbeat CPU 0 instructions: 170000815 cycles: 341235017 heartbeat IPC: 0.3284 cumulative IPC: 0.3667 (Simulation time: 00 hr 38 min 49 sec)
Heartbeat CPU 0 instructions: 170500820 cycles: 342730206 heartbeat IPC: 0.3344 cumulative IPC: 0.3665 (Simulation time: 00 hr 38 min 58 sec)
Heartbeat CPU 0 instructions: 171000821 cycles: 345728728 heartbeat IPC: 0.1667 cumulative IPC: 0.3647 (Simulation time: 00 hr 39 min 13 sec)
Heartbeat CPU 0 instructions: 171500826 cycles: 347454488 heartbeat IPC: 0.2897 cumulative IPC: 0.3643 (Simulation time: 00 hr 39 min 23 sec)
Heartbeat CPU 0 instructions: 172000827 cycles: 349037303 heartbeat IPC: 0.3159 cumulative IPC: 0.3641 (Simulation time: 00 hr 39 min 32 sec)
Heartbeat CPU 0 instructions: 172500827 cycles: 350460128 heartbeat IPC: 0.3514 cumulative IPC: 0.364 (Simulation time: 00 hr 39 min 41 sec)
Heartbeat CPU 0 instructions: 173000827 cycles: 351231319 heartbeat IPC: 0.6483 cumulative IPC: 0.3647 (Simulation time: 00 hr 39 min 46 sec)
Heartbeat CPU 0 instructions: 173500834 cycles: 352476409 heartbeat IPC: 0.4016 cumulative IPC: 0.3648 (Simulation time: 00 hr 39 min 53 sec)
Heartbeat CPU 0 instructions: 174000838 cycles: 354061655 heartbeat IPC: 0.3154 cumulative IPC: 0.3646 (Simulation time: 00 hr 40 min 03 sec)
Heartbeat CPU 0 instructions: 174500838 cycles: 355337166 heartbeat IPC: 0.392 cumulative IPC: 0.3647 (Simulation time: 00 hr 40 min 10 sec)
Heartbeat CPU 0 instructions: 175000838 cycles: 357425521 heartbeat IPC: 0.2394 cumulative IPC: 0.3639 (Simulation time: 00 hr 40 min 21 sec)
Heartbeat CPU 0 instructions: 175500838 cycles: 359418816 heartbeat IPC: 0.2508 cumulative IPC: 0.3633 (Simulation time: 00 hr 40 min 32 sec)
Heartbeat CPU 0 instructions: 176000838 cycles: 361629712 heartbeat IPC: 0.2262 cumulative IPC: 0.3624 (Simulation time: 00 hr 40 min 44 sec)
Heartbeat CPU 0 instructions: 176500842 cycles: 364003515 heartbeat IPC: 0.2106 cumulative IPC: 0.3614 (Simulation time: 00 hr 40 min 57 sec)
Heartbeat CPU 0 instructions: 177000843 cycles: 365294103 heartbeat IPC: 0.3874 cumulative IPC: 0.3615 (Simulation time: 00 hr 41 min 04 sec)
Heartbeat CPU 0 instructions: 177500849 cycles: 365823954 heartbeat IPC: 0.9437 cumulative IPC: 0.3624 (Simulation time: 00 hr 41 min 08 sec)
Heartbeat CPU 0 instructions: 178000851 cycles: 366991715 heartbeat IPC: 0.4282 cumulative IPC: 0.3626 (Simulation time: 00 hr 41 min 15 sec)
Heartbeat CPU 0 instructions: 178500851 cycles: 368481766 heartbeat IPC: 0.3356 cumulative IPC: 0.3625 (Simulation time: 00 hr 41 min 24 sec)
Heartbeat CPU 0 instructions: 179000853 cycles: 369445484 heartbeat IPC: 0.5188 cumulative IPC: 0.3629 (Simulation time: 00 hr 41 min 30 sec)
Heartbeat CPU 0 instructions: 179500854 cycles: 370312678 heartbeat IPC: 0.5766 cumulative IPC: 0.3634 (Simulation time: 00 hr 41 min 35 sec)
Heartbeat CPU 0 instructions: 180000854 cycles: 371055079 heartbeat IPC: 0.6735 cumulative IPC: 0.364 (Simulation time: 00 hr 41 min 40 sec)
Heartbeat CPU 0 instructions: 180500854 cycles: 371770305 heartbeat IPC: 0.6991 cumulative IPC: 0.3647 (Simulation time: 00 hr 41 min 45 sec)
Heartbeat CPU 0 instructions: 181000854 cycles: 372391393 heartbeat IPC: 0.805 cumulative IPC: 0.3655 (Simulation time: 00 hr 41 min 49 sec)
Heartbeat CPU 0 instructions: 181500855 cycles: 375334140 heartbeat IPC: 0.1699 cumulative IPC: 0.3639 (Simulation time: 00 hr 42 min 05 sec)
Heartbeat CPU 0 instructions: 182000859 cycles: 377791209 heartbeat IPC: 0.2035 cumulative IPC: 0.3628 (Simulation time: 00 hr 42 min 18 sec)
Heartbeat CPU 0 instructions: 182500859 cycles: 379145628 heartbeat IPC: 0.3692 cumulative IPC: 0.3628 (Simulation time: 00 hr 42 min 26 sec)
Heartbeat CPU 0 instructions: 183000860 cycles: 380919083 heartbeat IPC: 0.2819 cumulative IPC: 0.3624 (Simulation time: 00 hr 42 min 35 sec)
Heartbeat CPU 0 instructions: 183500862 cycles: 383283869 heartbeat IPC: 0.2114 cumulative IPC: 0.3615 (Simulation time: 00 hr 42 min 48 sec)
Heartbeat CPU 0 instructions: 184000864 cycles: 384516828 heartbeat IPC: 0.4055 cumulative IPC: 0.3616 (Simulation time: 00 hr 42 min 55 sec)
Heartbeat CPU 0 instructions: 184500866 cycles: 385375581 heartbeat IPC: 0.5822 cumulative IPC: 0.3621 (Simulation time: 00 hr 43 min 00 sec)
Heartbeat CPU 0 instructions: 185000866 cycles: 387716392 heartbeat IPC: 0.2136 cumulative IPC: 0.3612 (Simulation time: 00 hr 43 min 13 sec)
Heartbeat CPU 0 instructions: 185500866 cycles: 388932186 heartbeat IPC: 0.4113 cumulative IPC: 0.3614 (Simulation time: 00 hr 43 min 21 sec)
Heartbeat CPU 0 instructions: 186000866 cycles: 390372500 heartbeat IPC: 0.3471 cumulative IPC: 0.3613 (Simulation time: 00 hr 43 min 29 sec)
Heartbeat CPU 0 instructions: 186500866 cycles: 392120570 heartbeat IPC: 0.286 cumulative IPC: 0.361 (Simulation time: 00 hr 43 min 39 sec)
Heartbeat CPU 0 instructions: 187000873 cycles: 395378491 heartbeat IPC: 0.1535 cumulative IPC: 0.3592 (Simulation time: 00 hr 43 min 55 sec)
Heartbeat CPU 0 instructions: 187500879 cycles: 396624000 heartbeat IPC: 0.4014 cumulative IPC: 0.3593 (Simulation time: 00 hr 44 min 03 sec)
Heartbeat CPU 0 instructions: 188000883 cycles: 397639974 heartbeat IPC: 0.4921 cumulative IPC: 0.3597 (Simulation time: 00 hr 44 min 09 sec)
Heartbeat CPU 0 instructions: 188500889 cycles: 398866119 heartbeat IPC: 0.4078 cumulative IPC: 0.3598 (Simulation time: 00 hr 44 min 16 sec)
Heartbeat CPU 0 instructions: 189000889 cycles: 400997620 heartbeat IPC: 0.2346 cumulative IPC: 0.3591 (Simulation time: 00 hr 44 min 27 sec)
Heartbeat CPU 0 instructions: 189500889 cycles: 402861675 heartbeat IPC: 0.2682 cumulative IPC: 0.3587 (Simulation time: 00 hr 44 min 37 sec)
Heartbeat CPU 0 instructions: 190000889 cycles: 404081624 heartbeat IPC: 0.4099 cumulative IPC: 0.3589 (Simulation time: 00 hr 44 min 44 sec)
Heartbeat CPU 0 instructions: 190500890 cycles: 405042863 heartbeat IPC: 0.5202 cumulative IPC: 0.3593 (Simulation time: 00 hr 44 min 50 sec)
Heartbeat CPU 0 instructions: 191000890 cycles: 407402686 heartbeat IPC: 0.2119 cumulative IPC: 0.3584 (Simulation time: 00 hr 45 min 02 sec)
Heartbeat CPU 0 instructions: 191500890 cycles: 408818247 heartbeat IPC: 0.3532 cumulative IPC: 0.3584 (Simulation time: 00 hr 45 min 10 sec)
Heartbeat CPU 0 instructions: 192000890 cycles: 410748186 heartbeat IPC: 0.2591 cumulative IPC: 0.3579 (Simulation time: 00 hr 45 min 20 sec)
Heartbeat CPU 0 instructions: 192500897 cycles: 412865575 heartbeat IPC: 0.2361 cumulative IPC: 0.3572 (Simulation time: 00 hr 45 min 32 sec)
Heartbeat CPU 0 instructions: 193000900 cycles: 414691961 heartbeat IPC: 0.2738 cumulative IPC: 0.3568 (Simulation time: 00 hr 45 min 42 sec)
Heartbeat CPU 0 instructions: 193500900 cycles: 417178910 heartbeat IPC: 0.201 cumulative IPC: 0.3559 (Simulation time: 00 hr 45 min 55 sec)
Heartbeat CPU 0 instructions: 194000901 cycles: 418911830 heartbeat IPC: 0.2885 cumulative IPC: 0.3556 (Simulation time: 00 hr 46 min 04 sec)
Heartbeat CPU 0 instructions: 194500901 cycles: 420353493 heartbeat IPC: 0.3468 cumulative IPC: 0.3556 (Simulation time: 00 hr 46 min 13 sec)
Heartbeat CPU 0 instructions: 195000906 cycles: 421752459 heartbeat IPC: 0.3574 cumulative IPC: 0.3556 (Simulation time: 00 hr 46 min 21 sec)
Heartbeat CPU 0 instructions: 195500906 cycles: 422902654 heartbeat IPC: 0.4347 cumulative IPC: 0.3558 (Simulation time: 00 hr 46 min 27 sec)
Heartbeat CPU 0 instructions: 196000908 cycles: 425188463 heartbeat IPC: 0.2187 cumulative IPC: 0.355 (Simulation time: 00 hr 46 min 39 sec)
Heartbeat CPU 0 instructions: 196500908 cycles: 428043760 heartbeat IPC: 0.1751 cumulative IPC: 0.3538 (Simulation time: 00 hr 46 min 54 sec)
Heartbeat CPU 0 instructions: 197000909 cycles: 429698748 heartbeat IPC: 0.3021 cumulative IPC: 0.3536 (Simulation time: 00 hr 47 min 03 sec)
Heartbeat CPU 0 instructions: 197500910 cycles: 431775813 heartbeat IPC: 0.2407 cumulative IPC: 0.353 (Simulation time: 00 hr 47 min 14 sec)
Heartbeat CPU 0 instructions: 198000910 cycles: 433902083 heartbeat IPC: 0.2352 cumulative IPC: 0.3524 (Simulation time: 00 hr 47 min 25 sec)
Heartbeat CPU 0 instructions: 198500916 cycles: 434492112 heartbeat IPC: 0.8474 cumulative IPC: 0.3531 (Simulation time: 00 hr 47 min 29 sec)
Heartbeat CPU 0 instructions: 199000917 cycles: 436199489 heartbeat IPC: 0.2928 cumulative IPC: 0.3529 (Simulation time: 00 hr 47 min 39 sec)
Heartbeat CPU 0 instructions: 199500918 cycles: 437687729 heartbeat IPC: 0.336 cumulative IPC: 0.3528 (Simulation time: 00 hr 47 min 47 sec)
Heartbeat CPU 0 instructions: 200000919 cycles: 438273996 heartbeat IPC: 0.8529 cumulative IPC: 0.3535 (Simulation time: 00 hr 47 min 51 sec)
Heartbeat CPU 0 instructions: 200500919 cycles: 440289958 heartbeat IPC: 0.248 cumulative IPC: 0.353 (Simulation time: 00 hr 48 min 02 sec)
Heartbeat CPU 0 instructions: 201000919 cycles: 441670108 heartbeat IPC: 0.3623 cumulative IPC: 0.353 (Simulation time: 00 hr 48 min 10 sec)
Heartbeat CPU 0 instructions: 201500921 cycles: 442939423 heartbeat IPC: 0.3939 cumulative IPC: 0.3532 (Simulation time: 00 hr 48 min 17 sec)
Heartbeat CPU 0 instructions: 202000922 cycles: 443627663 heartbeat IPC: 0.7265 cumulative IPC: 0.3538 (Simulation time: 00 hr 48 min 21 sec)
Heartbeat CPU 0 instructions: 202500925 cycles: 444404533 heartbeat IPC: 0.6436 cumulative IPC: 0.3543 (Simulation time: 00 hr 48 min 26 sec)
Heartbeat CPU 0 instructions: 203000929 cycles: 444982662 heartbeat IPC: 0.8649 cumulative IPC: 0.355 (Simulation time: 00 hr 48 min 30 sec)
Heartbeat CPU 0 instructions: 203500934 cycles: 447031295 heartbeat IPC: 0.2441 cumulative IPC: 0.3544 (Simulation time: 00 hr 48 min 41 sec)
Heartbeat CPU 0 instructions: 204000937 cycles: 448394854 heartbeat IPC: 0.3667 cumulative IPC: 0.3545 (Simulation time: 00 hr 48 min 48 sec)
Heartbeat CPU 0 instructions: 204500940 cycles: 450135235 heartbeat IPC: 0.2873 cumulative IPC: 0.3542 (Simulation time: 00 hr 48 min 58 sec)
Heartbeat CPU 0 instructions: 205000940 cycles: 451036421 heartbeat IPC: 0.5548 cumulative IPC: 0.3546 (Simulation time: 00 hr 49 min 03 sec)
Heartbeat CPU 0 instructions: 205500941 cycles: 451467007 heartbeat IPC: 1.161 cumulative IPC: 0.3554 (Simulation time: 00 hr 49 min 06 sec)
Heartbeat CPU 0 instructions: 206000942 cycles: 452068581 heartbeat IPC: 0.8312 cumulative IPC: 0.3561 (Simulation time: 00 hr 49 min 10 sec)
Heartbeat CPU 0 instructions: 206500942 cycles: 453778455 heartbeat IPC: 0.2924 cumulative IPC: 0.3558 (Simulation time: 00 hr 49 min 19 sec)
Heartbeat CPU 0 instructions: 207000942 cycles: 454560670 heartbeat IPC: 0.6392 cumulative IPC: 0.3563 (Simulation time: 00 hr 49 min 23 sec)
Heartbeat CPU 0 instructions: 207500943 cycles: 455196889 heartbeat IPC: 0.7859 cumulative IPC: 0.3569 (Simulation time: 00 hr 49 min 27 sec)
Heartbeat CPU 0 instructions: 208000947 cycles: 455920727 heartbeat IPC: 0.6908 cumulative IPC: 0.3575 (Simulation time: 00 hr 49 min 32 sec)
Heartbeat CPU 0 instructions: 208500947 cycles: 457648061 heartbeat IPC: 0.2895 cumulative IPC: 0.3572 (Simulation time: 00 hr 49 min 41 sec)
Heartbeat CPU 0 instructions: 209000947 cycles: 460036527 heartbeat IPC: 0.2093 cumulative IPC: 0.3564 (Simulation time: 00 hr 49 min 53 sec)
Heartbeat CPU 0 instructions: 209500948 cycles: 461162812 heartbeat IPC: 0.4439 cumulative IPC: 0.3567 (Simulation time: 00 hr 49 min 59 sec)
Heartbeat CPU 0 instructions: 210000951 cycles: 462272551 heartbeat IPC: 0.4506 cumulative IPC: 0.3569 (Simulation time: 00 hr 50 min 06 sec)
Heartbeat CPU 0 instructions: 210500951 cycles: 464847707 heartbeat IPC: 0.1942 cumulative IPC: 0.356 (Simulation time: 00 hr 50 min 18 sec)
Heartbeat CPU 0 instructions: 211000952 cycles: 467175021 heartbeat IPC: 0.2148 cumulative IPC: 0.3552 (Simulation time: 00 hr 50 min 30 sec)
Heartbeat CPU 0 instructions: 211500954 cycles: 468602117 heartbeat IPC: 0.3504 cumulative IPC: 0.3552 (Simulation time: 00 hr 50 min 38 sec)
Heartbeat CPU 0 instructions: 212000954 cycles: 470745897 heartbeat IPC: 0.2332 cumulative IPC: 0.3546 (Simulation time: 00 hr 50 min 49 sec)
Heartbeat CPU 0 instructions: 212500954 cycles: 472347842 heartbeat IPC: 0.3121 cumulative IPC: 0.3545 (Simulation time: 00 hr 50 min 57 sec)
Heartbeat CPU 0 instructions: 213000954 cycles: 473402013 heartbeat IPC: 0.4743 cumulative IPC: 0.3548 (Simulation time: 00 hr 51 min 03 sec)
Heartbeat CPU 0 instructions: 213500954 cycles: 474814722 heartbeat IPC: 0.3539 cumulative IPC: 0.3548 (Simulation time: 00 hr 51 min 11 sec)
Heartbeat CPU 0 instructions: 214000955 cycles: 476411621 heartbeat IPC: 0.3131 cumulative IPC: 0.3546 (Simulation time: 00 hr 51 min 19 sec)
Heartbeat CPU 0 instructions: 214500956 cycles: 478076071 heartbeat IPC: 0.3004 cumulative IPC: 0.3544 (Simulation time: 00 hr 51 min 28 sec)
Heartbeat CPU 0 instructions: 215000957 cycles: 480403235 heartbeat IPC: 0.2149 cumulative IPC: 0.3537 (Simulation time: 00 hr 51 min 40 sec)
Heartbeat CPU 0 instructions: 215500957 cycles: 481722326 heartbeat IPC: 0.379 cumulative IPC: 0.3538 (Simulation time: 00 hr 51 min 47 sec)
Heartbeat CPU 0 instructions: 216000959 cycles: 483693192 heartbeat IPC: 0.2537 cumulative IPC: 0.3534 (Simulation time: 00 hr 51 min 57 sec)
Heartbeat CPU 0 instructions: 216500959 cycles: 486621307 heartbeat IPC: 0.1708 cumulative IPC: 0.3523 (Simulation time: 00 hr 52 min 12 sec)
Heartbeat CPU 0 instructions: 217000959 cycles: 488728202 heartbeat IPC: 0.2373 cumulative IPC: 0.3517 (Simulation time: 00 hr 52 min 22 sec)
Heartbeat CPU 0 instructions: 217500963 cycles: 489991216 heartbeat IPC: 0.3959 cumulative IPC: 0.3519 (Simulation time: 00 hr 52 min 29 sec)
Heartbeat CPU 0 instructions: 218000966 cycles: 492359735 heartbeat IPC: 0.2111 cumulative IPC: 0.3512 (Simulation time: 00 hr 52 min 41 sec)
Heartbeat CPU 0 instructions: 218500973 cycles: 493814783 heartbeat IPC: 0.3436 cumulative IPC: 0.3511 (Simulation time: 00 hr 52 min 49 sec)
Heartbeat CPU 0 instructions: 219000974 cycles: 495010477 heartbeat IPC: 0.4182 cumulative IPC: 0.3513 (Simulation time: 00 hr 52 min 55 sec)
Heartbeat CPU 0 instructions: 219500980 cycles: 496317274 heartbeat IPC: 0.3826 cumulative IPC: 0.3514 (Simulation time: 00 hr 53 min 02 sec)
Heartbeat CPU 0 instructions: 220000981 cycles: 498666406 heartbeat IPC: 0.2128 cumulative IPC: 0.3507 (Simulation time: 00 hr 53 min 14 sec)
Heartbeat CPU 0 instructions: 220500984 cycles: 499554521 heartbeat IPC: 0.563 cumulative IPC: 0.3511 (Simulation time: 00 hr 53 min 20 sec)
Heartbeat CPU 0 instructions: 221000990 cycles: 500708152 heartbeat IPC: 0.4334 cumulative IPC: 0.3513 (Simulation time: 00 hr 53 min 26 sec)
Heartbeat CPU 0 instructions: 221500993 cycles: 503506562 heartbeat IPC: 0.1787 cumulative IPC: 0.3503 (Simulation time: 00 hr 53 min 40 sec)
Heartbeat CPU 0 instructions: 222000993 cycles: 504713489 heartbeat IPC: 0.4143 cumulative IPC: 0.3505 (Simulation time: 00 hr 53 min 46 sec)
Heartbeat CPU 0 instructions: 222500997 cycles: 506751920 heartbeat IPC: 0.2453 cumulative IPC: 0.35 (Simulation time: 00 hr 53 min 57 sec)
Heartbeat CPU 0 instructions: 223000997 cycles: 508136810 heartbeat IPC: 0.361 cumulative IPC: 0.3501 (Simulation time: 00 hr 54 min 04 sec)
Heartbeat CPU 0 instructions: 223500998 cycles: 510130149 heartbeat IPC: 0.2508 cumulative IPC: 0.3497 (Simulation time: 00 hr 54 min 14 sec)
Heartbeat CPU 0 instructions: 224000999 cycles: 512214072 heartbeat IPC: 0.2399 cumulative IPC: 0.3492 (Simulation time: 00 hr 54 min 25 sec)
Heartbeat CPU 0 instructions: 224500999 cycles: 513317180 heartbeat IPC: 0.4533 cumulative IPC: 0.3494 (Simulation time: 00 hr 54 min 31 sec)
Heartbeat CPU 0 instructions: 225001005 cycles: 514549276 heartbeat IPC: 0.4058 cumulative IPC: 0.3496 (Simulation time: 00 hr 54 min 38 sec)
Heartbeat CPU 0 instructions: 225501005 cycles: 516942463 heartbeat IPC: 0.2089 cumulative IPC: 0.3489 (Simulation time: 00 hr 54 min 50 sec)
Heartbeat CPU 0 instructions: 226001008 cycles: 518804514 heartbeat IPC: 0.2685 cumulative IPC: 0.3486 (Simulation time: 00 hr 55 min 00 sec)
Heartbeat CPU 0 instructions: 226501015 cycles: 520028193 heartbeat IPC: 0.4086 cumulative IPC: 0.3488 (Simulation time: 00 hr 55 min 06 sec)
Heartbeat CPU 0 instructions: 227001016 cycles: 520822286 heartbeat IPC: 0.6297 cumulative IPC: 0.3492 (Simulation time: 00 hr 55 min 11 sec)
Heartbeat CPU 0 instructions: 227501021 cycles: 522333937 heartbeat IPC: 0.3308 cumulative IPC: 0.3492 (Simulation time: 00 hr 55 min 19 sec)
Heartbeat CPU 0 instructions: 228001022 cycles: 524484162 heartbeat IPC: 0.2325 cumulative IPC: 0.3487 (Simulation time: 00 hr 55 min 30 sec)
Heartbeat CPU 0 instructions: 228501029 cycles: 526198312 heartbeat IPC: 0.2917 cumulative IPC: 0.3485 (Simulation time: 00 hr 55 min 39 sec)
Heartbeat CPU 0 instructions: 229001029 cycles: 526886746 heartbeat IPC: 0.7263 cumulative IPC: 0.349 (Simulation time: 00 hr 55 min 43 sec)
Heartbeat CPU 0 instructions: 229501030 cycles: 527869812 heartbeat IPC: 0.5086 cumulative IPC: 0.3493 (Simulation time: 00 hr 55 min 49 sec)
Heartbeat CPU 0 instructions: 230001033 cycles: 528206580 heartbeat IPC: 1.485 cumulative IPC: 0.35 (Simulation time: 00 hr 55 min 52 sec)
Heartbeat CPU 0 instructions: 230501037 cycles: 528523822 heartbeat IPC: 1.576 cumulative IPC: 0.3508 (Simulation time: 00 hr 55 min 55 sec)
Heartbeat CPU 0 instructions: 231001037 cycles: 528749622 heartbeat IPC: 2.214 cumulative IPC: 0.3516 (Simulation time: 00 hr 55 min 57 sec)
Heartbeat CPU 0 instructions: 231501040 cycles: 530099913 heartbeat IPC: 0.3703 cumulative IPC: 0.3516 (Simulation time: 00 hr 56 min 04 sec)
Heartbeat CPU 0 instructions: 232001041 cycles: 531679982 heartbeat IPC: 0.3164 cumulative IPC: 0.3515 (Simulation time: 00 hr 56 min 13 sec)
Heartbeat CPU 0 instructions: 232501041 cycles: 532856561 heartbeat IPC: 0.425 cumulative IPC: 0.3517 (Simulation time: 00 hr 56 min 20 sec)
Heartbeat CPU 0 instructions: 233001041 cycles: 533797360 heartbeat IPC: 0.5315 cumulative IPC: 0.352 (Simulation time: 00 hr 56 min 25 sec)
Heartbeat CPU 0 instructions: 233501044 cycles: 535818162 heartbeat IPC: 0.2474 cumulative IPC: 0.3516 (Simulation time: 00 hr 56 min 35 sec)
Heartbeat CPU 0 instructions: 234001047 cycles: 537040871 heartbeat IPC: 0.4089 cumulative IPC: 0.3518 (Simulation time: 00 hr 56 min 42 sec)
Heartbeat CPU 0 instructions: 234501053 cycles: 538119958 heartbeat IPC: 0.4634 cumulative IPC: 0.352 (Simulation time: 00 hr 56 min 48 sec)
Heartbeat CPU 0 instructions: 235001059 cycles: 538924575 heartbeat IPC: 0.6214 cumulative IPC: 0.3524 (Simulation time: 00 hr 56 min 53 sec)
Heartbeat CPU 0 instructions: 235501062 cycles: 539313837 heartbeat IPC: 1.284 cumulative IPC: 0.3531 (Simulation time: 00 hr 56 min 56 sec)
Heartbeat CPU 0 instructions: 236001062 cycles: 540884355 heartbeat IPC: 0.3184 cumulative IPC: 0.353 (Simulation time: 00 hr 57 min 04 sec)
Heartbeat CPU 0 instructions: 236501062 cycles: 541807304 heartbeat IPC: 0.5417 cumulative IPC: 0.3533 (Simulation time: 00 hr 57 min 10 sec)
Heartbeat CPU 0 instructions: 237001063 cycles: 543256302 heartbeat IPC: 0.3451 cumulative IPC: 0.3533 (Simulation time: 00 hr 57 min 17 sec)
Heartbeat CPU 0 instructions: 237501070 cycles: 546248797 heartbeat IPC: 0.1671 cumulative IPC: 0.3523 (Simulation time: 00 hr 57 min 32 sec)
Heartbeat CPU 0 instructions: 238001070 cycles: 547008328 heartbeat IPC: 0.6583 cumulative IPC: 0.3527 (Simulation time: 00 hr 57 min 37 sec)
Heartbeat CPU 0 instructions: 238501072 cycles: 549172764 heartbeat IPC: 0.231 cumulative IPC: 0.3522 (Simulation time: 00 hr 57 min 48 sec)
Heartbeat CPU 0 instructions: 239001075 cycles: 550931208 heartbeat IPC: 0.2843 cumulative IPC: 0.352 (Simulation time: 00 hr 57 min 57 sec)
Heartbeat CPU 0 instructions: 239501075 cycles: 552184838 heartbeat IPC: 0.3988 cumulative IPC: 0.3521 (Simulation time: 00 hr 58 min 04 sec)
Heartbeat CPU 0 instructions: 240001082 cycles: 554104296 heartbeat IPC: 0.2605 cumulative IPC: 0.3518 (Simulation time: 00 hr 58 min 14 sec)
Heartbeat CPU 0 instructions: 240501082 cycles: 556828621 heartbeat IPC: 0.1835 cumulative IPC: 0.3509 (Simulation time: 00 hr 58 min 28 sec)
Heartbeat CPU 0 instructions: 241001083 cycles: 558617375 heartbeat IPC: 0.2795 cumulative IPC: 0.3507 (Simulation time: 00 hr 58 min 40 sec)
Heartbeat CPU 0 instructions: 241501086 cycles: 560004662 heartbeat IPC: 0.3604 cumulative IPC: 0.3507 (Simulation time: 00 hr 58 min 50 sec)
Heartbeat CPU 0 instructions: 242001090 cycles: 561072549 heartbeat IPC: 0.4682 cumulative IPC: 0.3509 (Simulation time: 00 hr 58 min 58 sec)
Heartbeat CPU 0 instructions: 242501096 cycles: 563551931 heartbeat IPC: 0.2017 cumulative IPC: 0.3503 (Simulation time: 00 hr 59 min 14 sec)
Heartbeat CPU 0 instructions: 243001098 cycles: 565745869 heartbeat IPC: 0.2279 cumulative IPC: 0.3498 (Simulation time: 00 hr 59 min 28 sec)
Heartbeat CPU 0 instructions: 243501099 cycles: 566650825 heartbeat IPC: 0.5525 cumulative IPC: 0.3501 (Simulation time: 00 hr 59 min 35 sec)
Heartbeat CPU 0 instructions: 244001099 cycles: 567674945 heartbeat IPC: 0.4882 cumulative IPC: 0.3504 (Simulation time: 00 hr 59 min 43 sec)
Heartbeat CPU 0 instructions: 244501100 cycles: 568930175 heartbeat IPC: 0.3983 cumulative IPC: 0.3505 (Simulation time: 00 hr 59 min 52 sec)
Heartbeat CPU 0 instructions: 245001100 cycles: 570380429 heartbeat IPC: 0.3448 cumulative IPC: 0.3505 (Simulation time: 01 hr 00 min 03 sec)
Heartbeat CPU 0 instructions: 245501100 cycles: 571405798 heartbeat IPC: 0.4876 cumulative IPC: 0.3507 (Simulation time: 01 hr 00 min 11 sec)
Heartbeat CPU 0 instructions: 246001101 cycles: 572024335 heartbeat IPC: 0.8084 cumulative IPC: 0.3512 (Simulation time: 01 hr 00 min 16 sec)
Heartbeat CPU 0 instructions: 246501101 cycles: 572667289 heartbeat IPC: 0.7777 cumulative IPC: 0.3517 (Simulation time: 01 hr 00 min 21 sec)
Heartbeat CPU 0 instructions: 247001101 cycles: 573377320 heartbeat IPC: 0.7042 cumulative IPC: 0.3522 (Simulation time: 01 hr 00 min 27 sec)
Heartbeat CPU 0 instructions: 247501103 cycles: 575883697 heartbeat IPC: 0.1995 cumulative IPC: 0.3515 (Simulation time: 01 hr 00 min 44 sec)
Heartbeat CPU 0 instructions: 248001103 cycles: 577913985 heartbeat IPC: 0.2463 cumulative IPC: 0.3511 (Simulation time: 01 hr 00 min 57 sec)
Heartbeat CPU 0 instructions: 248501104 cycles: 580244829 heartbeat IPC: 0.2145 cumulative IPC: 0.3505 (Simulation time: 01 hr 01 min 12 sec)
Heartbeat CPU 0 instructions: 249001104 cycles: 581591633 heartbeat IPC: 0.3712 cumulative IPC: 0.3506 (Simulation time: 01 hr 01 min 22 sec)
Heartbeat CPU 0 instructions: 249501106 cycles: 582682694 heartbeat IPC: 0.4583 cumulative IPC: 0.3508 (Simulation time: 01 hr 01 min 31 sec)
Simulation finished CPU 0 instructions: 200000000 cycles: 570262693 cumulative IPC: 0.3507 (Simulation time: 01 hr 01 min 42 sec)
Simulation complete CPU 0 instructions: 200000000 cycles: 570262693 cumulative IPC: 0.3507 (Simulation time: 01 hr 01 min 42 sec)

ChampSim completed all CPUs

=== Simulation ===
CPU 0 runs /local-ssd/ben/dpc4-traces/gtraces_v2/yankee_0001.champsim.gz

Region of Interest Statistics

CPU 0 cumulative IPC: 0.3507 instructions: 200000000 cycles: 570262693
CPU 0 Branch Prediction Accuracy: 88.46% MPKI: 21.36 Average ROB Occupancy at Mispredict: 21.81
Branch type MPKI
BRANCH_DIRECT_JUMP: 0.852
BRANCH_INDIRECT: 0.5314
BRANCH_CONDITIONAL: 17.04
BRANCH_DIRECT_CALL: 1.57
BRANCH_INDIRECT_CALL: 0.4687
BRANCH_RETURN: 0.8973

cpu0->cpu0_STLB TOTAL        ACCESS:    1836418 HIT:    1179619 MISS:     656799 MSHR_MERGE:          0
cpu0->cpu0_STLB LOAD         ACCESS:    1836418 HIT:    1179619 MISS:     656799 MSHR_MERGE:          0
cpu0->cpu0_STLB RFO          ACCESS:          0 HIT:          0 MISS:          0 MSHR_MERGE:          0
cpu0->cpu0_STLB PREFETCH     ACCESS:          0 HIT:          0 MISS:          0 MSHR_MERGE:          0
cpu0->cpu0_STLB WRITE        ACCESS:          0 HIT:          0 MISS:          0 MSHR_MERGE:          0
cpu0->cpu0_STLB TRANSLATION  ACCESS:          0 HIT:          0 MISS:          0 MSHR_MERGE:          0
cpu0->cpu0_STLB PREFETCH REQUESTED:          0 ISSUED:          0 USEFUL:          0 USELESS:          0
cpu0->cpu0_STLB AVERAGE MISS LATENCY: 329.2 cycles
cpu0->cpu0_L2C TOTAL        ACCESS:   14897018 HIT:    9101414 MISS:    5795604 MSHR_MERGE:     877788
cpu0->cpu0_L2C LOAD         ACCESS:    3710025 HIT:    1750030 MISS:    1959995 MSHR_MERGE:      30721
cpu0->cpu0_L2C RFO          ACCESS:     742140 HIT:     254751 MISS:     487389 MSHR_MERGE:       7933
cpu0->cpu0_L2C PREFETCH     ACCESS:    8389533 HIT:    5450976 MISS:    2938557 MSHR_MERGE:     839134
cpu0->cpu0_L2C WRITE        ACCESS:    1218938 HIT:    1218932 MISS:          6 MSHR_MERGE:          0
cpu0->cpu0_L2C TRANSLATION  ACCESS:     836382 HIT:     426725 MISS:     409657 MSHR_MERGE:          0
cpu0->cpu0_L2C PREFETCH REQUESTED:    7147349 ISSUED:    6891064 USEFUL:     608619 USELESS:     964249
cpu0->cpu0_L2C AVERAGE MISS LATENCY: 338 cycles
cpu0->cpu0_L1I TOTAL        ACCESS:   13273474 HIT:   10656990 MISS:    2616484 MSHR_MERGE:     552513
cpu0->cpu0_L1I LOAD         ACCESS:   13273474 HIT:   10656990 MISS:    2616484 MSHR_MERGE:     552513
cpu0->cpu0_L1I RFO          ACCESS:          0 HIT:          0 MISS:          0 MSHR_MERGE:          0
cpu0->cpu0_L1I PREFETCH     ACCESS:          0 HIT:          0 MISS:          0 MSHR_MERGE:          0
cpu0->cpu0_L1I WRITE        ACCESS:          0 HIT:          0 MISS:          0 MSHR_MERGE:          0
cpu0->cpu0_L1I TRANSLATION  ACCESS:          0 HIT:          0 MISS:          0 MSHR_MERGE:          0
cpu0->cpu0_L1I PREFETCH REQUESTED:          0 ISSUED:          0 USEFUL:          0 USELESS:          0
cpu0->cpu0_L1I AVERAGE MISS LATENCY: 196 cycles
cpu0->cpu0_L1D TOTAL        ACCESS:   62371784 HIT:   54739832 MISS:    7631952 MSHR_MERGE:    2908860
cpu0->cpu0_L1D LOAD         ACCESS:   34261911 HIT:   32082506 MISS:    2179405 MSHR_MERGE:     533341
cpu0->cpu0_L1D RFO          ACCESS:          0 HIT:          0 MISS:          0 MSHR_MERGE:          0
cpu0->cpu0_L1D PREFETCH     ACCESS:    3285705 HIT:    1606081 MISS:    1679624 MSHR_MERGE:     181152
cpu0->cpu0_L1D WRITE        ACCESS:   22972024 HIT:   20041017 MISS:    2931007 MSHR_MERGE:    2188833
cpu0->cpu0_L1D TRANSLATION  ACCESS:    1852144 HIT:    1010228 MISS:     841916 MSHR_MERGE:       5534
cpu0->cpu0_L1D PREFETCH REQUESTED:    6074284 ISSUED:    3285698 USEFUL:     670648 USELESS:     827759
cpu0->cpu0_L1D AVERAGE MISS LATENCY: 188.6 cycles
cpu0->cpu0_ITLB TOTAL        ACCESS:   10831507 HIT:   10591998 MISS:     239509 MSHR_MERGE:     113406
cpu0->cpu0_ITLB LOAD         ACCESS:   10831507 HIT:   10591998 MISS:     239509 MSHR_MERGE:     113406
cpu0->cpu0_ITLB RFO          ACCESS:          0 HIT:          0 MISS:          0 MSHR_MERGE:          0
cpu0->cpu0_ITLB PREFETCH     ACCESS:          0 HIT:          0 MISS:          0 MSHR_MERGE:          0
cpu0->cpu0_ITLB WRITE        ACCESS:          0 HIT:          0 MISS:          0 MSHR_MERGE:          0
cpu0->cpu0_ITLB TRANSLATION  ACCESS:          0 HIT:          0 MISS:          0 MSHR_MERGE:          0
cpu0->cpu0_ITLB PREFETCH REQUESTED:          0 ISSUED:          0 USEFUL:          0 USELESS:          0
cpu0->cpu0_ITLB AVERAGE MISS LATENCY: 47.52 cycles
cpu0->cpu0_DTLB TOTAL        ACCESS:   57610716 HIT:   54795343 MISS:    2815373 MSHR_MERGE:    1105058
cpu0->cpu0_DTLB LOAD         ACCESS:   57610716 HIT:   54795343 MISS:    2815373 MSHR_MERGE:    1105058
cpu0->cpu0_DTLB RFO          ACCESS:          0 HIT:          0 MISS:          0 MSHR_MERGE:          0
cpu0->cpu0_DTLB PREFETCH     ACCESS:          0 HIT:          0 MISS:          0 MSHR_MERGE:          0
cpu0->cpu0_DTLB WRITE        ACCESS:          0 HIT:          0 MISS:          0 MSHR_MERGE:          0
cpu0->cpu0_DTLB TRANSLATION  ACCESS:          0 HIT:          0 MISS:          0 MSHR_MERGE:          0
cpu0->cpu0_DTLB PREFETCH REQUESTED:          0 ISSUED:          0 USEFUL:          0 USELESS:          0
cpu0->cpu0_DTLB AVERAGE MISS LATENCY: 128.7 cycles
cpu0->LLC TOTAL        ACCESS:    7062722 HIT:    1295805 MISS:    5766917 MSHR_MERGE:     310362
cpu0->LLC LOAD         ACCESS:    1929274 HIT:     398180 MISS:    1531094 MSHR_MERGE:       3078
cpu0->LLC RFO          ACCESS:     479456 HIT:      28913 MISS:     450543 MSHR_MERGE:        589
cpu0->LLC PREFETCH     ACCESS:    3384699 HIT:     608765 MISS:    2775934 MSHR_MERGE:     306695
cpu0->LLC WRITE        ACCESS:     859636 HIT:     221739 MISS:     637897 MSHR_MERGE:          0
cpu0->LLC TRANSLATION  ACCESS:     409657 HIT:      38208 MISS:     371449 MSHR_MERGE:          0
cpu0->LLC PREFETCH REQUESTED:    1364399 ISSUED:    1285276 USEFUL:     115285 USELESS:     685747
cpu0->LLC AVERAGE MISS LATENCY: 300.9 cycles

DRAM Statistics

Channel 0 RQ ROW_BUFFER_HIT:      91478
  ROW_BUFFER_MISS:    4727037
  AVG DBUS CONGESTED CYCLE: 4.119
Channel 0 WQ ROW_BUFFER_HIT:     157613
  ROW_BUFFER_MISS:     639251
  FULL:          0
Channel 0 REFRESHES ISSUED:      47522
