[VMEM] WARNING: physical memory size is smaller than virtual memory size.

*** ChampSim Multicore Out-of-Order Simulator ***
Warmup Instructions: 50000000
Simulation Instructions: 200000000
Number of CPUs: 1
Page size: 4096
Core 0: /local-ssd/ben/dpc4-traces/gtraces_v2/merced_0000.champsim.gz
sBerti (Smart Stride + Berti) Prefetcher Initialized
Off-chip DRAM Size: 64 GiB Channels: 1 Width: 64-bit Data Rate: 800 MT/s
Heartbeat CPU 0 instructions: 500000 cycles: 160276 heartbeat IPC: 3.12 cumulative IPC: 3.12 (Simulation time: 00 hr 00 min 03 sec)
Heartbeat CPU 0 instructions: 1000000 cycles: 369399 heartbeat IPC: 2.391 cumulative IPC: 2.707 (Simulation time: 00 hr 00 min 06 sec)
[BTB] WARNING: target of return is a lower address than the corresponding call. This is usually a problem with your trace.
[BTB] WARNING: target of return is a lower address than the corresponding call. This is usually a problem with your trace.
[BTB] WARNING: target of return is a lower address than the corresponding call. This is usually a problem with your trace.
Heartbeat CPU 0 instructions: 1500006 cycles: 593876 heartbeat IPC: 2.227 cumulative IPC: 2.526 (Simulation time: 00 hr 00 min 09 sec)
[BTB] WARNING: target of return is a lower address than the corresponding call. This is usually a problem with your trace.
[BTB] WARNING: target of return is a lower address than the corresponding call. This is usually a problem with your trace.
[BTB] WARNING: target of return is a lower address than the corresponding call. This is usually a problem with your trace.
[BTB] WARNING: target of return is a lower address than the corresponding call. This is usually a problem with your trace.
[BTB] WARNING: target of return is a lower address than the corresponding call. This is usually a problem with your trace.
[BTB] WARNING: target of return is a lower address than the corresponding call. This is usually a problem with your trace.
[BTB] WARNING: target of return is a lower address than the corresponding call. This is usually a problem with your trace.
Heartbeat CPU 0 instructions: 2000011 cycles: 779164 heartbeat IPC: 2.699 cumulative IPC: 2.567 (Simulation time: 00 hr 00 min 12 sec)
Heartbeat CPU 0 instructions: 2500015 cycles: 973005 heartbeat IPC: 2.579 cumulative IPC: 2.569 (Simulation time: 00 hr 00 min 15 sec)
Heartbeat CPU 0 instructions: 3000018 cycles: 1169064 heartbeat IPC: 2.55 cumulative IPC: 2.566 (Simulation time: 00 hr 00 min 18 sec)
Heartbeat CPU 0 instructions: 3500018 cycles: 1293346 heartbeat IPC: 4.023 cumulative IPC: 2.706 (Simulation time: 00 hr 00 min 21 sec)
Heartbeat CPU 0 instructions: 4000023 cycles: 1446509 heartbeat IPC: 3.265 cumulative IPC: 2.765 (Simulation time: 00 hr 00 min 23 sec)
Heartbeat CPU 0 instructions: 4500026 cycles: 1567924 heartbeat IPC: 4.118 cumulative IPC: 2.87 (Simulation time: 00 hr 00 min 25 sec)
Heartbeat CPU 0 instructions: 5000032 cycles: 1713011 heartbeat IPC: 3.446 cumulative IPC: 2.919 (Simulation time: 00 hr 00 min 28 sec)
Heartbeat CPU 0 instructions: 5500035 cycles: 1844073 heartbeat IPC: 3.815 cumulative IPC: 2.983 (Simulation time: 00 hr 00 min 31 sec)
Heartbeat CPU 0 instructions: 6000039 cycles: 1980621 heartbeat IPC: 3.662 cumulative IPC: 3.029 (Simulation time: 00 hr 00 min 33 sec)
Heartbeat CPU 0 instructions: 6500046 cycles: 2138442 heartbeat IPC: 3.168 cumulative IPC: 3.04 (Simulation time: 00 hr 00 min 36 sec)
Heartbeat CPU 0 instructions: 7000047 cycles: 2286062 heartbeat IPC: 3.387 cumulative IPC: 3.062 (Simulation time: 00 hr 00 min 38 sec)
Heartbeat CPU 0 instructions: 7500049 cycles: 2422290 heartbeat IPC: 3.67 cumulative IPC: 3.096 (Simulation time: 00 hr 00 min 41 sec)
Heartbeat CPU 0 instructions: 8000050 cycles: 2535294 heartbeat IPC: 4.425 cumulative IPC: 3.155 (Simulation time: 00 hr 00 min 43 sec)
Heartbeat CPU 0 instructions: 8500051 cycles: 2667808 heartbeat IPC: 3.773 cumulative IPC: 3.186 (Simulation time: 00 hr 00 min 45 sec)
Heartbeat CPU 0 instructions: 9000057 cycles: 2827311 heartbeat IPC: 3.135 cumulative IPC: 3.183 (Simulation time: 00 hr 00 min 47 sec)
Heartbeat CPU 0 instructions: 9500062 cycles: 2953399 heartbeat IPC: 3.966 cumulative IPC: 3.217 (Simulation time: 00 hr 00 min 50 sec)
Heartbeat CPU 0 instructions: 10000068 cycles: 3067950 heartbeat IPC: 4.365 cumulative IPC: 3.26 (Simulation time: 00 hr 00 min 52 sec)
Heartbeat CPU 0 instructions: 10500070 cycles: 3201192 heartbeat IPC: 3.753 cumulative IPC: 3.28 (Simulation time: 00 hr 00 min 54 sec)
Heartbeat CPU 0 instructions: 11000077 cycles: 3370246 heartbeat IPC: 2.958 cumulative IPC: 3.264 (Simulation time: 00 hr 00 min 57 sec)
Heartbeat CPU 0 instructions: 11500080 cycles: 3531944 heartbeat IPC: 3.092 cumulative IPC: 3.256 (Simulation time: 00 hr 01 min 00 sec)
Heartbeat CPU 0 instructions: 12000083 cycles: 3693925 heartbeat IPC: 3.087 cumulative IPC: 3.249 (Simulation time: 00 hr 01 min 03 sec)
Heartbeat CPU 0 instructions: 12500090 cycles: 3825994 heartbeat IPC: 3.786 cumulative IPC: 3.267 (Simulation time: 00 hr 01 min 05 sec)
Heartbeat CPU 0 instructions: 13000093 cycles: 3989489 heartbeat IPC: 3.058 cumulative IPC: 3.259 (Simulation time: 00 hr 01 min 08 sec)
Heartbeat CPU 0 instructions: 13500095 cycles: 4161876 heartbeat IPC: 2.9 cumulative IPC: 3.244 (Simulation time: 00 hr 01 min 11 sec)
Heartbeat CPU 0 instructions: 14000099 cycles: 4330677 heartbeat IPC: 2.962 cumulative IPC: 3.233 (Simulation time: 00 hr 01 min 14 sec)
Heartbeat CPU 0 instructions: 14500102 cycles: 4444510 heartbeat IPC: 4.392 cumulative IPC: 3.262 (Simulation time: 00 hr 01 min 17 sec)
Heartbeat CPU 0 instructions: 15000106 cycles: 4586878 heartbeat IPC: 3.512 cumulative IPC: 3.27 (Simulation time: 00 hr 01 min 19 sec)
Heartbeat CPU 0 instructions: 15500109 cycles: 4732211 heartbeat IPC: 3.44 cumulative IPC: 3.275 (Simulation time: 00 hr 01 min 22 sec)
Heartbeat CPU 0 instructions: 16000114 cycles: 4848423 heartbeat IPC: 4.303 cumulative IPC: 3.3 (Simulation time: 00 hr 01 min 24 sec)
Heartbeat CPU 0 instructions: 16500118 cycles: 4974454 heartbeat IPC: 3.967 cumulative IPC: 3.317 (Simulation time: 00 hr 01 min 26 sec)
Heartbeat CPU 0 instructions: 17000122 cycles: 5111687 heartbeat IPC: 3.643 cumulative IPC: 3.326 (Simulation time: 00 hr 01 min 29 sec)
Heartbeat CPU 0 instructions: 17500127 cycles: 5287841 heartbeat IPC: 2.838 cumulative IPC: 3.31 (Simulation time: 00 hr 01 min 32 sec)
Heartbeat CPU 0 instructions: 18000132 cycles: 5398200 heartbeat IPC: 4.531 cumulative IPC: 3.334 (Simulation time: 00 hr 01 min 34 sec)
Heartbeat CPU 0 instructions: 18500136 cycles: 5544042 heartbeat IPC: 3.428 cumulative IPC: 3.337 (Simulation time: 00 hr 01 min 36 sec)
Heartbeat CPU 0 instructions: 19000143 cycles: 5678437 heartbeat IPC: 3.72 cumulative IPC: 3.346 (Simulation time: 00 hr 01 min 38 sec)
Heartbeat CPU 0 instructions: 19500148 cycles: 5783878 heartbeat IPC: 4.742 cumulative IPC: 3.371 (Simulation time: 00 hr 01 min 40 sec)
Heartbeat CPU 0 instructions: 20000152 cycles: 5886940 heartbeat IPC: 4.851 cumulative IPC: 3.397 (Simulation time: 00 hr 01 min 42 sec)
Heartbeat CPU 0 instructions: 20500152 cycles: 5988402 heartbeat IPC: 4.928 cumulative IPC: 3.423 (Simulation time: 00 hr 01 min 43 sec)
Heartbeat CPU 0 instructions: 21000158 cycles: 6089159 heartbeat IPC: 4.962 cumulative IPC: 3.449 (Simulation time: 00 hr 01 min 44 sec)
Heartbeat CPU 0 instructions: 21500165 cycles: 6198194 heartbeat IPC: 4.586 cumulative IPC: 3.469 (Simulation time: 00 hr 01 min 46 sec)
Heartbeat CPU 0 instructions: 22000171 cycles: 6308473 heartbeat IPC: 4.534 cumulative IPC: 3.487 (Simulation time: 00 hr 01 min 48 sec)
Heartbeat CPU 0 instructions: 22500178 cycles: 6469110 heartbeat IPC: 3.113 cumulative IPC: 3.478 (Simulation time: 00 hr 01 min 50 sec)
Heartbeat CPU 0 instructions: 23000182 cycles: 6630185 heartbeat IPC: 3.104 cumulative IPC: 3.469 (Simulation time: 00 hr 01 min 54 sec)
Heartbeat CPU 0 instructions: 23500187 cycles: 6748363 heartbeat IPC: 4.231 cumulative IPC: 3.482 (Simulation time: 00 hr 01 min 56 sec)
Heartbeat CPU 0 instructions: 24000193 cycles: 6850913 heartbeat IPC: 4.876 cumulative IPC: 3.503 (Simulation time: 00 hr 01 min 58 sec)
Heartbeat CPU 0 instructions: 24500195 cycles: 6991041 heartbeat IPC: 3.568 cumulative IPC: 3.505 (Simulation time: 00 hr 02 min 00 sec)
Heartbeat CPU 0 instructions: 25000198 cycles: 7142477 heartbeat IPC: 3.302 cumulative IPC: 3.5 (Simulation time: 00 hr 02 min 03 sec)
Heartbeat CPU 0 instructions: 25500198 cycles: 7272927 heartbeat IPC: 3.833 cumulative IPC: 3.506 (Simulation time: 00 hr 02 min 05 sec)
Heartbeat CPU 0 instructions: 26000200 cycles: 7417216 heartbeat IPC: 3.465 cumulative IPC: 3.505 (Simulation time: 00 hr 02 min 08 sec)
Heartbeat CPU 0 instructions: 26500204 cycles: 7576728 heartbeat IPC: 3.135 cumulative IPC: 3.498 (Simulation time: 00 hr 02 min 11 sec)
Heartbeat CPU 0 instructions: 27000208 cycles: 7721936 heartbeat IPC: 3.443 cumulative IPC: 3.497 (Simulation time: 00 hr 02 min 14 sec)
Heartbeat CPU 0 instructions: 27500214 cycles: 7888230 heartbeat IPC: 3.007 cumulative IPC: 3.486 (Simulation time: 00 hr 02 min 17 sec)
Heartbeat CPU 0 instructions: 28000215 cycles: 8010119 heartbeat IPC: 4.102 cumulative IPC: 3.496 (Simulation time: 00 hr 02 min 19 sec)
Heartbeat CPU 0 instructions: 28500220 cycles: 8131350 heartbeat IPC: 4.124 cumulative IPC: 3.505 (Simulation time: 00 hr 02 min 22 sec)
Heartbeat CPU 0 instructions: 29000222 cycles: 8267115 heartbeat IPC: 3.683 cumulative IPC: 3.508 (Simulation time: 00 hr 02 min 24 sec)
Heartbeat CPU 0 instructions: 29500223 cycles: 8394474 heartbeat IPC: 3.926 cumulative IPC: 3.514 (Simulation time: 00 hr 02 min 27 sec)
Heartbeat CPU 0 instructions: 30000228 cycles: 8504391 heartbeat IPC: 4.549 cumulative IPC: 3.528 (Simulation time: 00 hr 02 min 29 sec)
Heartbeat CPU 0 instructions: 30500229 cycles: 8624256 heartbeat IPC: 4.171 cumulative IPC: 3.537 (Simulation time: 00 hr 02 min 31 sec)
Heartbeat CPU 0 instructions: 31000235 cycles: 8741635 heartbeat IPC: 4.26 cumulative IPC: 3.546 (Simulation time: 00 hr 02 min 33 sec)
Heartbeat CPU 0 instructions: 31500242 cycles: 8870603 heartbeat IPC: 3.877 cumulative IPC: 3.551 (Simulation time: 00 hr 02 min 35 sec)
Heartbeat CPU 0 instructions: 32000249 cycles: 9006070 heartbeat IPC: 3.691 cumulative IPC: 3.553 (Simulation time: 00 hr 02 min 37 sec)
Heartbeat CPU 0 instructions: 32500253 cycles: 9182921 heartbeat IPC: 2.827 cumulative IPC: 3.539 (Simulation time: 00 hr 02 min 40 sec)
Heartbeat CPU 0 instructions: 33000260 cycles: 9312266 heartbeat IPC: 3.866 cumulative IPC: 3.544 (Simulation time: 00 hr 02 min 42 sec)
Heartbeat CPU 0 instructions: 33500263 cycles: 9416187 heartbeat IPC: 4.811 cumulative IPC: 3.558 (Simulation time: 00 hr 02 min 43 sec)
Heartbeat CPU 0 instructions: 34000264 cycles: 9554849 heartbeat IPC: 3.606 cumulative IPC: 3.558 (Simulation time: 00 hr 02 min 46 sec)
Heartbeat CPU 0 instructions: 34500268 cycles: 9699092 heartbeat IPC: 3.466 cumulative IPC: 3.557 (Simulation time: 00 hr 02 min 49 sec)
Heartbeat CPU 0 instructions: 35000273 cycles: 9849085 heartbeat IPC: 3.334 cumulative IPC: 3.554 (Simulation time: 00 hr 02 min 51 sec)
Heartbeat CPU 0 instructions: 35500273 cycles: 9978522 heartbeat IPC: 3.863 cumulative IPC: 3.558 (Simulation time: 00 hr 02 min 53 sec)
Heartbeat CPU 0 instructions: 36000274 cycles: 10085285 heartbeat IPC: 4.683 cumulative IPC: 3.57 (Simulation time: 00 hr 02 min 55 sec)
Heartbeat CPU 0 instructions: 36500280 cycles: 10226395 heartbeat IPC: 3.543 cumulative IPC: 3.569 (Simulation time: 00 hr 02 min 58 sec)
Heartbeat CPU 0 instructions: 37000287 cycles: 10347034 heartbeat IPC: 4.145 cumulative IPC: 3.576 (Simulation time: 00 hr 03 min 00 sec)
Heartbeat CPU 0 instructions: 37500289 cycles: 10468283 heartbeat IPC: 4.124 cumulative IPC: 3.582 (Simulation time: 00 hr 03 min 03 sec)
Heartbeat CPU 0 instructions: 38000295 cycles: 10620468 heartbeat IPC: 3.286 cumulative IPC: 3.578 (Simulation time: 00 hr 03 min 05 sec)
Heartbeat CPU 0 instructions: 38500299 cycles: 10760103 heartbeat IPC: 3.581 cumulative IPC: 3.578 (Simulation time: 00 hr 03 min 08 sec)
Heartbeat CPU 0 instructions: 39000299 cycles: 10883976 heartbeat IPC: 4.036 cumulative IPC: 3.583 (Simulation time: 00 hr 03 min 10 sec)
Heartbeat CPU 0 instructions: 39500303 cycles: 11008760 heartbeat IPC: 4.007 cumulative IPC: 3.588 (Simulation time: 00 hr 03 min 12 sec)
Heartbeat CPU 0 instructions: 40000304 cycles: 11116065 heartbeat IPC: 4.66 cumulative IPC: 3.598 (Simulation time: 00 hr 03 min 14 sec)
Heartbeat CPU 0 instructions: 40500310 cycles: 11236673 heartbeat IPC: 4.146 cumulative IPC: 3.604 (Simulation time: 00 hr 03 min 16 sec)
Heartbeat CPU 0 instructions: 41000314 cycles: 11369623 heartbeat IPC: 3.761 cumulative IPC: 3.606 (Simulation time: 00 hr 03 min 19 sec)
Heartbeat CPU 0 instructions: 41500318 cycles: 11531955 heartbeat IPC: 3.08 cumulative IPC: 3.599 (Simulation time: 00 hr 03 min 22 sec)
Heartbeat CPU 0 instructions: 42000322 cycles: 11668828 heartbeat IPC: 3.653 cumulative IPC: 3.599 (Simulation time: 00 hr 03 min 24 sec)
Heartbeat CPU 0 instructions: 42500327 cycles: 11822175 heartbeat IPC: 3.261 cumulative IPC: 3.595 (Simulation time: 00 hr 03 min 27 sec)
Heartbeat CPU 0 instructions: 43000334 cycles: 11990623 heartbeat IPC: 2.968 cumulative IPC: 3.586 (Simulation time: 00 hr 03 min 30 sec)
Heartbeat CPU 0 instructions: 43500334 cycles: 12111049 heartbeat IPC: 4.152 cumulative IPC: 3.592 (Simulation time: 00 hr 03 min 32 sec)
Heartbeat CPU 0 instructions: 44000340 cycles: 12293759 heartbeat IPC: 2.737 cumulative IPC: 3.579 (Simulation time: 00 hr 03 min 35 sec)
Heartbeat CPU 0 instructions: 44500341 cycles: 12454039 heartbeat IPC: 3.12 cumulative IPC: 3.573 (Simulation time: 00 hr 03 min 38 sec)
Heartbeat CPU 0 instructions: 45000343 cycles: 12605859 heartbeat IPC: 3.293 cumulative IPC: 3.57 (Simulation time: 00 hr 03 min 41 sec)
Heartbeat CPU 0 instructions: 45500346 cycles: 12744867 heartbeat IPC: 3.597 cumulative IPC: 3.57 (Simulation time: 00 hr 03 min 43 sec)
Heartbeat CPU 0 instructions: 46000351 cycles: 12904395 heartbeat IPC: 3.134 cumulative IPC: 3.565 (Simulation time: 00 hr 03 min 46 sec)
Heartbeat CPU 0 instructions: 46500352 cycles: 13035000 heartbeat IPC: 3.828 cumulative IPC: 3.567 (Simulation time: 00 hr 03 min 48 sec)
Heartbeat CPU 0 instructions: 47000353 cycles: 13145810 heartbeat IPC: 4.512 cumulative IPC: 3.575 (Simulation time: 00 hr 03 min 50 sec)
Heartbeat CPU 0 instructions: 47500360 cycles: 13267368 heartbeat IPC: 4.113 cumulative IPC: 3.58 (Simulation time: 00 hr 03 min 51 sec)
Heartbeat CPU 0 instructions: 48000362 cycles: 13407701 heartbeat IPC: 3.563 cumulative IPC: 3.58 (Simulation time: 00 hr 03 min 53 sec)
Heartbeat CPU 0 instructions: 48500367 cycles: 13538655 heartbeat IPC: 3.818 cumulative IPC: 3.582 (Simulation time: 00 hr 03 min 56 sec)
Heartbeat CPU 0 instructions: 49000367 cycles: 13670645 heartbeat IPC: 3.788 cumulative IPC: 3.584 (Simulation time: 00 hr 03 min 58 sec)
Heartbeat CPU 0 instructions: 49500367 cycles: 13832033 heartbeat IPC: 3.098 cumulative IPC: 3.579 (Simulation time: 00 hr 04 min 01 sec)
Warmup halting CPU 0 at instruction 50000005 cycle 13966370 for remainder of phase
Warmup finished CPU 0 instructions: 50000005 cycles: 13966370 cumulative IPC: 3.58 (Simulation time: 00 hr 04 min 03 sec)
Warmup complete CPU 0 instructions: 50000005 cycles: 13966370 cumulative IPC: 3.58 (Simulation time: 00 hr 04 min 03 sec)
Heartbeat CPU 0 instructions: 50000368 cycles: 13966488 heartbeat IPC: 3.719 cumulative IPC: 3.076 (Simulation time: 00 hr 04 min 03 sec)
Heartbeat CPU 0 instructions: 50500369 cycles: 14462050 heartbeat IPC: 1.009 cumulative IPC: 1.009 (Simulation time: 00 hr 04 min 08 sec)
Heartbeat CPU 0 instructions: 51000371 cycles: 16030256 heartbeat IPC: 0.3188 cumulative IPC: 0.4847 (Simulation time: 00 hr 04 min 19 sec)
Heartbeat CPU 0 instructions: 51500371 cycles: 17210386 heartbeat IPC: 0.4237 cumulative IPC: 0.4625 (Simulation time: 00 hr 04 min 27 sec)
Heartbeat CPU 0 instructions: 52000371 cycles: 17951872 heartbeat IPC: 0.6743 cumulative IPC: 0.5019 (Simulation time: 00 hr 04 min 33 sec)
Heartbeat CPU 0 instructions: 52500372 cycles: 19460680 heartbeat IPC: 0.3314 cumulative IPC: 0.4551 (Simulation time: 00 hr 04 min 43 sec)
Heartbeat CPU 0 instructions: 53000372 cycles: 20947625 heartbeat IPC: 0.3363 cumulative IPC: 0.4298 (Simulation time: 00 hr 04 min 54 sec)
Heartbeat CPU 0 instructions: 53500372 cycles: 22122608 heartbeat IPC: 0.4255 cumulative IPC: 0.4292 (Simulation time: 00 hr 05 min 02 sec)
Heartbeat CPU 0 instructions: 54000379 cycles: 23010354 heartbeat IPC: 0.5632 cumulative IPC: 0.4423 (Simulation time: 00 hr 05 min 08 sec)
Heartbeat CPU 0 instructions: 54500379 cycles: 25258104 heartbeat IPC: 0.2224 cumulative IPC: 0.3986 (Simulation time: 00 hr 05 min 22 sec)
Heartbeat CPU 0 instructions: 55000379 cycles: 26745133 heartbeat IPC: 0.3362 cumulative IPC: 0.3913 (Simulation time: 00 hr 05 min 32 sec)
Heartbeat CPU 0 instructions: 55500381 cycles: 27376725 heartbeat IPC: 0.7917 cumulative IPC: 0.4102 (Simulation time: 00 hr 05 min 37 sec)
Heartbeat CPU 0 instructions: 56000386 cycles: 27811226 heartbeat IPC: 1.151 cumulative IPC: 0.4334 (Simulation time: 00 hr 05 min 40 sec)
Heartbeat CPU 0 instructions: 56500388 cycles: 29492405 heartbeat IPC: 0.2974 cumulative IPC: 0.4187 (Simulation time: 00 hr 05 min 51 sec)
Heartbeat CPU 0 instructions: 57000388 cycles: 30722786 heartbeat IPC: 0.4064 cumulative IPC: 0.4178 (Simulation time: 00 hr 05 min 59 sec)
Heartbeat CPU 0 instructions: 57500389 cycles: 32052473 heartbeat IPC: 0.376 cumulative IPC: 0.4147 (Simulation time: 00 hr 06 min 08 sec)
Heartbeat CPU 0 instructions: 58000389 cycles: 33687224 heartbeat IPC: 0.3059 cumulative IPC: 0.4057 (Simulation time: 00 hr 06 min 19 sec)
Heartbeat CPU 0 instructions: 58500390 cycles: 34809138 heartbeat IPC: 0.4457 cumulative IPC: 0.4078 (Simulation time: 00 hr 06 min 26 sec)
Heartbeat CPU 0 instructions: 59000395 cycles: 36008578 heartbeat IPC: 0.4169 cumulative IPC: 0.4083 (Simulation time: 00 hr 06 min 34 sec)
Heartbeat CPU 0 instructions: 59500400 cycles: 36773456 heartbeat IPC: 0.6537 cumulative IPC: 0.4166 (Simulation time: 00 hr 06 min 40 sec)
Heartbeat CPU 0 instructions: 60000405 cycles: 37624576 heartbeat IPC: 0.5875 cumulative IPC: 0.4227 (Simulation time: 00 hr 06 min 46 sec)
Heartbeat CPU 0 instructions: 60500407 cycles: 38322565 heartbeat IPC: 0.7163 cumulative IPC: 0.4311 (Simulation time: 00 hr 06 min 51 sec)
Heartbeat CPU 0 instructions: 61000408 cycles: 38644244 heartbeat IPC: 1.554 cumulative IPC: 0.4458 (Simulation time: 00 hr 06 min 54 sec)
Heartbeat CPU 0 instructions: 61500412 cycles: 38916961 heartbeat IPC: 1.833 cumulative IPC: 0.4609 (Simulation time: 00 hr 06 min 57 sec)
Heartbeat CPU 0 instructions: 62000414 cycles: 39176390 heartbeat IPC: 1.927 cumulative IPC: 0.476 (Simulation time: 00 hr 06 min 59 sec)
Heartbeat CPU 0 instructions: 62500414 cycles: 39592898 heartbeat IPC: 1.2 cumulative IPC: 0.4878 (Simulation time: 00 hr 07 min 03 sec)
Heartbeat CPU 0 instructions: 63000415 cycles: 40017583 heartbeat IPC: 1.177 cumulative IPC: 0.499 (Simulation time: 00 hr 07 min 06 sec)
Heartbeat CPU 0 instructions: 63500415 cycles: 40418495 heartbeat IPC: 1.247 cumulative IPC: 0.5104 (Simulation time: 00 hr 07 min 10 sec)
Heartbeat CPU 0 instructions: 64000415 cycles: 40919832 heartbeat IPC: 0.9973 cumulative IPC: 0.5194 (Simulation time: 00 hr 07 min 14 sec)
Heartbeat CPU 0 instructions: 64500415 cycles: 41767777 heartbeat IPC: 0.5897 cumulative IPC: 0.5216 (Simulation time: 00 hr 07 min 20 sec)
Heartbeat CPU 0 instructions: 65000419 cycles: 42361102 heartbeat IPC: 0.8427 cumulative IPC: 0.5283 (Simulation time: 00 hr 07 min 25 sec)
Heartbeat CPU 0 instructions: 65500419 cycles: 43883884 heartbeat IPC: 0.3283 cumulative IPC: 0.5181 (Simulation time: 00 hr 07 min 34 sec)
Heartbeat CPU 0 instructions: 66000419 cycles: 46254278 heartbeat IPC: 0.2109 cumulative IPC: 0.4956 (Simulation time: 00 hr 07 min 49 sec)
Heartbeat CPU 0 instructions: 66500422 cycles: 48114767 heartbeat IPC: 0.2687 cumulative IPC: 0.4832 (Simulation time: 00 hr 08 min 01 sec)
Heartbeat CPU 0 instructions: 67000423 cycles: 49170747 heartbeat IPC: 0.4735 cumulative IPC: 0.4829 (Simulation time: 00 hr 08 min 09 sec)
Heartbeat CPU 0 instructions: 67500425 cycles: 49903999 heartbeat IPC: 0.6819 cumulative IPC: 0.487 (Simulation time: 00 hr 08 min 14 sec)
Heartbeat CPU 0 instructions: 68000427 cycles: 50286116 heartbeat IPC: 1.309 cumulative IPC: 0.4956 (Simulation time: 00 hr 08 min 17 sec)
Heartbeat CPU 0 instructions: 68500431 cycles: 51094636 heartbeat IPC: 0.6184 cumulative IPC: 0.4983 (Simulation time: 00 hr 08 min 23 sec)
Heartbeat CPU 0 instructions: 69000434 cycles: 51807142 heartbeat IPC: 0.7018 cumulative IPC: 0.5021 (Simulation time: 00 hr 08 min 28 sec)
Heartbeat CPU 0 instructions: 69500438 cycles: 52227559 heartbeat IPC: 1.189 cumulative IPC: 0.5097 (Simulation time: 00 hr 08 min 31 sec)
Heartbeat CPU 0 instructions: 70000443 cycles: 52798807 heartbeat IPC: 0.8753 cumulative IPC: 0.515 (Simulation time: 00 hr 08 min 36 sec)
Heartbeat CPU 0 instructions: 70500446 cycles: 54893561 heartbeat IPC: 0.2387 cumulative IPC: 0.5009 (Simulation time: 00 hr 08 min 49 sec)
Heartbeat CPU 0 instructions: 71000446 cycles: 57011863 heartbeat IPC: 0.236 cumulative IPC: 0.4879 (Simulation time: 00 hr 09 min 02 sec)
Heartbeat CPU 0 instructions: 71500447 cycles: 59823992 heartbeat IPC: 0.1778 cumulative IPC: 0.4689 (Simulation time: 00 hr 09 min 18 sec)
Heartbeat CPU 0 instructions: 72000451 cycles: 62588111 heartbeat IPC: 0.1809 cumulative IPC: 0.4525 (Simulation time: 00 hr 09 min 35 sec)
Heartbeat CPU 0 instructions: 72500457 cycles: 63947264 heartbeat IPC: 0.3679 cumulative IPC: 0.4502 (Simulation time: 00 hr 09 min 45 sec)
Heartbeat CPU 0 instructions: 73000458 cycles: 65696638 heartbeat IPC: 0.2858 cumulative IPC: 0.4446 (Simulation time: 00 hr 09 min 56 sec)
Heartbeat CPU 0 instructions: 73500458 cycles: 67919716 heartbeat IPC: 0.2249 cumulative IPC: 0.4356 (Simulation time: 00 hr 10 min 11 sec)
Heartbeat CPU 0 instructions: 74000459 cycles: 69582471 heartbeat IPC: 0.3007 cumulative IPC: 0.4315 (Simulation time: 00 hr 10 min 21 sec)
Heartbeat CPU 0 instructions: 74500463 cycles: 70882222 heartbeat IPC: 0.3847 cumulative IPC: 0.4305 (Simulation time: 00 hr 10 min 30 sec)
Heartbeat CPU 0 instructions: 75000469 cycles: 72368792 heartbeat IPC: 0.3363 cumulative IPC: 0.4281 (Simulation time: 00 hr 10 min 40 sec)
Heartbeat CPU 0 instructions: 75500469 cycles: 73584253 heartbeat IPC: 0.4114 cumulative IPC: 0.4277 (Simulation time: 00 hr 10 min 49 sec)
Heartbeat CPU 0 instructions: 76000473 cycles: 74778672 heartbeat IPC: 0.4186 cumulative IPC: 0.4276 (Simulation time: 00 hr 10 min 58 sec)
Heartbeat CPU 0 instructions: 76500474 cycles: 75693513 heartbeat IPC: 0.5465 cumulative IPC: 0.4293 (Simulation time: 00 hr 11 min 06 sec)
Heartbeat CPU 0 instructions: 77000476 cycles: 78343966 heartbeat IPC: 0.1886 cumulative IPC: 0.4194 (Simulation time: 00 hr 11 min 21 sec)
Heartbeat CPU 0 instructions: 77500476 cycles: 81108929 heartbeat IPC: 0.1808 cumulative IPC: 0.4096 (Simulation time: 00 hr 11 min 38 sec)
Heartbeat CPU 0 instructions: 78000477 cycles: 82530787 heartbeat IPC: 0.3517 cumulative IPC: 0.4084 (Simulation time: 00 hr 11 min 47 sec)
Heartbeat CPU 0 instructions: 78500478 cycles: 84327614 heartbeat IPC: 0.2783 cumulative IPC: 0.4051 (Simulation time: 00 hr 11 min 58 sec)
Heartbeat CPU 0 instructions: 79000478 cycles: 85938239 heartbeat IPC: 0.3104 cumulative IPC: 0.4029 (Simulation time: 00 hr 12 min 08 sec)
Heartbeat CPU 0 instructions: 79500479 cycles: 88244851 heartbeat IPC: 0.2168 cumulative IPC: 0.3972 (Simulation time: 00 hr 12 min 22 sec)
Heartbeat CPU 0 instructions: 80000481 cycles: 90284253 heartbeat IPC: 0.2452 cumulative IPC: 0.3931 (Simulation time: 00 hr 12 min 34 sec)
Heartbeat CPU 0 instructions: 80500484 cycles: 92987081 heartbeat IPC: 0.185 cumulative IPC: 0.386 (Simulation time: 00 hr 12 min 51 sec)
Heartbeat CPU 0 instructions: 81000488 cycles: 94111931 heartbeat IPC: 0.4445 cumulative IPC: 0.3868 (Simulation time: 00 hr 12 min 59 sec)
Heartbeat CPU 0 instructions: 81500488 cycles: 96044632 heartbeat IPC: 0.2587 cumulative IPC: 0.3838 (Simulation time: 00 hr 13 min 10 sec)
Heartbeat CPU 0 instructions: 82000488 cycles: 98329414 heartbeat IPC: 0.2188 cumulative IPC: 0.3793 (Simulation time: 00 hr 13 min 24 sec)
Heartbeat CPU 0 instructions: 82500488 cycles: 99981078 heartbeat IPC: 0.3027 cumulative IPC: 0.3778 (Simulation time: 00 hr 13 min 35 sec)
Heartbeat CPU 0 instructions: 83000490 cycles: 101891541 heartbeat IPC: 0.2617 cumulative IPC: 0.3753 (Simulation time: 00 hr 13 min 47 sec)
Heartbeat CPU 0 instructions: 83500490 cycles: 102578149 heartbeat IPC: 0.7282 cumulative IPC: 0.3781 (Simulation time: 00 hr 13 min 52 sec)
Heartbeat CPU 0 instructions: 84000490 cycles: 103703957 heartbeat IPC: 0.4441 cumulative IPC: 0.3789 (Simulation time: 00 hr 13 min 59 sec)
Heartbeat CPU 0 instructions: 84500492 cycles: 103939516 heartbeat IPC: 2.123 cumulative IPC: 0.3835 (Simulation time: 00 hr 14 min 02 sec)
Heartbeat CPU 0 instructions: 85000492 cycles: 105088133 heartbeat IPC: 0.4353 cumulative IPC: 0.3841 (Simulation time: 00 hr 14 min 09 sec)
Heartbeat CPU 0 instructions: 85500499 cycles: 106275082 heartbeat IPC: 0.4213 cumulative IPC: 0.3846 (Simulation time: 00 hr 14 min 17 sec)
Heartbeat CPU 0 instructions: 86000501 cycles: 107831105 heartbeat IPC: 0.3213 cumulative IPC: 0.3835 (Simulation time: 00 hr 14 min 28 sec)
Heartbeat CPU 0 instructions: 86500502 cycles: 109641925 heartbeat IPC: 0.2761 cumulative IPC: 0.3815 (Simulation time: 00 hr 14 min 39 sec)
Heartbeat CPU 0 instructions: 87000507 cycles: 110120906 heartbeat IPC: 1.044 cumulative IPC: 0.3848 (Simulation time: 00 hr 14 min 43 sec)
Heartbeat CPU 0 instructions: 87500514 cycles: 110605120 heartbeat IPC: 1.033 cumulative IPC: 0.388 (Simulation time: 00 hr 14 min 46 sec)
Heartbeat CPU 0 instructions: 88000515 cycles: 111039290 heartbeat IPC: 1.152 cumulative IPC: 0.3915 (Simulation time: 00 hr 14 min 50 sec)
Heartbeat CPU 0 instructions: 88500516 cycles: 111551778 heartbeat IPC: 0.9756 cumulative IPC: 0.3945 (Simulation time: 00 hr 14 min 54 sec)
Heartbeat CPU 0 instructions: 89000519 cycles: 113140509 heartbeat IPC: 0.3147 cumulative IPC: 0.3933 (Simulation time: 00 hr 15 min 04 sec)
Heartbeat CPU 0 instructions: 89500521 cycles: 113573720 heartbeat IPC: 1.154 cumulative IPC: 0.3966 (Simulation time: 00 hr 15 min 08 sec)
Heartbeat CPU 0 instructions: 90000521 cycles: 115145899 heartbeat IPC: 0.318 cumulative IPC: 0.3953 (Simulation time: 00 hr 15 min 17 sec)
Heartbeat CPU 0 instructions: 90500522 cycles: 118271919 heartbeat IPC: 0.1599 cumulative IPC: 0.3883 (Simulation time: 00 hr 15 min 36 sec)
Heartbeat CPU 0 instructions: 91000522 cycles: 120783509 heartbeat IPC: 0.1991 cumulative IPC: 0.3838 (Simulation time: 00 hr 15 min 51 sec)
Heartbeat CPU 0 instructions: 91500528 cycles: 122668625 heartbeat IPC: 0.2652 cumulative IPC: 0.3818 (Simulation time: 00 hr 16 min 03 sec)
Heartbeat CPU 0 instructions: 92000529 cycles: 124100514 heartbeat IPC: 0.3492 cumulative IPC: 0.3814 (Simulation time: 00 hr 16 min 12 sec)
Heartbeat CPU 0 instructions: 92500531 cycles: 126779879 heartbeat IPC: 0.1866 cumulative IPC: 0.3767 (Simulation time: 00 hr 16 min 28 sec)
Heartbeat CPU 0 instructions: 93000531 cycles: 128123371 heartbeat IPC: 0.3722 cumulative IPC: 0.3767 (Simulation time: 00 hr 16 min 36 sec)
Heartbeat CPU 0 instructions: 93500532 cycles: 130072039 heartbeat IPC: 0.2566 cumulative IPC: 0.3747 (Simulation time: 00 hr 16 min 49 sec)
Heartbeat CPU 0 instructions: 94000533 cycles: 131704907 heartbeat IPC: 0.3062 cumulative IPC: 0.3737 (Simulation time: 00 hr 16 min 59 sec)
Heartbeat CPU 0 instructions: 94500539 cycles: 133713595 heartbeat IPC: 0.2489 cumulative IPC: 0.3716 (Simulation time: 00 hr 17 min 13 sec)
Heartbeat CPU 0 instructions: 95000539 cycles: 134815222 heartbeat IPC: 0.4539 cumulative IPC: 0.3724 (Simulation time: 00 hr 17 min 22 sec)
Heartbeat CPU 0 instructions: 95500542 cycles: 136557280 heartbeat IPC: 0.287 cumulative IPC: 0.3712 (Simulation time: 00 hr 17 min 33 sec)
Heartbeat CPU 0 instructions: 96000542 cycles: 137552061 heartbeat IPC: 0.5026 cumulative IPC: 0.3722 (Simulation time: 00 hr 17 min 40 sec)
Heartbeat CPU 0 instructions: 96500545 cycles: 138096665 heartbeat IPC: 0.9181 cumulative IPC: 0.3746 (Simulation time: 00 hr 17 min 45 sec)
Heartbeat CPU 0 instructions: 97000545 cycles: 138477960 heartbeat IPC: 1.311 cumulative IPC: 0.3775 (Simulation time: 00 hr 17 min 49 sec)
Heartbeat CPU 0 instructions: 97500549 cycles: 139035064 heartbeat IPC: 0.8975 cumulative IPC: 0.3798 (Simulation time: 00 hr 17 min 53 sec)
Heartbeat CPU 0 instructions: 98000549 cycles: 139653046 heartbeat IPC: 0.8091 cumulative IPC: 0.3819 (Simulation time: 00 hr 17 min 59 sec)
Heartbeat CPU 0 instructions: 98500549 cycles: 140159628 heartbeat IPC: 0.987 cumulative IPC: 0.3843 (Simulation time: 00 hr 18 min 03 sec)
Heartbeat CPU 0 instructions: 99000549 cycles: 140982867 heartbeat IPC: 0.6074 cumulative IPC: 0.3858 (Simulation time: 00 hr 18 min 09 sec)
Heartbeat CPU 0 instructions: 99500549 cycles: 143172693 heartbeat IPC: 0.2283 cumulative IPC: 0.3831 (Simulation time: 00 hr 18 min 23 sec)
Heartbeat CPU 0 instructions: 100000552 cycles: 144630695 heartbeat IPC: 0.3429 cumulative IPC: 0.3827 (Simulation time: 00 hr 18 min 32 sec)
Heartbeat CPU 0 instructions: 100500554 cycles: 145347696 heartbeat IPC: 0.6974 cumulative IPC: 0.3844 (Simulation time: 00 hr 18 min 38 sec)
Heartbeat CPU 0 instructions: 101000557 cycles: 145876852 heartbeat IPC: 0.9449 cumulative IPC: 0.3866 (Simulation time: 00 hr 18 min 43 sec)
Heartbeat CPU 0 instructions: 101500559 cycles: 146329365 heartbeat IPC: 1.105 cumulative IPC: 0.3891 (Simulation time: 00 hr 18 min 47 sec)
Heartbeat CPU 0 instructions: 102000563 cycles: 147503658 heartbeat IPC: 0.4258 cumulative IPC: 0.3894 (Simulation time: 00 hr 18 min 54 sec)
Heartbeat CPU 0 instructions: 102500563 cycles: 147817532 heartbeat IPC: 1.593 cumulative IPC: 0.3922 (Simulation time: 00 hr 18 min 57 sec)
Heartbeat CPU 0 instructions: 103000566 cycles: 148515137 heartbeat IPC: 0.7167 cumulative IPC: 0.3939 (Simulation time: 00 hr 19 min 02 sec)
Heartbeat CPU 0 instructions: 103500572 cycles: 149043778 heartbeat IPC: 0.9458 cumulative IPC: 0.3961 (Simulation time: 00 hr 19 min 06 sec)
Heartbeat CPU 0 instructions: 104000573 cycles: 149521490 heartbeat IPC: 1.047 cumulative IPC: 0.3984 (Simulation time: 00 hr 19 min 11 sec)
Heartbeat CPU 0 instructions: 104500573 cycles: 150157416 heartbeat IPC: 0.7863 cumulative IPC: 0.4002 (Simulation time: 00 hr 19 min 16 sec)
Heartbeat CPU 0 instructions: 105000573 cycles: 152967275 heartbeat IPC: 0.1779 cumulative IPC: 0.3957 (Simulation time: 00 hr 19 min 32 sec)
Heartbeat CPU 0 instructions: 105500573 cycles: 155475044 heartbeat IPC: 0.1994 cumulative IPC: 0.3922 (Simulation time: 00 hr 19 min 48 sec)
Heartbeat CPU 0 instructions: 106000579 cycles: 156449649 heartbeat IPC: 0.513 cumulative IPC: 0.393 (Simulation time: 00 hr 19 min 55 sec)
Heartbeat CPU 0 instructions: 106500582 cycles: 158009546 heartbeat IPC: 0.3205 cumulative IPC: 0.3922 (Simulation time: 00 hr 20 min 05 sec)
Heartbeat CPU 0 instructions: 107000583 cycles: 158478841 heartbeat IPC: 1.065 cumulative IPC: 0.3944 (Simulation time: 00 hr 20 min 09 sec)
Heartbeat CPU 0 instructions: 107500585 cycles: 158948185 heartbeat IPC: 1.065 cumulative IPC: 0.3966 (Simulation time: 00 hr 20 min 14 sec)
Heartbeat CPU 0 instructions: 108000592 cycles: 159873814 heartbeat IPC: 0.5402 cumulative IPC: 0.3975 (Simulation time: 00 hr 20 min 20 sec)
Heartbeat CPU 0 instructions: 108500593 cycles: 160685842 heartbeat IPC: 0.6157 cumulative IPC: 0.3987 (Simulation time: 00 hr 20 min 26 sec)
Heartbeat CPU 0 instructions: 109000595 cycles: 161155624 heartbeat IPC: 1.064 cumulative IPC: 0.4008 (Simulation time: 00 hr 20 min 30 sec)
Heartbeat CPU 0 instructions: 109500595 cycles: 164142378 heartbeat IPC: 0.1674 cumulative IPC: 0.3962 (Simulation time: 00 hr 20 min 48 sec)
Heartbeat CPU 0 instructions: 110000595 cycles: 164872859 heartbeat IPC: 0.6845 cumulative IPC: 0.3976 (Simulation time: 00 hr 20 min 54 sec)
Heartbeat CPU 0 instructions: 110500601 cycles: 165310542 heartbeat IPC: 1.142 cumulative IPC: 0.3998 (Simulation time: 00 hr 20 min 58 sec)
Heartbeat CPU 0 instructions: 111000608 cycles: 166073486 heartbeat IPC: 0.6554 cumulative IPC: 0.401 (Simulation time: 00 hr 21 min 04 sec)
Heartbeat CPU 0 instructions: 111500610 cycles: 166502268 heartbeat IPC: 1.166 cumulative IPC: 0.4032 (Simulation time: 00 hr 21 min 08 sec)
Heartbeat CPU 0 instructions: 112000613 cycles: 167297002 heartbeat IPC: 0.6291 cumulative IPC: 0.4044 (Simulation time: 00 hr 21 min 14 sec)
Heartbeat CPU 0 instructions: 112500614 cycles: 168282212 heartbeat IPC: 0.5075 cumulative IPC: 0.405 (Simulation time: 00 hr 21 min 21 sec)
Heartbeat CPU 0 instructions: 113000619 cycles: 168970577 heartbeat IPC: 0.7264 cumulative IPC: 0.4064 (Simulation time: 00 hr 21 min 26 sec)
Heartbeat CPU 0 instructions: 113500620 cycles: 169629772 heartbeat IPC: 0.7585 cumulative IPC: 0.4079 (Simulation time: 00 hr 21 min 30 sec)
Heartbeat CPU 0 instructions: 114000620 cycles: 170165164 heartbeat IPC: 0.9339 cumulative IPC: 0.4097 (Simulation time: 00 hr 21 min 35 sec)
Heartbeat CPU 0 instructions: 114500621 cycles: 170876704 heartbeat IPC: 0.7027 cumulative IPC: 0.4111 (Simulation time: 00 hr 21 min 40 sec)
Heartbeat CPU 0 instructions: 115000622 cycles: 171383569 heartbeat IPC: 0.9865 cumulative IPC: 0.4129 (Simulation time: 00 hr 21 min 44 sec)
Heartbeat CPU 0 instructions: 115500623 cycles: 171815957 heartbeat IPC: 1.156 cumulative IPC: 0.415 (Simulation time: 00 hr 21 min 48 sec)
Heartbeat CPU 0 instructions: 116000625 cycles: 172371227 heartbeat IPC: 0.9005 cumulative IPC: 0.4167 (Simulation time: 00 hr 21 min 53 sec)
Heartbeat CPU 0 instructions: 116500626 cycles: 172949376 heartbeat IPC: 0.8648 cumulative IPC: 0.4183 (Simulation time: 00 hr 21 min 58 sec)
Heartbeat CPU 0 instructions: 117000626 cycles: 173483843 heartbeat IPC: 0.9355 cumulative IPC: 0.42 (Simulation time: 00 hr 22 min 03 sec)
Heartbeat CPU 0 instructions: 117500627 cycles: 175222209 heartbeat IPC: 0.2876 cumulative IPC: 0.4186 (Simulation time: 00 hr 22 min 16 sec)
Heartbeat CPU 0 instructions: 118000627 cycles: 176384413 heartbeat IPC: 0.4302 cumulative IPC: 0.4187 (Simulation time: 00 hr 22 min 24 sec)
Heartbeat CPU 0 instructions: 118500627 cycles: 177298050 heartbeat IPC: 0.5473 cumulative IPC: 0.4194 (Simulation time: 00 hr 22 min 31 sec)
Heartbeat CPU 0 instructions: 119000632 cycles: 177924543 heartbeat IPC: 0.7981 cumulative IPC: 0.4208 (Simulation time: 00 hr 22 min 36 sec)
Heartbeat CPU 0 instructions: 119500632 cycles: 178688194 heartbeat IPC: 0.6547 cumulative IPC: 0.4219 (Simulation time: 00 hr 22 min 42 sec)
Heartbeat CPU 0 instructions: 120000636 cycles: 179542101 heartbeat IPC: 0.5855 cumulative IPC: 0.4228 (Simulation time: 00 hr 22 min 48 sec)
Heartbeat CPU 0 instructions: 120500642 cycles: 180338182 heartbeat IPC: 0.6281 cumulative IPC: 0.4238 (Simulation time: 00 hr 22 min 54 sec)
Heartbeat CPU 0 instructions: 121000646 cycles: 181098978 heartbeat IPC: 0.6572 cumulative IPC: 0.4248 (Simulation time: 00 hr 23 min 00 sec)
Heartbeat CPU 0 instructions: 121500650 cycles: 181602343 heartbeat IPC: 0.9933 cumulative IPC: 0.4265 (Simulation time: 00 hr 23 min 04 sec)
Heartbeat CPU 0 instructions: 122000654 cycles: 182315329 heartbeat IPC: 0.7013 cumulative IPC: 0.4277 (Simulation time: 00 hr 23 min 10 sec)
Heartbeat CPU 0 instructions: 122500656 cycles: 183476338 heartbeat IPC: 0.4307 cumulative IPC: 0.4277 (Simulation time: 00 hr 23 min 17 sec)
Heartbeat CPU 0 instructions: 123000659 cycles: 185908812 heartbeat IPC: 0.2056 cumulative IPC: 0.4246 (Simulation time: 00 hr 23 min 38 sec)
Heartbeat CPU 0 instructions: 123500659 cycles: 188414447 heartbeat IPC: 0.1996 cumulative IPC: 0.4213 (Simulation time: 00 hr 23 min 58 sec)
Heartbeat CPU 0 instructions: 124000660 cycles: 190330637 heartbeat IPC: 0.2609 cumulative IPC: 0.4196 (Simulation time: 00 hr 24 min 14 sec)
Heartbeat CPU 0 instructions: 124500660 cycles: 192074214 heartbeat IPC: 0.2868 cumulative IPC: 0.4183 (Simulation time: 00 hr 24 min 28 sec)
Heartbeat CPU 0 instructions: 125000662 cycles: 193722906 heartbeat IPC: 0.3033 cumulative IPC: 0.4172 (Simulation time: 00 hr 24 min 42 sec)
Heartbeat CPU 0 instructions: 125500664 cycles: 195386486 heartbeat IPC: 0.3006 cumulative IPC: 0.4162 (Simulation time: 00 hr 24 min 56 sec)
Heartbeat CPU 0 instructions: 126000664 cycles: 197014948 heartbeat IPC: 0.307 cumulative IPC: 0.4152 (Simulation time: 00 hr 25 min 09 sec)
Heartbeat CPU 0 instructions: 126500664 cycles: 197854152 heartbeat IPC: 0.5958 cumulative IPC: 0.416 (Simulation time: 00 hr 25 min 16 sec)
Heartbeat CPU 0 instructions: 127000668 cycles: 198933283 heartbeat IPC: 0.4633 cumulative IPC: 0.4163 (Simulation time: 00 hr 25 min 24 sec)
Heartbeat CPU 0 instructions: 127500668 cycles: 199895410 heartbeat IPC: 0.5197 cumulative IPC: 0.4168 (Simulation time: 00 hr 25 min 31 sec)
Heartbeat CPU 0 instructions: 128000672 cycles: 200472030 heartbeat IPC: 0.8671 cumulative IPC: 0.4182 (Simulation time: 00 hr 25 min 35 sec)
Heartbeat CPU 0 instructions: 128500675 cycles: 200943027 heartbeat IPC: 1.062 cumulative IPC: 0.4198 (Simulation time: 00 hr 25 min 40 sec)
Heartbeat CPU 0 instructions: 129000677 cycles: 201437730 heartbeat IPC: 1.011 cumulative IPC: 0.4214 (Simulation time: 00 hr 25 min 44 sec)
Heartbeat CPU 0 instructions: 129500681 cycles: 202355031 heartbeat IPC: 0.5451 cumulative IPC: 0.422 (Simulation time: 00 hr 25 min 51 sec)
Heartbeat CPU 0 instructions: 130000681 cycles: 202923301 heartbeat IPC: 0.8799 cumulative IPC: 0.4234 (Simulation time: 00 hr 25 min 56 sec)
Heartbeat CPU 0 instructions: 130500688 cycles: 204085567 heartbeat IPC: 0.4302 cumulative IPC: 0.4234 (Simulation time: 00 hr 26 min 03 sec)
Heartbeat CPU 0 instructions: 131000692 cycles: 204718654 heartbeat IPC: 0.7898 cumulative IPC: 0.4246 (Simulation time: 00 hr 26 min 08 sec)
Heartbeat CPU 0 instructions: 131500692 cycles: 205247002 heartbeat IPC: 0.9463 cumulative IPC: 0.4261 (Simulation time: 00 hr 26 min 12 sec)
Heartbeat CPU 0 instructions: 132000693 cycles: 205761210 heartbeat IPC: 0.9724 cumulative IPC: 0.4275 (Simulation time: 00 hr 26 min 16 sec)
Heartbeat CPU 0 instructions: 132500698 cycles: 206224861 heartbeat IPC: 1.078 cumulative IPC: 0.4291 (Simulation time: 00 hr 26 min 20 sec)
Heartbeat CPU 0 instructions: 133000699 cycles: 206693516 heartbeat IPC: 1.067 cumulative IPC: 0.4307 (Simulation time: 00 hr 26 min 23 sec)
Heartbeat CPU 0 instructions: 133500702 cycles: 207212345 heartbeat IPC: 0.9637 cumulative IPC: 0.4321 (Simulation time: 00 hr 26 min 27 sec)
Heartbeat CPU 0 instructions: 134000703 cycles: 207664350 heartbeat IPC: 1.106 cumulative IPC: 0.4337 (Simulation time: 00 hr 26 min 31 sec)
Heartbeat CPU 0 instructions: 134500705 cycles: 208124270 heartbeat IPC: 1.087 cumulative IPC: 0.4352 (Simulation time: 00 hr 26 min 35 sec)
Heartbeat CPU 0 instructions: 135000708 cycles: 208560619 heartbeat IPC: 1.146 cumulative IPC: 0.4368 (Simulation time: 00 hr 26 min 38 sec)
Heartbeat CPU 0 instructions: 135500714 cycles: 209018296 heartbeat IPC: 1.092 cumulative IPC: 0.4383 (Simulation time: 00 hr 26 min 42 sec)
Heartbeat CPU 0 instructions: 136000714 cycles: 209501451 heartbeat IPC: 1.035 cumulative IPC: 0.4398 (Simulation time: 00 hr 26 min 46 sec)
Heartbeat CPU 0 instructions: 136500715 cycles: 209931257 heartbeat IPC: 1.163 cumulative IPC: 0.4414 (Simulation time: 00 hr 26 min 49 sec)
Heartbeat CPU 0 instructions: 137000715 cycles: 210376872 heartbeat IPC: 1.122 cumulative IPC: 0.443 (Simulation time: 00 hr 26 min 53 sec)
Heartbeat CPU 0 instructions: 137500719 cycles: 210786314 heartbeat IPC: 1.221 cumulative IPC: 0.4446 (Simulation time: 00 hr 26 min 56 sec)
Heartbeat CPU 0 instructions: 138000720 cycles: 211265752 heartbeat IPC: 1.043 cumulative IPC: 0.446 (Simulation time: 00 hr 27 min 00 sec)
Heartbeat CPU 0 instructions: 138500721 cycles: 211792324 heartbeat IPC: 0.9495 cumulative IPC: 0.4474 (Simulation time: 00 hr 27 min 04 sec)
Heartbeat CPU 0 instructions: 139000721 cycles: 212309902 heartbeat IPC: 0.966 cumulative IPC: 0.4487 (Simulation time: 00 hr 27 min 08 sec)
Heartbeat CPU 0 instructions: 139500725 cycles: 212809916 heartbeat IPC: 1 cumulative IPC: 0.4501 (Simulation time: 00 hr 27 min 12 sec)
Heartbeat CPU 0 instructions: 140000725 cycles: 213277244 heartbeat IPC: 1.07 cumulative IPC: 0.4516 (Simulation time: 00 hr 27 min 15 sec)
Heartbeat CPU 0 instructions: 140500726 cycles: 213678475 heartbeat IPC: 1.246 cumulative IPC: 0.4532 (Simulation time: 00 hr 27 min 19 sec)
Heartbeat CPU 0 instructions: 141000727 cycles: 214134022 heartbeat IPC: 1.098 cumulative IPC: 0.4546 (Simulation time: 00 hr 27 min 22 sec)
Heartbeat CPU 0 instructions: 141500727 cycles: 214591533 heartbeat IPC: 1.093 cumulative IPC: 0.4561 (Simulation time: 00 hr 27 min 26 sec)
Heartbeat CPU 0 instructions: 142000727 cycles: 215009899 heartbeat IPC: 1.195 cumulative IPC: 0.4576 (Simulation time: 00 hr 27 min 29 sec)
Heartbeat CPU 0 instructions: 142500728 cycles: 215423950 heartbeat IPC: 1.208 cumulative IPC: 0.4592 (Simulation time: 00 hr 27 min 33 sec)
Heartbeat CPU 0 instructions: 143000730 cycles: 215845906 heartbeat IPC: 1.185 cumulative IPC: 0.4607 (Simulation time: 00 hr 27 min 36 sec)
Heartbeat CPU 0 instructions: 143500730 cycles: 216251754 heartbeat IPC: 1.232 cumulative IPC: 0.4622 (Simulation time: 00 hr 27 min 40 sec)
Heartbeat CPU 0 instructions: 144000730 cycles: 216691308 heartbeat IPC: 1.138 cumulative IPC: 0.4637 (Simulation time: 00 hr 27 min 43 sec)
Heartbeat CPU 0 instructions: 144500734 cycles: 217138301 heartbeat IPC: 1.119 cumulative IPC: 0.4651 (Simulation time: 00 hr 27 min 47 sec)
Heartbeat CPU 0 instructions: 145000739 cycles: 217601596 heartbeat IPC: 1.079 cumulative IPC: 0.4665 (Simulation time: 00 hr 27 min 50 sec)
Heartbeat CPU 0 instructions: 145500739 cycles: 218042494 heartbeat IPC: 1.134 cumulative IPC: 0.468 (Simulation time: 00 hr 27 min 54 sec)
Heartbeat CPU 0 instructions: 146000741 cycles: 218477101 heartbeat IPC: 1.15 cumulative IPC: 0.4694 (Simulation time: 00 hr 27 min 57 sec)
Heartbeat CPU 0 instructions: 146500744 cycles: 218932980 heartbeat IPC: 1.097 cumulative IPC: 0.4708 (Simulation time: 00 hr 28 min 01 sec)
Heartbeat CPU 0 instructions: 147000747 cycles: 219377892 heartbeat IPC: 1.124 cumulative IPC: 0.4722 (Simulation time: 00 hr 28 min 05 sec)
Heartbeat CPU 0 instructions: 147500747 cycles: 219798815 heartbeat IPC: 1.188 cumulative IPC: 0.4737 (Simulation time: 00 hr 28 min 08 sec)
Heartbeat CPU 0 instructions: 148000747 cycles: 220246338 heartbeat IPC: 1.117 cumulative IPC: 0.4751 (Simulation time: 00 hr 28 min 12 sec)
Heartbeat CPU 0 instructions: 148500747 cycles: 220682210 heartbeat IPC: 1.147 cumulative IPC: 0.4765 (Simulation time: 00 hr 28 min 15 sec)
Heartbeat CPU 0 instructions: 149000747 cycles: 221105860 heartbeat IPC: 1.18 cumulative IPC: 0.4779 (Simulation time: 00 hr 28 min 18 sec)
Heartbeat CPU 0 instructions: 149500753 cycles: 221538934 heartbeat IPC: 1.155 cumulative IPC: 0.4794 (Simulation time: 00 hr 28 min 22 sec)
Heartbeat CPU 0 instructions: 150000753 cycles: 221943577 heartbeat IPC: 1.236 cumulative IPC: 0.4808 (Simulation time: 00 hr 28 min 25 sec)
Heartbeat CPU 0 instructions: 150500758 cycles: 222362966 heartbeat IPC: 1.192 cumulative IPC: 0.4823 (Simulation time: 00 hr 28 min 29 sec)
Heartbeat CPU 0 instructions: 151000760 cycles: 222795280 heartbeat IPC: 1.157 cumulative IPC: 0.4837 (Simulation time: 00 hr 28 min 32 sec)
Heartbeat CPU 0 instructions: 151500763 cycles: 223269641 heartbeat IPC: 1.054 cumulative IPC: 0.4849 (Simulation time: 00 hr 28 min 36 sec)
Heartbeat CPU 0 instructions: 152000767 cycles: 223695454 heartbeat IPC: 1.174 cumulative IPC: 0.4863 (Simulation time: 00 hr 28 min 39 sec)
Heartbeat CPU 0 instructions: 152500767 cycles: 224118792 heartbeat IPC: 1.181 cumulative IPC: 0.4877 (Simulation time: 00 hr 28 min 43 sec)
Heartbeat CPU 0 instructions: 153000767 cycles: 224553074 heartbeat IPC: 1.151 cumulative IPC: 0.4891 (Simulation time: 00 hr 28 min 46 sec)
Heartbeat CPU 0 instructions: 153500769 cycles: 224965491 heartbeat IPC: 1.212 cumulative IPC: 0.4905 (Simulation time: 00 hr 28 min 49 sec)
Heartbeat CPU 0 instructions: 154000773 cycles: 225366615 heartbeat IPC: 1.247 cumulative IPC: 0.492 (Simulation time: 00 hr 28 min 53 sec)
Heartbeat CPU 0 instructions: 154500775 cycles: 225818823 heartbeat IPC: 1.106 cumulative IPC: 0.4933 (Simulation time: 00 hr 28 min 56 sec)
Heartbeat CPU 0 instructions: 155000777 cycles: 226240911 heartbeat IPC: 1.185 cumulative IPC: 0.4946 (Simulation time: 00 hr 29 min 00 sec)
Heartbeat CPU 0 instructions: 155500778 cycles: 226654170 heartbeat IPC: 1.21 cumulative IPC: 0.496 (Simulation time: 00 hr 29 min 03 sec)
Heartbeat CPU 0 instructions: 156000782 cycles: 227084198 heartbeat IPC: 1.163 cumulative IPC: 0.4974 (Simulation time: 00 hr 29 min 06 sec)
Heartbeat CPU 0 instructions: 156500786 cycles: 227499906 heartbeat IPC: 1.203 cumulative IPC: 0.4988 (Simulation time: 00 hr 29 min 10 sec)
Heartbeat CPU 0 instructions: 157000787 cycles: 227926017 heartbeat IPC: 1.173 cumulative IPC: 0.5001 (Simulation time: 00 hr 29 min 13 sec)
Heartbeat CPU 0 instructions: 157500791 cycles: 228390848 heartbeat IPC: 1.076 cumulative IPC: 0.5013 (Simulation time: 00 hr 29 min 17 sec)
Heartbeat CPU 0 instructions: 158000793 cycles: 228810113 heartbeat IPC: 1.193 cumulative IPC: 0.5027 (Simulation time: 00 hr 29 min 20 sec)
Heartbeat CPU 0 instructions: 158500796 cycles: 229224356 heartbeat IPC: 1.207 cumulative IPC: 0.5041 (Simulation time: 00 hr 29 min 23 sec)
Heartbeat CPU 0 instructions: 159000797 cycles: 229625354 heartbeat IPC: 1.247 cumulative IPC: 0.5054 (Simulation time: 00 hr 29 min 27 sec)
Heartbeat CPU 0 instructions: 159500800 cycles: 230058377 heartbeat IPC: 1.155 cumulative IPC: 0.5067 (Simulation time: 00 hr 29 min 30 sec)
Heartbeat CPU 0 instructions: 160000804 cycles: 230499208 heartbeat IPC: 1.134 cumulative IPC: 0.508 (Simulation time: 00 hr 29 min 34 sec)
Heartbeat CPU 0 instructions: 160500807 cycles: 231176076 heartbeat IPC: 0.7387 cumulative IPC: 0.5087 (Simulation time: 00 hr 29 min 38 sec)
Heartbeat CPU 0 instructions: 161000809 cycles: 231723293 heartbeat IPC: 0.9137 cumulative IPC: 0.5097 (Simulation time: 00 hr 29 min 42 sec)
Heartbeat CPU 0 instructions: 161500811 cycles: 232245299 heartbeat IPC: 0.9578 cumulative IPC: 0.5108 (Simulation time: 00 hr 29 min 46 sec)
Heartbeat CPU 0 instructions: 162000813 cycles: 232681297 heartbeat IPC: 1.147 cumulative IPC: 0.5121 (Simulation time: 00 hr 29 min 50 sec)
Heartbeat CPU 0 instructions: 162500818 cycles: 233089064 heartbeat IPC: 1.226 cumulative IPC: 0.5134 (Simulation time: 00 hr 29 min 53 sec)
Heartbeat CPU 0 instructions: 163000818 cycles: 233500826 heartbeat IPC: 1.214 cumulative IPC: 0.5147 (Simulation time: 00 hr 29 min 56 sec)
Heartbeat CPU 0 instructions: 163500818 cycles: 233962505 heartbeat IPC: 1.083 cumulative IPC: 0.5159 (Simulation time: 00 hr 30 min 00 sec)
Heartbeat CPU 0 instructions: 164000824 cycles: 234399284 heartbeat IPC: 1.145 cumulative IPC: 0.5172 (Simulation time: 00 hr 30 min 04 sec)
Heartbeat CPU 0 instructions: 164500824 cycles: 234826751 heartbeat IPC: 1.17 cumulative IPC: 0.5184 (Simulation time: 00 hr 30 min 07 sec)
Heartbeat CPU 0 instructions: 165000829 cycles: 235250411 heartbeat IPC: 1.18 cumulative IPC: 0.5197 (Simulation time: 00 hr 30 min 10 sec)
Heartbeat CPU 0 instructions: 165500830 cycles: 235666418 heartbeat IPC: 1.202 cumulative IPC: 0.521 (Simulation time: 00 hr 30 min 14 sec)
Heartbeat CPU 0 instructions: 166000830 cycles: 236103192 heartbeat IPC: 1.145 cumulative IPC: 0.5222 (Simulation time: 00 hr 30 min 17 sec)
Heartbeat CPU 0 instructions: 166500836 cycles: 236515871 heartbeat IPC: 1.212 cumulative IPC: 0.5235 (Simulation time: 00 hr 30 min 20 sec)
Heartbeat CPU 0 instructions: 167000841 cycles: 237042091 heartbeat IPC: 0.9502 cumulative IPC: 0.5245 (Simulation time: 00 hr 30 min 24 sec)
Heartbeat CPU 0 instructions: 167500841 cycles: 237495580 heartbeat IPC: 1.103 cumulative IPC: 0.5257 (Simulation time: 00 hr 30 min 28 sec)
Heartbeat CPU 0 instructions: 168000841 cycles: 237920608 heartbeat IPC: 1.176 cumulative IPC: 0.5269 (Simulation time: 00 hr 30 min 31 sec)
Heartbeat CPU 0 instructions: 168500846 cycles: 238329459 heartbeat IPC: 1.223 cumulative IPC: 0.5282 (Simulation time: 00 hr 30 min 34 sec)
Heartbeat CPU 0 instructions: 169000846 cycles: 238750735 heartbeat IPC: 1.187 cumulative IPC: 0.5294 (Simulation time: 00 hr 30 min 38 sec)
Heartbeat CPU 0 instructions: 169500846 cycles: 239190384 heartbeat IPC: 1.137 cumulative IPC: 0.5306 (Simulation time: 00 hr 30 min 41 sec)
Heartbeat CPU 0 instructions: 170000848 cycles: 239633691 heartbeat IPC: 1.128 cumulative IPC: 0.5318 (Simulation time: 00 hr 30 min 45 sec)
Heartbeat CPU 0 instructions: 170500850 cycles: 240044015 heartbeat IPC: 1.219 cumulative IPC: 0.533 (Simulation time: 00 hr 30 min 48 sec)
Heartbeat CPU 0 instructions: 171000856 cycles: 240467605 heartbeat IPC: 1.18 cumulative IPC: 0.5342 (Simulation time: 00 hr 30 min 51 sec)
Heartbeat CPU 0 instructions: 171500859 cycles: 240872597 heartbeat IPC: 1.235 cumulative IPC: 0.5355 (Simulation time: 00 hr 30 min 55 sec)
Heartbeat CPU 0 instructions: 172000859 cycles: 241311580 heartbeat IPC: 1.139 cumulative IPC: 0.5366 (Simulation time: 00 hr 30 min 58 sec)
Heartbeat CPU 0 instructions: 172500863 cycles: 241720030 heartbeat IPC: 1.224 cumulative IPC: 0.5379 (Simulation time: 00 hr 31 min 01 sec)
Heartbeat CPU 0 instructions: 173000863 cycles: 242127998 heartbeat IPC: 1.226 cumulative IPC: 0.5391 (Simulation time: 00 hr 31 min 05 sec)
Heartbeat CPU 0 instructions: 173500865 cycles: 242535819 heartbeat IPC: 1.226 cumulative IPC: 0.5403 (Simulation time: 00 hr 31 min 08 sec)
Heartbeat CPU 0 instructions: 174000865 cycles: 242935662 heartbeat IPC: 1.25 cumulative IPC: 0.5416 (Simulation time: 00 hr 31 min 11 sec)
Heartbeat CPU 0 instructions: 174500868 cycles: 243402825 heartbeat IPC: 1.07 cumulative IPC: 0.5426 (Simulation time: 00 hr 31 min 15 sec)
Heartbeat CPU 0 instructions: 175000869 cycles: 243808240 heartbeat IPC: 1.233 cumulative IPC: 0.5439 (Simulation time: 00 hr 31 min 18 sec)
Heartbeat CPU 0 instructions: 175500870 cycles: 244244423 heartbeat IPC: 1.146 cumulative IPC: 0.545 (Simulation time: 00 hr 31 min 21 sec)
Heartbeat CPU 0 instructions: 176000871 cycles: 244652846 heartbeat IPC: 1.224 cumulative IPC: 0.5462 (Simulation time: 00 hr 31 min 25 sec)
Heartbeat CPU 0 instructions: 176500878 cycles: 245101052 heartbeat IPC: 1.116 cumulative IPC: 0.5473 (Simulation time: 00 hr 31 min 28 sec)
Heartbeat CPU 0 instructions: 177000878 cycles: 245508371 heartbeat IPC: 1.228 cumulative IPC: 0.5485 (Simulation time: 00 hr 31 min 31 sec)
Heartbeat CPU 0 instructions: 177500878 cycles: 245948012 heartbeat IPC: 1.137 cumulative IPC: 0.5496 (Simulation time: 00 hr 31 min 35 sec)
Heartbeat CPU 0 instructions: 178000881 cycles: 246367801 heartbeat IPC: 1.191 cumulative IPC: 0.5508 (Simulation time: 00 hr 31 min 38 sec)
Heartbeat CPU 0 instructions: 178500881 cycles: 246763358 heartbeat IPC: 1.264 cumulative IPC: 0.552 (Simulation time: 00 hr 31 min 41 sec)
Heartbeat CPU 0 instructions: 179000881 cycles: 247182470 heartbeat IPC: 1.193 cumulative IPC: 0.5531 (Simulation time: 00 hr 31 min 44 sec)
Heartbeat CPU 0 instructions: 179500888 cycles: 247619663 heartbeat IPC: 1.144 cumulative IPC: 0.5542 (Simulation time: 00 hr 31 min 48 sec)
Heartbeat CPU 0 instructions: 180000890 cycles: 248020682 heartbeat IPC: 1.247 cumulative IPC: 0.5554 (Simulation time: 00 hr 31 min 51 sec)
Heartbeat CPU 0 instructions: 180500893 cycles: 248438421 heartbeat IPC: 1.197 cumulative IPC: 0.5566 (Simulation time: 00 hr 31 min 54 sec)
Heartbeat CPU 0 instructions: 181000894 cycles: 248900600 heartbeat IPC: 1.082 cumulative IPC: 0.5576 (Simulation time: 00 hr 31 min 58 sec)
Heartbeat CPU 0 instructions: 181500897 cycles: 249323585 heartbeat IPC: 1.182 cumulative IPC: 0.5587 (Simulation time: 00 hr 32 min 01 sec)
Heartbeat CPU 0 instructions: 182000902 cycles: 249728125 heartbeat IPC: 1.236 cumulative IPC: 0.5599 (Simulation time: 00 hr 32 min 04 sec)
Heartbeat CPU 0 instructions: 182500903 cycles: 250151002 heartbeat IPC: 1.182 cumulative IPC: 0.561 (Simulation time: 00 hr 32 min 08 sec)
Heartbeat CPU 0 instructions: 183000907 cycles: 250557465 heartbeat IPC: 1.23 cumulative IPC: 0.5622 (Simulation time: 00 hr 32 min 11 sec)
Heartbeat CPU 0 instructions: 183500907 cycles: 250992415 heartbeat IPC: 1.15 cumulative IPC: 0.5632 (Simulation time: 00 hr 32 min 14 sec)
Heartbeat CPU 0 instructions: 184000907 cycles: 251390819 heartbeat IPC: 1.255 cumulative IPC: 0.5644 (Simulation time: 00 hr 32 min 18 sec)
Heartbeat CPU 0 instructions: 184500907 cycles: 251793857 heartbeat IPC: 1.241 cumulative IPC: 0.5655 (Simulation time: 00 hr 32 min 21 sec)
Heartbeat CPU 0 instructions: 185000907 cycles: 252225811 heartbeat IPC: 1.158 cumulative IPC: 0.5666 (Simulation time: 00 hr 32 min 24 sec)
Heartbeat CPU 0 instructions: 185500907 cycles: 252621121 heartbeat IPC: 1.265 cumulative IPC: 0.5678 (Simulation time: 00 hr 32 min 27 sec)
Heartbeat CPU 0 instructions: 186000912 cycles: 253036584 heartbeat IPC: 1.203 cumulative IPC: 0.5689 (Simulation time: 00 hr 32 min 31 sec)
Heartbeat CPU 0 instructions: 186500916 cycles: 253455599 heartbeat IPC: 1.193 cumulative IPC: 0.57 (Simulation time: 00 hr 32 min 34 sec)
Heartbeat CPU 0 instructions: 187000916 cycles: 253864130 heartbeat IPC: 1.224 cumulative IPC: 0.5711 (Simulation time: 00 hr 32 min 37 sec)
Heartbeat CPU 0 instructions: 187500920 cycles: 254310717 heartbeat IPC: 1.12 cumulative IPC: 0.5721 (Simulation time: 00 hr 32 min 40 sec)
Heartbeat CPU 0 instructions: 188000927 cycles: 254735881 heartbeat IPC: 1.176 cumulative IPC: 0.5732 (Simulation time: 00 hr 32 min 44 sec)
Heartbeat CPU 0 instructions: 188500930 cycles: 255151457 heartbeat IPC: 1.203 cumulative IPC: 0.5743 (Simulation time: 00 hr 32 min 47 sec)
Heartbeat CPU 0 instructions: 189000932 cycles: 255560359 heartbeat IPC: 1.223 cumulative IPC: 0.5753 (Simulation time: 00 hr 32 min 50 sec)
Heartbeat CPU 0 instructions: 189500939 cycles: 255969048 heartbeat IPC: 1.223 cumulative IPC: 0.5764 (Simulation time: 00 hr 32 min 53 sec)
Heartbeat CPU 0 instructions: 190000944 cycles: 256366346 heartbeat IPC: 1.259 cumulative IPC: 0.5776 (Simulation time: 00 hr 32 min 57 sec)
Heartbeat CPU 0 instructions: 190500946 cycles: 256780969 heartbeat IPC: 1.206 cumulative IPC: 0.5786 (Simulation time: 00 hr 33 min 00 sec)
Heartbeat CPU 0 instructions: 191000950 cycles: 257212786 heartbeat IPC: 1.158 cumulative IPC: 0.5797 (Simulation time: 00 hr 33 min 03 sec)
Heartbeat CPU 0 instructions: 191500951 cycles: 257617537 heartbeat IPC: 1.235 cumulative IPC: 0.5808 (Simulation time: 00 hr 33 min 07 sec)
Heartbeat CPU 0 instructions: 192000952 cycles: 258029194 heartbeat IPC: 1.215 cumulative IPC: 0.5818 (Simulation time: 00 hr 33 min 10 sec)
Heartbeat CPU 0 instructions: 192500953 cycles: 258450360 heartbeat IPC: 1.187 cumulative IPC: 0.5829 (Simulation time: 00 hr 33 min 13 sec)
Heartbeat CPU 0 instructions: 193000955 cycles: 258849259 heartbeat IPC: 1.253 cumulative IPC: 0.584 (Simulation time: 00 hr 33 min 16 sec)
Heartbeat CPU 0 instructions: 193500958 cycles: 259286908 heartbeat IPC: 1.142 cumulative IPC: 0.585 (Simulation time: 00 hr 33 min 20 sec)
Heartbeat CPU 0 instructions: 194000961 cycles: 259713453 heartbeat IPC: 1.172 cumulative IPC: 0.586 (Simulation time: 00 hr 33 min 23 sec)
Heartbeat CPU 0 instructions: 194500963 cycles: 260115075 heartbeat IPC: 1.245 cumulative IPC: 0.587 (Simulation time: 00 hr 33 min 26 sec)
Heartbeat CPU 0 instructions: 195000966 cycles: 260534662 heartbeat IPC: 1.192 cumulative IPC: 0.5881 (Simulation time: 00 hr 33 min 29 sec)
Heartbeat CPU 0 instructions: 195500966 cycles: 260956022 heartbeat IPC: 1.187 cumulative IPC: 0.5891 (Simulation time: 00 hr 33 min 33 sec)
Heartbeat CPU 0 instructions: 196000966 cycles: 261357743 heartbeat IPC: 1.245 cumulative IPC: 0.5902 (Simulation time: 00 hr 33 min 36 sec)
Heartbeat CPU 0 instructions: 196500966 cycles: 261762565 heartbeat IPC: 1.235 cumulative IPC: 0.5912 (Simulation time: 00 hr 33 min 39 sec)
Heartbeat CPU 0 instructions: 197000966 cycles: 262166239 heartbeat IPC: 1.239 cumulative IPC: 0.5923 (Simulation time: 00 hr 33 min 42 sec)
Heartbeat CPU 0 instructions: 197500966 cycles: 262584414 heartbeat IPC: 1.196 cumulative IPC: 0.5933 (Simulation time: 00 hr 33 min 45 sec)
Heartbeat CPU 0 instructions: 198000966 cycles: 262998772 heartbeat IPC: 1.207 cumulative IPC: 0.5943 (Simulation time: 00 hr 33 min 49 sec)
Heartbeat CPU 0 instructions: 198500971 cycles: 263399182 heartbeat IPC: 1.249 cumulative IPC: 0.5954 (Simulation time: 00 hr 33 min 52 sec)
Heartbeat CPU 0 instructions: 199000973 cycles: 263807819 heartbeat IPC: 1.224 cumulative IPC: 0.5964 (Simulation time: 00 hr 33 min 55 sec)
Heartbeat CPU 0 instructions: 199500973 cycles: 264199713 heartbeat IPC: 1.276 cumulative IPC: 0.5974 (Simulation time: 00 hr 33 min 58 sec)
Heartbeat CPU 0 instructions: 200000975 cycles: 264599289 heartbeat IPC: 1.251 cumulative IPC: 0.5985 (Simulation time: 00 hr 34 min 01 sec)
Heartbeat CPU 0 instructions: 200500982 cycles: 265009744 heartbeat IPC: 1.218 cumulative IPC: 0.5995 (Simulation time: 00 hr 34 min 05 sec)
Heartbeat CPU 0 instructions: 201000986 cycles: 265419299 heartbeat IPC: 1.221 cumulative IPC: 0.6005 (Simulation time: 00 hr 34 min 08 sec)
Heartbeat CPU 0 instructions: 201500993 cycles: 265821185 heartbeat IPC: 1.244 cumulative IPC: 0.6015 (Simulation time: 00 hr 34 min 11 sec)
Heartbeat CPU 0 instructions: 202000997 cycles: 266261559 heartbeat IPC: 1.135 cumulative IPC: 0.6025 (Simulation time: 00 hr 34 min 14 sec)
Heartbeat CPU 0 instructions: 202500997 cycles: 266718501 heartbeat IPC: 1.094 cumulative IPC: 0.6034 (Simulation time: 00 hr 34 min 18 sec)
Heartbeat CPU 0 instructions: 203001001 cycles: 268269306 heartbeat IPC: 0.3224 cumulative IPC: 0.6016 (Simulation time: 00 hr 34 min 27 sec)
Heartbeat CPU 0 instructions: 203501004 cycles: 268801867 heartbeat IPC: 0.9389 cumulative IPC: 0.6024 (Simulation time: 00 hr 34 min 30 sec)
Heartbeat CPU 0 instructions: 204001006 cycles: 269773150 heartbeat IPC: 0.5148 cumulative IPC: 0.602 (Simulation time: 00 hr 34 min 38 sec)
Heartbeat CPU 0 instructions: 204501006 cycles: 270703836 heartbeat IPC: 0.5372 cumulative IPC: 0.6018 (Simulation time: 00 hr 34 min 43 sec)
Heartbeat CPU 0 instructions: 205001006 cycles: 271331700 heartbeat IPC: 0.7964 cumulative IPC: 0.6023 (Simulation time: 00 hr 34 min 48 sec)
Heartbeat CPU 0 instructions: 205501006 cycles: 271901366 heartbeat IPC: 0.8777 cumulative IPC: 0.6029 (Simulation time: 00 hr 34 min 53 sec)
Heartbeat CPU 0 instructions: 206001011 cycles: 272608557 heartbeat IPC: 0.707 cumulative IPC: 0.6032 (Simulation time: 00 hr 34 min 58 sec)
Heartbeat CPU 0 instructions: 206501013 cycles: 273087568 heartbeat IPC: 1.044 cumulative IPC: 0.604 (Simulation time: 00 hr 35 min 02 sec)
Heartbeat CPU 0 instructions: 207001013 cycles: 273619174 heartbeat IPC: 0.9405 cumulative IPC: 0.6047 (Simulation time: 00 hr 35 min 06 sec)
Heartbeat CPU 0 instructions: 207501016 cycles: 274039894 heartbeat IPC: 1.188 cumulative IPC: 0.6056 (Simulation time: 00 hr 35 min 09 sec)
Heartbeat CPU 0 instructions: 208001019 cycles: 274510529 heartbeat IPC: 1.062 cumulative IPC: 0.6064 (Simulation time: 00 hr 35 min 13 sec)
Heartbeat CPU 0 instructions: 208501021 cycles: 275064643 heartbeat IPC: 0.9023 cumulative IPC: 0.6071 (Simulation time: 00 hr 35 min 17 sec)
Heartbeat CPU 0 instructions: 209001027 cycles: 275477421 heartbeat IPC: 1.211 cumulative IPC: 0.608 (Simulation time: 00 hr 35 min 20 sec)
Heartbeat CPU 0 instructions: 209501027 cycles: 275894395 heartbeat IPC: 1.199 cumulative IPC: 0.6089 (Simulation time: 00 hr 35 min 24 sec)
Heartbeat CPU 0 instructions: 210001029 cycles: 276733490 heartbeat IPC: 0.5959 cumulative IPC: 0.6089 (Simulation time: 00 hr 35 min 29 sec)
Heartbeat CPU 0 instructions: 210501029 cycles: 278865590 heartbeat IPC: 0.2345 cumulative IPC: 0.6059 (Simulation time: 00 hr 35 min 42 sec)
Heartbeat CPU 0 instructions: 211001030 cycles: 279279672 heartbeat IPC: 1.207 cumulative IPC: 0.6068 (Simulation time: 00 hr 35 min 45 sec)
Heartbeat CPU 0 instructions: 211501033 cycles: 280295788 heartbeat IPC: 0.4921 cumulative IPC: 0.6064 (Simulation time: 00 hr 35 min 52 sec)
Heartbeat CPU 0 instructions: 212001034 cycles: 280698492 heartbeat IPC: 1.242 cumulative IPC: 0.6074 (Simulation time: 00 hr 35 min 56 sec)
Heartbeat CPU 0 instructions: 212501041 cycles: 282374240 heartbeat IPC: 0.2984 cumulative IPC: 0.6054 (Simulation time: 00 hr 36 min 05 sec)
Heartbeat CPU 0 instructions: 213001043 cycles: 284411375 heartbeat IPC: 0.2454 cumulative IPC: 0.6027 (Simulation time: 00 hr 36 min 17 sec)
Heartbeat CPU 0 instructions: 213501047 cycles: 286074080 heartbeat IPC: 0.3007 cumulative IPC: 0.6009 (Simulation time: 00 hr 36 min 27 sec)
Heartbeat CPU 0 instructions: 214001049 cycles: 286511438 heartbeat IPC: 1.143 cumulative IPC: 0.6017 (Simulation time: 00 hr 36 min 31 sec)
Heartbeat CPU 0 instructions: 214501050 cycles: 288091589 heartbeat IPC: 0.3164 cumulative IPC: 0.6001 (Simulation time: 00 hr 36 min 41 sec)
Heartbeat CPU 0 instructions: 215001055 cycles: 288944061 heartbeat IPC: 0.5865 cumulative IPC: 0.6001 (Simulation time: 00 hr 36 min 47 sec)
Heartbeat CPU 0 instructions: 215501059 cycles: 290235433 heartbeat IPC: 0.3872 cumulative IPC: 0.5991 (Simulation time: 00 hr 36 min 54 sec)
Heartbeat CPU 0 instructions: 216001066 cycles: 292656032 heartbeat IPC: 0.2066 cumulative IPC: 0.5956 (Simulation time: 00 hr 37 min 08 sec)
Heartbeat CPU 0 instructions: 216501066 cycles: 293259692 heartbeat IPC: 0.8283 cumulative IPC: 0.5962 (Simulation time: 00 hr 37 min 12 sec)
Heartbeat CPU 0 instructions: 217001066 cycles: 294009788 heartbeat IPC: 0.6666 cumulative IPC: 0.5963 (Simulation time: 00 hr 37 min 17 sec)
Heartbeat CPU 0 instructions: 217501068 cycles: 296542897 heartbeat IPC: 0.1974 cumulative IPC: 0.5928 (Simulation time: 00 hr 37 min 31 sec)
Heartbeat CPU 0 instructions: 218001073 cycles: 297365595 heartbeat IPC: 0.6078 cumulative IPC: 0.5928 (Simulation time: 00 hr 37 min 37 sec)
Heartbeat CPU 0 instructions: 218501074 cycles: 297776477 heartbeat IPC: 1.217 cumulative IPC: 0.5937 (Simulation time: 00 hr 37 min 40 sec)
Heartbeat CPU 0 instructions: 219001076 cycles: 298263434 heartbeat IPC: 1.027 cumulative IPC: 0.5945 (Simulation time: 00 hr 37 min 44 sec)
Heartbeat CPU 0 instructions: 219501078 cycles: 298897901 heartbeat IPC: 0.7881 cumulative IPC: 0.5949 (Simulation time: 00 hr 37 min 48 sec)
Heartbeat CPU 0 instructions: 220001078 cycles: 300223011 heartbeat IPC: 0.3773 cumulative IPC: 0.5939 (Simulation time: 00 hr 37 min 56 sec)
Heartbeat CPU 0 instructions: 220501078 cycles: 300687821 heartbeat IPC: 1.076 cumulative IPC: 0.5947 (Simulation time: 00 hr 37 min 59 sec)
Heartbeat CPU 0 instructions: 221001078 cycles: 301155204 heartbeat IPC: 1.07 cumulative IPC: 0.5954 (Simulation time: 00 hr 38 min 03 sec)
Heartbeat CPU 0 instructions: 221501078 cycles: 301523840 heartbeat IPC: 1.356 cumulative IPC: 0.5964 (Simulation time: 00 hr 38 min 06 sec)
Heartbeat CPU 0 instructions: 222001079 cycles: 303730951 heartbeat IPC: 0.2265 cumulative IPC: 0.5936 (Simulation time: 00 hr 38 min 18 sec)
Heartbeat CPU 0 instructions: 222501083 cycles: 304934436 heartbeat IPC: 0.4155 cumulative IPC: 0.5929 (Simulation time: 00 hr 38 min 26 sec)
Heartbeat CPU 0 instructions: 223001088 cycles: 306878614 heartbeat IPC: 0.2572 cumulative IPC: 0.5906 (Simulation time: 00 hr 38 min 37 sec)
Heartbeat CPU 0 instructions: 223501088 cycles: 308812510 heartbeat IPC: 0.2585 cumulative IPC: 0.5884 (Simulation time: 00 hr 38 min 48 sec)
Heartbeat CPU 0 instructions: 224001088 cycles: 309557358 heartbeat IPC: 0.6713 cumulative IPC: 0.5887 (Simulation time: 00 hr 38 min 53 sec)
Heartbeat CPU 0 instructions: 224501089 cycles: 309947207 heartbeat IPC: 1.283 cumulative IPC: 0.5896 (Simulation time: 00 hr 38 min 56 sec)
Heartbeat CPU 0 instructions: 225001090 cycles: 310305127 heartbeat IPC: 1.397 cumulative IPC: 0.5905 (Simulation time: 00 hr 38 min 58 sec)
Heartbeat CPU 0 instructions: 225501093 cycles: 311323039 heartbeat IPC: 0.4912 cumulative IPC: 0.5902 (Simulation time: 00 hr 39 min 05 sec)
Heartbeat CPU 0 instructions: 226001093 cycles: 311750619 heartbeat IPC: 1.169 cumulative IPC: 0.591 (Simulation time: 00 hr 39 min 08 sec)
Heartbeat CPU 0 instructions: 226501095 cycles: 312631780 heartbeat IPC: 0.5674 cumulative IPC: 0.591 (Simulation time: 00 hr 39 min 14 sec)
Heartbeat CPU 0 instructions: 227001095 cycles: 314686429 heartbeat IPC: 0.2434 cumulative IPC: 0.5886 (Simulation time: 00 hr 39 min 26 sec)
Heartbeat CPU 0 instructions: 227501097 cycles: 316949894 heartbeat IPC: 0.2209 cumulative IPC: 0.5858 (Simulation time: 00 hr 39 min 39 sec)
Heartbeat CPU 0 instructions: 228001100 cycles: 318440759 heartbeat IPC: 0.3354 cumulative IPC: 0.5846 (Simulation time: 00 hr 39 min 48 sec)
Heartbeat CPU 0 instructions: 228501100 cycles: 319712794 heartbeat IPC: 0.3931 cumulative IPC: 0.5838 (Simulation time: 00 hr 39 min 55 sec)
Heartbeat CPU 0 instructions: 229001100 cycles: 321256565 heartbeat IPC: 0.3239 cumulative IPC: 0.5825 (Simulation time: 00 hr 40 min 04 sec)
Heartbeat CPU 0 instructions: 229501101 cycles: 323656047 heartbeat IPC: 0.2084 cumulative IPC: 0.5796 (Simulation time: 00 hr 40 min 17 sec)
Heartbeat CPU 0 instructions: 230001101 cycles: 326385223 heartbeat IPC: 0.1832 cumulative IPC: 0.5762 (Simulation time: 00 hr 40 min 32 sec)
Heartbeat CPU 0 instructions: 230501105 cycles: 327432986 heartbeat IPC: 0.4772 cumulative IPC: 0.5758 (Simulation time: 00 hr 40 min 39 sec)
Heartbeat CPU 0 instructions: 231001112 cycles: 327707522 heartbeat IPC: 1.821 cumulative IPC: 0.5769 (Simulation time: 00 hr 40 min 41 sec)
Heartbeat CPU 0 instructions: 231501113 cycles: 328098861 heartbeat IPC: 1.278 cumulative IPC: 0.5778 (Simulation time: 00 hr 40 min 45 sec)
Heartbeat CPU 0 instructions: 232001113 cycles: 328330377 heartbeat IPC: 2.16 cumulative IPC: 0.579 (Simulation time: 00 hr 40 min 48 sec)
Heartbeat CPU 0 instructions: 232501117 cycles: 328774518 heartbeat IPC: 1.126 cumulative IPC: 0.5797 (Simulation time: 00 hr 40 min 52 sec)
Heartbeat CPU 0 instructions: 233001119 cycles: 330849527 heartbeat IPC: 0.241 cumulative IPC: 0.5775 (Simulation time: 00 hr 41 min 03 sec)
Heartbeat CPU 0 instructions: 233501120 cycles: 333509126 heartbeat IPC: 0.188 cumulative IPC: 0.5743 (Simulation time: 00 hr 41 min 17 sec)
Heartbeat CPU 0 instructions: 234001127 cycles: 336397924 heartbeat IPC: 0.1731 cumulative IPC: 0.5707 (Simulation time: 00 hr 41 min 34 sec)
Heartbeat CPU 0 instructions: 234501127 cycles: 337711706 heartbeat IPC: 0.3806 cumulative IPC: 0.5699 (Simulation time: 00 hr 41 min 43 sec)
Heartbeat CPU 0 instructions: 235001129 cycles: 340263285 heartbeat IPC: 0.196 cumulative IPC: 0.567 (Simulation time: 00 hr 41 min 57 sec)
Heartbeat CPU 0 instructions: 235501132 cycles: 341512311 heartbeat IPC: 0.4003 cumulative IPC: 0.5663 (Simulation time: 00 hr 42 min 05 sec)
Heartbeat CPU 0 instructions: 236001134 cycles: 341834276 heartbeat IPC: 1.553 cumulative IPC: 0.5673 (Simulation time: 00 hr 42 min 08 sec)
Heartbeat CPU 0 instructions: 236501134 cycles: 343589444 heartbeat IPC: 0.2849 cumulative IPC: 0.5658 (Simulation time: 00 hr 42 min 17 sec)
Heartbeat CPU 0 instructions: 237001139 cycles: 346417551 heartbeat IPC: 0.1768 cumulative IPC: 0.5625 (Simulation time: 00 hr 42 min 33 sec)
Heartbeat CPU 0 instructions: 237501140 cycles: 347798196 heartbeat IPC: 0.3622 cumulative IPC: 0.5617 (Simulation time: 00 hr 42 min 41 sec)
Heartbeat CPU 0 instructions: 238001141 cycles: 349952245 heartbeat IPC: 0.2321 cumulative IPC: 0.5596 (Simulation time: 00 hr 42 min 53 sec)
Heartbeat CPU 0 instructions: 238501145 cycles: 350820480 heartbeat IPC: 0.5759 cumulative IPC: 0.5596 (Simulation time: 00 hr 42 min 59 sec)
Heartbeat CPU 0 instructions: 239001145 cycles: 352490519 heartbeat IPC: 0.2994 cumulative IPC: 0.5583 (Simulation time: 00 hr 43 min 09 sec)
Heartbeat CPU 0 instructions: 239501148 cycles: 354331771 heartbeat IPC: 0.2716 cumulative IPC: 0.5568 (Simulation time: 00 hr 43 min 19 sec)
Heartbeat CPU 0 instructions: 240001148 cycles: 357275565 heartbeat IPC: 0.1698 cumulative IPC: 0.5534 (Simulation time: 00 hr 43 min 34 sec)
Heartbeat CPU 0 instructions: 240501150 cycles: 359292112 heartbeat IPC: 0.2479 cumulative IPC: 0.5517 (Simulation time: 00 hr 43 min 46 sec)
Heartbeat CPU 0 instructions: 241001154 cycles: 361285763 heartbeat IPC: 0.2508 cumulative IPC: 0.5499 (Simulation time: 00 hr 43 min 56 sec)
Heartbeat CPU 0 instructions: 241501158 cycles: 362187957 heartbeat IPC: 0.5542 cumulative IPC: 0.5499 (Simulation time: 00 hr 44 min 02 sec)
Heartbeat CPU 0 instructions: 242001160 cycles: 363703023 heartbeat IPC: 0.33 cumulative IPC: 0.549 (Simulation time: 00 hr 44 min 11 sec)
Heartbeat CPU 0 instructions: 242501165 cycles: 365230223 heartbeat IPC: 0.3274 cumulative IPC: 0.548 (Simulation time: 00 hr 44 min 20 sec)
Heartbeat CPU 0 instructions: 243001165 cycles: 366436275 heartbeat IPC: 0.4146 cumulative IPC: 0.5476 (Simulation time: 00 hr 44 min 27 sec)
Heartbeat CPU 0 instructions: 243501165 cycles: 367779937 heartbeat IPC: 0.3721 cumulative IPC: 0.5469 (Simulation time: 00 hr 44 min 36 sec)
Heartbeat CPU 0 instructions: 244001165 cycles: 369056013 heartbeat IPC: 0.3918 cumulative IPC: 0.5463 (Simulation time: 00 hr 44 min 44 sec)
Heartbeat CPU 0 instructions: 244501166 cycles: 371070529 heartbeat IPC: 0.2482 cumulative IPC: 0.5447 (Simulation time: 00 hr 44 min 56 sec)
Heartbeat CPU 0 instructions: 245001167 cycles: 371897491 heartbeat IPC: 0.6046 cumulative IPC: 0.5448 (Simulation time: 00 hr 45 min 02 sec)
Heartbeat CPU 0 instructions: 245501172 cycles: 372718572 heartbeat IPC: 0.609 cumulative IPC: 0.5449 (Simulation time: 00 hr 45 min 07 sec)
Heartbeat CPU 0 instructions: 246001172 cycles: 373330210 heartbeat IPC: 0.8175 cumulative IPC: 0.5454 (Simulation time: 00 hr 45 min 12 sec)
Heartbeat CPU 0 instructions: 246501174 cycles: 375102162 heartbeat IPC: 0.2822 cumulative IPC: 0.5441 (Simulation time: 00 hr 45 min 22 sec)
Heartbeat CPU 0 instructions: 247001176 cycles: 375919081 heartbeat IPC: 0.6121 cumulative IPC: 0.5443 (Simulation time: 00 hr 45 min 27 sec)
Heartbeat CPU 0 instructions: 247501179 cycles: 377321556 heartbeat IPC: 0.3565 cumulative IPC: 0.5435 (Simulation time: 00 hr 45 min 35 sec)
Heartbeat CPU 0 instructions: 248001181 cycles: 378462703 heartbeat IPC: 0.4382 cumulative IPC: 0.5432 (Simulation time: 00 hr 45 min 42 sec)
Heartbeat CPU 0 instructions: 248501186 cycles: 379200537 heartbeat IPC: 0.6777 cumulative IPC: 0.5435 (Simulation time: 00 hr 45 min 47 sec)
Heartbeat CPU 0 instructions: 249001190 cycles: 381072122 heartbeat IPC: 0.2672 cumulative IPC: 0.5421 (Simulation time: 00 hr 45 min 57 sec)
Heartbeat CPU 0 instructions: 249501196 cycles: 383638107 heartbeat IPC: 0.1949 cumulative IPC: 0.5397 (Simulation time: 00 hr 46 min 11 sec)
Simulation finished CPU 0 instructions: 200000001 cycles: 370773555 cumulative IPC: 0.5394 (Simulation time: 00 hr 46 min 17 sec)
Simulation complete CPU 0 instructions: 200000001 cycles: 370773555 cumulative IPC: 0.5394 (Simulation time: 00 hr 46 min 17 sec)

ChampSim completed all CPUs

=== Simulation ===
CPU 0 runs /local-ssd/ben/dpc4-traces/gtraces_v2/merced_0000.champsim.gz

Region of Interest Statistics

CPU 0 cumulative IPC: 0.5394 instructions: 200000001 cycles: 370773555
CPU 0 Branch Prediction Accuracy: 89.91% MPKI: 20.38 Average ROB Occupancy at Mispredict: 25.37
Branch type MPKI
BRANCH_DIRECT_JUMP: 0.6276
BRANCH_INDIRECT: 7.691
BRANCH_CONDITIONAL: 10.96
BRANCH_DIRECT_CALL: 0.5551
BRANCH_INDIRECT_CALL: 0.1874
BRANCH_RETURN: 0.3552

cpu0->cpu0_STLB TOTAL        ACCESS:    2368756 HIT:    1938347 MISS:     430409 MSHR_MERGE:          0
cpu0->cpu0_STLB LOAD         ACCESS:    2368756 HIT:    1938347 MISS:     430409 MSHR_MERGE:          0
cpu0->cpu0_STLB RFO          ACCESS:          0 HIT:          0 MISS:          0 MSHR_MERGE:          0
cpu0->cpu0_STLB PREFETCH     ACCESS:          0 HIT:          0 MISS:          0 MSHR_MERGE:          0
cpu0->cpu0_STLB WRITE        ACCESS:          0 HIT:          0 MISS:          0 MSHR_MERGE:          0
cpu0->cpu0_STLB TRANSLATION  ACCESS:          0 HIT:          0 MISS:          0 MSHR_MERGE:          0
cpu0->cpu0_STLB PREFETCH REQUESTED:          0 ISSUED:          0 USEFUL:          0 USELESS:          0
cpu0->cpu0_STLB AVERAGE MISS LATENCY: 284.2 cycles
cpu0->cpu0_L2C TOTAL        ACCESS:   11515525 HIT:    7868640 MISS:    3646885 MSHR_MERGE:     806624
cpu0->cpu0_L2C LOAD         ACCESS:    2568633 HIT:    1605168 MISS:     963465 MSHR_MERGE:      27567
cpu0->cpu0_L2C RFO          ACCESS:     395224 HIT:     161344 MISS:     233880 MSHR_MERGE:       3313
cpu0->cpu0_L2C PREFETCH     ACCESS:    7145583 HIT:    4915968 MISS:    2229615 MSHR_MERGE:     775744
cpu0->cpu0_L2C WRITE        ACCESS:     823538 HIT:     823472 MISS:         66 MSHR_MERGE:          0
cpu0->cpu0_L2C TRANSLATION  ACCESS:     582547 HIT:     362688 MISS:     219859 MSHR_MERGE:          0
cpu0->cpu0_L2C PREFETCH REQUESTED:    6100376 ISSUED:    5882283 USEFUL:     391682 USELESS:     697730
cpu0->cpu0_L2C AVERAGE MISS LATENCY: 353.6 cycles
cpu0->cpu0_L1I TOTAL        ACCESS:   12141727 HIT:   11038368 MISS:    1103359 MSHR_MERGE:     240023
cpu0->cpu0_L1I LOAD         ACCESS:   12141727 HIT:   11038368 MISS:    1103359 MSHR_MERGE:     240023
cpu0->cpu0_L1I RFO          ACCESS:          0 HIT:          0 MISS:          0 MSHR_MERGE:          0
cpu0->cpu0_L1I PREFETCH     ACCESS:          0 HIT:          0 MISS:          0 MSHR_MERGE:          0
cpu0->cpu0_L1I WRITE        ACCESS:          0 HIT:          0 MISS:          0 MSHR_MERGE:          0
cpu0->cpu0_L1I TRANSLATION  ACCESS:          0 HIT:          0 MISS:          0 MSHR_MERGE:          0
cpu0->cpu0_L1I PREFETCH REQUESTED:          0 ISSUED:          0 USEFUL:          0 USELESS:          0
cpu0->cpu0_L1I AVERAGE MISS LATENCY: 193.7 cycles
cpu0->cpu0_L1D TOTAL        ACCESS:   53886526 HIT:   47820940 MISS:    6065586 MSHR_MERGE:    2119169
cpu0->cpu0_L1D LOAD         ACCESS:   33044061 HIT:   30409978 MISS:    2634083 MSHR_MERGE:     928765
cpu0->cpu0_L1D RFO          ACCESS:          0 HIT:          0 MISS:          0 MSHR_MERGE:          0
cpu0->cpu0_L1D PREFETCH     ACCESS:    2851904 HIT:    1434608 MISS:    1417296 MSHR_MERGE:     153995
cpu0->cpu0_L1D WRITE        ACCESS:   16781279 HIT:   15354218 MISS:    1427061 MSHR_MERGE:    1031810
cpu0->cpu0_L1D TRANSLATION  ACCESS:    1209282 HIT:     622136 MISS:     587146 MSHR_MERGE:       4599
cpu0->cpu0_L1D PREFETCH REQUESTED:    9241779 ISSUED:    2851901 USEFUL:     580037 USELESS:     683221
cpu0->cpu0_L1D AVERAGE MISS LATENCY: 137.4 cycles
cpu0->cpu0_ITLB TOTAL        ACCESS:    9786540 HIT:    9669430 MISS:     117110 MSHR_MERGE:      57537
cpu0->cpu0_ITLB LOAD         ACCESS:    9786540 HIT:    9669430 MISS:     117110 MSHR_MERGE:      57537
cpu0->cpu0_ITLB RFO          ACCESS:          0 HIT:          0 MISS:          0 MSHR_MERGE:          0
cpu0->cpu0_ITLB PREFETCH     ACCESS:          0 HIT:          0 MISS:          0 MSHR_MERGE:          0
cpu0->cpu0_ITLB WRITE        ACCESS:          0 HIT:          0 MISS:          0 MSHR_MERGE:          0
cpu0->cpu0_ITLB TRANSLATION  ACCESS:          0 HIT:          0 MISS:          0 MSHR_MERGE:          0
cpu0->cpu0_ITLB PREFETCH REQUESTED:          0 ISSUED:          0 USEFUL:          0 USELESS:          0
cpu0->cpu0_ITLB AVERAGE MISS LATENCY: 48.26 cycles
cpu0->cpu0_DTLB TOTAL        ACCESS:   50255386 HIT:   46486349 MISS:    3769037 MSHR_MERGE:    1459854
cpu0->cpu0_DTLB LOAD         ACCESS:   50255386 HIT:   46486349 MISS:    3769037 MSHR_MERGE:    1459854
cpu0->cpu0_DTLB RFO          ACCESS:          0 HIT:          0 MISS:          0 MSHR_MERGE:          0
cpu0->cpu0_DTLB PREFETCH     ACCESS:          0 HIT:          0 MISS:          0 MSHR_MERGE:          0
cpu0->cpu0_DTLB WRITE        ACCESS:          0 HIT:          0 MISS:          0 MSHR_MERGE:          0
cpu0->cpu0_DTLB TRANSLATION  ACCESS:          0 HIT:          0 MISS:          0 MSHR_MERGE:          0
cpu0->cpu0_DTLB PREFETCH REQUESTED:          0 ISSUED:          0 USEFUL:          0 USELESS:          0
cpu0->cpu0_DTLB AVERAGE MISS LATENCY: 57.04 cycles
cpu0->LLC TOTAL        ACCESS:    4253808 HIT:     636039 MISS:    3617769 MSHR_MERGE:     355712
cpu0->LLC LOAD         ACCESS:     935898 HIT:     123202 MISS:     812696 MSHR_MERGE:       8071
cpu0->LLC RFO          ACCESS:     230567 HIT:      11504 MISS:     219063 MSHR_MERGE:        398
cpu0->LLC PREFETCH     ACCESS:    2459600 HIT:     332728 MISS:    2126872 MSHR_MERGE:     347243
cpu0->LLC WRITE        ACCESS:     407884 HIT:     151959 MISS:     255925 MSHR_MERGE:          0
cpu0->LLC TRANSLATION  ACCESS:     219859 HIT:      16646 MISS:     203213 MSHR_MERGE:          0
cpu0->LLC PREFETCH REQUESTED:    1157439 ISSUED:    1005730 USEFUL:     128474 USELESS:     490181
cpu0->LLC AVERAGE MISS LATENCY: 311.8 cycles

DRAM Statistics

Channel 0 RQ ROW_BUFFER_HIT:     104772
  ROW_BUFFER_MISS:    2901271
  AVG DBUS CONGESTED CYCLE: 4.131
Channel 0 WQ ROW_BUFFER_HIT:      78152
  ROW_BUFFER_MISS:     300342
  FULL:          0
Channel 0 REFRESHES ISSUED:      30898
