[VMEM] WARNING: physical memory size is smaller than virtual memory size.

*** ChampSim Multicore Out-of-Order Simulator ***
Warmup Instructions: 50000000
Simulation Instructions: 200000000
Number of CPUs: 1
Page size: 4096
Core 0: /local-ssd/ben/dpc4-traces/gtraces_v2/yankee_0003.champsim.gz
sBerti (Smart Stride + Berti) Prefetcher Initialized
Off-chip DRAM Size: 64 GiB Channels: 1 Width: 64-bit Data Rate: 800 MT/s
[BTB] WARNING: target of return is a lower address than the corresponding call. This is usually a problem with your trace.
[BTB] WARNING: target of return is a lower address than the corresponding call. This is usually a problem with your trace.
[BTB] WARNING: target of return is a lower address than the corresponding call. This is usually a problem with your trace.
Heartbeat CPU 0 instructions: 500000 cycles: 242896 heartbeat IPC: 2.058 cumulative IPC: 2.058 (Simulation time: 00 hr 00 min 04 sec)
[BTB] WARNING: target of return is a lower address than the corresponding call. This is usually a problem with your trace.
[BTB] WARNING: target of return is a lower address than the corresponding call. This is usually a problem with your trace.
[BTB] WARNING: target of return is a lower address than the corresponding call. This is usually a problem with your trace.
Heartbeat CPU 0 instructions: 1000005 cycles: 458504 heartbeat IPC: 2.319 cumulative IPC: 2.181 (Simulation time: 00 hr 00 min 07 sec)
[BTB] WARNING: target of return is a lower address than the corresponding call. This is usually a problem with your trace.
Heartbeat CPU 0 instructions: 1500012 cycles: 591212 heartbeat IPC: 3.768 cumulative IPC: 2.537 (Simulation time: 00 hr 00 min 09 sec)
[BTB] WARNING: target of return is a lower address than the corresponding call. This is usually a problem with your trace.
[BTB] WARNING: target of return is a lower address than the corresponding call. This is usually a problem with your trace.
Heartbeat CPU 0 instructions: 2000018 cycles: 727251 heartbeat IPC: 3.675 cumulative IPC: 2.75 (Simulation time: 00 hr 00 min 12 sec)
[BTB] WARNING: target of return is a lower address than the corresponding call. This is usually a problem with your trace.
Heartbeat CPU 0 instructions: 2500020 cycles: 906807 heartbeat IPC: 2.785 cumulative IPC: 2.757 (Simulation time: 00 hr 00 min 14 sec)
Heartbeat CPU 0 instructions: 3000026 cycles: 1105375 heartbeat IPC: 2.518 cumulative IPC: 2.714 (Simulation time: 00 hr 00 min 18 sec)
Heartbeat CPU 0 instructions: 3500026 cycles: 1252197 heartbeat IPC: 3.405 cumulative IPC: 2.795 (Simulation time: 00 hr 00 min 20 sec)
Heartbeat CPU 0 instructions: 4000031 cycles: 1388026 heartbeat IPC: 3.681 cumulative IPC: 2.882 (Simulation time: 00 hr 00 min 22 sec)
Heartbeat CPU 0 instructions: 4500038 cycles: 1510664 heartbeat IPC: 4.077 cumulative IPC: 2.979 (Simulation time: 00 hr 00 min 24 sec)
Heartbeat CPU 0 instructions: 5000041 cycles: 1620485 heartbeat IPC: 4.553 cumulative IPC: 3.086 (Simulation time: 00 hr 00 min 26 sec)
Heartbeat CPU 0 instructions: 5500043 cycles: 1748427 heartbeat IPC: 3.908 cumulative IPC: 3.146 (Simulation time: 00 hr 00 min 28 sec)
Heartbeat CPU 0 instructions: 6000048 cycles: 1886268 heartbeat IPC: 3.627 cumulative IPC: 3.181 (Simulation time: 00 hr 00 min 31 sec)
Heartbeat CPU 0 instructions: 6500052 cycles: 2014944 heartbeat IPC: 3.886 cumulative IPC: 3.226 (Simulation time: 00 hr 00 min 33 sec)
Heartbeat CPU 0 instructions: 7000053 cycles: 2153169 heartbeat IPC: 3.617 cumulative IPC: 3.251 (Simulation time: 00 hr 00 min 36 sec)
Heartbeat CPU 0 instructions: 7500054 cycles: 2276776 heartbeat IPC: 4.045 cumulative IPC: 3.294 (Simulation time: 00 hr 00 min 38 sec)
Heartbeat CPU 0 instructions: 8000058 cycles: 2392153 heartbeat IPC: 4.334 cumulative IPC: 3.344 (Simulation time: 00 hr 00 min 39 sec)
Heartbeat CPU 0 instructions: 8500060 cycles: 2520642 heartbeat IPC: 3.891 cumulative IPC: 3.372 (Simulation time: 00 hr 00 min 42 sec)
Heartbeat CPU 0 instructions: 9000061 cycles: 2692529 heartbeat IPC: 2.909 cumulative IPC: 3.343 (Simulation time: 00 hr 00 min 45 sec)
Heartbeat CPU 0 instructions: 9500067 cycles: 2821881 heartbeat IPC: 3.865 cumulative IPC: 3.367 (Simulation time: 00 hr 00 min 47 sec)
Heartbeat CPU 0 instructions: 10000071 cycles: 2939958 heartbeat IPC: 4.235 cumulative IPC: 3.401 (Simulation time: 00 hr 00 min 49 sec)
Heartbeat CPU 0 instructions: 10500071 cycles: 3060869 heartbeat IPC: 4.135 cumulative IPC: 3.43 (Simulation time: 00 hr 00 min 51 sec)
Heartbeat CPU 0 instructions: 11000076 cycles: 3170797 heartbeat IPC: 4.548 cumulative IPC: 3.469 (Simulation time: 00 hr 00 min 53 sec)
Heartbeat CPU 0 instructions: 11500080 cycles: 3300856 heartbeat IPC: 3.844 cumulative IPC: 3.484 (Simulation time: 00 hr 00 min 55 sec)
Heartbeat CPU 0 instructions: 12000083 cycles: 3417062 heartbeat IPC: 4.303 cumulative IPC: 3.512 (Simulation time: 00 hr 00 min 57 sec)
Heartbeat CPU 0 instructions: 12500089 cycles: 3527143 heartbeat IPC: 4.542 cumulative IPC: 3.544 (Simulation time: 00 hr 00 min 59 sec)
Heartbeat CPU 0 instructions: 13000092 cycles: 3659427 heartbeat IPC: 3.78 cumulative IPC: 3.552 (Simulation time: 00 hr 01 min 01 sec)
Heartbeat CPU 0 instructions: 13500096 cycles: 3811718 heartbeat IPC: 3.283 cumulative IPC: 3.542 (Simulation time: 00 hr 01 min 04 sec)
Heartbeat CPU 0 instructions: 14000099 cycles: 3947800 heartbeat IPC: 3.674 cumulative IPC: 3.546 (Simulation time: 00 hr 01 min 06 sec)
Heartbeat CPU 0 instructions: 14500099 cycles: 4070737 heartbeat IPC: 4.067 cumulative IPC: 3.562 (Simulation time: 00 hr 01 min 09 sec)
Heartbeat CPU 0 instructions: 15000099 cycles: 4202832 heartbeat IPC: 3.785 cumulative IPC: 3.569 (Simulation time: 00 hr 01 min 11 sec)
Heartbeat CPU 0 instructions: 15500099 cycles: 4310943 heartbeat IPC: 4.625 cumulative IPC: 3.596 (Simulation time: 00 hr 01 min 13 sec)
Heartbeat CPU 0 instructions: 16000101 cycles: 4436367 heartbeat IPC: 3.986 cumulative IPC: 3.607 (Simulation time: 00 hr 01 min 15 sec)
Heartbeat CPU 0 instructions: 16500105 cycles: 4591032 heartbeat IPC: 3.233 cumulative IPC: 3.594 (Simulation time: 00 hr 01 min 18 sec)
Heartbeat CPU 0 instructions: 17000107 cycles: 4718162 heartbeat IPC: 3.933 cumulative IPC: 3.603 (Simulation time: 00 hr 01 min 20 sec)
Heartbeat CPU 0 instructions: 17500107 cycles: 4847972 heartbeat IPC: 3.852 cumulative IPC: 3.61 (Simulation time: 00 hr 01 min 23 sec)
Heartbeat CPU 0 instructions: 18000108 cycles: 4963768 heartbeat IPC: 4.318 cumulative IPC: 3.626 (Simulation time: 00 hr 01 min 25 sec)
Heartbeat CPU 0 instructions: 18500110 cycles: 5102683 heartbeat IPC: 3.599 cumulative IPC: 3.626 (Simulation time: 00 hr 01 min 27 sec)
Heartbeat CPU 0 instructions: 19000115 cycles: 5217698 heartbeat IPC: 4.347 cumulative IPC: 3.641 (Simulation time: 00 hr 01 min 29 sec)
Heartbeat CPU 0 instructions: 19500122 cycles: 5340546 heartbeat IPC: 4.07 cumulative IPC: 3.651 (Simulation time: 00 hr 01 min 31 sec)
Heartbeat CPU 0 instructions: 20000126 cycles: 5457569 heartbeat IPC: 4.273 cumulative IPC: 3.665 (Simulation time: 00 hr 01 min 34 sec)
Heartbeat CPU 0 instructions: 20500129 cycles: 5597256 heartbeat IPC: 3.579 cumulative IPC: 3.663 (Simulation time: 00 hr 01 min 36 sec)
Heartbeat CPU 0 instructions: 21000135 cycles: 5715858 heartbeat IPC: 4.216 cumulative IPC: 3.674 (Simulation time: 00 hr 01 min 38 sec)
Heartbeat CPU 0 instructions: 21500139 cycles: 5830828 heartbeat IPC: 4.349 cumulative IPC: 3.687 (Simulation time: 00 hr 01 min 40 sec)
Heartbeat CPU 0 instructions: 22000143 cycles: 5939874 heartbeat IPC: 4.585 cumulative IPC: 3.704 (Simulation time: 00 hr 01 min 42 sec)
Heartbeat CPU 0 instructions: 22500147 cycles: 6052078 heartbeat IPC: 4.456 cumulative IPC: 3.718 (Simulation time: 00 hr 01 min 44 sec)
Heartbeat CPU 0 instructions: 23000149 cycles: 6174168 heartbeat IPC: 4.095 cumulative IPC: 3.725 (Simulation time: 00 hr 01 min 46 sec)
Heartbeat CPU 0 instructions: 23500154 cycles: 6298220 heartbeat IPC: 4.031 cumulative IPC: 3.731 (Simulation time: 00 hr 01 min 48 sec)
Heartbeat CPU 0 instructions: 24000161 cycles: 6443771 heartbeat IPC: 3.435 cumulative IPC: 3.725 (Simulation time: 00 hr 01 min 51 sec)
Heartbeat CPU 0 instructions: 24500167 cycles: 6595570 heartbeat IPC: 3.294 cumulative IPC: 3.715 (Simulation time: 00 hr 01 min 53 sec)
Heartbeat CPU 0 instructions: 25000169 cycles: 6715231 heartbeat IPC: 4.178 cumulative IPC: 3.723 (Simulation time: 00 hr 01 min 55 sec)
Heartbeat CPU 0 instructions: 25500176 cycles: 6838447 heartbeat IPC: 4.058 cumulative IPC: 3.729 (Simulation time: 00 hr 01 min 58 sec)
Heartbeat CPU 0 instructions: 26000180 cycles: 7014835 heartbeat IPC: 2.835 cumulative IPC: 3.706 (Simulation time: 00 hr 02 min 01 sec)
Heartbeat CPU 0 instructions: 26500181 cycles: 7141233 heartbeat IPC: 3.956 cumulative IPC: 3.711 (Simulation time: 00 hr 02 min 03 sec)
Heartbeat CPU 0 instructions: 27000183 cycles: 7280146 heartbeat IPC: 3.599 cumulative IPC: 3.709 (Simulation time: 00 hr 02 min 06 sec)
Heartbeat CPU 0 instructions: 27500187 cycles: 7419861 heartbeat IPC: 3.579 cumulative IPC: 3.706 (Simulation time: 00 hr 02 min 08 sec)
Heartbeat CPU 0 instructions: 28000187 cycles: 7538910 heartbeat IPC: 4.2 cumulative IPC: 3.714 (Simulation time: 00 hr 02 min 10 sec)
Heartbeat CPU 0 instructions: 28500192 cycles: 7660714 heartbeat IPC: 4.105 cumulative IPC: 3.72 (Simulation time: 00 hr 02 min 12 sec)
Heartbeat CPU 0 instructions: 29000192 cycles: 7808218 heartbeat IPC: 3.39 cumulative IPC: 3.714 (Simulation time: 00 hr 02 min 15 sec)
Heartbeat CPU 0 instructions: 29500197 cycles: 7932656 heartbeat IPC: 4.018 cumulative IPC: 3.719 (Simulation time: 00 hr 02 min 17 sec)
Heartbeat CPU 0 instructions: 30000203 cycles: 8095627 heartbeat IPC: 3.068 cumulative IPC: 3.706 (Simulation time: 00 hr 02 min 20 sec)
Heartbeat CPU 0 instructions: 30500209 cycles: 8225874 heartbeat IPC: 3.839 cumulative IPC: 3.708 (Simulation time: 00 hr 02 min 22 sec)
Heartbeat CPU 0 instructions: 31000214 cycles: 8347586 heartbeat IPC: 4.108 cumulative IPC: 3.714 (Simulation time: 00 hr 02 min 24 sec)
Heartbeat CPU 0 instructions: 31500218 cycles: 8521637 heartbeat IPC: 2.873 cumulative IPC: 3.696 (Simulation time: 00 hr 02 min 27 sec)
Heartbeat CPU 0 instructions: 32000223 cycles: 8653713 heartbeat IPC: 3.786 cumulative IPC: 3.698 (Simulation time: 00 hr 02 min 30 sec)
Heartbeat CPU 0 instructions: 32500230 cycles: 8782447 heartbeat IPC: 3.884 cumulative IPC: 3.701 (Simulation time: 00 hr 02 min 32 sec)
Heartbeat CPU 0 instructions: 33000233 cycles: 8928738 heartbeat IPC: 3.418 cumulative IPC: 3.696 (Simulation time: 00 hr 02 min 34 sec)
Heartbeat CPU 0 instructions: 33500236 cycles: 9070056 heartbeat IPC: 3.538 cumulative IPC: 3.693 (Simulation time: 00 hr 02 min 37 sec)
Heartbeat CPU 0 instructions: 34000238 cycles: 9171595 heartbeat IPC: 4.924 cumulative IPC: 3.707 (Simulation time: 00 hr 02 min 39 sec)
Heartbeat CPU 0 instructions: 34500240 cycles: 9295798 heartbeat IPC: 4.026 cumulative IPC: 3.711 (Simulation time: 00 hr 02 min 41 sec)
Heartbeat CPU 0 instructions: 35000245 cycles: 9429959 heartbeat IPC: 3.727 cumulative IPC: 3.712 (Simulation time: 00 hr 02 min 43 sec)
Heartbeat CPU 0 instructions: 35500251 cycles: 9588129 heartbeat IPC: 3.161 cumulative IPC: 3.703 (Simulation time: 00 hr 02 min 46 sec)
Heartbeat CPU 0 instructions: 36000252 cycles: 9703330 heartbeat IPC: 4.34 cumulative IPC: 3.71 (Simulation time: 00 hr 02 min 48 sec)
Heartbeat CPU 0 instructions: 36500257 cycles: 9817816 heartbeat IPC: 4.367 cumulative IPC: 3.718 (Simulation time: 00 hr 02 min 50 sec)
Heartbeat CPU 0 instructions: 37000259 cycles: 9929049 heartbeat IPC: 4.495 cumulative IPC: 3.726 (Simulation time: 00 hr 02 min 52 sec)
Heartbeat CPU 0 instructions: 37500260 cycles: 10078293 heartbeat IPC: 3.35 cumulative IPC: 3.721 (Simulation time: 00 hr 02 min 54 sec)
Heartbeat CPU 0 instructions: 38000260 cycles: 10239502 heartbeat IPC: 3.102 cumulative IPC: 3.711 (Simulation time: 00 hr 02 min 57 sec)
Heartbeat CPU 0 instructions: 38500264 cycles: 10388426 heartbeat IPC: 3.357 cumulative IPC: 3.706 (Simulation time: 00 hr 03 min 00 sec)
Heartbeat CPU 0 instructions: 39000264 cycles: 10527990 heartbeat IPC: 3.583 cumulative IPC: 3.704 (Simulation time: 00 hr 03 min 02 sec)
Heartbeat CPU 0 instructions: 39500271 cycles: 10678666 heartbeat IPC: 3.318 cumulative IPC: 3.699 (Simulation time: 00 hr 03 min 05 sec)
Heartbeat CPU 0 instructions: 40000276 cycles: 10826778 heartbeat IPC: 3.376 cumulative IPC: 3.695 (Simulation time: 00 hr 03 min 08 sec)
Heartbeat CPU 0 instructions: 40500278 cycles: 10932084 heartbeat IPC: 4.748 cumulative IPC: 3.705 (Simulation time: 00 hr 03 min 10 sec)
Heartbeat CPU 0 instructions: 41000282 cycles: 11093179 heartbeat IPC: 3.104 cumulative IPC: 3.696 (Simulation time: 00 hr 03 min 13 sec)
Heartbeat CPU 0 instructions: 41500285 cycles: 11243239 heartbeat IPC: 3.332 cumulative IPC: 3.691 (Simulation time: 00 hr 03 min 16 sec)
Heartbeat CPU 0 instructions: 42000286 cycles: 11382483 heartbeat IPC: 3.591 cumulative IPC: 3.69 (Simulation time: 00 hr 03 min 18 sec)
Heartbeat CPU 0 instructions: 42500291 cycles: 11562046 heartbeat IPC: 2.785 cumulative IPC: 3.676 (Simulation time: 00 hr 03 min 21 sec)
Heartbeat CPU 0 instructions: 43000295 cycles: 11710192 heartbeat IPC: 3.375 cumulative IPC: 3.672 (Simulation time: 00 hr 03 min 24 sec)
Heartbeat CPU 0 instructions: 43500297 cycles: 11865469 heartbeat IPC: 3.22 cumulative IPC: 3.666 (Simulation time: 00 hr 03 min 27 sec)
Heartbeat CPU 0 instructions: 44000304 cycles: 12017824 heartbeat IPC: 3.282 cumulative IPC: 3.661 (Simulation time: 00 hr 03 min 29 sec)
Heartbeat CPU 0 instructions: 44500307 cycles: 12164469 heartbeat IPC: 3.41 cumulative IPC: 3.658 (Simulation time: 00 hr 03 min 32 sec)
Heartbeat CPU 0 instructions: 45000314 cycles: 12315479 heartbeat IPC: 3.311 cumulative IPC: 3.654 (Simulation time: 00 hr 03 min 35 sec)
Heartbeat CPU 0 instructions: 45500318 cycles: 12461084 heartbeat IPC: 3.434 cumulative IPC: 3.651 (Simulation time: 00 hr 03 min 38 sec)
Heartbeat CPU 0 instructions: 46000321 cycles: 12585440 heartbeat IPC: 4.021 cumulative IPC: 3.655 (Simulation time: 00 hr 03 min 40 sec)
Heartbeat CPU 0 instructions: 46500323 cycles: 12743210 heartbeat IPC: 3.169 cumulative IPC: 3.649 (Simulation time: 00 hr 03 min 43 sec)
Heartbeat CPU 0 instructions: 47000325 cycles: 12878644 heartbeat IPC: 3.692 cumulative IPC: 3.649 (Simulation time: 00 hr 03 min 45 sec)
Heartbeat CPU 0 instructions: 47500329 cycles: 12993965 heartbeat IPC: 4.336 cumulative IPC: 3.656 (Simulation time: 00 hr 03 min 47 sec)
Heartbeat CPU 0 instructions: 48000331 cycles: 13104938 heartbeat IPC: 4.506 cumulative IPC: 3.663 (Simulation time: 00 hr 03 min 49 sec)
Heartbeat CPU 0 instructions: 48500336 cycles: 13215060 heartbeat IPC: 4.54 cumulative IPC: 3.67 (Simulation time: 00 hr 03 min 50 sec)
Heartbeat CPU 0 instructions: 49000338 cycles: 13336697 heartbeat IPC: 4.111 cumulative IPC: 3.674 (Simulation time: 00 hr 03 min 53 sec)
Heartbeat CPU 0 instructions: 49500340 cycles: 13480772 heartbeat IPC: 3.47 cumulative IPC: 3.672 (Simulation time: 00 hr 03 min 55 sec)
Warmup halting CPU 0 at instruction 50000006 cycle 13633594 for remainder of phase
Warmup finished CPU 0 instructions: 50000006 cycles: 13633594 cumulative IPC: 3.667 (Simulation time: 00 hr 03 min 58 sec)
Warmup complete CPU 0 instructions: 50000006 cycles: 13633594 cumulative IPC: 3.667 (Simulation time: 00 hr 03 min 58 sec)
Heartbeat CPU 0 instructions: 50000340 cycles: 13634238 heartbeat IPC: 3.258 cumulative IPC: 0.5186 (Simulation time: 00 hr 03 min 58 sec)
Heartbeat CPU 0 instructions: 50500340 cycles: 14603890 heartbeat IPC: 0.5156 cumulative IPC: 0.5157 (Simulation time: 00 hr 04 min 05 sec)
Heartbeat CPU 0 instructions: 51000341 cycles: 15244362 heartbeat IPC: 0.7807 cumulative IPC: 0.621 (Simulation time: 00 hr 04 min 10 sec)
Heartbeat CPU 0 instructions: 51500347 cycles: 15845350 heartbeat IPC: 0.832 cumulative IPC: 0.6783 (Simulation time: 00 hr 04 min 15 sec)
Heartbeat CPU 0 instructions: 52000348 cycles: 17732531 heartbeat IPC: 0.2649 cumulative IPC: 0.488 (Simulation time: 00 hr 04 min 27 sec)
Heartbeat CPU 0 instructions: 52500350 cycles: 18904963 heartbeat IPC: 0.4265 cumulative IPC: 0.4743 (Simulation time: 00 hr 04 min 35 sec)
Heartbeat CPU 0 instructions: 53000352 cycles: 19773602 heartbeat IPC: 0.5756 cumulative IPC: 0.4887 (Simulation time: 00 hr 04 min 41 sec)
Heartbeat CPU 0 instructions: 53500352 cycles: 20548398 heartbeat IPC: 0.6453 cumulative IPC: 0.5062 (Simulation time: 00 hr 04 min 47 sec)
Heartbeat CPU 0 instructions: 54000352 cycles: 21759420 heartbeat IPC: 0.4129 cumulative IPC: 0.4923 (Simulation time: 00 hr 04 min 55 sec)
Heartbeat CPU 0 instructions: 54500352 cycles: 23463413 heartbeat IPC: 0.2934 cumulative IPC: 0.4578 (Simulation time: 00 hr 05 min 07 sec)
Heartbeat CPU 0 instructions: 55000353 cycles: 24295454 heartbeat IPC: 0.6009 cumulative IPC: 0.469 (Simulation time: 00 hr 05 min 12 sec)
Heartbeat CPU 0 instructions: 55500355 cycles: 24772003 heartbeat IPC: 1.049 cumulative IPC: 0.4938 (Simulation time: 00 hr 05 min 16 sec)
Heartbeat CPU 0 instructions: 56000356 cycles: 26363678 heartbeat IPC: 0.3141 cumulative IPC: 0.4714 (Simulation time: 00 hr 05 min 27 sec)
Heartbeat CPU 0 instructions: 56500358 cycles: 28123628 heartbeat IPC: 0.2841 cumulative IPC: 0.4486 (Simulation time: 00 hr 05 min 38 sec)
Heartbeat CPU 0 instructions: 57000358 cycles: 29075984 heartbeat IPC: 0.525 cumulative IPC: 0.4533 (Simulation time: 00 hr 05 min 45 sec)
Heartbeat CPU 0 instructions: 57500358 cycles: 29658543 heartbeat IPC: 0.8583 cumulative IPC: 0.468 (Simulation time: 00 hr 05 min 50 sec)
Heartbeat CPU 0 instructions: 58000358 cycles: 32092690 heartbeat IPC: 0.2054 cumulative IPC: 0.4334 (Simulation time: 00 hr 06 min 05 sec)
Heartbeat CPU 0 instructions: 58500358 cycles: 34123690 heartbeat IPC: 0.2462 cumulative IPC: 0.4149 (Simulation time: 00 hr 06 min 18 sec)
Heartbeat CPU 0 instructions: 59000359 cycles: 35351141 heartbeat IPC: 0.4073 cumulative IPC: 0.4144 (Simulation time: 00 hr 06 min 27 sec)
Heartbeat CPU 0 instructions: 59500361 cycles: 36190493 heartbeat IPC: 0.5957 cumulative IPC: 0.4212 (Simulation time: 00 hr 06 min 33 sec)
Heartbeat CPU 0 instructions: 60000363 cycles: 37014548 heartbeat IPC: 0.6068 cumulative IPC: 0.4277 (Simulation time: 00 hr 06 min 39 sec)
Heartbeat CPU 0 instructions: 60500368 cycles: 38038774 heartbeat IPC: 0.4882 cumulative IPC: 0.4303 (Simulation time: 00 hr 06 min 46 sec)
Heartbeat CPU 0 instructions: 61000368 cycles: 41301861 heartbeat IPC: 0.1532 cumulative IPC: 0.3976 (Simulation time: 00 hr 07 min 05 sec)
Heartbeat CPU 0 instructions: 61500371 cycles: 42654097 heartbeat IPC: 0.3698 cumulative IPC: 0.3963 (Simulation time: 00 hr 07 min 15 sec)
Heartbeat CPU 0 instructions: 62000371 cycles: 43869953 heartbeat IPC: 0.4112 cumulative IPC: 0.3969 (Simulation time: 00 hr 07 min 23 sec)
Heartbeat CPU 0 instructions: 62500373 cycles: 44998533 heartbeat IPC: 0.443 cumulative IPC: 0.3985 (Simulation time: 00 hr 07 min 31 sec)
Heartbeat CPU 0 instructions: 63000375 cycles: 47190633 heartbeat IPC: 0.2281 cumulative IPC: 0.3874 (Simulation time: 00 hr 07 min 44 sec)
Heartbeat CPU 0 instructions: 63500381 cycles: 48680475 heartbeat IPC: 0.3356 cumulative IPC: 0.3852 (Simulation time: 00 hr 07 min 54 sec)
Heartbeat CPU 0 instructions: 64000382 cycles: 49581051 heartbeat IPC: 0.5552 cumulative IPC: 0.3895 (Simulation time: 00 hr 08 min 01 sec)
Heartbeat CPU 0 instructions: 64500385 cycles: 50345935 heartbeat IPC: 0.6537 cumulative IPC: 0.395 (Simulation time: 00 hr 08 min 06 sec)
Heartbeat CPU 0 instructions: 65000388 cycles: 51956974 heartbeat IPC: 0.3104 cumulative IPC: 0.3914 (Simulation time: 00 hr 08 min 17 sec)
Heartbeat CPU 0 instructions: 65500394 cycles: 52989414 heartbeat IPC: 0.4843 cumulative IPC: 0.3939 (Simulation time: 00 hr 08 min 24 sec)
Heartbeat CPU 0 instructions: 66000396 cycles: 54081156 heartbeat IPC: 0.458 cumulative IPC: 0.3956 (Simulation time: 00 hr 08 min 31 sec)
Heartbeat CPU 0 instructions: 66500401 cycles: 55501691 heartbeat IPC: 0.352 cumulative IPC: 0.3941 (Simulation time: 00 hr 08 min 40 sec)
Heartbeat CPU 0 instructions: 67000401 cycles: 59030385 heartbeat IPC: 0.1417 cumulative IPC: 0.3745 (Simulation time: 00 hr 09 min 01 sec)
Heartbeat CPU 0 instructions: 67500408 cycles: 61120906 heartbeat IPC: 0.2392 cumulative IPC: 0.3685 (Simulation time: 00 hr 09 min 14 sec)
Heartbeat CPU 0 instructions: 68000412 cycles: 62216384 heartbeat IPC: 0.4564 cumulative IPC: 0.3705 (Simulation time: 00 hr 09 min 22 sec)
Heartbeat CPU 0 instructions: 68500415 cycles: 63094759 heartbeat IPC: 0.5692 cumulative IPC: 0.374 (Simulation time: 00 hr 09 min 29 sec)
Heartbeat CPU 0 instructions: 69000416 cycles: 63995749 heartbeat IPC: 0.5549 cumulative IPC: 0.3773 (Simulation time: 00 hr 09 min 35 sec)
Heartbeat CPU 0 instructions: 69500416 cycles: 64877937 heartbeat IPC: 0.5668 cumulative IPC: 0.3805 (Simulation time: 00 hr 09 min 41 sec)
Heartbeat CPU 0 instructions: 70000420 cycles: 66785223 heartbeat IPC: 0.2622 cumulative IPC: 0.3763 (Simulation time: 00 hr 09 min 53 sec)
Heartbeat CPU 0 instructions: 70500421 cycles: 68255127 heartbeat IPC: 0.3402 cumulative IPC: 0.3753 (Simulation time: 00 hr 10 min 03 sec)
Heartbeat CPU 0 instructions: 71000422 cycles: 70607326 heartbeat IPC: 0.2126 cumulative IPC: 0.3686 (Simulation time: 00 hr 10 min 17 sec)
Heartbeat CPU 0 instructions: 71500422 cycles: 73676723 heartbeat IPC: 0.1629 cumulative IPC: 0.3581 (Simulation time: 00 hr 10 min 36 sec)
Heartbeat CPU 0 instructions: 72000422 cycles: 75645039 heartbeat IPC: 0.254 cumulative IPC: 0.3548 (Simulation time: 00 hr 10 min 49 sec)
Heartbeat CPU 0 instructions: 72500425 cycles: 77422740 heartbeat IPC: 0.2813 cumulative IPC: 0.3527 (Simulation time: 00 hr 11 min 00 sec)
Heartbeat CPU 0 instructions: 73000425 cycles: 78123623 heartbeat IPC: 0.7134 cumulative IPC: 0.3567 (Simulation time: 00 hr 11 min 06 sec)
Heartbeat CPU 0 instructions: 73500428 cycles: 80221536 heartbeat IPC: 0.2383 cumulative IPC: 0.3529 (Simulation time: 00 hr 11 min 20 sec)
Heartbeat CPU 0 instructions: 74000428 cycles: 82066401 heartbeat IPC: 0.271 cumulative IPC: 0.3507 (Simulation time: 00 hr 11 min 33 sec)
Heartbeat CPU 0 instructions: 74500429 cycles: 83198058 heartbeat IPC: 0.4418 cumulative IPC: 0.3522 (Simulation time: 00 hr 11 min 40 sec)
Heartbeat CPU 0 instructions: 75000431 cycles: 84150901 heartbeat IPC: 0.5247 cumulative IPC: 0.3545 (Simulation time: 00 hr 11 min 47 sec)
Heartbeat CPU 0 instructions: 75500437 cycles: 84865931 heartbeat IPC: 0.6993 cumulative IPC: 0.358 (Simulation time: 00 hr 11 min 52 sec)
Heartbeat CPU 0 instructions: 76000437 cycles: 85311441 heartbeat IPC: 1.122 cumulative IPC: 0.3627 (Simulation time: 00 hr 11 min 56 sec)
Heartbeat CPU 0 instructions: 76500439 cycles: 87049831 heartbeat IPC: 0.2876 cumulative IPC: 0.361 (Simulation time: 00 hr 12 min 07 sec)
Heartbeat CPU 0 instructions: 77000441 cycles: 89054241 heartbeat IPC: 0.2495 cumulative IPC: 0.358 (Simulation time: 00 hr 12 min 21 sec)
Heartbeat CPU 0 instructions: 77500448 cycles: 89898671 heartbeat IPC: 0.5921 cumulative IPC: 0.3606 (Simulation time: 00 hr 12 min 27 sec)
Heartbeat CPU 0 instructions: 78000448 cycles: 90483769 heartbeat IPC: 0.8546 cumulative IPC: 0.3644 (Simulation time: 00 hr 12 min 31 sec)
Heartbeat CPU 0 instructions: 78500448 cycles: 91279905 heartbeat IPC: 0.628 cumulative IPC: 0.3671 (Simulation time: 00 hr 12 min 37 sec)
Heartbeat CPU 0 instructions: 79000453 cycles: 91688683 heartbeat IPC: 1.223 cumulative IPC: 0.3715 (Simulation time: 00 hr 12 min 41 sec)
Heartbeat CPU 0 instructions: 79500459 cycles: 92308986 heartbeat IPC: 0.8061 cumulative IPC: 0.375 (Simulation time: 00 hr 12 min 45 sec)
Heartbeat CPU 0 instructions: 80000466 cycles: 92777374 heartbeat IPC: 1.068 cumulative IPC: 0.3791 (Simulation time: 00 hr 12 min 50 sec)
Heartbeat CPU 0 instructions: 80500469 cycles: 94805054 heartbeat IPC: 0.2466 cumulative IPC: 0.3758 (Simulation time: 00 hr 13 min 02 sec)
Heartbeat CPU 0 instructions: 81000473 cycles: 96930939 heartbeat IPC: 0.2352 cumulative IPC: 0.3722 (Simulation time: 00 hr 13 min 16 sec)
Heartbeat CPU 0 instructions: 81500478 cycles: 98084861 heartbeat IPC: 0.4333 cumulative IPC: 0.373 (Simulation time: 00 hr 13 min 23 sec)
Heartbeat CPU 0 instructions: 82000480 cycles: 98768936 heartbeat IPC: 0.7309 cumulative IPC: 0.3759 (Simulation time: 00 hr 13 min 28 sec)
Heartbeat CPU 0 instructions: 82500480 cycles: 99592752 heartbeat IPC: 0.6069 cumulative IPC: 0.3781 (Simulation time: 00 hr 13 min 34 sec)
Heartbeat CPU 0 instructions: 83000480 cycles: 100607496 heartbeat IPC: 0.4927 cumulative IPC: 0.3794 (Simulation time: 00 hr 13 min 41 sec)
Heartbeat CPU 0 instructions: 83500484 cycles: 101397288 heartbeat IPC: 0.6331 cumulative IPC: 0.3817 (Simulation time: 00 hr 13 min 47 sec)
Heartbeat CPU 0 instructions: 84000486 cycles: 102040470 heartbeat IPC: 0.7774 cumulative IPC: 0.3846 (Simulation time: 00 hr 13 min 52 sec)
Heartbeat CPU 0 instructions: 84500486 cycles: 103335919 heartbeat IPC: 0.386 cumulative IPC: 0.3846 (Simulation time: 00 hr 14 min 00 sec)
Heartbeat CPU 0 instructions: 85000487 cycles: 106094917 heartbeat IPC: 0.1812 cumulative IPC: 0.3785 (Simulation time: 00 hr 14 min 17 sec)
Heartbeat CPU 0 instructions: 85500489 cycles: 107258800 heartbeat IPC: 0.4296 cumulative IPC: 0.3792 (Simulation time: 00 hr 14 min 26 sec)
Heartbeat CPU 0 instructions: 86000491 cycles: 108139200 heartbeat IPC: 0.5679 cumulative IPC: 0.3809 (Simulation time: 00 hr 14 min 32 sec)
Heartbeat CPU 0 instructions: 86500492 cycles: 108635787 heartbeat IPC: 1.007 cumulative IPC: 0.3842 (Simulation time: 00 hr 14 min 36 sec)
Heartbeat CPU 0 instructions: 87000493 cycles: 109303157 heartbeat IPC: 0.7492 cumulative IPC: 0.3868 (Simulation time: 00 hr 14 min 41 sec)
Heartbeat CPU 0 instructions: 87500498 cycles: 110226147 heartbeat IPC: 0.5417 cumulative IPC: 0.3882 (Simulation time: 00 hr 14 min 47 sec)
Heartbeat CPU 0 instructions: 88000505 cycles: 112328346 heartbeat IPC: 0.2378 cumulative IPC: 0.385 (Simulation time: 00 hr 15 min 00 sec)
Heartbeat CPU 0 instructions: 88500510 cycles: 113524987 heartbeat IPC: 0.4178 cumulative IPC: 0.3854 (Simulation time: 00 hr 15 min 08 sec)
Heartbeat CPU 0 instructions: 89000512 cycles: 115960336 heartbeat IPC: 0.2053 cumulative IPC: 0.3811 (Simulation time: 00 hr 15 min 23 sec)
Heartbeat CPU 0 instructions: 89500513 cycles: 117186113 heartbeat IPC: 0.4079 cumulative IPC: 0.3815 (Simulation time: 00 hr 15 min 31 sec)
Heartbeat CPU 0 instructions: 90000513 cycles: 118926444 heartbeat IPC: 0.2873 cumulative IPC: 0.3799 (Simulation time: 00 hr 15 min 42 sec)
Heartbeat CPU 0 instructions: 90500516 cycles: 121185575 heartbeat IPC: 0.2213 cumulative IPC: 0.3766 (Simulation time: 00 hr 15 min 56 sec)
Heartbeat CPU 0 instructions: 91000517 cycles: 122505690 heartbeat IPC: 0.3788 cumulative IPC: 0.3766 (Simulation time: 00 hr 16 min 04 sec)
Heartbeat CPU 0 instructions: 91500517 cycles: 124331097 heartbeat IPC: 0.2739 cumulative IPC: 0.3749 (Simulation time: 00 hr 16 min 16 sec)
Heartbeat CPU 0 instructions: 92000520 cycles: 126329338 heartbeat IPC: 0.2502 cumulative IPC: 0.3727 (Simulation time: 00 hr 16 min 28 sec)
Heartbeat CPU 0 instructions: 92500523 cycles: 128063240 heartbeat IPC: 0.2884 cumulative IPC: 0.3714 (Simulation time: 00 hr 16 min 40 sec)
Heartbeat CPU 0 instructions: 93000525 cycles: 129263050 heartbeat IPC: 0.4167 cumulative IPC: 0.3719 (Simulation time: 00 hr 16 min 48 sec)
Heartbeat CPU 0 instructions: 93500529 cycles: 130222251 heartbeat IPC: 0.5213 cumulative IPC: 0.3731 (Simulation time: 00 hr 16 min 54 sec)
Heartbeat CPU 0 instructions: 94000531 cycles: 131339073 heartbeat IPC: 0.4477 cumulative IPC: 0.3738 (Simulation time: 00 hr 17 min 02 sec)
Heartbeat CPU 0 instructions: 94500531 cycles: 132718848 heartbeat IPC: 0.3624 cumulative IPC: 0.3737 (Simulation time: 00 hr 17 min 11 sec)
Heartbeat CPU 0 instructions: 95000533 cycles: 133909753 heartbeat IPC: 0.4199 cumulative IPC: 0.3741 (Simulation time: 00 hr 17 min 19 sec)
Heartbeat CPU 0 instructions: 95500533 cycles: 135124499 heartbeat IPC: 0.4116 cumulative IPC: 0.3745 (Simulation time: 00 hr 17 min 27 sec)
Heartbeat CPU 0 instructions: 96000535 cycles: 137584257 heartbeat IPC: 0.2033 cumulative IPC: 0.3711 (Simulation time: 00 hr 17 min 42 sec)
Heartbeat CPU 0 instructions: 96500535 cycles: 138926165 heartbeat IPC: 0.3726 cumulative IPC: 0.3711 (Simulation time: 00 hr 17 min 51 sec)
Heartbeat CPU 0 instructions: 97000535 cycles: 139775738 heartbeat IPC: 0.5885 cumulative IPC: 0.3726 (Simulation time: 00 hr 17 min 57 sec)
Heartbeat CPU 0 instructions: 97500542 cycles: 141079119 heartbeat IPC: 0.3836 cumulative IPC: 0.3727 (Simulation time: 00 hr 18 min 05 sec)
Heartbeat CPU 0 instructions: 98000547 cycles: 144412024 heartbeat IPC: 0.15 cumulative IPC: 0.367 (Simulation time: 00 hr 18 min 25 sec)
Heartbeat CPU 0 instructions: 98500549 cycles: 146526332 heartbeat IPC: 0.2365 cumulative IPC: 0.365 (Simulation time: 00 hr 18 min 38 sec)
Heartbeat CPU 0 instructions: 99000549 cycles: 147655209 heartbeat IPC: 0.4429 cumulative IPC: 0.3656 (Simulation time: 00 hr 18 min 46 sec)
Heartbeat CPU 0 instructions: 99500552 cycles: 149049700 heartbeat IPC: 0.3586 cumulative IPC: 0.3655 (Simulation time: 00 hr 18 min 56 sec)
Heartbeat CPU 0 instructions: 100000552 cycles: 150873382 heartbeat IPC: 0.2742 cumulative IPC: 0.3643 (Simulation time: 00 hr 19 min 07 sec)
Heartbeat CPU 0 instructions: 100500555 cycles: 151925209 heartbeat IPC: 0.4754 cumulative IPC: 0.3652 (Simulation time: 00 hr 19 min 15 sec)
Heartbeat CPU 0 instructions: 101000555 cycles: 153075023 heartbeat IPC: 0.4349 cumulative IPC: 0.3657 (Simulation time: 00 hr 19 min 23 sec)
Heartbeat CPU 0 instructions: 101500557 cycles: 153679639 heartbeat IPC: 0.827 cumulative IPC: 0.3677 (Simulation time: 00 hr 19 min 27 sec)
Heartbeat CPU 0 instructions: 102000558 cycles: 154088975 heartbeat IPC: 1.221 cumulative IPC: 0.3702 (Simulation time: 00 hr 19 min 31 sec)
Heartbeat CPU 0 instructions: 102500559 cycles: 154655112 heartbeat IPC: 0.8832 cumulative IPC: 0.3723 (Simulation time: 00 hr 19 min 36 sec)
Heartbeat CPU 0 instructions: 103000562 cycles: 155254945 heartbeat IPC: 0.8336 cumulative IPC: 0.3742 (Simulation time: 00 hr 19 min 40 sec)
Heartbeat CPU 0 instructions: 103500564 cycles: 155588501 heartbeat IPC: 1.499 cumulative IPC: 0.3769 (Simulation time: 00 hr 19 min 43 sec)
Heartbeat CPU 0 instructions: 104000564 cycles: 156363009 heartbeat IPC: 0.6456 cumulative IPC: 0.3783 (Simulation time: 00 hr 19 min 48 sec)
Heartbeat CPU 0 instructions: 104500568 cycles: 158383393 heartbeat IPC: 0.2475 cumulative IPC: 0.3765 (Simulation time: 00 hr 20 min 02 sec)
Heartbeat CPU 0 instructions: 105000568 cycles: 159599633 heartbeat IPC: 0.4111 cumulative IPC: 0.3768 (Simulation time: 00 hr 20 min 10 sec)
Heartbeat CPU 0 instructions: 105500568 cycles: 160521567 heartbeat IPC: 0.5423 cumulative IPC: 0.3778 (Simulation time: 00 hr 20 min 17 sec)
Heartbeat CPU 0 instructions: 106000570 cycles: 161440504 heartbeat IPC: 0.5441 cumulative IPC: 0.3789 (Simulation time: 00 hr 20 min 23 sec)
Heartbeat CPU 0 instructions: 106500572 cycles: 162435696 heartbeat IPC: 0.5024 cumulative IPC: 0.3797 (Simulation time: 00 hr 20 min 30 sec)
Heartbeat CPU 0 instructions: 107000578 cycles: 165007076 heartbeat IPC: 0.1945 cumulative IPC: 0.3766 (Simulation time: 00 hr 20 min 45 sec)
Heartbeat CPU 0 instructions: 107500581 cycles: 166488382 heartbeat IPC: 0.3375 cumulative IPC: 0.3762 (Simulation time: 00 hr 20 min 55 sec)
Heartbeat CPU 0 instructions: 108000586 cycles: 169295140 heartbeat IPC: 0.1781 cumulative IPC: 0.3726 (Simulation time: 00 hr 21 min 12 sec)
Heartbeat CPU 0 instructions: 108500587 cycles: 170523226 heartbeat IPC: 0.4071 cumulative IPC: 0.3729 (Simulation time: 00 hr 21 min 20 sec)
Heartbeat CPU 0 instructions: 109000593 cycles: 171201270 heartbeat IPC: 0.7374 cumulative IPC: 0.3744 (Simulation time: 00 hr 21 min 26 sec)
Heartbeat CPU 0 instructions: 109500598 cycles: 172650849 heartbeat IPC: 0.3449 cumulative IPC: 0.3742 (Simulation time: 00 hr 21 min 35 sec)
Heartbeat CPU 0 instructions: 110000601 cycles: 175110222 heartbeat IPC: 0.2033 cumulative IPC: 0.3716 (Simulation time: 00 hr 21 min 49 sec)
Heartbeat CPU 0 instructions: 110500604 cycles: 177775812 heartbeat IPC: 0.1876 cumulative IPC: 0.3686 (Simulation time: 00 hr 22 min 05 sec)
Heartbeat CPU 0 instructions: 111000609 cycles: 179445078 heartbeat IPC: 0.2995 cumulative IPC: 0.3679 (Simulation time: 00 hr 22 min 16 sec)
Heartbeat CPU 0 instructions: 111500610 cycles: 180964687 heartbeat IPC: 0.329 cumulative IPC: 0.3675 (Simulation time: 00 hr 22 min 26 sec)
Heartbeat CPU 0 instructions: 112000611 cycles: 182416031 heartbeat IPC: 0.3445 cumulative IPC: 0.3673 (Simulation time: 00 hr 22 min 36 sec)
Heartbeat CPU 0 instructions: 112500611 cycles: 184007598 heartbeat IPC: 0.3142 cumulative IPC: 0.3668 (Simulation time: 00 hr 22 min 45 sec)
Heartbeat CPU 0 instructions: 113000614 cycles: 186980549 heartbeat IPC: 0.1682 cumulative IPC: 0.3634 (Simulation time: 00 hr 23 min 03 sec)
Heartbeat CPU 0 instructions: 113500621 cycles: 188070158 heartbeat IPC: 0.4589 cumulative IPC: 0.364 (Simulation time: 00 hr 23 min 10 sec)
Heartbeat CPU 0 instructions: 114000621 cycles: 188595104 heartbeat IPC: 0.9525 cumulative IPC: 0.3658 (Simulation time: 00 hr 23 min 14 sec)
Heartbeat CPU 0 instructions: 114500624 cycles: 189126227 heartbeat IPC: 0.9414 cumulative IPC: 0.3675 (Simulation time: 00 hr 23 min 18 sec)
Heartbeat CPU 0 instructions: 115000625 cycles: 190038664 heartbeat IPC: 0.548 cumulative IPC: 0.3685 (Simulation time: 00 hr 23 min 24 sec)
Heartbeat CPU 0 instructions: 115500627 cycles: 190471354 heartbeat IPC: 1.156 cumulative IPC: 0.3704 (Simulation time: 00 hr 23 min 28 sec)
Heartbeat CPU 0 instructions: 116000629 cycles: 190867485 heartbeat IPC: 1.262 cumulative IPC: 0.3724 (Simulation time: 00 hr 23 min 31 sec)
Heartbeat CPU 0 instructions: 116500631 cycles: 191177584 heartbeat IPC: 1.612 cumulative IPC: 0.3746 (Simulation time: 00 hr 23 min 34 sec)
Heartbeat CPU 0 instructions: 117000635 cycles: 191475858 heartbeat IPC: 1.676 cumulative IPC: 0.3767 (Simulation time: 00 hr 23 min 37 sec)
Heartbeat CPU 0 instructions: 117500641 cycles: 192182115 heartbeat IPC: 0.708 cumulative IPC: 0.3781 (Simulation time: 00 hr 23 min 42 sec)
Heartbeat CPU 0 instructions: 118000643 cycles: 194214889 heartbeat IPC: 0.246 cumulative IPC: 0.3766 (Simulation time: 00 hr 23 min 54 sec)
Heartbeat CPU 0 instructions: 118500648 cycles: 195562707 heartbeat IPC: 0.371 cumulative IPC: 0.3765 (Simulation time: 00 hr 24 min 03 sec)
Heartbeat CPU 0 instructions: 119000655 cycles: 197114150 heartbeat IPC: 0.3223 cumulative IPC: 0.3761 (Simulation time: 00 hr 24 min 12 sec)
Heartbeat CPU 0 instructions: 119500657 cycles: 199156802 heartbeat IPC: 0.2448 cumulative IPC: 0.3746 (Simulation time: 00 hr 24 min 25 sec)
Heartbeat CPU 0 instructions: 120000659 cycles: 200575399 heartbeat IPC: 0.3525 cumulative IPC: 0.3745 (Simulation time: 00 hr 24 min 34 sec)
Heartbeat CPU 0 instructions: 120500666 cycles: 201782422 heartbeat IPC: 0.4142 cumulative IPC: 0.3747 (Simulation time: 00 hr 24 min 42 sec)
Heartbeat CPU 0 instructions: 121000666 cycles: 202650052 heartbeat IPC: 0.5763 cumulative IPC: 0.3756 (Simulation time: 00 hr 24 min 48 sec)
Heartbeat CPU 0 instructions: 121500666 cycles: 203860769 heartbeat IPC: 0.413 cumulative IPC: 0.3759 (Simulation time: 00 hr 24 min 56 sec)
Heartbeat CPU 0 instructions: 122000669 cycles: 206148029 heartbeat IPC: 0.2186 cumulative IPC: 0.374 (Simulation time: 00 hr 25 min 10 sec)
Heartbeat CPU 0 instructions: 122500674 cycles: 207272554 heartbeat IPC: 0.4446 cumulative IPC: 0.3744 (Simulation time: 00 hr 25 min 17 sec)
Heartbeat CPU 0 instructions: 123000674 cycles: 208007480 heartbeat IPC: 0.6803 cumulative IPC: 0.3756 (Simulation time: 00 hr 25 min 23 sec)
Heartbeat CPU 0 instructions: 123500678 cycles: 208697226 heartbeat IPC: 0.7249 cumulative IPC: 0.3768 (Simulation time: 00 hr 25 min 28 sec)
Heartbeat CPU 0 instructions: 124000678 cycles: 210154750 heartbeat IPC: 0.343 cumulative IPC: 0.3766 (Simulation time: 00 hr 25 min 37 sec)
Heartbeat CPU 0 instructions: 124500678 cycles: 212441328 heartbeat IPC: 0.2187 cumulative IPC: 0.3747 (Simulation time: 00 hr 25 min 51 sec)
Heartbeat CPU 0 instructions: 125000678 cycles: 213341226 heartbeat IPC: 0.5556 cumulative IPC: 0.3756 (Simulation time: 00 hr 25 min 57 sec)
Heartbeat CPU 0 instructions: 125500679 cycles: 214068793 heartbeat IPC: 0.6872 cumulative IPC: 0.3767 (Simulation time: 00 hr 26 min 02 sec)
Heartbeat CPU 0 instructions: 126000679 cycles: 215059971 heartbeat IPC: 0.5045 cumulative IPC: 0.3773 (Simulation time: 00 hr 26 min 09 sec)
Heartbeat CPU 0 instructions: 126500681 cycles: 217408706 heartbeat IPC: 0.2129 cumulative IPC: 0.3754 (Simulation time: 00 hr 26 min 23 sec)
Heartbeat CPU 0 instructions: 127000681 cycles: 218871404 heartbeat IPC: 0.3418 cumulative IPC: 0.3752 (Simulation time: 00 hr 26 min 32 sec)
Heartbeat CPU 0 instructions: 127500682 cycles: 219852170 heartbeat IPC: 0.5098 cumulative IPC: 0.3758 (Simulation time: 00 hr 26 min 39 sec)
Heartbeat CPU 0 instructions: 128000682 cycles: 220692188 heartbeat IPC: 0.5952 cumulative IPC: 0.3767 (Simulation time: 00 hr 26 min 45 sec)
Heartbeat CPU 0 instructions: 128500683 cycles: 223265902 heartbeat IPC: 0.1943 cumulative IPC: 0.3745 (Simulation time: 00 hr 27 min 00 sec)
Heartbeat CPU 0 instructions: 129000686 cycles: 225170026 heartbeat IPC: 0.2626 cumulative IPC: 0.3735 (Simulation time: 00 hr 27 min 12 sec)
Heartbeat CPU 0 instructions: 129500687 cycles: 227031647 heartbeat IPC: 0.2686 cumulative IPC: 0.3725 (Simulation time: 00 hr 27 min 23 sec)
Heartbeat CPU 0 instructions: 130000687 cycles: 228648378 heartbeat IPC: 0.3093 cumulative IPC: 0.3721 (Simulation time: 00 hr 27 min 33 sec)
Heartbeat CPU 0 instructions: 130500690 cycles: 229474012 heartbeat IPC: 0.6056 cumulative IPC: 0.373 (Simulation time: 00 hr 27 min 39 sec)
Heartbeat CPU 0 instructions: 131000693 cycles: 230589421 heartbeat IPC: 0.4483 cumulative IPC: 0.3734 (Simulation time: 00 hr 27 min 47 sec)
Heartbeat CPU 0 instructions: 131500696 cycles: 231151562 heartbeat IPC: 0.8895 cumulative IPC: 0.3747 (Simulation time: 00 hr 27 min 51 sec)
Heartbeat CPU 0 instructions: 132000698 cycles: 231531435 heartbeat IPC: 1.316 cumulative IPC: 0.3763 (Simulation time: 00 hr 27 min 55 sec)
Heartbeat CPU 0 instructions: 132500705 cycles: 232386524 heartbeat IPC: 0.5847 cumulative IPC: 0.3771 (Simulation time: 00 hr 28 min 00 sec)
Heartbeat CPU 0 instructions: 133000706 cycles: 232792262 heartbeat IPC: 1.232 cumulative IPC: 0.3787 (Simulation time: 00 hr 28 min 03 sec)
Heartbeat CPU 0 instructions: 133500709 cycles: 233086018 heartbeat IPC: 1.702 cumulative IPC: 0.3805 (Simulation time: 00 hr 28 min 06 sec)
Heartbeat CPU 0 instructions: 134000714 cycles: 233294183 heartbeat IPC: 2.402 cumulative IPC: 0.3824 (Simulation time: 00 hr 28 min 08 sec)
Heartbeat CPU 0 instructions: 134500715 cycles: 233632697 heartbeat IPC: 1.477 cumulative IPC: 0.3841 (Simulation time: 00 hr 28 min 11 sec)
Heartbeat CPU 0 instructions: 135000719 cycles: 234817234 heartbeat IPC: 0.4221 cumulative IPC: 0.3843 (Simulation time: 00 hr 28 min 19 sec)
Heartbeat CPU 0 instructions: 135500724 cycles: 236244216 heartbeat IPC: 0.3504 cumulative IPC: 0.3841 (Simulation time: 00 hr 28 min 29 sec)
Heartbeat CPU 0 instructions: 136000725 cycles: 237260977 heartbeat IPC: 0.4918 cumulative IPC: 0.3846 (Simulation time: 00 hr 28 min 35 sec)
Heartbeat CPU 0 instructions: 136500727 cycles: 237899223 heartbeat IPC: 0.7834 cumulative IPC: 0.3857 (Simulation time: 00 hr 28 min 40 sec)
Heartbeat CPU 0 instructions: 137000727 cycles: 238212138 heartbeat IPC: 1.598 cumulative IPC: 0.3874 (Simulation time: 00 hr 28 min 43 sec)
Heartbeat CPU 0 instructions: 137500733 cycles: 238420040 heartbeat IPC: 2.405 cumulative IPC: 0.3893 (Simulation time: 00 hr 28 min 46 sec)
Heartbeat CPU 0 instructions: 138000733 cycles: 239035185 heartbeat IPC: 0.8128 cumulative IPC: 0.3904 (Simulation time: 00 hr 28 min 50 sec)
Heartbeat CPU 0 instructions: 138500733 cycles: 240358975 heartbeat IPC: 0.3777 cumulative IPC: 0.3903 (Simulation time: 00 hr 28 min 59 sec)
Heartbeat CPU 0 instructions: 139000737 cycles: 243244794 heartbeat IPC: 0.1733 cumulative IPC: 0.3876 (Simulation time: 00 hr 29 min 15 sec)
Heartbeat CPU 0 instructions: 139500739 cycles: 243881458 heartbeat IPC: 0.7853 cumulative IPC: 0.3887 (Simulation time: 00 hr 29 min 21 sec)
Heartbeat CPU 0 instructions: 140000740 cycles: 244556079 heartbeat IPC: 0.7412 cumulative IPC: 0.3897 (Simulation time: 00 hr 29 min 26 sec)
Heartbeat CPU 0 instructions: 140500742 cycles: 245103222 heartbeat IPC: 0.9138 cumulative IPC: 0.391 (Simulation time: 00 hr 29 min 31 sec)
Heartbeat CPU 0 instructions: 141000747 cycles: 248422009 heartbeat IPC: 0.1507 cumulative IPC: 0.3876 (Simulation time: 00 hr 29 min 50 sec)
Heartbeat CPU 0 instructions: 141500749 cycles: 249869217 heartbeat IPC: 0.3455 cumulative IPC: 0.3873 (Simulation time: 00 hr 29 min 59 sec)
Heartbeat CPU 0 instructions: 142000749 cycles: 251010945 heartbeat IPC: 0.4379 cumulative IPC: 0.3876 (Simulation time: 00 hr 30 min 06 sec)
Heartbeat CPU 0 instructions: 142500749 cycles: 252748926 heartbeat IPC: 0.2877 cumulative IPC: 0.3868 (Simulation time: 00 hr 30 min 17 sec)
Heartbeat CPU 0 instructions: 143000749 cycles: 254275822 heartbeat IPC: 0.3275 cumulative IPC: 0.3865 (Simulation time: 00 hr 30 min 26 sec)
Heartbeat CPU 0 instructions: 143500749 cycles: 255144197 heartbeat IPC: 0.5758 cumulative IPC: 0.3871 (Simulation time: 00 hr 30 min 32 sec)
Heartbeat CPU 0 instructions: 144000751 cycles: 255534218 heartbeat IPC: 1.282 cumulative IPC: 0.3886 (Simulation time: 00 hr 30 min 34 sec)
Heartbeat CPU 0 instructions: 144500753 cycles: 255911496 heartbeat IPC: 1.325 cumulative IPC: 0.3901 (Simulation time: 00 hr 30 min 37 sec)
Heartbeat CPU 0 instructions: 145000760 cycles: 256355569 heartbeat IPC: 1.126 cumulative IPC: 0.3914 (Simulation time: 00 hr 30 min 41 sec)
Heartbeat CPU 0 instructions: 145500762 cycles: 256710213 heartbeat IPC: 1.41 cumulative IPC: 0.3929 (Simulation time: 00 hr 30 min 44 sec)
Heartbeat CPU 0 instructions: 146000762 cycles: 257283599 heartbeat IPC: 0.872 cumulative IPC: 0.394 (Simulation time: 00 hr 30 min 48 sec)
Heartbeat CPU 0 instructions: 146500764 cycles: 257515102 heartbeat IPC: 2.16 cumulative IPC: 0.3957 (Simulation time: 00 hr 30 min 51 sec)
Heartbeat CPU 0 instructions: 147000764 cycles: 258087973 heartbeat IPC: 0.8728 cumulative IPC: 0.3968 (Simulation time: 00 hr 30 min 55 sec)
Heartbeat CPU 0 instructions: 147500765 cycles: 259987374 heartbeat IPC: 0.2632 cumulative IPC: 0.3958 (Simulation time: 00 hr 31 min 06 sec)
Heartbeat CPU 0 instructions: 148000772 cycles: 263269496 heartbeat IPC: 0.1523 cumulative IPC: 0.3926 (Simulation time: 00 hr 31 min 24 sec)
Heartbeat CPU 0 instructions: 148500775 cycles: 265448964 heartbeat IPC: 0.2294 cumulative IPC: 0.3912 (Simulation time: 00 hr 31 min 38 sec)
Heartbeat CPU 0 instructions: 149000782 cycles: 267458210 heartbeat IPC: 0.2489 cumulative IPC: 0.39 (Simulation time: 00 hr 31 min 51 sec)
Heartbeat CPU 0 instructions: 149500785 cycles: 269596540 heartbeat IPC: 0.2338 cumulative IPC: 0.3887 (Simulation time: 00 hr 32 min 03 sec)
Heartbeat CPU 0 instructions: 150000788 cycles: 270982833 heartbeat IPC: 0.3607 cumulative IPC: 0.3886 (Simulation time: 00 hr 32 min 12 sec)
Heartbeat CPU 0 instructions: 150500793 cycles: 272049322 heartbeat IPC: 0.4688 cumulative IPC: 0.3889 (Simulation time: 00 hr 32 min 19 sec)
Heartbeat CPU 0 instructions: 151000798 cycles: 272961624 heartbeat IPC: 0.5481 cumulative IPC: 0.3895 (Simulation time: 00 hr 32 min 25 sec)
Heartbeat CPU 0 instructions: 151500800 cycles: 274241341 heartbeat IPC: 0.3907 cumulative IPC: 0.3895 (Simulation time: 00 hr 32 min 33 sec)
Heartbeat CPU 0 instructions: 152000800 cycles: 276316975 heartbeat IPC: 0.2409 cumulative IPC: 0.3883 (Simulation time: 00 hr 32 min 45 sec)
Heartbeat CPU 0 instructions: 152500801 cycles: 277696644 heartbeat IPC: 0.3624 cumulative IPC: 0.3882 (Simulation time: 00 hr 32 min 53 sec)
Heartbeat CPU 0 instructions: 153000805 cycles: 279437978 heartbeat IPC: 0.2871 cumulative IPC: 0.3875 (Simulation time: 00 hr 33 min 03 sec)
Heartbeat CPU 0 instructions: 153500807 cycles: 280579887 heartbeat IPC: 0.4379 cumulative IPC: 0.3877 (Simulation time: 00 hr 33 min 10 sec)
Heartbeat CPU 0 instructions: 154000810 cycles: 282075173 heartbeat IPC: 0.3344 cumulative IPC: 0.3874 (Simulation time: 00 hr 33 min 19 sec)
Heartbeat CPU 0 instructions: 154500811 cycles: 283665652 heartbeat IPC: 0.3144 cumulative IPC: 0.387 (Simulation time: 00 hr 33 min 29 sec)
Heartbeat CPU 0 instructions: 155000811 cycles: 284641864 heartbeat IPC: 0.5122 cumulative IPC: 0.3874 (Simulation time: 00 hr 33 min 35 sec)
Heartbeat CPU 0 instructions: 155500818 cycles: 285736034 heartbeat IPC: 0.457 cumulative IPC: 0.3877 (Simulation time: 00 hr 33 min 42 sec)
Heartbeat CPU 0 instructions: 156000818 cycles: 286408912 heartbeat IPC: 0.7431 cumulative IPC: 0.3886 (Simulation time: 00 hr 33 min 47 sec)
Heartbeat CPU 0 instructions: 156500820 cycles: 288495647 heartbeat IPC: 0.2396 cumulative IPC: 0.3875 (Simulation time: 00 hr 33 min 58 sec)
Heartbeat CPU 0 instructions: 157000820 cycles: 289726262 heartbeat IPC: 0.4063 cumulative IPC: 0.3876 (Simulation time: 00 hr 34 min 07 sec)
Heartbeat CPU 0 instructions: 157500822 cycles: 290621555 heartbeat IPC: 0.5585 cumulative IPC: 0.3881 (Simulation time: 00 hr 34 min 12 sec)
Heartbeat CPU 0 instructions: 158000823 cycles: 291813391 heartbeat IPC: 0.4195 cumulative IPC: 0.3882 (Simulation time: 00 hr 34 min 20 sec)
Heartbeat CPU 0 instructions: 158500825 cycles: 293985118 heartbeat IPC: 0.2302 cumulative IPC: 0.387 (Simulation time: 00 hr 34 min 32 sec)
Heartbeat CPU 0 instructions: 159000830 cycles: 295033725 heartbeat IPC: 0.4768 cumulative IPC: 0.3874 (Simulation time: 00 hr 34 min 39 sec)
Heartbeat CPU 0 instructions: 159500830 cycles: 295862535 heartbeat IPC: 0.6033 cumulative IPC: 0.388 (Simulation time: 00 hr 34 min 44 sec)
Heartbeat CPU 0 instructions: 160000835 cycles: 297441160 heartbeat IPC: 0.3167 cumulative IPC: 0.3876 (Simulation time: 00 hr 34 min 54 sec)
Heartbeat CPU 0 instructions: 160500835 cycles: 298999778 heartbeat IPC: 0.3208 cumulative IPC: 0.3872 (Simulation time: 00 hr 35 min 03 sec)
Heartbeat CPU 0 instructions: 161000835 cycles: 299768869 heartbeat IPC: 0.6501 cumulative IPC: 0.3879 (Simulation time: 00 hr 35 min 08 sec)
Heartbeat CPU 0 instructions: 161500836 cycles: 302373492 heartbeat IPC: 0.192 cumulative IPC: 0.3862 (Simulation time: 00 hr 35 min 22 sec)
Heartbeat CPU 0 instructions: 162000839 cycles: 303835573 heartbeat IPC: 0.342 cumulative IPC: 0.3859 (Simulation time: 00 hr 35 min 31 sec)
Heartbeat CPU 0 instructions: 162500839 cycles: 304847944 heartbeat IPC: 0.4939 cumulative IPC: 0.3863 (Simulation time: 00 hr 35 min 37 sec)
Heartbeat CPU 0 instructions: 163000839 cycles: 305842036 heartbeat IPC: 0.503 cumulative IPC: 0.3867 (Simulation time: 00 hr 35 min 44 sec)
Heartbeat CPU 0 instructions: 163500839 cycles: 308831551 heartbeat IPC: 0.1673 cumulative IPC: 0.3845 (Simulation time: 00 hr 36 min 00 sec)
Heartbeat CPU 0 instructions: 164000842 cycles: 310382337 heartbeat IPC: 0.3224 cumulative IPC: 0.3842 (Simulation time: 00 hr 36 min 10 sec)
Heartbeat CPU 0 instructions: 164500842 cycles: 311479931 heartbeat IPC: 0.4555 cumulative IPC: 0.3844 (Simulation time: 00 hr 36 min 16 sec)
Heartbeat CPU 0 instructions: 165000843 cycles: 312443962 heartbeat IPC: 0.5187 cumulative IPC: 0.3849 (Simulation time: 00 hr 36 min 23 sec)
Heartbeat CPU 0 instructions: 165500843 cycles: 314920624 heartbeat IPC: 0.2019 cumulative IPC: 0.3834 (Simulation time: 00 hr 36 min 36 sec)
Heartbeat CPU 0 instructions: 166000844 cycles: 316220997 heartbeat IPC: 0.3845 cumulative IPC: 0.3834 (Simulation time: 00 hr 36 min 44 sec)
Heartbeat CPU 0 instructions: 166500844 cycles: 317091852 heartbeat IPC: 0.5741 cumulative IPC: 0.3839 (Simulation time: 00 hr 36 min 50 sec)
Heartbeat CPU 0 instructions: 167000847 cycles: 319614397 heartbeat IPC: 0.1982 cumulative IPC: 0.3824 (Simulation time: 00 hr 37 min 04 sec)
Heartbeat CPU 0 instructions: 167500847 cycles: 321264253 heartbeat IPC: 0.3031 cumulative IPC: 0.382 (Simulation time: 00 hr 37 min 13 sec)
Heartbeat CPU 0 instructions: 168000847 cycles: 323466542 heartbeat IPC: 0.227 cumulative IPC: 0.3809 (Simulation time: 00 hr 37 min 26 sec)
Heartbeat CPU 0 instructions: 168500850 cycles: 324889868 heartbeat IPC: 0.3513 cumulative IPC: 0.3807 (Simulation time: 00 hr 37 min 34 sec)
Heartbeat CPU 0 instructions: 169000851 cycles: 325370077 heartbeat IPC: 1.041 cumulative IPC: 0.3817 (Simulation time: 00 hr 37 min 38 sec)
Heartbeat CPU 0 instructions: 169500856 cycles: 326310801 heartbeat IPC: 0.5315 cumulative IPC: 0.3822 (Simulation time: 00 hr 37 min 43 sec)
Heartbeat CPU 0 instructions: 170000859 cycles: 328433488 heartbeat IPC: 0.2356 cumulative IPC: 0.3812 (Simulation time: 00 hr 37 min 56 sec)
Heartbeat CPU 0 instructions: 170500859 cycles: 329775311 heartbeat IPC: 0.3726 cumulative IPC: 0.3812 (Simulation time: 00 hr 38 min 04 sec)
Heartbeat CPU 0 instructions: 171000860 cycles: 331316565 heartbeat IPC: 0.3244 cumulative IPC: 0.3809 (Simulation time: 00 hr 38 min 13 sec)
Heartbeat CPU 0 instructions: 171500866 cycles: 332431999 heartbeat IPC: 0.4483 cumulative IPC: 0.3811 (Simulation time: 00 hr 38 min 20 sec)
Heartbeat CPU 0 instructions: 172000871 cycles: 333811650 heartbeat IPC: 0.3624 cumulative IPC: 0.381 (Simulation time: 00 hr 38 min 29 sec)
Heartbeat CPU 0 instructions: 172500878 cycles: 335171301 heartbeat IPC: 0.3677 cumulative IPC: 0.381 (Simulation time: 00 hr 38 min 37 sec)
Heartbeat CPU 0 instructions: 173000878 cycles: 335769107 heartbeat IPC: 0.8364 cumulative IPC: 0.3818 (Simulation time: 00 hr 38 min 41 sec)
Heartbeat CPU 0 instructions: 173500882 cycles: 337613813 heartbeat IPC: 0.271 cumulative IPC: 0.3812 (Simulation time: 00 hr 38 min 52 sec)
Heartbeat CPU 0 instructions: 174000882 cycles: 339909131 heartbeat IPC: 0.2178 cumulative IPC: 0.38 (Simulation time: 00 hr 39 min 05 sec)
Heartbeat CPU 0 instructions: 174500884 cycles: 341087522 heartbeat IPC: 0.4243 cumulative IPC: 0.3802 (Simulation time: 00 hr 39 min 12 sec)
Heartbeat CPU 0 instructions: 175000888 cycles: 342348611 heartbeat IPC: 0.3965 cumulative IPC: 0.3803 (Simulation time: 00 hr 39 min 19 sec)
Heartbeat CPU 0 instructions: 175500888 cycles: 344693665 heartbeat IPC: 0.2132 cumulative IPC: 0.3791 (Simulation time: 00 hr 39 min 32 sec)
Heartbeat CPU 0 instructions: 176000891 cycles: 345323198 heartbeat IPC: 0.7942 cumulative IPC: 0.3799 (Simulation time: 00 hr 39 min 37 sec)
Heartbeat CPU 0 instructions: 176500891 cycles: 346359308 heartbeat IPC: 0.4826 cumulative IPC: 0.3802 (Simulation time: 00 hr 39 min 43 sec)
Heartbeat CPU 0 instructions: 177000891 cycles: 348663102 heartbeat IPC: 0.217 cumulative IPC: 0.3791 (Simulation time: 00 hr 39 min 56 sec)
Heartbeat CPU 0 instructions: 177500891 cycles: 349385605 heartbeat IPC: 0.692 cumulative IPC: 0.3797 (Simulation time: 00 hr 40 min 01 sec)
Heartbeat CPU 0 instructions: 178000893 cycles: 351725162 heartbeat IPC: 0.2137 cumulative IPC: 0.3786 (Simulation time: 00 hr 40 min 14 sec)
Heartbeat CPU 0 instructions: 178500895 cycles: 353176500 heartbeat IPC: 0.3445 cumulative IPC: 0.3785 (Simulation time: 00 hr 40 min 23 sec)
Heartbeat CPU 0 instructions: 179000895 cycles: 353858405 heartbeat IPC: 0.7332 cumulative IPC: 0.3792 (Simulation time: 00 hr 40 min 27 sec)
Heartbeat CPU 0 instructions: 179500897 cycles: 354610449 heartbeat IPC: 0.6649 cumulative IPC: 0.3798 (Simulation time: 00 hr 40 min 32 sec)
Heartbeat CPU 0 instructions: 180000898 cycles: 356588001 heartbeat IPC: 0.2528 cumulative IPC: 0.3791 (Simulation time: 00 hr 40 min 43 sec)
Heartbeat CPU 0 instructions: 180500901 cycles: 358072062 heartbeat IPC: 0.3369 cumulative IPC: 0.3789 (Simulation time: 00 hr 40 min 52 sec)
Heartbeat CPU 0 instructions: 181000901 cycles: 359193565 heartbeat IPC: 0.4458 cumulative IPC: 0.3791 (Simulation time: 00 hr 40 min 59 sec)
Heartbeat CPU 0 instructions: 181500903 cycles: 360271330 heartbeat IPC: 0.4639 cumulative IPC: 0.3794 (Simulation time: 00 hr 41 min 05 sec)
Heartbeat CPU 0 instructions: 182000903 cycles: 362099115 heartbeat IPC: 0.2736 cumulative IPC: 0.3788 (Simulation time: 00 hr 41 min 16 sec)
Heartbeat CPU 0 instructions: 182500905 cycles: 363042047 heartbeat IPC: 0.5303 cumulative IPC: 0.3792 (Simulation time: 00 hr 41 min 22 sec)
Heartbeat CPU 0 instructions: 183000905 cycles: 363514450 heartbeat IPC: 1.058 cumulative IPC: 0.3801 (Simulation time: 00 hr 41 min 25 sec)
Heartbeat CPU 0 instructions: 183500908 cycles: 364107447 heartbeat IPC: 0.8432 cumulative IPC: 0.3809 (Simulation time: 00 hr 41 min 29 sec)
Heartbeat CPU 0 instructions: 184000914 cycles: 365626930 heartbeat IPC: 0.3291 cumulative IPC: 0.3807 (Simulation time: 00 hr 41 min 38 sec)
Heartbeat CPU 0 instructions: 184500914 cycles: 367392190 heartbeat IPC: 0.2832 cumulative IPC: 0.3802 (Simulation time: 00 hr 41 min 48 sec)
Heartbeat CPU 0 instructions: 185000915 cycles: 368376626 heartbeat IPC: 0.5079 cumulative IPC: 0.3806 (Simulation time: 00 hr 41 min 54 sec)
Heartbeat CPU 0 instructions: 185500922 cycles: 368980940 heartbeat IPC: 0.8274 cumulative IPC: 0.3813 (Simulation time: 00 hr 41 min 59 sec)
Heartbeat CPU 0 instructions: 186000924 cycles: 371321605 heartbeat IPC: 0.2136 cumulative IPC: 0.3802 (Simulation time: 00 hr 42 min 12 sec)
Heartbeat CPU 0 instructions: 186500928 cycles: 372845316 heartbeat IPC: 0.3281 cumulative IPC: 0.38 (Simulation time: 00 hr 42 min 20 sec)
Heartbeat CPU 0 instructions: 187000928 cycles: 374410429 heartbeat IPC: 0.3195 cumulative IPC: 0.3797 (Simulation time: 00 hr 42 min 29 sec)
Heartbeat CPU 0 instructions: 187500929 cycles: 376629543 heartbeat IPC: 0.2253 cumulative IPC: 0.3788 (Simulation time: 00 hr 42 min 42 sec)
Heartbeat CPU 0 instructions: 188000936 cycles: 378322689 heartbeat IPC: 0.2953 cumulative IPC: 0.3784 (Simulation time: 00 hr 42 min 51 sec)
Heartbeat CPU 0 instructions: 188500942 cycles: 379229229 heartbeat IPC: 0.5516 cumulative IPC: 0.3788 (Simulation time: 00 hr 42 min 57 sec)
Heartbeat CPU 0 instructions: 189000942 cycles: 380000310 heartbeat IPC: 0.6484 cumulative IPC: 0.3794 (Simulation time: 00 hr 43 min 02 sec)
Heartbeat CPU 0 instructions: 189500944 cycles: 380832084 heartbeat IPC: 0.6011 cumulative IPC: 0.3799 (Simulation time: 00 hr 43 min 07 sec)
Heartbeat CPU 0 instructions: 190000946 cycles: 381287985 heartbeat IPC: 1.097 cumulative IPC: 0.3808 (Simulation time: 00 hr 43 min 11 sec)
Heartbeat CPU 0 instructions: 190500953 cycles: 381641007 heartbeat IPC: 1.416 cumulative IPC: 0.3818 (Simulation time: 00 hr 43 min 14 sec)
Heartbeat CPU 0 instructions: 191000957 cycles: 382368061 heartbeat IPC: 0.6877 cumulative IPC: 0.3824 (Simulation time: 00 hr 43 min 18 sec)
Heartbeat CPU 0 instructions: 191500960 cycles: 383814156 heartbeat IPC: 0.3458 cumulative IPC: 0.3822 (Simulation time: 00 hr 43 min 26 sec)
Heartbeat CPU 0 instructions: 192000963 cycles: 387436531 heartbeat IPC: 0.138 cumulative IPC: 0.3799 (Simulation time: 00 hr 43 min 45 sec)
Heartbeat CPU 0 instructions: 192500969 cycles: 389435515 heartbeat IPC: 0.2501 cumulative IPC: 0.3792 (Simulation time: 00 hr 43 min 56 sec)
Heartbeat CPU 0 instructions: 193000973 cycles: 390935202 heartbeat IPC: 0.3334 cumulative IPC: 0.379 (Simulation time: 00 hr 44 min 05 sec)
Heartbeat CPU 0 instructions: 193500976 cycles: 391768908 heartbeat IPC: 0.5997 cumulative IPC: 0.3795 (Simulation time: 00 hr 44 min 10 sec)
Heartbeat CPU 0 instructions: 194000979 cycles: 392223068 heartbeat IPC: 1.101 cumulative IPC: 0.3804 (Simulation time: 00 hr 44 min 14 sec)
Heartbeat CPU 0 instructions: 194500986 cycles: 393026294 heartbeat IPC: 0.6225 cumulative IPC: 0.3809 (Simulation time: 00 hr 44 min 19 sec)
Heartbeat CPU 0 instructions: 195000987 cycles: 394274435 heartbeat IPC: 0.4006 cumulative IPC: 0.3809 (Simulation time: 00 hr 44 min 26 sec)
Heartbeat CPU 0 instructions: 195500992 cycles: 396175129 heartbeat IPC: 0.2631 cumulative IPC: 0.3804 (Simulation time: 00 hr 44 min 36 sec)
Heartbeat CPU 0 instructions: 196000997 cycles: 397214135 heartbeat IPC: 0.4812 cumulative IPC: 0.3806 (Simulation time: 00 hr 44 min 43 sec)
Heartbeat CPU 0 instructions: 196501001 cycles: 399430676 heartbeat IPC: 0.2256 cumulative IPC: 0.3797 (Simulation time: 00 hr 44 min 54 sec)
Heartbeat CPU 0 instructions: 197001003 cycles: 400899617 heartbeat IPC: 0.3404 cumulative IPC: 0.3796 (Simulation time: 00 hr 45 min 03 sec)
Heartbeat CPU 0 instructions: 197501003 cycles: 401724557 heartbeat IPC: 0.6061 cumulative IPC: 0.3801 (Simulation time: 00 hr 45 min 08 sec)
Heartbeat CPU 0 instructions: 198001003 cycles: 402192244 heartbeat IPC: 1.069 cumulative IPC: 0.3809 (Simulation time: 00 hr 45 min 11 sec)
Heartbeat CPU 0 instructions: 198501003 cycles: 403262159 heartbeat IPC: 0.4673 cumulative IPC: 0.3811 (Simulation time: 00 hr 45 min 17 sec)
Heartbeat CPU 0 instructions: 199001003 cycles: 404848892 heartbeat IPC: 0.3151 cumulative IPC: 0.3809 (Simulation time: 00 hr 45 min 26 sec)
Heartbeat CPU 0 instructions: 199501009 cycles: 407462675 heartbeat IPC: 0.1913 cumulative IPC: 0.3796 (Simulation time: 00 hr 45 min 39 sec)
Heartbeat CPU 0 instructions: 200001011 cycles: 408938382 heartbeat IPC: 0.3388 cumulative IPC: 0.3795 (Simulation time: 00 hr 45 min 48 sec)
Heartbeat CPU 0 instructions: 200501011 cycles: 411169682 heartbeat IPC: 0.2241 cumulative IPC: 0.3786 (Simulation time: 00 hr 46 min 00 sec)
Heartbeat CPU 0 instructions: 201001013 cycles: 412421072 heartbeat IPC: 0.3996 cumulative IPC: 0.3787 (Simulation time: 00 hr 46 min 07 sec)
Heartbeat CPU 0 instructions: 201501016 cycles: 413860918 heartbeat IPC: 0.3473 cumulative IPC: 0.3785 (Simulation time: 00 hr 46 min 15 sec)
Heartbeat CPU 0 instructions: 202001020 cycles: 416335435 heartbeat IPC: 0.2021 cumulative IPC: 0.3775 (Simulation time: 00 hr 46 min 28 sec)
Heartbeat CPU 0 instructions: 202501022 cycles: 417184222 heartbeat IPC: 0.5891 cumulative IPC: 0.3779 (Simulation time: 00 hr 46 min 33 sec)
Heartbeat CPU 0 instructions: 203001022 cycles: 418033506 heartbeat IPC: 0.5887 cumulative IPC: 0.3783 (Simulation time: 00 hr 46 min 38 sec)
Heartbeat CPU 0 instructions: 203501028 cycles: 418807483 heartbeat IPC: 0.646 cumulative IPC: 0.3789 (Simulation time: 00 hr 46 min 43 sec)
Heartbeat CPU 0 instructions: 204001028 cycles: 420455199 heartbeat IPC: 0.3035 cumulative IPC: 0.3785 (Simulation time: 00 hr 46 min 52 sec)
Heartbeat CPU 0 instructions: 204501029 cycles: 422812325 heartbeat IPC: 0.2121 cumulative IPC: 0.3776 (Simulation time: 00 hr 47 min 05 sec)
Heartbeat CPU 0 instructions: 205001029 cycles: 423570112 heartbeat IPC: 0.6598 cumulative IPC: 0.3781 (Simulation time: 00 hr 47 min 09 sec)
Heartbeat CPU 0 instructions: 205501036 cycles: 424601316 heartbeat IPC: 0.4849 cumulative IPC: 0.3784 (Simulation time: 00 hr 47 min 15 sec)
Heartbeat CPU 0 instructions: 206001039 cycles: 426540440 heartbeat IPC: 0.2578 cumulative IPC: 0.3778 (Simulation time: 00 hr 47 min 25 sec)
Heartbeat CPU 0 instructions: 206501040 cycles: 427534332 heartbeat IPC: 0.5031 cumulative IPC: 0.3781 (Simulation time: 00 hr 47 min 31 sec)
Heartbeat CPU 0 instructions: 207001040 cycles: 428237106 heartbeat IPC: 0.7115 cumulative IPC: 0.3787 (Simulation time: 00 hr 47 min 36 sec)
Heartbeat CPU 0 instructions: 207501042 cycles: 428638123 heartbeat IPC: 1.247 cumulative IPC: 0.3795 (Simulation time: 00 hr 47 min 39 sec)
Heartbeat CPU 0 instructions: 208001043 cycles: 429742795 heartbeat IPC: 0.4526 cumulative IPC: 0.3797 (Simulation time: 00 hr 47 min 45 sec)
Heartbeat CPU 0 instructions: 208501047 cycles: 432448014 heartbeat IPC: 0.1848 cumulative IPC: 0.3785 (Simulation time: 00 hr 47 min 59 sec)
Heartbeat CPU 0 instructions: 209001049 cycles: 433709021 heartbeat IPC: 0.3965 cumulative IPC: 0.3785 (Simulation time: 00 hr 48 min 06 sec)
Heartbeat CPU 0 instructions: 209501052 cycles: 435845509 heartbeat IPC: 0.234 cumulative IPC: 0.3778 (Simulation time: 00 hr 48 min 18 sec)
Heartbeat CPU 0 instructions: 210001057 cycles: 436888405 heartbeat IPC: 0.4794 cumulative IPC: 0.378 (Simulation time: 00 hr 48 min 24 sec)
Heartbeat CPU 0 instructions: 210501063 cycles: 437246861 heartbeat IPC: 1.395 cumulative IPC: 0.3789 (Simulation time: 00 hr 48 min 27 sec)
Heartbeat CPU 0 instructions: 211001065 cycles: 437549506 heartbeat IPC: 1.652 cumulative IPC: 0.3798 (Simulation time: 00 hr 48 min 29 sec)
Heartbeat CPU 0 instructions: 211501067 cycles: 438671794 heartbeat IPC: 0.4455 cumulative IPC: 0.38 (Simulation time: 00 hr 48 min 35 sec)
Heartbeat CPU 0 instructions: 212001067 cycles: 440077287 heartbeat IPC: 0.3557 cumulative IPC: 0.3799 (Simulation time: 00 hr 48 min 43 sec)
Heartbeat CPU 0 instructions: 212501067 cycles: 441649540 heartbeat IPC: 0.318 cumulative IPC: 0.3797 (Simulation time: 00 hr 48 min 51 sec)
Heartbeat CPU 0 instructions: 213001068 cycles: 442326632 heartbeat IPC: 0.7385 cumulative IPC: 0.3802 (Simulation time: 00 hr 48 min 56 sec)
Heartbeat CPU 0 instructions: 213501069 cycles: 443053606 heartbeat IPC: 0.6878 cumulative IPC: 0.3807 (Simulation time: 00 hr 49 min 01 sec)
Heartbeat CPU 0 instructions: 214001069 cycles: 444211785 heartbeat IPC: 0.4317 cumulative IPC: 0.3809 (Simulation time: 00 hr 49 min 07 sec)
Heartbeat CPU 0 instructions: 214501072 cycles: 447829271 heartbeat IPC: 0.1382 cumulative IPC: 0.3789 (Simulation time: 00 hr 49 min 25 sec)
Heartbeat CPU 0 instructions: 215001078 cycles: 449621008 heartbeat IPC: 0.2791 cumulative IPC: 0.3785 (Simulation time: 00 hr 49 min 35 sec)
Heartbeat CPU 0 instructions: 215501080 cycles: 450636896 heartbeat IPC: 0.4922 cumulative IPC: 0.3787 (Simulation time: 00 hr 49 min 41 sec)
Heartbeat CPU 0 instructions: 216001080 cycles: 452023396 heartbeat IPC: 0.3606 cumulative IPC: 0.3787 (Simulation time: 00 hr 49 min 48 sec)
Heartbeat CPU 0 instructions: 216501086 cycles: 453195625 heartbeat IPC: 0.4265 cumulative IPC: 0.3788 (Simulation time: 00 hr 49 min 55 sec)
Heartbeat CPU 0 instructions: 217001087 cycles: 454187094 heartbeat IPC: 0.5043 cumulative IPC: 0.3791 (Simulation time: 00 hr 50 min 01 sec)
Heartbeat CPU 0 instructions: 217501087 cycles: 454967057 heartbeat IPC: 0.6411 cumulative IPC: 0.3795 (Simulation time: 00 hr 50 min 06 sec)
Heartbeat CPU 0 instructions: 218001088 cycles: 457265073 heartbeat IPC: 0.2176 cumulative IPC: 0.3787 (Simulation time: 00 hr 50 min 17 sec)
Heartbeat CPU 0 instructions: 218501088 cycles: 458925031 heartbeat IPC: 0.3012 cumulative IPC: 0.3784 (Simulation time: 00 hr 50 min 26 sec)
Heartbeat CPU 0 instructions: 219001088 cycles: 459324959 heartbeat IPC: 1.25 cumulative IPC: 0.3792 (Simulation time: 00 hr 50 min 29 sec)
Heartbeat CPU 0 instructions: 219501088 cycles: 460196862 heartbeat IPC: 0.5735 cumulative IPC: 0.3796 (Simulation time: 00 hr 50 min 34 sec)
Heartbeat CPU 0 instructions: 220001091 cycles: 462902771 heartbeat IPC: 0.1848 cumulative IPC: 0.3784 (Simulation time: 00 hr 50 min 48 sec)
Heartbeat CPU 0 instructions: 220501092 cycles: 464424417 heartbeat IPC: 0.3286 cumulative IPC: 0.3782 (Simulation time: 00 hr 50 min 56 sec)
Heartbeat CPU 0 instructions: 221001094 cycles: 465517457 heartbeat IPC: 0.4574 cumulative IPC: 0.3784 (Simulation time: 00 hr 51 min 03 sec)
Heartbeat CPU 0 instructions: 221501094 cycles: 467061010 heartbeat IPC: 0.3239 cumulative IPC: 0.3782 (Simulation time: 00 hr 51 min 11 sec)
Heartbeat CPU 0 instructions: 222001100 cycles: 468729424 heartbeat IPC: 0.2997 cumulative IPC: 0.3779 (Simulation time: 00 hr 51 min 20 sec)
Heartbeat CPU 0 instructions: 222501105 cycles: 469673810 heartbeat IPC: 0.5294 cumulative IPC: 0.3783 (Simulation time: 00 hr 51 min 25 sec)
Heartbeat CPU 0 instructions: 223001106 cycles: 470510624 heartbeat IPC: 0.5975 cumulative IPC: 0.3787 (Simulation time: 00 hr 51 min 30 sec)
Heartbeat CPU 0 instructions: 223501111 cycles: 471812986 heartbeat IPC: 0.3839 cumulative IPC: 0.3787 (Simulation time: 00 hr 51 min 37 sec)
Heartbeat CPU 0 instructions: 224001111 cycles: 472884462 heartbeat IPC: 0.4666 cumulative IPC: 0.3789 (Simulation time: 00 hr 51 min 43 sec)
Heartbeat CPU 0 instructions: 224501112 cycles: 475263469 heartbeat IPC: 0.2102 cumulative IPC: 0.378 (Simulation time: 00 hr 51 min 55 sec)
Heartbeat CPU 0 instructions: 225001113 cycles: 477784911 heartbeat IPC: 0.1983 cumulative IPC: 0.377 (Simulation time: 00 hr 52 min 08 sec)
Heartbeat CPU 0 instructions: 225501113 cycles: 479001827 heartbeat IPC: 0.4109 cumulative IPC: 0.3771 (Simulation time: 00 hr 52 min 15 sec)
Heartbeat CPU 0 instructions: 226001113 cycles: 480914777 heartbeat IPC: 0.2614 cumulative IPC: 0.3766 (Simulation time: 00 hr 52 min 25 sec)
Heartbeat CPU 0 instructions: 226501113 cycles: 483095740 heartbeat IPC: 0.2293 cumulative IPC: 0.376 (Simulation time: 00 hr 52 min 37 sec)
Heartbeat CPU 0 instructions: 227001113 cycles: 484919263 heartbeat IPC: 0.2742 cumulative IPC: 0.3756 (Simulation time: 00 hr 52 min 47 sec)
Heartbeat CPU 0 instructions: 227501113 cycles: 485852403 heartbeat IPC: 0.5358 cumulative IPC: 0.3759 (Simulation time: 00 hr 52 min 52 sec)
Heartbeat CPU 0 instructions: 228001118 cycles: 487091798 heartbeat IPC: 0.4034 cumulative IPC: 0.376 (Simulation time: 00 hr 52 min 59 sec)
Heartbeat CPU 0 instructions: 228501118 cycles: 487768649 heartbeat IPC: 0.7387 cumulative IPC: 0.3765 (Simulation time: 00 hr 53 min 03 sec)
Heartbeat CPU 0 instructions: 229001119 cycles: 490372742 heartbeat IPC: 0.192 cumulative IPC: 0.3755 (Simulation time: 00 hr 53 min 16 sec)
Heartbeat CPU 0 instructions: 229501120 cycles: 493242216 heartbeat IPC: 0.1742 cumulative IPC: 0.3743 (Simulation time: 00 hr 53 min 30 sec)
Heartbeat CPU 0 instructions: 230001122 cycles: 494266657 heartbeat IPC: 0.4881 cumulative IPC: 0.3745 (Simulation time: 00 hr 53 min 36 sec)
Heartbeat CPU 0 instructions: 230501122 cycles: 495070782 heartbeat IPC: 0.6218 cumulative IPC: 0.3749 (Simulation time: 00 hr 53 min 41 sec)
Heartbeat CPU 0 instructions: 231001122 cycles: 496834682 heartbeat IPC: 0.2835 cumulative IPC: 0.3746 (Simulation time: 00 hr 53 min 50 sec)
Heartbeat CPU 0 instructions: 231501129 cycles: 498132668 heartbeat IPC: 0.3852 cumulative IPC: 0.3746 (Simulation time: 00 hr 53 min 57 sec)
Heartbeat CPU 0 instructions: 232001131 cycles: 499437048 heartbeat IPC: 0.3833 cumulative IPC: 0.3746 (Simulation time: 00 hr 54 min 04 sec)
Heartbeat CPU 0 instructions: 232501134 cycles: 501294208 heartbeat IPC: 0.2692 cumulative IPC: 0.3742 (Simulation time: 00 hr 54 min 13 sec)
Heartbeat CPU 0 instructions: 233001140 cycles: 502577720 heartbeat IPC: 0.3896 cumulative IPC: 0.3743 (Simulation time: 00 hr 54 min 20 sec)
Heartbeat CPU 0 instructions: 233501140 cycles: 503926904 heartbeat IPC: 0.3706 cumulative IPC: 0.3743 (Simulation time: 00 hr 54 min 27 sec)
Heartbeat CPU 0 instructions: 234001142 cycles: 507360832 heartbeat IPC: 0.1456 cumulative IPC: 0.3727 (Simulation time: 00 hr 54 min 44 sec)
Heartbeat CPU 0 instructions: 234501144 cycles: 509301583 heartbeat IPC: 0.2576 cumulative IPC: 0.3722 (Simulation time: 00 hr 54 min 54 sec)
Heartbeat CPU 0 instructions: 235001145 cycles: 510500575 heartbeat IPC: 0.417 cumulative IPC: 0.3723 (Simulation time: 00 hr 55 min 01 sec)
Heartbeat CPU 0 instructions: 235501145 cycles: 511451554 heartbeat IPC: 0.5258 cumulative IPC: 0.3726 (Simulation time: 00 hr 55 min 06 sec)
Heartbeat CPU 0 instructions: 236001148 cycles: 511835079 heartbeat IPC: 1.304 cumulative IPC: 0.3733 (Simulation time: 00 hr 55 min 09 sec)
Heartbeat CPU 0 instructions: 236501149 cycles: 512543238 heartbeat IPC: 0.7061 cumulative IPC: 0.3738 (Simulation time: 00 hr 55 min 13 sec)
Heartbeat CPU 0 instructions: 237001149 cycles: 513382004 heartbeat IPC: 0.5961 cumulative IPC: 0.3742 (Simulation time: 00 hr 55 min 18 sec)
Heartbeat CPU 0 instructions: 237501152 cycles: 514945007 heartbeat IPC: 0.3199 cumulative IPC: 0.374 (Simulation time: 00 hr 55 min 26 sec)
Heartbeat CPU 0 instructions: 238001154 cycles: 517263008 heartbeat IPC: 0.2157 cumulative IPC: 0.3733 (Simulation time: 00 hr 55 min 38 sec)
Heartbeat CPU 0 instructions: 238501156 cycles: 518554141 heartbeat IPC: 0.3873 cumulative IPC: 0.3733 (Simulation time: 00 hr 55 min 45 sec)
Heartbeat CPU 0 instructions: 239001156 cycles: 520505376 heartbeat IPC: 0.2562 cumulative IPC: 0.3729 (Simulation time: 00 hr 55 min 55 sec)
Heartbeat CPU 0 instructions: 239501160 cycles: 521781552 heartbeat IPC: 0.3918 cumulative IPC: 0.3729 (Simulation time: 00 hr 56 min 03 sec)
Heartbeat CPU 0 instructions: 240001161 cycles: 522702709 heartbeat IPC: 0.5428 cumulative IPC: 0.3732 (Simulation time: 00 hr 56 min 08 sec)
Heartbeat CPU 0 instructions: 240501164 cycles: 523707219 heartbeat IPC: 0.4978 cumulative IPC: 0.3735 (Simulation time: 00 hr 56 min 14 sec)
Heartbeat CPU 0 instructions: 241001165 cycles: 524295885 heartbeat IPC: 0.8494 cumulative IPC: 0.374 (Simulation time: 00 hr 56 min 18 sec)
Heartbeat CPU 0 instructions: 241501166 cycles: 526554989 heartbeat IPC: 0.2213 cumulative IPC: 0.3734 (Simulation time: 00 hr 56 min 29 sec)
Heartbeat CPU 0 instructions: 242001169 cycles: 529417705 heartbeat IPC: 0.1747 cumulative IPC: 0.3723 (Simulation time: 00 hr 56 min 44 sec)
Heartbeat CPU 0 instructions: 242501174 cycles: 531187067 heartbeat IPC: 0.2826 cumulative IPC: 0.3719 (Simulation time: 00 hr 56 min 53 sec)
Heartbeat CPU 0 instructions: 243001181 cycles: 533601797 heartbeat IPC: 0.2071 cumulative IPC: 0.3712 (Simulation time: 00 hr 57 min 06 sec)
Heartbeat CPU 0 instructions: 243501182 cycles: 535012903 heartbeat IPC: 0.3543 cumulative IPC: 0.3711 (Simulation time: 00 hr 57 min 13 sec)
Heartbeat CPU 0 instructions: 244001182 cycles: 536259232 heartbeat IPC: 0.4012 cumulative IPC: 0.3712 (Simulation time: 00 hr 57 min 21 sec)
Heartbeat CPU 0 instructions: 244501186 cycles: 539141391 heartbeat IPC: 0.1735 cumulative IPC: 0.3701 (Simulation time: 00 hr 57 min 35 sec)
Heartbeat CPU 0 instructions: 245001186 cycles: 540764825 heartbeat IPC: 0.308 cumulative IPC: 0.3699 (Simulation time: 00 hr 57 min 44 sec)
Heartbeat CPU 0 instructions: 245501186 cycles: 542202838 heartbeat IPC: 0.3477 cumulative IPC: 0.3699 (Simulation time: 00 hr 57 min 51 sec)
Heartbeat CPU 0 instructions: 246001186 cycles: 545220131 heartbeat IPC: 0.1657 cumulative IPC: 0.3687 (Simulation time: 00 hr 58 min 06 sec)
Heartbeat CPU 0 instructions: 246501186 cycles: 548061798 heartbeat IPC: 0.176 cumulative IPC: 0.3677 (Simulation time: 00 hr 58 min 21 sec)
Heartbeat CPU 0 instructions: 247001186 cycles: 549575503 heartbeat IPC: 0.3303 cumulative IPC: 0.3676 (Simulation time: 00 hr 58 min 29 sec)
Heartbeat CPU 0 instructions: 247501188 cycles: 551365270 heartbeat IPC: 0.2794 cumulative IPC: 0.3673 (Simulation time: 00 hr 58 min 41 sec)
Heartbeat CPU 0 instructions: 248001193 cycles: 554854094 heartbeat IPC: 0.1433 cumulative IPC: 0.3658 (Simulation time: 00 hr 59 min 02 sec)
Heartbeat CPU 0 instructions: 248501193 cycles: 556769562 heartbeat IPC: 0.261 cumulative IPC: 0.3655 (Simulation time: 00 hr 59 min 15 sec)
Heartbeat CPU 0 instructions: 249001195 cycles: 557896125 heartbeat IPC: 0.4438 cumulative IPC: 0.3656 (Simulation time: 00 hr 59 min 23 sec)
Heartbeat CPU 0 instructions: 249501199 cycles: 559153794 heartbeat IPC: 0.3976 cumulative IPC: 0.3657 (Simulation time: 00 hr 59 min 32 sec)
Simulation finished CPU 0 instructions: 200000002 cycles: 547782559 cumulative IPC: 0.3651 (Simulation time: 00 hr 59 min 47 sec)
Simulation complete CPU 0 instructions: 200000002 cycles: 547782559 cumulative IPC: 0.3651 (Simulation time: 00 hr 59 min 47 sec)

ChampSim completed all CPUs

=== Simulation ===
CPU 0 runs /local-ssd/ben/dpc4-traces/gtraces_v2/yankee_0003.champsim.gz

Region of Interest Statistics

CPU 0 cumulative IPC: 0.3651 instructions: 200000002 cycles: 547782559
CPU 0 Branch Prediction Accuracy: 88.49% MPKI: 21.3 Average ROB Occupancy at Mispredict: 22.02
Branch type MPKI
BRANCH_DIRECT_JUMP: 0.9222
BRANCH_INDIRECT: 0.5046
BRANCH_CONDITIONAL: 16.95
BRANCH_DIRECT_CALL: 1.572
BRANCH_INDIRECT_CALL: 0.4834
BRANCH_RETURN: 0.8707

cpu0->cpu0_STLB TOTAL        ACCESS:    1896318 HIT:    1240776 MISS:     655542 MSHR_MERGE:          0
cpu0->cpu0_STLB LOAD         ACCESS:    1896318 HIT:    1240776 MISS:     655542 MSHR_MERGE:          0
cpu0->cpu0_STLB RFO          ACCESS:          0 HIT:          0 MISS:          0 MSHR_MERGE:          0
cpu0->cpu0_STLB PREFETCH     ACCESS:          0 HIT:          0 MISS:          0 MSHR_MERGE:          0
cpu0->cpu0_STLB WRITE        ACCESS:          0 HIT:          0 MISS:          0 MSHR_MERGE:          0
cpu0->cpu0_STLB TRANSLATION  ACCESS:          0 HIT:          0 MISS:          0 MSHR_MERGE:          0
cpu0->cpu0_STLB PREFETCH REQUESTED:          0 ISSUED:          0 USEFUL:          0 USELESS:          0
cpu0->cpu0_STLB AVERAGE MISS LATENCY: 339.5 cycles
cpu0->cpu0_L2C TOTAL        ACCESS:   15119394 HIT:    9241584 MISS:    5877810 MSHR_MERGE:     826294
cpu0->cpu0_L2C LOAD         ACCESS:    3925282 HIT:    1867223 MISS:    2058059 MSHR_MERGE:      28853
cpu0->cpu0_L2C RFO          ACCESS:     738149 HIT:     250534 MISS:     487615 MSHR_MERGE:       9369
cpu0->cpu0_L2C PREFETCH     ACCESS:    8366305 HIT:    5459315 MISS:    2906990 MSHR_MERGE:     788072
cpu0->cpu0_L2C WRITE        ACCESS:    1241300 HIT:    1241290 MISS:         10 MSHR_MERGE:          0
cpu0->cpu0_L2C TRANSLATION  ACCESS:     848358 HIT:     423222 MISS:     425136 MSHR_MERGE:          0
cpu0->cpu0_L2C PREFETCH REQUESTED:    7083686 ISSUED:    6857974 USEFUL:     610982 USELESS:     973958
cpu0->cpu0_L2C AVERAGE MISS LATENCY: 311.4 cycles
cpu0->cpu0_L1I TOTAL        ACCESS:   13252233 HIT:   10399831 MISS:    2852402 MSHR_MERGE:     625939
cpu0->cpu0_L1I LOAD         ACCESS:   13252233 HIT:   10399831 MISS:    2852402 MSHR_MERGE:     625939
cpu0->cpu0_L1I RFO          ACCESS:          0 HIT:          0 MISS:          0 MSHR_MERGE:          0
cpu0->cpu0_L1I PREFETCH     ACCESS:          0 HIT:          0 MISS:          0 MSHR_MERGE:          0
cpu0->cpu0_L1I WRITE        ACCESS:          0 HIT:          0 MISS:          0 MSHR_MERGE:          0
cpu0->cpu0_L1I TRANSLATION  ACCESS:          0 HIT:          0 MISS:          0 MSHR_MERGE:          0
cpu0->cpu0_L1I PREFETCH REQUESTED:          0 ISSUED:          0 USEFUL:          0 USELESS:          0
cpu0->cpu0_L1I AVERAGE MISS LATENCY: 171.9 cycles
cpu0->cpu0_L1D TOTAL        ACCESS:   62861475 HIT:   55203562 MISS:    7657913 MSHR_MERGE:    2864224
cpu0->cpu0_L1D LOAD         ACCESS:   34517167 HIT:   32296516 MISS:    2220651 MSHR_MERGE:     521819
cpu0->cpu0_L1D RFO          ACCESS:          0 HIT:          0 MISS:          0 MSHR_MERGE:          0
cpu0->cpu0_L1D PREFETCH     ACCESS:    3345649 HIT:    1662679 MISS:    1682970 MSHR_MERGE:     174642
cpu0->cpu0_L1D WRITE        ACCESS:   23134362 HIT:   20234681 MISS:    2899681 MSHR_MERGE:    2161510
cpu0->cpu0_L1D TRANSLATION  ACCESS:    1864297 HIT:    1009686 MISS:     854611 MSHR_MERGE:       6253
cpu0->cpu0_L1D PREFETCH REQUESTED:    6377263 ISSUED:    3345646 USEFUL:     667335 USELESS:     840959
cpu0->cpu0_L1D AVERAGE MISS LATENCY: 179.8 cycles
cpu0->cpu0_ITLB TOTAL        ACCESS:   10687460 HIT:   10439507 MISS:     247953 MSHR_MERGE:     121324
cpu0->cpu0_ITLB LOAD         ACCESS:   10687460 HIT:   10439507 MISS:     247953 MSHR_MERGE:     121324
cpu0->cpu0_ITLB RFO          ACCESS:          0 HIT:          0 MISS:          0 MSHR_MERGE:          0
cpu0->cpu0_ITLB PREFETCH     ACCESS:          0 HIT:          0 MISS:          0 MSHR_MERGE:          0
cpu0->cpu0_ITLB WRITE        ACCESS:          0 HIT:          0 MISS:          0 MSHR_MERGE:          0
cpu0->cpu0_ITLB TRANSLATION  ACCESS:          0 HIT:          0 MISS:          0 MSHR_MERGE:          0
cpu0->cpu0_ITLB PREFETCH REQUESTED:          0 ISSUED:          0 USEFUL:          0 USELESS:          0
cpu0->cpu0_ITLB AVERAGE MISS LATENCY: 48.29 cycles
cpu0->cpu0_DTLB TOTAL        ACCESS:   58065818 HIT:   55150400 MISS:    2915418 MSHR_MERGE:    1145729
cpu0->cpu0_DTLB LOAD         ACCESS:   58065818 HIT:   55150400 MISS:    2915418 MSHR_MERGE:    1145729
cpu0->cpu0_DTLB RFO          ACCESS:          0 HIT:          0 MISS:          0 MSHR_MERGE:          0
cpu0->cpu0_DTLB PREFETCH     ACCESS:          0 HIT:          0 MISS:          0 MSHR_MERGE:          0
cpu0->cpu0_DTLB WRITE        ACCESS:          0 HIT:          0 MISS:          0 MSHR_MERGE:          0
cpu0->cpu0_DTLB TRANSLATION  ACCESS:          0 HIT:          0 MISS:          0 MSHR_MERGE:          0
cpu0->cpu0_DTLB PREFETCH REQUESTED:          0 ISSUED:          0 USEFUL:          0 USELESS:          0
cpu0->cpu0_DTLB AVERAGE MISS LATENCY: 128 cycles
cpu0->LLC TOTAL        ACCESS:    7226539 HIT:    1569937 MISS:    5656602 MSHR_MERGE:     294104
cpu0->LLC LOAD         ACCESS:    2029206 HIT:     609218 MISS:    1419988 MSHR_MERGE:       2107
cpu0->LLC RFO          ACCESS:     478246 HIT:      29337 MISS:     448909 MSHR_MERGE:        753
cpu0->LLC PREFETCH     ACCESS:    3417411 HIT:     713195 MISS:    2704216 MSHR_MERGE:     291244
cpu0->LLC WRITE        ACCESS:     876540 HIT:     177212 MISS:     699328 MSHR_MERGE:          0
cpu0->LLC TRANSLATION  ACCESS:     425136 HIT:      40975 MISS:     384161 MSHR_MERGE:          0
cpu0->LLC PREFETCH REQUESTED:    1402557 ISSUED:    1298493 USEFUL:      99175 USELESS:     692626
cpu0->LLC AVERAGE MISS LATENCY: 290.6 cycles

DRAM Statistics

Channel 0 RQ ROW_BUFFER_HIT:      78051
  ROW_BUFFER_MISS:    4584985
  AVG DBUS CONGESTED CYCLE: 4.121
Channel 0 WQ ROW_BUFFER_HIT:     163255
  ROW_BUFFER_MISS:     634763
  FULL:          0
Channel 0 REFRESHES ISSUED:      45648
