[VMEM] WARNING: physical memory size is smaller than virtual memory size.

*** ChampSim Multicore Out-of-Order Simulator ***
Warmup Instructions: 50000000
Simulation Instructions: 200000000
Number of CPUs: 1
Page size: 4096
Core 0: /local-ssd/ben/dpc4-traces/gtraces_v2/tango_0004.champsim.gz
sBerti (Smart Stride + Berti) Prefetcher Initialized
Off-chip DRAM Size: 64 GiB Channels: 1 Width: 64-bit Data Rate: 800 MT/s
[BTB] WARNING: target of return is a lower address than the corresponding call. This is usually a problem with your trace.
[BTB] WARNING: target of return is a lower address than the corresponding call. This is usually a problem with your trace.
[BTB] WARNING: target of return is a lower address than the corresponding call. This is usually a problem with your trace.
[BTB] WARNING: target of return is a lower address than the corresponding call. This is usually a problem with your trace.
[BTB] WARNING: target of return is a lower address than the corresponding call. This is usually a problem with your trace.
[BTB] WARNING: target of return is a lower address than the corresponding call. This is usually a problem with your trace.
[BTB] WARNING: target of return is a lower address than the corresponding call. This is usually a problem with your trace.
Heartbeat CPU 0 instructions: 500004 cycles: 280287 heartbeat IPC: 1.784 cumulative IPC: 1.784 (Simulation time: 00 hr 00 min 04 sec)
[BTB] WARNING: target of return is a lower address than the corresponding call. This is usually a problem with your trace.
[BTB] WARNING: target of return is a lower address than the corresponding call. This is usually a problem with your trace.
[BTB] WARNING: target of return is a lower address than the corresponding call. This is usually a problem with your trace.
Heartbeat CPU 0 instructions: 1000007 cycles: 490815 heartbeat IPC: 2.375 cumulative IPC: 2.037 (Simulation time: 00 hr 00 min 07 sec)
Heartbeat CPU 0 instructions: 1500008 cycles: 627846 heartbeat IPC: 3.649 cumulative IPC: 2.389 (Simulation time: 00 hr 00 min 10 sec)
Heartbeat CPU 0 instructions: 2000008 cycles: 788695 heartbeat IPC: 3.109 cumulative IPC: 2.536 (Simulation time: 00 hr 00 min 12 sec)
Heartbeat CPU 0 instructions: 2500015 cycles: 963619 heartbeat IPC: 2.858 cumulative IPC: 2.594 (Simulation time: 00 hr 00 min 15 sec)
Heartbeat CPU 0 instructions: 3000015 cycles: 1116389 heartbeat IPC: 3.273 cumulative IPC: 2.687 (Simulation time: 00 hr 00 min 17 sec)
Heartbeat CPU 0 instructions: 3500022 cycles: 1296334 heartbeat IPC: 2.779 cumulative IPC: 2.7 (Simulation time: 00 hr 00 min 21 sec)
Heartbeat CPU 0 instructions: 4000028 cycles: 1527032 heartbeat IPC: 2.167 cumulative IPC: 2.619 (Simulation time: 00 hr 00 min 25 sec)
Heartbeat CPU 0 instructions: 4500035 cycles: 1657428 heartbeat IPC: 3.835 cumulative IPC: 2.715 (Simulation time: 00 hr 00 min 27 sec)
Heartbeat CPU 0 instructions: 5000035 cycles: 1817647 heartbeat IPC: 3.121 cumulative IPC: 2.751 (Simulation time: 00 hr 00 min 30 sec)
Heartbeat CPU 0 instructions: 5500036 cycles: 1974519 heartbeat IPC: 3.187 cumulative IPC: 2.786 (Simulation time: 00 hr 00 min 33 sec)
Heartbeat CPU 0 instructions: 6000041 cycles: 2135569 heartbeat IPC: 3.105 cumulative IPC: 2.81 (Simulation time: 00 hr 00 min 36 sec)
Heartbeat CPU 0 instructions: 6500043 cycles: 2291624 heartbeat IPC: 3.204 cumulative IPC: 2.836 (Simulation time: 00 hr 00 min 38 sec)
Heartbeat CPU 0 instructions: 7000044 cycles: 2434329 heartbeat IPC: 3.504 cumulative IPC: 2.876 (Simulation time: 00 hr 00 min 40 sec)
Heartbeat CPU 0 instructions: 7500044 cycles: 2580158 heartbeat IPC: 3.429 cumulative IPC: 2.907 (Simulation time: 00 hr 00 min 43 sec)
Heartbeat CPU 0 instructions: 8000048 cycles: 2745178 heartbeat IPC: 3.03 cumulative IPC: 2.914 (Simulation time: 00 hr 00 min 46 sec)
Heartbeat CPU 0 instructions: 8500049 cycles: 2889086 heartbeat IPC: 3.474 cumulative IPC: 2.942 (Simulation time: 00 hr 00 min 49 sec)
Heartbeat CPU 0 instructions: 9000054 cycles: 3038309 heartbeat IPC: 3.351 cumulative IPC: 2.962 (Simulation time: 00 hr 00 min 51 sec)
Heartbeat CPU 0 instructions: 9500059 cycles: 3204839 heartbeat IPC: 3.002 cumulative IPC: 2.964 (Simulation time: 00 hr 00 min 54 sec)
Heartbeat CPU 0 instructions: 10000065 cycles: 3367760 heartbeat IPC: 3.069 cumulative IPC: 2.969 (Simulation time: 00 hr 00 min 57 sec)
Heartbeat CPU 0 instructions: 10500068 cycles: 3516298 heartbeat IPC: 3.366 cumulative IPC: 2.986 (Simulation time: 00 hr 01 min 00 sec)
Heartbeat CPU 0 instructions: 11000070 cycles: 3624276 heartbeat IPC: 4.631 cumulative IPC: 3.035 (Simulation time: 00 hr 01 min 01 sec)
Heartbeat CPU 0 instructions: 11500070 cycles: 3766960 heartbeat IPC: 3.504 cumulative IPC: 3.053 (Simulation time: 00 hr 01 min 04 sec)
Heartbeat CPU 0 instructions: 12000070 cycles: 3930896 heartbeat IPC: 3.05 cumulative IPC: 3.053 (Simulation time: 00 hr 01 min 07 sec)
Heartbeat CPU 0 instructions: 12500072 cycles: 4113268 heartbeat IPC: 2.742 cumulative IPC: 3.039 (Simulation time: 00 hr 01 min 10 sec)
Heartbeat CPU 0 instructions: 13000072 cycles: 4252667 heartbeat IPC: 3.587 cumulative IPC: 3.057 (Simulation time: 00 hr 01 min 12 sec)
Heartbeat CPU 0 instructions: 13500077 cycles: 4389329 heartbeat IPC: 3.659 cumulative IPC: 3.076 (Simulation time: 00 hr 01 min 14 sec)
Heartbeat CPU 0 instructions: 14000084 cycles: 4526685 heartbeat IPC: 3.64 cumulative IPC: 3.093 (Simulation time: 00 hr 01 min 17 sec)
Heartbeat CPU 0 instructions: 14500090 cycles: 4675996 heartbeat IPC: 3.349 cumulative IPC: 3.101 (Simulation time: 00 hr 01 min 19 sec)
Heartbeat CPU 0 instructions: 15000093 cycles: 4823551 heartbeat IPC: 3.389 cumulative IPC: 3.11 (Simulation time: 00 hr 01 min 22 sec)
Heartbeat CPU 0 instructions: 15500095 cycles: 4953336 heartbeat IPC: 3.853 cumulative IPC: 3.129 (Simulation time: 00 hr 01 min 24 sec)
Heartbeat CPU 0 instructions: 16000096 cycles: 5126214 heartbeat IPC: 2.892 cumulative IPC: 3.121 (Simulation time: 00 hr 01 min 27 sec)
Heartbeat CPU 0 instructions: 16500098 cycles: 5263302 heartbeat IPC: 3.647 cumulative IPC: 3.135 (Simulation time: 00 hr 01 min 29 sec)
Heartbeat CPU 0 instructions: 17000104 cycles: 5405203 heartbeat IPC: 3.524 cumulative IPC: 3.145 (Simulation time: 00 hr 01 min 32 sec)
Heartbeat CPU 0 instructions: 17500110 cycles: 5547413 heartbeat IPC: 3.516 cumulative IPC: 3.155 (Simulation time: 00 hr 01 min 35 sec)
Heartbeat CPU 0 instructions: 18000116 cycles: 5713800 heartbeat IPC: 3.005 cumulative IPC: 3.15 (Simulation time: 00 hr 01 min 38 sec)
Heartbeat CPU 0 instructions: 18500123 cycles: 5862802 heartbeat IPC: 3.356 cumulative IPC: 3.156 (Simulation time: 00 hr 01 min 40 sec)
Heartbeat CPU 0 instructions: 19000129 cycles: 6015546 heartbeat IPC: 3.273 cumulative IPC: 3.159 (Simulation time: 00 hr 01 min 43 sec)
Heartbeat CPU 0 instructions: 19500135 cycles: 6174113 heartbeat IPC: 3.153 cumulative IPC: 3.158 (Simulation time: 00 hr 01 min 46 sec)
Heartbeat CPU 0 instructions: 20000136 cycles: 6318911 heartbeat IPC: 3.453 cumulative IPC: 3.165 (Simulation time: 00 hr 01 min 48 sec)
Heartbeat CPU 0 instructions: 20500137 cycles: 6492337 heartbeat IPC: 2.883 cumulative IPC: 3.158 (Simulation time: 00 hr 01 min 51 sec)
Heartbeat CPU 0 instructions: 21000139 cycles: 6641611 heartbeat IPC: 3.35 cumulative IPC: 3.162 (Simulation time: 00 hr 01 min 54 sec)
Heartbeat CPU 0 instructions: 21500145 cycles: 6790869 heartbeat IPC: 3.35 cumulative IPC: 3.166 (Simulation time: 00 hr 01 min 56 sec)
Heartbeat CPU 0 instructions: 22000152 cycles: 6932559 heartbeat IPC: 3.529 cumulative IPC: 3.173 (Simulation time: 00 hr 01 min 59 sec)
Heartbeat CPU 0 instructions: 22500152 cycles: 7079535 heartbeat IPC: 3.402 cumulative IPC: 3.178 (Simulation time: 00 hr 02 min 02 sec)
Heartbeat CPU 0 instructions: 23000152 cycles: 7244810 heartbeat IPC: 3.025 cumulative IPC: 3.175 (Simulation time: 00 hr 02 min 05 sec)
Heartbeat CPU 0 instructions: 23500152 cycles: 7386780 heartbeat IPC: 3.522 cumulative IPC: 3.181 (Simulation time: 00 hr 02 min 07 sec)
Heartbeat CPU 0 instructions: 24000153 cycles: 7527847 heartbeat IPC: 3.544 cumulative IPC: 3.188 (Simulation time: 00 hr 02 min 10 sec)
Heartbeat CPU 0 instructions: 24500155 cycles: 7663700 heartbeat IPC: 3.68 cumulative IPC: 3.197 (Simulation time: 00 hr 02 min 12 sec)
Heartbeat CPU 0 instructions: 25000161 cycles: 7803279 heartbeat IPC: 3.582 cumulative IPC: 3.204 (Simulation time: 00 hr 02 min 15 sec)
Heartbeat CPU 0 instructions: 25500164 cycles: 7966976 heartbeat IPC: 3.054 cumulative IPC: 3.201 (Simulation time: 00 hr 02 min 18 sec)
Heartbeat CPU 0 instructions: 26000169 cycles: 8077090 heartbeat IPC: 4.541 cumulative IPC: 3.219 (Simulation time: 00 hr 02 min 19 sec)
Heartbeat CPU 0 instructions: 26500174 cycles: 8224855 heartbeat IPC: 3.384 cumulative IPC: 3.222 (Simulation time: 00 hr 02 min 22 sec)
Heartbeat CPU 0 instructions: 27000177 cycles: 8360752 heartbeat IPC: 3.679 cumulative IPC: 3.229 (Simulation time: 00 hr 02 min 24 sec)
Heartbeat CPU 0 instructions: 27500178 cycles: 8502139 heartbeat IPC: 3.536 cumulative IPC: 3.235 (Simulation time: 00 hr 02 min 27 sec)
Heartbeat CPU 0 instructions: 28000180 cycles: 8631685 heartbeat IPC: 3.86 cumulative IPC: 3.244 (Simulation time: 00 hr 02 min 29 sec)
Heartbeat CPU 0 instructions: 28500182 cycles: 8814120 heartbeat IPC: 2.741 cumulative IPC: 3.233 (Simulation time: 00 hr 02 min 32 sec)
Heartbeat CPU 0 instructions: 29000183 cycles: 8980119 heartbeat IPC: 3.012 cumulative IPC: 3.229 (Simulation time: 00 hr 02 min 35 sec)
Heartbeat CPU 0 instructions: 29500184 cycles: 9138782 heartbeat IPC: 3.151 cumulative IPC: 3.228 (Simulation time: 00 hr 02 min 38 sec)
Heartbeat CPU 0 instructions: 30000184 cycles: 9259309 heartbeat IPC: 4.148 cumulative IPC: 3.24 (Simulation time: 00 hr 02 min 40 sec)
Heartbeat CPU 0 instructions: 30500186 cycles: 9398889 heartbeat IPC: 3.582 cumulative IPC: 3.245 (Simulation time: 00 hr 02 min 43 sec)
Heartbeat CPU 0 instructions: 31000192 cycles: 9524626 heartbeat IPC: 3.977 cumulative IPC: 3.255 (Simulation time: 00 hr 02 min 45 sec)
Heartbeat CPU 0 instructions: 31500194 cycles: 9669065 heartbeat IPC: 3.462 cumulative IPC: 3.258 (Simulation time: 00 hr 02 min 47 sec)
Heartbeat CPU 0 instructions: 32000198 cycles: 9815588 heartbeat IPC: 3.412 cumulative IPC: 3.26 (Simulation time: 00 hr 02 min 50 sec)
Heartbeat CPU 0 instructions: 32500204 cycles: 9964199 heartbeat IPC: 3.365 cumulative IPC: 3.262 (Simulation time: 00 hr 02 min 53 sec)
Heartbeat CPU 0 instructions: 33000206 cycles: 10119364 heartbeat IPC: 3.222 cumulative IPC: 3.261 (Simulation time: 00 hr 02 min 55 sec)
Heartbeat CPU 0 instructions: 33500210 cycles: 10276792 heartbeat IPC: 3.176 cumulative IPC: 3.26 (Simulation time: 00 hr 02 min 58 sec)
Heartbeat CPU 0 instructions: 34000216 cycles: 10411082 heartbeat IPC: 3.723 cumulative IPC: 3.266 (Simulation time: 00 hr 03 min 01 sec)
Heartbeat CPU 0 instructions: 34500216 cycles: 10572616 heartbeat IPC: 3.095 cumulative IPC: 3.263 (Simulation time: 00 hr 03 min 03 sec)
Heartbeat CPU 0 instructions: 35000223 cycles: 10711312 heartbeat IPC: 3.605 cumulative IPC: 3.268 (Simulation time: 00 hr 03 min 06 sec)
Heartbeat CPU 0 instructions: 35500223 cycles: 10863531 heartbeat IPC: 3.285 cumulative IPC: 3.268 (Simulation time: 00 hr 03 min 09 sec)
Heartbeat CPU 0 instructions: 36000227 cycles: 10996016 heartbeat IPC: 3.774 cumulative IPC: 3.274 (Simulation time: 00 hr 03 min 11 sec)
Heartbeat CPU 0 instructions: 36500234 cycles: 11138653 heartbeat IPC: 3.505 cumulative IPC: 3.277 (Simulation time: 00 hr 03 min 13 sec)
Heartbeat CPU 0 instructions: 37000236 cycles: 11266490 heartbeat IPC: 3.911 cumulative IPC: 3.284 (Simulation time: 00 hr 03 min 16 sec)
Heartbeat CPU 0 instructions: 37500239 cycles: 11414036 heartbeat IPC: 3.389 cumulative IPC: 3.285 (Simulation time: 00 hr 03 min 18 sec)
Heartbeat CPU 0 instructions: 38000242 cycles: 11555814 heartbeat IPC: 3.527 cumulative IPC: 3.288 (Simulation time: 00 hr 03 min 21 sec)
Heartbeat CPU 0 instructions: 38500248 cycles: 11694674 heartbeat IPC: 3.601 cumulative IPC: 3.292 (Simulation time: 00 hr 03 min 23 sec)
Heartbeat CPU 0 instructions: 39000254 cycles: 11827648 heartbeat IPC: 3.76 cumulative IPC: 3.297 (Simulation time: 00 hr 03 min 25 sec)
Heartbeat CPU 0 instructions: 39500261 cycles: 11954042 heartbeat IPC: 3.956 cumulative IPC: 3.304 (Simulation time: 00 hr 03 min 28 sec)
Heartbeat CPU 0 instructions: 40000266 cycles: 12097663 heartbeat IPC: 3.481 cumulative IPC: 3.306 (Simulation time: 00 hr 03 min 30 sec)
Heartbeat CPU 0 instructions: 40500269 cycles: 12226323 heartbeat IPC: 3.886 cumulative IPC: 3.313 (Simulation time: 00 hr 03 min 33 sec)
Heartbeat CPU 0 instructions: 41000269 cycles: 12383209 heartbeat IPC: 3.187 cumulative IPC: 3.311 (Simulation time: 00 hr 03 min 36 sec)
Heartbeat CPU 0 instructions: 41500272 cycles: 12520210 heartbeat IPC: 3.65 cumulative IPC: 3.315 (Simulation time: 00 hr 03 min 38 sec)
Heartbeat CPU 0 instructions: 42000274 cycles: 12657936 heartbeat IPC: 3.63 cumulative IPC: 3.318 (Simulation time: 00 hr 03 min 41 sec)
Heartbeat CPU 0 instructions: 42500280 cycles: 12790841 heartbeat IPC: 3.762 cumulative IPC: 3.323 (Simulation time: 00 hr 03 min 43 sec)
Heartbeat CPU 0 instructions: 43000281 cycles: 12927695 heartbeat IPC: 3.654 cumulative IPC: 3.326 (Simulation time: 00 hr 03 min 45 sec)
Heartbeat CPU 0 instructions: 43500285 cycles: 13074990 heartbeat IPC: 3.395 cumulative IPC: 3.327 (Simulation time: 00 hr 03 min 48 sec)
Heartbeat CPU 0 instructions: 44000291 cycles: 13194994 heartbeat IPC: 4.167 cumulative IPC: 3.335 (Simulation time: 00 hr 03 min 50 sec)
Heartbeat CPU 0 instructions: 44500294 cycles: 13303222 heartbeat IPC: 4.62 cumulative IPC: 3.345 (Simulation time: 00 hr 03 min 52 sec)
Heartbeat CPU 0 instructions: 45000296 cycles: 13429671 heartbeat IPC: 3.954 cumulative IPC: 3.351 (Simulation time: 00 hr 03 min 54 sec)
Heartbeat CPU 0 instructions: 45500303 cycles: 13560672 heartbeat IPC: 3.817 cumulative IPC: 3.355 (Simulation time: 00 hr 03 min 56 sec)
Heartbeat CPU 0 instructions: 46000303 cycles: 13701835 heartbeat IPC: 3.542 cumulative IPC: 3.357 (Simulation time: 00 hr 03 min 59 sec)
Heartbeat CPU 0 instructions: 46500310 cycles: 13821752 heartbeat IPC: 4.17 cumulative IPC: 3.364 (Simulation time: 00 hr 04 min 01 sec)
Heartbeat CPU 0 instructions: 47000314 cycles: 13940160 heartbeat IPC: 4.223 cumulative IPC: 3.372 (Simulation time: 00 hr 04 min 03 sec)
Heartbeat CPU 0 instructions: 47500317 cycles: 14099242 heartbeat IPC: 3.143 cumulative IPC: 3.369 (Simulation time: 00 hr 04 min 06 sec)
Heartbeat CPU 0 instructions: 48000320 cycles: 14205946 heartbeat IPC: 4.686 cumulative IPC: 3.379 (Simulation time: 00 hr 04 min 08 sec)
Heartbeat CPU 0 instructions: 48500320 cycles: 14335117 heartbeat IPC: 3.871 cumulative IPC: 3.383 (Simulation time: 00 hr 04 min 10 sec)
Heartbeat CPU 0 instructions: 49000325 cycles: 14461065 heartbeat IPC: 3.97 cumulative IPC: 3.388 (Simulation time: 00 hr 04 min 12 sec)
Heartbeat CPU 0 instructions: 49500325 cycles: 14604749 heartbeat IPC: 3.48 cumulative IPC: 3.389 (Simulation time: 00 hr 04 min 15 sec)
Warmup halting CPU 0 at instruction 50000007 cycle 14746259 for remainder of phase
Warmup finished CPU 0 instructions: 50000007 cycles: 14746259 cumulative IPC: 3.391 (Simulation time: 00 hr 04 min 17 sec)
Warmup complete CPU 0 instructions: 50000007 cycles: 14746259 cumulative IPC: 3.391 (Simulation time: 00 hr 04 min 17 sec)
Heartbeat CPU 0 instructions: 50000328 cycles: 14746611 heartbeat IPC: 3.525 cumulative IPC: 0.9119 (Simulation time: 00 hr 04 min 17 sec)
Heartbeat CPU 0 instructions: 50500333 cycles: 15642375 heartbeat IPC: 0.5582 cumulative IPC: 0.5583 (Simulation time: 00 hr 04 min 23 sec)
Heartbeat CPU 0 instructions: 51000333 cycles: 16627660 heartbeat IPC: 0.5075 cumulative IPC: 0.5317 (Simulation time: 00 hr 04 min 30 sec)
Heartbeat CPU 0 instructions: 51500333 cycles: 18059216 heartbeat IPC: 0.3493 cumulative IPC: 0.4529 (Simulation time: 00 hr 04 min 42 sec)
Heartbeat CPU 0 instructions: 52000337 cycles: 19823731 heartbeat IPC: 0.2834 cumulative IPC: 0.394 (Simulation time: 00 hr 04 min 54 sec)
Heartbeat CPU 0 instructions: 52500342 cycles: 20901346 heartbeat IPC: 0.464 cumulative IPC: 0.4062 (Simulation time: 00 hr 05 min 02 sec)
Heartbeat CPU 0 instructions: 53000342 cycles: 21635578 heartbeat IPC: 0.681 cumulative IPC: 0.4355 (Simulation time: 00 hr 05 min 07 sec)
Heartbeat CPU 0 instructions: 53500347 cycles: 22995708 heartbeat IPC: 0.3676 cumulative IPC: 0.4243 (Simulation time: 00 hr 05 min 16 sec)
Heartbeat CPU 0 instructions: 54000347 cycles: 23455584 heartbeat IPC: 1.087 cumulative IPC: 0.4593 (Simulation time: 00 hr 05 min 20 sec)
Heartbeat CPU 0 instructions: 54500347 cycles: 23729339 heartbeat IPC: 1.826 cumulative IPC: 0.501 (Simulation time: 00 hr 05 min 23 sec)
Heartbeat CPU 0 instructions: 55000347 cycles: 25026493 heartbeat IPC: 0.3855 cumulative IPC: 0.4864 (Simulation time: 00 hr 05 min 32 sec)
Heartbeat CPU 0 instructions: 55500350 cycles: 26007177 heartbeat IPC: 0.5099 cumulative IPC: 0.4884 (Simulation time: 00 hr 05 min 40 sec)
Heartbeat CPU 0 instructions: 56000350 cycles: 28266546 heartbeat IPC: 0.2213 cumulative IPC: 0.4438 (Simulation time: 00 hr 05 min 54 sec)
Heartbeat CPU 0 instructions: 56500353 cycles: 30121877 heartbeat IPC: 0.2695 cumulative IPC: 0.4228 (Simulation time: 00 hr 06 min 06 sec)
Heartbeat CPU 0 instructions: 57000354 cycles: 30975621 heartbeat IPC: 0.5857 cumulative IPC: 0.4313 (Simulation time: 00 hr 06 min 12 sec)
Heartbeat CPU 0 instructions: 57500354 cycles: 33226124 heartbeat IPC: 0.2222 cumulative IPC: 0.4059 (Simulation time: 00 hr 06 min 26 sec)
Heartbeat CPU 0 instructions: 58000354 cycles: 34825694 heartbeat IPC: 0.3126 cumulative IPC: 0.3984 (Simulation time: 00 hr 06 min 37 sec)
Heartbeat CPU 0 instructions: 58500360 cycles: 35654751 heartbeat IPC: 0.6031 cumulative IPC: 0.4066 (Simulation time: 00 hr 06 min 45 sec)
Heartbeat CPU 0 instructions: 59000362 cycles: 36355117 heartbeat IPC: 0.7139 cumulative IPC: 0.4165 (Simulation time: 00 hr 06 min 51 sec)
Heartbeat CPU 0 instructions: 59500362 cycles: 36978575 heartbeat IPC: 0.802 cumulative IPC: 0.4273 (Simulation time: 00 hr 06 min 57 sec)
Heartbeat CPU 0 instructions: 60000366 cycles: 37567896 heartbeat IPC: 0.8484 cumulative IPC: 0.4382 (Simulation time: 00 hr 07 min 03 sec)
Heartbeat CPU 0 instructions: 60500366 cycles: 38122952 heartbeat IPC: 0.9008 cumulative IPC: 0.4492 (Simulation time: 00 hr 07 min 08 sec)
Heartbeat CPU 0 instructions: 61000370 cycles: 38842156 heartbeat IPC: 0.6952 cumulative IPC: 0.4565 (Simulation time: 00 hr 07 min 15 sec)
Heartbeat CPU 0 instructions: 61500371 cycles: 39257187 heartbeat IPC: 1.205 cumulative IPC: 0.4692 (Simulation time: 00 hr 07 min 19 sec)
Heartbeat CPU 0 instructions: 62000378 cycles: 39550725 heartbeat IPC: 1.703 cumulative IPC: 0.4838 (Simulation time: 00 hr 07 min 22 sec)
Heartbeat CPU 0 instructions: 62500380 cycles: 39853176 heartbeat IPC: 1.653 cumulative IPC: 0.4979 (Simulation time: 00 hr 07 min 25 sec)
Heartbeat CPU 0 instructions: 63000380 cycles: 40131332 heartbeat IPC: 1.798 cumulative IPC: 0.5121 (Simulation time: 00 hr 07 min 28 sec)
Heartbeat CPU 0 instructions: 63500382 cycles: 40419159 heartbeat IPC: 1.737 cumulative IPC: 0.5259 (Simulation time: 00 hr 07 min 31 sec)
Heartbeat CPU 0 instructions: 64000382 cycles: 40697226 heartbeat IPC: 1.798 cumulative IPC: 0.5395 (Simulation time: 00 hr 07 min 34 sec)
Heartbeat CPU 0 instructions: 64500388 cycles: 40981938 heartbeat IPC: 1.756 cumulative IPC: 0.5527 (Simulation time: 00 hr 07 min 37 sec)
Heartbeat CPU 0 instructions: 65000391 cycles: 41268424 heartbeat IPC: 1.745 cumulative IPC: 0.5656 (Simulation time: 00 hr 07 min 40 sec)
Heartbeat CPU 0 instructions: 65500392 cycles: 41544800 heartbeat IPC: 1.809 cumulative IPC: 0.5784 (Simulation time: 00 hr 07 min 43 sec)
Heartbeat CPU 0 instructions: 66000394 cycles: 41819880 heartbeat IPC: 1.818 cumulative IPC: 0.591 (Simulation time: 00 hr 07 min 46 sec)
Heartbeat CPU 0 instructions: 66500394 cycles: 42097456 heartbeat IPC: 1.801 cumulative IPC: 0.6033 (Simulation time: 00 hr 07 min 49 sec)
Heartbeat CPU 0 instructions: 67000397 cycles: 42451206 heartbeat IPC: 1.413 cumulative IPC: 0.6136 (Simulation time: 00 hr 07 min 52 sec)
Heartbeat CPU 0 instructions: 67500401 cycles: 43320435 heartbeat IPC: 0.5752 cumulative IPC: 0.6125 (Simulation time: 00 hr 08 min 02 sec)
Heartbeat CPU 0 instructions: 68000403 cycles: 45266038 heartbeat IPC: 0.257 cumulative IPC: 0.5898 (Simulation time: 00 hr 08 min 17 sec)
Heartbeat CPU 0 instructions: 68500403 cycles: 46023321 heartbeat IPC: 0.6603 cumulative IPC: 0.5915 (Simulation time: 00 hr 08 min 24 sec)
Heartbeat CPU 0 instructions: 69000407 cycles: 46458179 heartbeat IPC: 1.15 cumulative IPC: 0.5992 (Simulation time: 00 hr 08 min 28 sec)
Heartbeat CPU 0 instructions: 69500408 cycles: 46645900 heartbeat IPC: 2.664 cumulative IPC: 0.6113 (Simulation time: 00 hr 08 min 31 sec)
Heartbeat CPU 0 instructions: 70000408 cycles: 47239141 heartbeat IPC: 0.8428 cumulative IPC: 0.6155 (Simulation time: 00 hr 08 min 36 sec)
Heartbeat CPU 0 instructions: 70500415 cycles: 47739912 heartbeat IPC: 0.9985 cumulative IPC: 0.6213 (Simulation time: 00 hr 08 min 40 sec)
Heartbeat CPU 0 instructions: 71000415 cycles: 48048444 heartbeat IPC: 1.621 cumulative IPC: 0.6306 (Simulation time: 00 hr 08 min 43 sec)
Heartbeat CPU 0 instructions: 71500416 cycles: 48698442 heartbeat IPC: 0.7692 cumulative IPC: 0.6333 (Simulation time: 00 hr 08 min 49 sec)
Heartbeat CPU 0 instructions: 72000416 cycles: 49641951 heartbeat IPC: 0.5299 cumulative IPC: 0.6305 (Simulation time: 00 hr 08 min 57 sec)
Heartbeat CPU 0 instructions: 72500422 cycles: 50354434 heartbeat IPC: 0.7018 cumulative IPC: 0.6319 (Simulation time: 00 hr 09 min 04 sec)
Heartbeat CPU 0 instructions: 73000426 cycles: 50731368 heartbeat IPC: 1.327 cumulative IPC: 0.6392 (Simulation time: 00 hr 09 min 08 sec)
Heartbeat CPU 0 instructions: 73500431 cycles: 51106957 heartbeat IPC: 1.331 cumulative IPC: 0.6463 (Simulation time: 00 hr 09 min 12 sec)
Heartbeat CPU 0 instructions: 74000434 cycles: 51360517 heartbeat IPC: 1.972 cumulative IPC: 0.6555 (Simulation time: 00 hr 09 min 15 sec)
Heartbeat CPU 0 instructions: 74500434 cycles: 51719055 heartbeat IPC: 1.395 cumulative IPC: 0.6627 (Simulation time: 00 hr 09 min 19 sec)
Heartbeat CPU 0 instructions: 75000435 cycles: 51930880 heartbeat IPC: 2.36 cumulative IPC: 0.6723 (Simulation time: 00 hr 09 min 21 sec)
Heartbeat CPU 0 instructions: 75500435 cycles: 52388206 heartbeat IPC: 1.093 cumulative IPC: 0.6774 (Simulation time: 00 hr 09 min 26 sec)
Heartbeat CPU 0 instructions: 76000436 cycles: 52720568 heartbeat IPC: 1.504 cumulative IPC: 0.6847 (Simulation time: 00 hr 09 min 29 sec)
Heartbeat CPU 0 instructions: 76500441 cycles: 53106900 heartbeat IPC: 1.294 cumulative IPC: 0.6908 (Simulation time: 00 hr 09 min 34 sec)
Heartbeat CPU 0 instructions: 77000444 cycles: 53371678 heartbeat IPC: 1.888 cumulative IPC: 0.699 (Simulation time: 00 hr 09 min 37 sec)
Heartbeat CPU 0 instructions: 77500446 cycles: 54840425 heartbeat IPC: 0.3404 cumulative IPC: 0.6859 (Simulation time: 00 hr 09 min 46 sec)
Heartbeat CPU 0 instructions: 78000450 cycles: 56165539 heartbeat IPC: 0.3773 cumulative IPC: 0.676 (Simulation time: 00 hr 09 min 55 sec)
Heartbeat CPU 0 instructions: 78500454 cycles: 56795864 heartbeat IPC: 0.7932 cumulative IPC: 0.6778 (Simulation time: 00 hr 10 min 00 sec)
Heartbeat CPU 0 instructions: 79000456 cycles: 58628193 heartbeat IPC: 0.2729 cumulative IPC: 0.6609 (Simulation time: 00 hr 10 min 11 sec)
Heartbeat CPU 0 instructions: 79500456 cycles: 60412005 heartbeat IPC: 0.2803 cumulative IPC: 0.646 (Simulation time: 00 hr 10 min 23 sec)
Heartbeat CPU 0 instructions: 80000456 cycles: 62591975 heartbeat IPC: 0.2294 cumulative IPC: 0.627 (Simulation time: 00 hr 10 min 37 sec)
Heartbeat CPU 0 instructions: 80500457 cycles: 64354098 heartbeat IPC: 0.2837 cumulative IPC: 0.6148 (Simulation time: 00 hr 10 min 48 sec)
Heartbeat CPU 0 instructions: 81000462 cycles: 65231825 heartbeat IPC: 0.5697 cumulative IPC: 0.614 (Simulation time: 00 hr 10 min 54 sec)
Heartbeat CPU 0 instructions: 81500462 cycles: 66305327 heartbeat IPC: 0.4658 cumulative IPC: 0.611 (Simulation time: 00 hr 11 min 02 sec)
Heartbeat CPU 0 instructions: 82000463 cycles: 66853265 heartbeat IPC: 0.9125 cumulative IPC: 0.6141 (Simulation time: 00 hr 11 min 06 sec)
Heartbeat CPU 0 instructions: 82500463 cycles: 67575957 heartbeat IPC: 0.6919 cumulative IPC: 0.6152 (Simulation time: 00 hr 11 min 12 sec)
Heartbeat CPU 0 instructions: 83000469 cycles: 69544977 heartbeat IPC: 0.2539 cumulative IPC: 0.6022 (Simulation time: 00 hr 11 min 27 sec)
Heartbeat CPU 0 instructions: 83500469 cycles: 70770626 heartbeat IPC: 0.4079 cumulative IPC: 0.598 (Simulation time: 00 hr 11 min 35 sec)
Heartbeat CPU 0 instructions: 84000474 cycles: 71579859 heartbeat IPC: 0.6179 cumulative IPC: 0.5982 (Simulation time: 00 hr 11 min 41 sec)
Heartbeat CPU 0 instructions: 84500481 cycles: 73221180 heartbeat IPC: 0.3046 cumulative IPC: 0.59 (Simulation time: 00 hr 11 min 52 sec)
Heartbeat CPU 0 instructions: 85000486 cycles: 74872788 heartbeat IPC: 0.3027 cumulative IPC: 0.5821 (Simulation time: 00 hr 12 min 02 sec)
Heartbeat CPU 0 instructions: 85500490 cycles: 76612590 heartbeat IPC: 0.2874 cumulative IPC: 0.5738 (Simulation time: 00 hr 12 min 13 sec)
Heartbeat CPU 0 instructions: 86000492 cycles: 78141255 heartbeat IPC: 0.3271 cumulative IPC: 0.5679 (Simulation time: 00 hr 12 min 24 sec)
Heartbeat CPU 0 instructions: 86500499 cycles: 79695142 heartbeat IPC: 0.3218 cumulative IPC: 0.562 (Simulation time: 00 hr 12 min 34 sec)
Heartbeat CPU 0 instructions: 87000505 cycles: 80877809 heartbeat IPC: 0.4228 cumulative IPC: 0.5595 (Simulation time: 00 hr 12 min 41 sec)
Heartbeat CPU 0 instructions: 87500508 cycles: 82222649 heartbeat IPC: 0.3718 cumulative IPC: 0.5558 (Simulation time: 00 hr 12 min 50 sec)
Heartbeat CPU 0 instructions: 88000508 cycles: 83595193 heartbeat IPC: 0.3643 cumulative IPC: 0.5519 (Simulation time: 00 hr 13 min 00 sec)
Heartbeat CPU 0 instructions: 88500514 cycles: 84814196 heartbeat IPC: 0.4102 cumulative IPC: 0.5495 (Simulation time: 00 hr 13 min 09 sec)
Heartbeat CPU 0 instructions: 89000514 cycles: 86301455 heartbeat IPC: 0.3362 cumulative IPC: 0.545 (Simulation time: 00 hr 13 min 18 sec)
Heartbeat CPU 0 instructions: 89500515 cycles: 88317503 heartbeat IPC: 0.248 cumulative IPC: 0.5369 (Simulation time: 00 hr 13 min 32 sec)
Heartbeat CPU 0 instructions: 90000515 cycles: 89585397 heartbeat IPC: 0.3944 cumulative IPC: 0.5345 (Simulation time: 00 hr 13 min 40 sec)
Heartbeat CPU 0 instructions: 90500519 cycles: 91034215 heartbeat IPC: 0.3451 cumulative IPC: 0.5309 (Simulation time: 00 hr 13 min 49 sec)
Heartbeat CPU 0 instructions: 91000519 cycles: 92633484 heartbeat IPC: 0.3126 cumulative IPC: 0.5264 (Simulation time: 00 hr 14 min 00 sec)
Heartbeat CPU 0 instructions: 91500525 cycles: 93801128 heartbeat IPC: 0.4282 cumulative IPC: 0.525 (Simulation time: 00 hr 14 min 07 sec)
Heartbeat CPU 0 instructions: 92000532 cycles: 95212730 heartbeat IPC: 0.3542 cumulative IPC: 0.522 (Simulation time: 00 hr 14 min 18 sec)
Heartbeat CPU 0 instructions: 92500533 cycles: 96628415 heartbeat IPC: 0.3532 cumulative IPC: 0.519 (Simulation time: 00 hr 14 min 28 sec)
Heartbeat CPU 0 instructions: 93000533 cycles: 98020993 heartbeat IPC: 0.359 cumulative IPC: 0.5164 (Simulation time: 00 hr 14 min 37 sec)
Heartbeat CPU 0 instructions: 93500535 cycles: 99213354 heartbeat IPC: 0.4193 cumulative IPC: 0.515 (Simulation time: 00 hr 14 min 46 sec)
Heartbeat CPU 0 instructions: 94000535 cycles: 101362725 heartbeat IPC: 0.2326 cumulative IPC: 0.508 (Simulation time: 00 hr 14 min 59 sec)
Heartbeat CPU 0 instructions: 94500538 cycles: 103124381 heartbeat IPC: 0.2838 cumulative IPC: 0.5035 (Simulation time: 00 hr 15 min 11 sec)
Heartbeat CPU 0 instructions: 95000538 cycles: 105002197 heartbeat IPC: 0.2663 cumulative IPC: 0.4986 (Simulation time: 00 hr 15 min 23 sec)
Heartbeat CPU 0 instructions: 95500538 cycles: 105819267 heartbeat IPC: 0.6119 cumulative IPC: 0.4996 (Simulation time: 00 hr 15 min 29 sec)
Heartbeat CPU 0 instructions: 96000538 cycles: 106568320 heartbeat IPC: 0.6675 cumulative IPC: 0.501 (Simulation time: 00 hr 15 min 36 sec)
Heartbeat CPU 0 instructions: 96500540 cycles: 108101693 heartbeat IPC: 0.3261 cumulative IPC: 0.4981 (Simulation time: 00 hr 15 min 45 sec)
Heartbeat CPU 0 instructions: 97000547 cycles: 108742977 heartbeat IPC: 0.7797 cumulative IPC: 0.5 (Simulation time: 00 hr 15 min 51 sec)
Heartbeat CPU 0 instructions: 97500549 cycles: 109156089 heartbeat IPC: 1.21 cumulative IPC: 0.5031 (Simulation time: 00 hr 15 min 55 sec)
Heartbeat CPU 0 instructions: 98000549 cycles: 109399193 heartbeat IPC: 2.057 cumulative IPC: 0.5071 (Simulation time: 00 hr 15 min 57 sec)
Heartbeat CPU 0 instructions: 98500552 cycles: 110992228 heartbeat IPC: 0.3139 cumulative IPC: 0.5039 (Simulation time: 00 hr 16 min 07 sec)
Heartbeat CPU 0 instructions: 99000552 cycles: 112252001 heartbeat IPC: 0.3969 cumulative IPC: 0.5025 (Simulation time: 00 hr 16 min 16 sec)
Heartbeat CPU 0 instructions: 99500555 cycles: 113145110 heartbeat IPC: 0.5598 cumulative IPC: 0.5031 (Simulation time: 00 hr 16 min 22 sec)
Heartbeat CPU 0 instructions: 100000555 cycles: 114112575 heartbeat IPC: 0.5168 cumulative IPC: 0.5032 (Simulation time: 00 hr 16 min 29 sec)
Heartbeat CPU 0 instructions: 100500555 cycles: 114817027 heartbeat IPC: 0.7098 cumulative IPC: 0.5046 (Simulation time: 00 hr 16 min 35 sec)
Heartbeat CPU 0 instructions: 101000556 cycles: 116141422 heartbeat IPC: 0.3775 cumulative IPC: 0.503 (Simulation time: 00 hr 16 min 44 sec)
Heartbeat CPU 0 instructions: 101500556 cycles: 117789401 heartbeat IPC: 0.3034 cumulative IPC: 0.4998 (Simulation time: 00 hr 16 min 54 sec)
Heartbeat CPU 0 instructions: 102000556 cycles: 119260465 heartbeat IPC: 0.3399 cumulative IPC: 0.4975 (Simulation time: 00 hr 17 min 04 sec)
Heartbeat CPU 0 instructions: 102500556 cycles: 119817072 heartbeat IPC: 0.8983 cumulative IPC: 0.4997 (Simulation time: 00 hr 17 min 08 sec)
Heartbeat CPU 0 instructions: 103000561 cycles: 122398495 heartbeat IPC: 0.1937 cumulative IPC: 0.4923 (Simulation time: 00 hr 17 min 26 sec)
Heartbeat CPU 0 instructions: 103500567 cycles: 123376854 heartbeat IPC: 0.5111 cumulative IPC: 0.4925 (Simulation time: 00 hr 17 min 33 sec)
Heartbeat CPU 0 instructions: 104000570 cycles: 124220533 heartbeat IPC: 0.5926 cumulative IPC: 0.4933 (Simulation time: 00 hr 17 min 38 sec)
Heartbeat CPU 0 instructions: 104500572 cycles: 126132450 heartbeat IPC: 0.2615 cumulative IPC: 0.4893 (Simulation time: 00 hr 17 min 51 sec)
Heartbeat CPU 0 instructions: 105000578 cycles: 126448388 heartbeat IPC: 1.583 cumulative IPC: 0.4924 (Simulation time: 00 hr 17 min 54 sec)
Heartbeat CPU 0 instructions: 105500578 cycles: 127150819 heartbeat IPC: 0.7118 cumulative IPC: 0.4938 (Simulation time: 00 hr 17 min 59 sec)
Heartbeat CPU 0 instructions: 106000581 cycles: 127934511 heartbeat IPC: 0.638 cumulative IPC: 0.4948 (Simulation time: 00 hr 18 min 04 sec)
Heartbeat CPU 0 instructions: 106500586 cycles: 128821349 heartbeat IPC: 0.5638 cumulative IPC: 0.4953 (Simulation time: 00 hr 18 min 11 sec)
Heartbeat CPU 0 instructions: 107000590 cycles: 130697374 heartbeat IPC: 0.2665 cumulative IPC: 0.4916 (Simulation time: 00 hr 18 min 23 sec)
Heartbeat CPU 0 instructions: 107500597 cycles: 131794290 heartbeat IPC: 0.4558 cumulative IPC: 0.4913 (Simulation time: 00 hr 18 min 31 sec)
Heartbeat CPU 0 instructions: 108000602 cycles: 133041056 heartbeat IPC: 0.401 cumulative IPC: 0.4903 (Simulation time: 00 hr 18 min 39 sec)
Heartbeat CPU 0 instructions: 108500604 cycles: 133925826 heartbeat IPC: 0.5651 cumulative IPC: 0.4909 (Simulation time: 00 hr 18 min 45 sec)
Heartbeat CPU 0 instructions: 109000604 cycles: 135783434 heartbeat IPC: 0.2692 cumulative IPC: 0.4875 (Simulation time: 00 hr 18 min 56 sec)
Heartbeat CPU 0 instructions: 109500604 cycles: 136844375 heartbeat IPC: 0.4713 cumulative IPC: 0.4873 (Simulation time: 00 hr 19 min 04 sec)
Heartbeat CPU 0 instructions: 110000611 cycles: 138049648 heartbeat IPC: 0.4148 cumulative IPC: 0.4866 (Simulation time: 00 hr 19 min 11 sec)
Heartbeat CPU 0 instructions: 110500614 cycles: 138976766 heartbeat IPC: 0.5393 cumulative IPC: 0.487 (Simulation time: 00 hr 19 min 18 sec)
Heartbeat CPU 0 instructions: 111000615 cycles: 140272191 heartbeat IPC: 0.386 cumulative IPC: 0.486 (Simulation time: 00 hr 19 min 26 sec)
Heartbeat CPU 0 instructions: 111500618 cycles: 141718183 heartbeat IPC: 0.3458 cumulative IPC: 0.4844 (Simulation time: 00 hr 19 min 37 sec)
Heartbeat CPU 0 instructions: 112000618 cycles: 143167215 heartbeat IPC: 0.3451 cumulative IPC: 0.4828 (Simulation time: 00 hr 19 min 46 sec)
Heartbeat CPU 0 instructions: 112500625 cycles: 144609942 heartbeat IPC: 0.3466 cumulative IPC: 0.4813 (Simulation time: 00 hr 19 min 56 sec)
Heartbeat CPU 0 instructions: 113000631 cycles: 144892173 heartbeat IPC: 1.772 cumulative IPC: 0.4841 (Simulation time: 00 hr 19 min 59 sec)
Heartbeat CPU 0 instructions: 113500637 cycles: 146702816 heartbeat IPC: 0.2761 cumulative IPC: 0.4812 (Simulation time: 00 hr 20 min 10 sec)
Heartbeat CPU 0 instructions: 114000637 cycles: 148415799 heartbeat IPC: 0.2919 cumulative IPC: 0.4788 (Simulation time: 00 hr 20 min 21 sec)
Heartbeat CPU 0 instructions: 114500642 cycles: 149618451 heartbeat IPC: 0.4158 cumulative IPC: 0.4782 (Simulation time: 00 hr 20 min 29 sec)
Heartbeat CPU 0 instructions: 115000642 cycles: 150968066 heartbeat IPC: 0.3705 cumulative IPC: 0.4772 (Simulation time: 00 hr 20 min 38 sec)
Heartbeat CPU 0 instructions: 115500642 cycles: 152440334 heartbeat IPC: 0.3396 cumulative IPC: 0.4757 (Simulation time: 00 hr 20 min 48 sec)
Heartbeat CPU 0 instructions: 116000643 cycles: 153291990 heartbeat IPC: 0.5871 cumulative IPC: 0.4764 (Simulation time: 00 hr 20 min 54 sec)
Heartbeat CPU 0 instructions: 116500644 cycles: 154474745 heartbeat IPC: 0.4227 cumulative IPC: 0.4759 (Simulation time: 00 hr 21 min 03 sec)
Heartbeat CPU 0 instructions: 117000649 cycles: 154935626 heartbeat IPC: 1.085 cumulative IPC: 0.4779 (Simulation time: 00 hr 21 min 07 sec)
Heartbeat CPU 0 instructions: 117500649 cycles: 156371392 heartbeat IPC: 0.3482 cumulative IPC: 0.4766 (Simulation time: 00 hr 21 min 17 sec)
Heartbeat CPU 0 instructions: 118000649 cycles: 158151882 heartbeat IPC: 0.2808 cumulative IPC: 0.4742 (Simulation time: 00 hr 21 min 29 sec)
Heartbeat CPU 0 instructions: 118500649 cycles: 160088229 heartbeat IPC: 0.2582 cumulative IPC: 0.4713 (Simulation time: 00 hr 21 min 40 sec)
Heartbeat CPU 0 instructions: 119000651 cycles: 161536587 heartbeat IPC: 0.3452 cumulative IPC: 0.4701 (Simulation time: 00 hr 21 min 50 sec)
Heartbeat CPU 0 instructions: 119500655 cycles: 162686576 heartbeat IPC: 0.4348 cumulative IPC: 0.4698 (Simulation time: 00 hr 21 min 58 sec)
Heartbeat CPU 0 instructions: 120000655 cycles: 163474720 heartbeat IPC: 0.6344 cumulative IPC: 0.4707 (Simulation time: 00 hr 22 min 03 sec)
Heartbeat CPU 0 instructions: 120500656 cycles: 164880921 heartbeat IPC: 0.3556 cumulative IPC: 0.4696 (Simulation time: 00 hr 22 min 13 sec)
Heartbeat CPU 0 instructions: 121000661 cycles: 166290861 heartbeat IPC: 0.3546 cumulative IPC: 0.4685 (Simulation time: 00 hr 22 min 22 sec)
Heartbeat CPU 0 instructions: 121500668 cycles: 166779512 heartbeat IPC: 1.023 cumulative IPC: 0.4703 (Simulation time: 00 hr 22 min 26 sec)
Heartbeat CPU 0 instructions: 122000674 cycles: 167585475 heartbeat IPC: 0.6204 cumulative IPC: 0.4711 (Simulation time: 00 hr 22 min 32 sec)
Heartbeat CPU 0 instructions: 122500675 cycles: 168134161 heartbeat IPC: 0.9113 cumulative IPC: 0.4727 (Simulation time: 00 hr 22 min 37 sec)
Heartbeat CPU 0 instructions: 123000676 cycles: 168858893 heartbeat IPC: 0.6899 cumulative IPC: 0.4737 (Simulation time: 00 hr 22 min 43 sec)
Heartbeat CPU 0 instructions: 123500677 cycles: 170901783 heartbeat IPC: 0.2448 cumulative IPC: 0.4707 (Simulation time: 00 hr 22 min 57 sec)
Heartbeat CPU 0 instructions: 124000677 cycles: 172060269 heartbeat IPC: 0.4316 cumulative IPC: 0.4704 (Simulation time: 00 hr 23 min 06 sec)
Heartbeat CPU 0 instructions: 124500678 cycles: 173272090 heartbeat IPC: 0.4126 cumulative IPC: 0.47 (Simulation time: 00 hr 23 min 15 sec)
Heartbeat CPU 0 instructions: 125000682 cycles: 174489094 heartbeat IPC: 0.4108 cumulative IPC: 0.4695 (Simulation time: 00 hr 23 min 27 sec)
Heartbeat CPU 0 instructions: 125500687 cycles: 175577449 heartbeat IPC: 0.4594 cumulative IPC: 0.4694 (Simulation time: 00 hr 23 min 37 sec)
Heartbeat CPU 0 instructions: 126000694 cycles: 176420842 heartbeat IPC: 0.5929 cumulative IPC: 0.4701 (Simulation time: 00 hr 23 min 44 sec)
Heartbeat CPU 0 instructions: 126500695 cycles: 177267144 heartbeat IPC: 0.5908 cumulative IPC: 0.4707 (Simulation time: 00 hr 23 min 52 sec)
Heartbeat CPU 0 instructions: 127000697 cycles: 178118366 heartbeat IPC: 0.5874 cumulative IPC: 0.4713 (Simulation time: 00 hr 23 min 59 sec)
Heartbeat CPU 0 instructions: 127500702 cycles: 178959254 heartbeat IPC: 0.5946 cumulative IPC: 0.472 (Simulation time: 00 hr 24 min 06 sec)
Heartbeat CPU 0 instructions: 128000707 cycles: 179860185 heartbeat IPC: 0.555 cumulative IPC: 0.4724 (Simulation time: 00 hr 24 min 14 sec)
Heartbeat CPU 0 instructions: 128500710 cycles: 181094744 heartbeat IPC: 0.405 cumulative IPC: 0.4719 (Simulation time: 00 hr 24 min 28 sec)
Heartbeat CPU 0 instructions: 129000710 cycles: 182359947 heartbeat IPC: 0.3952 cumulative IPC: 0.4713 (Simulation time: 00 hr 24 min 39 sec)
Heartbeat CPU 0 instructions: 129500714 cycles: 184556180 heartbeat IPC: 0.2277 cumulative IPC: 0.4682 (Simulation time: 00 hr 24 min 53 sec)
Heartbeat CPU 0 instructions: 130000714 cycles: 186249369 heartbeat IPC: 0.2953 cumulative IPC: 0.4665 (Simulation time: 00 hr 25 min 04 sec)
Heartbeat CPU 0 instructions: 130500719 cycles: 188569624 heartbeat IPC: 0.2155 cumulative IPC: 0.4631 (Simulation time: 00 hr 25 min 18 sec)
Heartbeat CPU 0 instructions: 131000720 cycles: 190143176 heartbeat IPC: 0.3178 cumulative IPC: 0.4618 (Simulation time: 00 hr 25 min 28 sec)
Heartbeat CPU 0 instructions: 131500726 cycles: 191623129 heartbeat IPC: 0.3379 cumulative IPC: 0.4608 (Simulation time: 00 hr 25 min 37 sec)
Heartbeat CPU 0 instructions: 132000729 cycles: 192277477 heartbeat IPC: 0.7641 cumulative IPC: 0.4619 (Simulation time: 00 hr 25 min 42 sec)
Heartbeat CPU 0 instructions: 132500729 cycles: 193000181 heartbeat IPC: 0.6918 cumulative IPC: 0.4628 (Simulation time: 00 hr 25 min 48 sec)
Heartbeat CPU 0 instructions: 133000731 cycles: 193603723 heartbeat IPC: 0.8284 cumulative IPC: 0.4641 (Simulation time: 00 hr 25 min 53 sec)
Heartbeat CPU 0 instructions: 133500735 cycles: 195206157 heartbeat IPC: 0.312 cumulative IPC: 0.4627 (Simulation time: 00 hr 26 min 04 sec)
Heartbeat CPU 0 instructions: 134000736 cycles: 197269261 heartbeat IPC: 0.2424 cumulative IPC: 0.4602 (Simulation time: 00 hr 26 min 17 sec)
Heartbeat CPU 0 instructions: 134500742 cycles: 198441235 heartbeat IPC: 0.4266 cumulative IPC: 0.46 (Simulation time: 00 hr 26 min 25 sec)
Heartbeat CPU 0 instructions: 135000746 cycles: 199870429 heartbeat IPC: 0.3499 cumulative IPC: 0.4592 (Simulation time: 00 hr 26 min 35 sec)
Heartbeat CPU 0 instructions: 135500751 cycles: 202493558 heartbeat IPC: 0.1906 cumulative IPC: 0.4554 (Simulation time: 00 hr 26 min 49 sec)
Heartbeat CPU 0 instructions: 136000756 cycles: 203573055 heartbeat IPC: 0.4632 cumulative IPC: 0.4554 (Simulation time: 00 hr 26 min 57 sec)
Heartbeat CPU 0 instructions: 136500756 cycles: 204274164 heartbeat IPC: 0.7132 cumulative IPC: 0.4564 (Simulation time: 00 hr 27 min 02 sec)
Heartbeat CPU 0 instructions: 137000756 cycles: 206527900 heartbeat IPC: 0.2219 cumulative IPC: 0.4536 (Simulation time: 00 hr 27 min 15 sec)
Heartbeat CPU 0 instructions: 137500757 cycles: 208432557 heartbeat IPC: 0.2625 cumulative IPC: 0.4518 (Simulation time: 00 hr 27 min 27 sec)
Heartbeat CPU 0 instructions: 138000758 cycles: 209161277 heartbeat IPC: 0.6861 cumulative IPC: 0.4526 (Simulation time: 00 hr 27 min 32 sec)
Heartbeat CPU 0 instructions: 138500765 cycles: 209390982 heartbeat IPC: 2.177 cumulative IPC: 0.4547 (Simulation time: 00 hr 27 min 35 sec)
Heartbeat CPU 0 instructions: 139000766 cycles: 209797775 heartbeat IPC: 1.229 cumulative IPC: 0.4563 (Simulation time: 00 hr 27 min 38 sec)
Heartbeat CPU 0 instructions: 139500766 cycles: 210114554 heartbeat IPC: 1.578 cumulative IPC: 0.4581 (Simulation time: 00 hr 27 min 41 sec)
Heartbeat CPU 0 instructions: 140000767 cycles: 211456548 heartbeat IPC: 0.3726 cumulative IPC: 0.4575 (Simulation time: 00 hr 27 min 50 sec)
Heartbeat CPU 0 instructions: 140500767 cycles: 212443744 heartbeat IPC: 0.5065 cumulative IPC: 0.4578 (Simulation time: 00 hr 27 min 58 sec)
Heartbeat CPU 0 instructions: 141000768 cycles: 213311470 heartbeat IPC: 0.5762 cumulative IPC: 0.4583 (Simulation time: 00 hr 28 min 04 sec)
Heartbeat CPU 0 instructions: 141500775 cycles: 215669604 heartbeat IPC: 0.212 cumulative IPC: 0.4554 (Simulation time: 00 hr 28 min 19 sec)
Heartbeat CPU 0 instructions: 142000775 cycles: 216966948 heartbeat IPC: 0.3854 cumulative IPC: 0.455 (Simulation time: 00 hr 28 min 28 sec)
Heartbeat CPU 0 instructions: 142500775 cycles: 218100279 heartbeat IPC: 0.4412 cumulative IPC: 0.4549 (Simulation time: 00 hr 28 min 35 sec)
Heartbeat CPU 0 instructions: 143000778 cycles: 219260758 heartbeat IPC: 0.4309 cumulative IPC: 0.4547 (Simulation time: 00 hr 28 min 43 sec)
Heartbeat CPU 0 instructions: 143500784 cycles: 220543650 heartbeat IPC: 0.3897 cumulative IPC: 0.4543 (Simulation time: 00 hr 28 min 51 sec)
Heartbeat CPU 0 instructions: 144000785 cycles: 222021569 heartbeat IPC: 0.3383 cumulative IPC: 0.4535 (Simulation time: 00 hr 29 min 01 sec)
Heartbeat CPU 0 instructions: 144500786 cycles: 223755869 heartbeat IPC: 0.2883 cumulative IPC: 0.4521 (Simulation time: 00 hr 29 min 12 sec)
Heartbeat CPU 0 instructions: 145000790 cycles: 224652245 heartbeat IPC: 0.5578 cumulative IPC: 0.4526 (Simulation time: 00 hr 29 min 18 sec)
Heartbeat CPU 0 instructions: 145500790 cycles: 226768066 heartbeat IPC: 0.2363 cumulative IPC: 0.4504 (Simulation time: 00 hr 29 min 31 sec)
Heartbeat CPU 0 instructions: 146000796 cycles: 227867668 heartbeat IPC: 0.4547 cumulative IPC: 0.4505 (Simulation time: 00 hr 29 min 38 sec)
Heartbeat CPU 0 instructions: 146500802 cycles: 228190772 heartbeat IPC: 1.548 cumulative IPC: 0.4521 (Simulation time: 00 hr 29 min 41 sec)
Heartbeat CPU 0 instructions: 147000803 cycles: 228697367 heartbeat IPC: 0.987 cumulative IPC: 0.4534 (Simulation time: 00 hr 29 min 45 sec)
Heartbeat CPU 0 instructions: 147500806 cycles: 228923174 heartbeat IPC: 2.214 cumulative IPC: 0.4552 (Simulation time: 00 hr 29 min 48 sec)
Heartbeat CPU 0 instructions: 148000812 cycles: 229400114 heartbeat IPC: 1.048 cumulative IPC: 0.4566 (Simulation time: 00 hr 29 min 51 sec)
Heartbeat CPU 0 instructions: 148500816 cycles: 231489325 heartbeat IPC: 0.2393 cumulative IPC: 0.4545 (Simulation time: 00 hr 30 min 04 sec)
Heartbeat CPU 0 instructions: 149000820 cycles: 234364612 heartbeat IPC: 0.1739 cumulative IPC: 0.4508 (Simulation time: 00 hr 30 min 23 sec)
Heartbeat CPU 0 instructions: 149500821 cycles: 235158240 heartbeat IPC: 0.63 cumulative IPC: 0.4514 (Simulation time: 00 hr 30 min 29 sec)
Heartbeat CPU 0 instructions: 150000822 cycles: 235562096 heartbeat IPC: 1.238 cumulative IPC: 0.4529 (Simulation time: 00 hr 30 min 33 sec)
Heartbeat CPU 0 instructions: 150500822 cycles: 236862976 heartbeat IPC: 0.3844 cumulative IPC: 0.4525 (Simulation time: 00 hr 30 min 41 sec)
Heartbeat CPU 0 instructions: 151000825 cycles: 238127027 heartbeat IPC: 0.3956 cumulative IPC: 0.4521 (Simulation time: 00 hr 30 min 49 sec)
Heartbeat CPU 0 instructions: 151500829 cycles: 239033641 heartbeat IPC: 0.5515 cumulative IPC: 0.4525 (Simulation time: 00 hr 30 min 55 sec)
Heartbeat CPU 0 instructions: 152000830 cycles: 239755509 heartbeat IPC: 0.6926 cumulative IPC: 0.4533 (Simulation time: 00 hr 31 min 00 sec)
Heartbeat CPU 0 instructions: 152500831 cycles: 241233254 heartbeat IPC: 0.3384 cumulative IPC: 0.4526 (Simulation time: 00 hr 31 min 10 sec)
Heartbeat CPU 0 instructions: 153000831 cycles: 241946228 heartbeat IPC: 0.7013 cumulative IPC: 0.4533 (Simulation time: 00 hr 31 min 15 sec)
Heartbeat CPU 0 instructions: 153500835 cycles: 243274898 heartbeat IPC: 0.3763 cumulative IPC: 0.4529 (Simulation time: 00 hr 31 min 25 sec)
Heartbeat CPU 0 instructions: 154000842 cycles: 244550356 heartbeat IPC: 0.392 cumulative IPC: 0.4526 (Simulation time: 00 hr 31 min 33 sec)
Heartbeat CPU 0 instructions: 154500842 cycles: 245603078 heartbeat IPC: 0.475 cumulative IPC: 0.4527 (Simulation time: 00 hr 31 min 40 sec)
Heartbeat CPU 0 instructions: 155000844 cycles: 247900780 heartbeat IPC: 0.2176 cumulative IPC: 0.4503 (Simulation time: 00 hr 31 min 54 sec)
Heartbeat CPU 0 instructions: 155500845 cycles: 249439751 heartbeat IPC: 0.3249 cumulative IPC: 0.4495 (Simulation time: 00 hr 32 min 04 sec)
Heartbeat CPU 0 instructions: 156000846 cycles: 251113385 heartbeat IPC: 0.2988 cumulative IPC: 0.4485 (Simulation time: 00 hr 32 min 14 sec)
Heartbeat CPU 0 instructions: 156500847 cycles: 252459247 heartbeat IPC: 0.3715 cumulative IPC: 0.448 (Simulation time: 00 hr 32 min 22 sec)
Heartbeat CPU 0 instructions: 157000847 cycles: 253819939 heartbeat IPC: 0.3675 cumulative IPC: 0.4476 (Simulation time: 00 hr 32 min 31 sec)
Heartbeat CPU 0 instructions: 157500848 cycles: 255388334 heartbeat IPC: 0.3188 cumulative IPC: 0.4467 (Simulation time: 00 hr 32 min 40 sec)
Heartbeat CPU 0 instructions: 158000851 cycles: 256267633 heartbeat IPC: 0.5686 cumulative IPC: 0.4472 (Simulation time: 00 hr 32 min 46 sec)
Heartbeat CPU 0 instructions: 158500852 cycles: 257325271 heartbeat IPC: 0.4728 cumulative IPC: 0.4473 (Simulation time: 00 hr 32 min 53 sec)
Heartbeat CPU 0 instructions: 159000856 cycles: 258426519 heartbeat IPC: 0.454 cumulative IPC: 0.4473 (Simulation time: 00 hr 33 min 00 sec)
Heartbeat CPU 0 instructions: 159500857 cycles: 259906876 heartbeat IPC: 0.3378 cumulative IPC: 0.4466 (Simulation time: 00 hr 33 min 09 sec)
Heartbeat CPU 0 instructions: 160000859 cycles: 260870195 heartbeat IPC: 0.519 cumulative IPC: 0.4469 (Simulation time: 00 hr 33 min 15 sec)
Heartbeat CPU 0 instructions: 160500859 cycles: 262070413 heartbeat IPC: 0.4166 cumulative IPC: 0.4468 (Simulation time: 00 hr 33 min 23 sec)
Heartbeat CPU 0 instructions: 161000859 cycles: 262557502 heartbeat IPC: 1.027 cumulative IPC: 0.4479 (Simulation time: 00 hr 33 min 26 sec)
Heartbeat CPU 0 instructions: 161500859 cycles: 264011785 heartbeat IPC: 0.3438 cumulative IPC: 0.4473 (Simulation time: 00 hr 33 min 35 sec)
Heartbeat CPU 0 instructions: 162000859 cycles: 265805271 heartbeat IPC: 0.2788 cumulative IPC: 0.4461 (Simulation time: 00 hr 33 min 46 sec)
Heartbeat CPU 0 instructions: 162500859 cycles: 267627952 heartbeat IPC: 0.2743 cumulative IPC: 0.4449 (Simulation time: 00 hr 33 min 58 sec)
Heartbeat CPU 0 instructions: 163000864 cycles: 269348143 heartbeat IPC: 0.2907 cumulative IPC: 0.4438 (Simulation time: 00 hr 34 min 08 sec)
Heartbeat CPU 0 instructions: 163500864 cycles: 270322529 heartbeat IPC: 0.5131 cumulative IPC: 0.4441 (Simulation time: 00 hr 34 min 15 sec)
Heartbeat CPU 0 instructions: 164000866 cycles: 271490331 heartbeat IPC: 0.4282 cumulative IPC: 0.444 (Simulation time: 00 hr 34 min 22 sec)
Heartbeat CPU 0 instructions: 164500866 cycles: 273599801 heartbeat IPC: 0.237 cumulative IPC: 0.4423 (Simulation time: 00 hr 34 min 35 sec)
Heartbeat CPU 0 instructions: 165000866 cycles: 274505959 heartbeat IPC: 0.5518 cumulative IPC: 0.4427 (Simulation time: 00 hr 34 min 41 sec)
Heartbeat CPU 0 instructions: 165500866 cycles: 276078238 heartbeat IPC: 0.318 cumulative IPC: 0.442 (Simulation time: 00 hr 34 min 50 sec)
Heartbeat CPU 0 instructions: 166000868 cycles: 277367197 heartbeat IPC: 0.3879 cumulative IPC: 0.4417 (Simulation time: 00 hr 34 min 58 sec)
Heartbeat CPU 0 instructions: 166500868 cycles: 278691916 heartbeat IPC: 0.3774 cumulative IPC: 0.4414 (Simulation time: 00 hr 35 min 06 sec)
Heartbeat CPU 0 instructions: 167000872 cycles: 279287087 heartbeat IPC: 0.8401 cumulative IPC: 0.4423 (Simulation time: 00 hr 35 min 11 sec)
Heartbeat CPU 0 instructions: 167500872 cycles: 279939195 heartbeat IPC: 0.7667 cumulative IPC: 0.4431 (Simulation time: 00 hr 35 min 16 sec)
Heartbeat CPU 0 instructions: 168000876 cycles: 280267458 heartbeat IPC: 1.523 cumulative IPC: 0.4444 (Simulation time: 00 hr 35 min 19 sec)
Heartbeat CPU 0 instructions: 168500876 cycles: 281352193 heartbeat IPC: 0.4609 cumulative IPC: 0.4445 (Simulation time: 00 hr 35 min 26 sec)
Heartbeat CPU 0 instructions: 169000876 cycles: 282504203 heartbeat IPC: 0.434 cumulative IPC: 0.4444 (Simulation time: 00 hr 35 min 33 sec)
Heartbeat CPU 0 instructions: 169500881 cycles: 283744410 heartbeat IPC: 0.4032 cumulative IPC: 0.4442 (Simulation time: 00 hr 35 min 41 sec)
Heartbeat CPU 0 instructions: 170000883 cycles: 284821424 heartbeat IPC: 0.4642 cumulative IPC: 0.4443 (Simulation time: 00 hr 35 min 48 sec)
Heartbeat CPU 0 instructions: 170500884 cycles: 285641416 heartbeat IPC: 0.6098 cumulative IPC: 0.4448 (Simulation time: 00 hr 35 min 53 sec)
Heartbeat CPU 0 instructions: 171000885 cycles: 286794902 heartbeat IPC: 0.4335 cumulative IPC: 0.4448 (Simulation time: 00 hr 36 min 00 sec)
Heartbeat CPU 0 instructions: 171500892 cycles: 288134673 heartbeat IPC: 0.3732 cumulative IPC: 0.4444 (Simulation time: 00 hr 36 min 08 sec)
Heartbeat CPU 0 instructions: 172000895 cycles: 289586447 heartbeat IPC: 0.3444 cumulative IPC: 0.4439 (Simulation time: 00 hr 36 min 17 sec)
Heartbeat CPU 0 instructions: 172500896 cycles: 290852417 heartbeat IPC: 0.395 cumulative IPC: 0.4437 (Simulation time: 00 hr 36 min 24 sec)
Heartbeat CPU 0 instructions: 173000896 cycles: 292274691 heartbeat IPC: 0.3515 cumulative IPC: 0.4432 (Simulation time: 00 hr 36 min 33 sec)
Heartbeat CPU 0 instructions: 173500903 cycles: 293196172 heartbeat IPC: 0.5426 cumulative IPC: 0.4435 (Simulation time: 00 hr 36 min 39 sec)
Heartbeat CPU 0 instructions: 174000904 cycles: 294106565 heartbeat IPC: 0.5492 cumulative IPC: 0.4439 (Simulation time: 00 hr 36 min 45 sec)
Heartbeat CPU 0 instructions: 174500905 cycles: 296425899 heartbeat IPC: 0.2156 cumulative IPC: 0.442 (Simulation time: 00 hr 36 min 58 sec)
Heartbeat CPU 0 instructions: 175000907 cycles: 297942145 heartbeat IPC: 0.3298 cumulative IPC: 0.4414 (Simulation time: 00 hr 37 min 08 sec)
Heartbeat CPU 0 instructions: 175500909 cycles: 298883194 heartbeat IPC: 0.5313 cumulative IPC: 0.4417 (Simulation time: 00 hr 37 min 14 sec)
Heartbeat CPU 0 instructions: 176000909 cycles: 300140822 heartbeat IPC: 0.3976 cumulative IPC: 0.4415 (Simulation time: 00 hr 37 min 21 sec)
Heartbeat CPU 0 instructions: 176500909 cycles: 301523654 heartbeat IPC: 0.3616 cumulative IPC: 0.4411 (Simulation time: 00 hr 37 min 30 sec)
Heartbeat CPU 0 instructions: 177000909 cycles: 303244334 heartbeat IPC: 0.2906 cumulative IPC: 0.4402 (Simulation time: 00 hr 37 min 40 sec)
Heartbeat CPU 0 instructions: 177500911 cycles: 305019813 heartbeat IPC: 0.2816 cumulative IPC: 0.4392 (Simulation time: 00 hr 37 min 52 sec)
Heartbeat CPU 0 instructions: 178000912 cycles: 306345490 heartbeat IPC: 0.3772 cumulative IPC: 0.439 (Simulation time: 00 hr 38 min 00 sec)
Heartbeat CPU 0 instructions: 178500913 cycles: 307255948 heartbeat IPC: 0.5492 cumulative IPC: 0.4393 (Simulation time: 00 hr 38 min 06 sec)
Heartbeat CPU 0 instructions: 179000913 cycles: 307707472 heartbeat IPC: 1.107 cumulative IPC: 0.4403 (Simulation time: 00 hr 38 min 09 sec)
Heartbeat CPU 0 instructions: 179500914 cycles: 308117014 heartbeat IPC: 1.221 cumulative IPC: 0.4414 (Simulation time: 00 hr 38 min 13 sec)
Heartbeat CPU 0 instructions: 180000914 cycles: 308718874 heartbeat IPC: 0.8308 cumulative IPC: 0.4422 (Simulation time: 00 hr 38 min 17 sec)
Heartbeat CPU 0 instructions: 180500920 cycles: 309369103 heartbeat IPC: 0.769 cumulative IPC: 0.4429 (Simulation time: 00 hr 38 min 23 sec)
Heartbeat CPU 0 instructions: 181000925 cycles: 309771315 heartbeat IPC: 1.243 cumulative IPC: 0.444 (Simulation time: 00 hr 38 min 27 sec)
Heartbeat CPU 0 instructions: 181500926 cycles: 311697955 heartbeat IPC: 0.2595 cumulative IPC: 0.4428 (Simulation time: 00 hr 38 min 39 sec)
Heartbeat CPU 0 instructions: 182000930 cycles: 313864870 heartbeat IPC: 0.2307 cumulative IPC: 0.4413 (Simulation time: 00 hr 38 min 51 sec)
Heartbeat CPU 0 instructions: 182500930 cycles: 315052582 heartbeat IPC: 0.421 cumulative IPC: 0.4412 (Simulation time: 00 hr 38 min 59 sec)
Heartbeat CPU 0 instructions: 183000933 cycles: 316946043 heartbeat IPC: 0.2641 cumulative IPC: 0.4401 (Simulation time: 00 hr 39 min 10 sec)
Heartbeat CPU 0 instructions: 183500936 cycles: 317875770 heartbeat IPC: 0.5378 cumulative IPC: 0.4404 (Simulation time: 00 hr 39 min 16 sec)
Heartbeat CPU 0 instructions: 184000942 cycles: 319279335 heartbeat IPC: 0.3562 cumulative IPC: 0.44 (Simulation time: 00 hr 39 min 25 sec)
Heartbeat CPU 0 instructions: 184500943 cycles: 320817412 heartbeat IPC: 0.3251 cumulative IPC: 0.4394 (Simulation time: 00 hr 39 min 34 sec)
Heartbeat CPU 0 instructions: 185000948 cycles: 322427735 heartbeat IPC: 0.3105 cumulative IPC: 0.4388 (Simulation time: 00 hr 39 min 43 sec)
Heartbeat CPU 0 instructions: 185500950 cycles: 323190281 heartbeat IPC: 0.6557 cumulative IPC: 0.4393 (Simulation time: 00 hr 39 min 48 sec)
Heartbeat CPU 0 instructions: 186000956 cycles: 324342057 heartbeat IPC: 0.4341 cumulative IPC: 0.4393 (Simulation time: 00 hr 39 min 55 sec)
Heartbeat CPU 0 instructions: 186500956 cycles: 325448357 heartbeat IPC: 0.452 cumulative IPC: 0.4393 (Simulation time: 00 hr 40 min 02 sec)
Heartbeat CPU 0 instructions: 187000956 cycles: 326373656 heartbeat IPC: 0.5404 cumulative IPC: 0.4396 (Simulation time: 00 hr 40 min 08 sec)
Heartbeat CPU 0 instructions: 187500958 cycles: 326768744 heartbeat IPC: 1.266 cumulative IPC: 0.4407 (Simulation time: 00 hr 40 min 12 sec)
Heartbeat CPU 0 instructions: 188000959 cycles: 326956809 heartbeat IPC: 2.659 cumulative IPC: 0.442 (Simulation time: 00 hr 40 min 14 sec)
Heartbeat CPU 0 instructions: 188500964 cycles: 327524486 heartbeat IPC: 0.8808 cumulative IPC: 0.4428 (Simulation time: 00 hr 40 min 18 sec)
Heartbeat CPU 0 instructions: 189000968 cycles: 327818830 heartbeat IPC: 1.699 cumulative IPC: 0.444 (Simulation time: 00 hr 40 min 20 sec)
Heartbeat CPU 0 instructions: 189500971 cycles: 329441148 heartbeat IPC: 0.3082 cumulative IPC: 0.4433 (Simulation time: 00 hr 40 min 29 sec)
Heartbeat CPU 0 instructions: 190000971 cycles: 331247716 heartbeat IPC: 0.2768 cumulative IPC: 0.4423 (Simulation time: 00 hr 40 min 40 sec)
Heartbeat CPU 0 instructions: 190500978 cycles: 332211909 heartbeat IPC: 0.5186 cumulative IPC: 0.4426 (Simulation time: 00 hr 40 min 46 sec)
Heartbeat CPU 0 instructions: 191000980 cycles: 332730238 heartbeat IPC: 0.9646 cumulative IPC: 0.4434 (Simulation time: 00 hr 40 min 50 sec)
Heartbeat CPU 0 instructions: 191500983 cycles: 334150969 heartbeat IPC: 0.3519 cumulative IPC: 0.443 (Simulation time: 00 hr 40 min 58 sec)
Heartbeat CPU 0 instructions: 192000983 cycles: 334951834 heartbeat IPC: 0.6243 cumulative IPC: 0.4435 (Simulation time: 00 hr 41 min 04 sec)
Heartbeat CPU 0 instructions: 192500983 cycles: 335891003 heartbeat IPC: 0.5324 cumulative IPC: 0.4437 (Simulation time: 00 hr 41 min 10 sec)
Heartbeat CPU 0 instructions: 193000983 cycles: 337658009 heartbeat IPC: 0.283 cumulative IPC: 0.4428 (Simulation time: 00 hr 41 min 20 sec)
Heartbeat CPU 0 instructions: 193500983 cycles: 339182497 heartbeat IPC: 0.328 cumulative IPC: 0.4423 (Simulation time: 00 hr 41 min 29 sec)
Heartbeat CPU 0 instructions: 194000984 cycles: 341359625 heartbeat IPC: 0.2297 cumulative IPC: 0.4409 (Simulation time: 00 hr 41 min 41 sec)
Heartbeat CPU 0 instructions: 194500985 cycles: 342961279 heartbeat IPC: 0.3122 cumulative IPC: 0.4403 (Simulation time: 00 hr 41 min 50 sec)
Heartbeat CPU 0 instructions: 195000991 cycles: 344301471 heartbeat IPC: 0.3731 cumulative IPC: 0.44 (Simulation time: 00 hr 41 min 58 sec)
Heartbeat CPU 0 instructions: 195500992 cycles: 344663950 heartbeat IPC: 1.379 cumulative IPC: 0.441 (Simulation time: 00 hr 42 min 01 sec)
Heartbeat CPU 0 instructions: 196000998 cycles: 345023162 heartbeat IPC: 1.392 cumulative IPC: 0.4421 (Simulation time: 00 hr 42 min 04 sec)
Heartbeat CPU 0 instructions: 196500999 cycles: 345381350 heartbeat IPC: 1.396 cumulative IPC: 0.4431 (Simulation time: 00 hr 42 min 07 sec)
Heartbeat CPU 0 instructions: 197001003 cycles: 345700681 heartbeat IPC: 1.566 cumulative IPC: 0.4442 (Simulation time: 00 hr 42 min 10 sec)
Heartbeat CPU 0 instructions: 197501009 cycles: 346021785 heartbeat IPC: 1.557 cumulative IPC: 0.4453 (Simulation time: 00 hr 42 min 12 sec)
Heartbeat CPU 0 instructions: 198001009 cycles: 346340949 heartbeat IPC: 1.567 cumulative IPC: 0.4463 (Simulation time: 00 hr 42 min 15 sec)
Heartbeat CPU 0 instructions: 198501015 cycles: 346661049 heartbeat IPC: 1.562 cumulative IPC: 0.4474 (Simulation time: 00 hr 42 min 18 sec)
Heartbeat CPU 0 instructions: 199001015 cycles: 347047662 heartbeat IPC: 1.293 cumulative IPC: 0.4484 (Simulation time: 00 hr 42 min 21 sec)
Heartbeat CPU 0 instructions: 199501015 cycles: 348785339 heartbeat IPC: 0.2877 cumulative IPC: 0.4476 (Simulation time: 00 hr 42 min 32 sec)
Heartbeat CPU 0 instructions: 200001016 cycles: 351117841 heartbeat IPC: 0.2144 cumulative IPC: 0.4459 (Simulation time: 00 hr 42 min 45 sec)
Heartbeat CPU 0 instructions: 200501016 cycles: 352503929 heartbeat IPC: 0.3607 cumulative IPC: 0.4456 (Simulation time: 00 hr 42 min 53 sec)
Heartbeat CPU 0 instructions: 201001016 cycles: 354024964 heartbeat IPC: 0.3287 cumulative IPC: 0.4451 (Simulation time: 00 hr 43 min 02 sec)
Heartbeat CPU 0 instructions: 201501019 cycles: 355507064 heartbeat IPC: 0.3374 cumulative IPC: 0.4446 (Simulation time: 00 hr 43 min 10 sec)
Heartbeat CPU 0 instructions: 202001019 cycles: 356357190 heartbeat IPC: 0.5881 cumulative IPC: 0.445 (Simulation time: 00 hr 43 min 16 sec)
Heartbeat CPU 0 instructions: 202501020 cycles: 357425970 heartbeat IPC: 0.4678 cumulative IPC: 0.445 (Simulation time: 00 hr 43 min 22 sec)
Heartbeat CPU 0 instructions: 203001020 cycles: 359008872 heartbeat IPC: 0.3159 cumulative IPC: 0.4444 (Simulation time: 00 hr 43 min 34 sec)
Heartbeat CPU 0 instructions: 203501025 cycles: 361089693 heartbeat IPC: 0.2403 cumulative IPC: 0.4432 (Simulation time: 00 hr 43 min 46 sec)
Heartbeat CPU 0 instructions: 204001027 cycles: 362958873 heartbeat IPC: 0.2675 cumulative IPC: 0.4423 (Simulation time: 00 hr 43 min 57 sec)
Heartbeat CPU 0 instructions: 204501029 cycles: 364057323 heartbeat IPC: 0.4552 cumulative IPC: 0.4423 (Simulation time: 00 hr 44 min 03 sec)
Heartbeat CPU 0 instructions: 205001032 cycles: 365154386 heartbeat IPC: 0.4558 cumulative IPC: 0.4423 (Simulation time: 00 hr 44 min 10 sec)
Heartbeat CPU 0 instructions: 205501033 cycles: 366805823 heartbeat IPC: 0.3028 cumulative IPC: 0.4417 (Simulation time: 00 hr 44 min 19 sec)
Heartbeat CPU 0 instructions: 206001033 cycles: 368450628 heartbeat IPC: 0.304 cumulative IPC: 0.441 (Simulation time: 00 hr 44 min 29 sec)
Heartbeat CPU 0 instructions: 206501035 cycles: 369983214 heartbeat IPC: 0.3262 cumulative IPC: 0.4406 (Simulation time: 00 hr 44 min 37 sec)
Heartbeat CPU 0 instructions: 207001036 cycles: 370339170 heartbeat IPC: 1.405 cumulative IPC: 0.4415 (Simulation time: 00 hr 44 min 40 sec)
Heartbeat CPU 0 instructions: 207501042 cycles: 371101439 heartbeat IPC: 0.6559 cumulative IPC: 0.442 (Simulation time: 00 hr 44 min 46 sec)
Heartbeat CPU 0 instructions: 208001043 cycles: 371604625 heartbeat IPC: 0.9937 cumulative IPC: 0.4428 (Simulation time: 00 hr 44 min 51 sec)
Heartbeat CPU 0 instructions: 208501048 cycles: 372551743 heartbeat IPC: 0.5279 cumulative IPC: 0.443 (Simulation time: 00 hr 44 min 57 sec)
Heartbeat CPU 0 instructions: 209001053 cycles: 373552202 heartbeat IPC: 0.4998 cumulative IPC: 0.4431 (Simulation time: 00 hr 45 min 03 sec)
Heartbeat CPU 0 instructions: 209501058 cycles: 375538124 heartbeat IPC: 0.2518 cumulative IPC: 0.4421 (Simulation time: 00 hr 45 min 15 sec)
Heartbeat CPU 0 instructions: 210001058 cycles: 376635285 heartbeat IPC: 0.4557 cumulative IPC: 0.4421 (Simulation time: 00 hr 45 min 23 sec)
Heartbeat CPU 0 instructions: 210501058 cycles: 378627211 heartbeat IPC: 0.251 cumulative IPC: 0.4411 (Simulation time: 00 hr 45 min 33 sec)
Heartbeat CPU 0 instructions: 211001061 cycles: 380991409 heartbeat IPC: 0.2115 cumulative IPC: 0.4396 (Simulation time: 00 hr 45 min 47 sec)
Heartbeat CPU 0 instructions: 211501067 cycles: 382182018 heartbeat IPC: 0.42 cumulative IPC: 0.4395 (Simulation time: 00 hr 45 min 54 sec)
Heartbeat CPU 0 instructions: 212001068 cycles: 384054211 heartbeat IPC: 0.2671 cumulative IPC: 0.4387 (Simulation time: 00 hr 46 min 04 sec)
Heartbeat CPU 0 instructions: 212501072 cycles: 384785108 heartbeat IPC: 0.6841 cumulative IPC: 0.4391 (Simulation time: 00 hr 46 min 09 sec)
Heartbeat CPU 0 instructions: 213001075 cycles: 386512954 heartbeat IPC: 0.2894 cumulative IPC: 0.4384 (Simulation time: 00 hr 46 min 18 sec)
Heartbeat CPU 0 instructions: 213501077 cycles: 387663564 heartbeat IPC: 0.4346 cumulative IPC: 0.4384 (Simulation time: 00 hr 46 min 25 sec)
Heartbeat CPU 0 instructions: 214001079 cycles: 388317098 heartbeat IPC: 0.7651 cumulative IPC: 0.439 (Simulation time: 00 hr 46 min 30 sec)
Heartbeat CPU 0 instructions: 214501086 cycles: 389027707 heartbeat IPC: 0.7036 cumulative IPC: 0.4395 (Simulation time: 00 hr 46 min 34 sec)
Heartbeat CPU 0 instructions: 215001086 cycles: 389759938 heartbeat IPC: 0.6828 cumulative IPC: 0.44 (Simulation time: 00 hr 46 min 39 sec)
Heartbeat CPU 0 instructions: 215501086 cycles: 390930443 heartbeat IPC: 0.4272 cumulative IPC: 0.4399 (Simulation time: 00 hr 46 min 46 sec)
Heartbeat CPU 0 instructions: 216001088 cycles: 392695840 heartbeat IPC: 0.2832 cumulative IPC: 0.4392 (Simulation time: 00 hr 46 min 56 sec)
Heartbeat CPU 0 instructions: 216501091 cycles: 394273871 heartbeat IPC: 0.3169 cumulative IPC: 0.4387 (Simulation time: 00 hr 47 min 05 sec)
Heartbeat CPU 0 instructions: 217001092 cycles: 395779016 heartbeat IPC: 0.3322 cumulative IPC: 0.4383 (Simulation time: 00 hr 47 min 13 sec)
Heartbeat CPU 0 instructions: 217501093 cycles: 397403095 heartbeat IPC: 0.3079 cumulative IPC: 0.4377 (Simulation time: 00 hr 47 min 22 sec)
Heartbeat CPU 0 instructions: 218001098 cycles: 399691213 heartbeat IPC: 0.2185 cumulative IPC: 0.4364 (Simulation time: 00 hr 47 min 34 sec)
Heartbeat CPU 0 instructions: 218501100 cycles: 401146869 heartbeat IPC: 0.3435 cumulative IPC: 0.4361 (Simulation time: 00 hr 47 min 43 sec)
Heartbeat CPU 0 instructions: 219001100 cycles: 402909504 heartbeat IPC: 0.2837 cumulative IPC: 0.4354 (Simulation time: 00 hr 47 min 52 sec)
Heartbeat CPU 0 instructions: 219501105 cycles: 404132614 heartbeat IPC: 0.4088 cumulative IPC: 0.4353 (Simulation time: 00 hr 47 min 59 sec)
Heartbeat CPU 0 instructions: 220001106 cycles: 405479720 heartbeat IPC: 0.3712 cumulative IPC: 0.4351 (Simulation time: 00 hr 48 min 07 sec)
Heartbeat CPU 0 instructions: 220501110 cycles: 406508572 heartbeat IPC: 0.486 cumulative IPC: 0.4352 (Simulation time: 00 hr 48 min 13 sec)
Heartbeat CPU 0 instructions: 221001110 cycles: 408043177 heartbeat IPC: 0.3258 cumulative IPC: 0.4348 (Simulation time: 00 hr 48 min 21 sec)
Heartbeat CPU 0 instructions: 221501110 cycles: 409539014 heartbeat IPC: 0.3343 cumulative IPC: 0.4344 (Simulation time: 00 hr 48 min 30 sec)
Heartbeat CPU 0 instructions: 222001111 cycles: 410483492 heartbeat IPC: 0.5294 cumulative IPC: 0.4346 (Simulation time: 00 hr 48 min 36 sec)
Heartbeat CPU 0 instructions: 222501112 cycles: 411491690 heartbeat IPC: 0.4959 cumulative IPC: 0.4348 (Simulation time: 00 hr 48 min 42 sec)
Heartbeat CPU 0 instructions: 223001112 cycles: 412872310 heartbeat IPC: 0.3622 cumulative IPC: 0.4345 (Simulation time: 00 hr 48 min 50 sec)
Heartbeat CPU 0 instructions: 223501114 cycles: 414395058 heartbeat IPC: 0.3284 cumulative IPC: 0.4341 (Simulation time: 00 hr 48 min 58 sec)
Heartbeat CPU 0 instructions: 224001114 cycles: 416143485 heartbeat IPC: 0.286 cumulative IPC: 0.4335 (Simulation time: 00 hr 49 min 09 sec)
Heartbeat CPU 0 instructions: 224501114 cycles: 417160770 heartbeat IPC: 0.4915 cumulative IPC: 0.4336 (Simulation time: 00 hr 49 min 15 sec)
Heartbeat CPU 0 instructions: 225001114 cycles: 419163602 heartbeat IPC: 0.2496 cumulative IPC: 0.4327 (Simulation time: 00 hr 49 min 27 sec)
Heartbeat CPU 0 instructions: 225501117 cycles: 420002519 heartbeat IPC: 0.596 cumulative IPC: 0.4331 (Simulation time: 00 hr 49 min 33 sec)
Heartbeat CPU 0 instructions: 226001118 cycles: 420712741 heartbeat IPC: 0.704 cumulative IPC: 0.4335 (Simulation time: 00 hr 49 min 39 sec)
Heartbeat CPU 0 instructions: 226501124 cycles: 421380329 heartbeat IPC: 0.749 cumulative IPC: 0.4341 (Simulation time: 00 hr 49 min 45 sec)
Heartbeat CPU 0 instructions: 227001130 cycles: 421994291 heartbeat IPC: 0.8144 cumulative IPC: 0.4346 (Simulation time: 00 hr 49 min 50 sec)
Heartbeat CPU 0 instructions: 227501136 cycles: 422673036 heartbeat IPC: 0.7367 cumulative IPC: 0.4351 (Simulation time: 00 hr 49 min 56 sec)
Heartbeat CPU 0 instructions: 228001137 cycles: 423331235 heartbeat IPC: 0.7597 cumulative IPC: 0.4357 (Simulation time: 00 hr 50 min 01 sec)
Heartbeat CPU 0 instructions: 228501144 cycles: 423900137 heartbeat IPC: 0.8789 cumulative IPC: 0.4363 (Simulation time: 00 hr 50 min 06 sec)
Heartbeat CPU 0 instructions: 229001150 cycles: 424334623 heartbeat IPC: 1.151 cumulative IPC: 0.437 (Simulation time: 00 hr 50 min 09 sec)
Heartbeat CPU 0 instructions: 229501153 cycles: 424966690 heartbeat IPC: 0.7911 cumulative IPC: 0.4376 (Simulation time: 00 hr 50 min 15 sec)
Heartbeat CPU 0 instructions: 230001153 cycles: 426395144 heartbeat IPC: 0.35 cumulative IPC: 0.4373 (Simulation time: 00 hr 50 min 25 sec)
Heartbeat CPU 0 instructions: 230501156 cycles: 426940667 heartbeat IPC: 0.9166 cumulative IPC: 0.4379 (Simulation time: 00 hr 50 min 30 sec)
Heartbeat CPU 0 instructions: 231001159 cycles: 427589588 heartbeat IPC: 0.7705 cumulative IPC: 0.4384 (Simulation time: 00 hr 50 min 36 sec)
Heartbeat CPU 0 instructions: 231501159 cycles: 428109834 heartbeat IPC: 0.9611 cumulative IPC: 0.4391 (Simulation time: 00 hr 50 min 40 sec)
Heartbeat CPU 0 instructions: 232001160 cycles: 430730487 heartbeat IPC: 0.1908 cumulative IPC: 0.4375 (Simulation time: 00 hr 50 min 54 sec)
Heartbeat CPU 0 instructions: 232501166 cycles: 432159591 heartbeat IPC: 0.3499 cumulative IPC: 0.4372 (Simulation time: 00 hr 51 min 06 sec)
Heartbeat CPU 0 instructions: 233001168 cycles: 432871918 heartbeat IPC: 0.7019 cumulative IPC: 0.4377 (Simulation time: 00 hr 51 min 12 sec)
Heartbeat CPU 0 instructions: 233501169 cycles: 433528670 heartbeat IPC: 0.7613 cumulative IPC: 0.4382 (Simulation time: 00 hr 51 min 18 sec)
Heartbeat CPU 0 instructions: 234001170 cycles: 434260251 heartbeat IPC: 0.6835 cumulative IPC: 0.4386 (Simulation time: 00 hr 51 min 25 sec)
Heartbeat CPU 0 instructions: 234501174 cycles: 434864387 heartbeat IPC: 0.8276 cumulative IPC: 0.4392 (Simulation time: 00 hr 51 min 29 sec)
Heartbeat CPU 0 instructions: 235001178 cycles: 435090711 heartbeat IPC: 2.209 cumulative IPC: 0.4401 (Simulation time: 00 hr 51 min 32 sec)
Heartbeat CPU 0 instructions: 235501181 cycles: 435302486 heartbeat IPC: 2.361 cumulative IPC: 0.4411 (Simulation time: 00 hr 51 min 34 sec)
Heartbeat CPU 0 instructions: 236001185 cycles: 435501963 heartbeat IPC: 2.507 cumulative IPC: 0.4421 (Simulation time: 00 hr 51 min 36 sec)
Heartbeat CPU 0 instructions: 236501189 cycles: 435697339 heartbeat IPC: 2.559 cumulative IPC: 0.443 (Simulation time: 00 hr 51 min 39 sec)
Heartbeat CPU 0 instructions: 237001190 cycles: 435917242 heartbeat IPC: 2.274 cumulative IPC: 0.444 (Simulation time: 00 hr 51 min 41 sec)
Heartbeat CPU 0 instructions: 237501190 cycles: 436121705 heartbeat IPC: 2.445 cumulative IPC: 0.445 (Simulation time: 00 hr 51 min 44 sec)
Heartbeat CPU 0 instructions: 238001195 cycles: 436524651 heartbeat IPC: 1.241 cumulative IPC: 0.4457 (Simulation time: 00 hr 51 min 48 sec)
Heartbeat CPU 0 instructions: 238501197 cycles: 438073032 heartbeat IPC: 0.3229 cumulative IPC: 0.4453 (Simulation time: 00 hr 51 min 57 sec)
Heartbeat CPU 0 instructions: 239001199 cycles: 438563073 heartbeat IPC: 1.02 cumulative IPC: 0.446 (Simulation time: 00 hr 52 min 01 sec)
Heartbeat CPU 0 instructions: 239501199 cycles: 438830715 heartbeat IPC: 1.868 cumulative IPC: 0.4468 (Simulation time: 00 hr 52 min 04 sec)
Heartbeat CPU 0 instructions: 240001201 cycles: 439056142 heartbeat IPC: 2.218 cumulative IPC: 0.4478 (Simulation time: 00 hr 52 min 06 sec)
Heartbeat CPU 0 instructions: 240501202 cycles: 439272599 heartbeat IPC: 2.31 cumulative IPC: 0.4487 (Simulation time: 00 hr 52 min 09 sec)
Heartbeat CPU 0 instructions: 241001208 cycles: 439476665 heartbeat IPC: 2.45 cumulative IPC: 0.4497 (Simulation time: 00 hr 52 min 11 sec)
Heartbeat CPU 0 instructions: 241501209 cycles: 439692061 heartbeat IPC: 2.321 cumulative IPC: 0.4506 (Simulation time: 00 hr 52 min 13 sec)
Heartbeat CPU 0 instructions: 242001212 cycles: 439906891 heartbeat IPC: 2.327 cumulative IPC: 0.4516 (Simulation time: 00 hr 52 min 16 sec)
Heartbeat CPU 0 instructions: 242501214 cycles: 440973852 heartbeat IPC: 0.4686 cumulative IPC: 0.4516 (Simulation time: 00 hr 52 min 22 sec)
Heartbeat CPU 0 instructions: 243001217 cycles: 442997647 heartbeat IPC: 0.2471 cumulative IPC: 0.4507 (Simulation time: 00 hr 52 min 34 sec)
Heartbeat CPU 0 instructions: 243501219 cycles: 444289673 heartbeat IPC: 0.387 cumulative IPC: 0.4505 (Simulation time: 00 hr 52 min 41 sec)
Heartbeat CPU 0 instructions: 244001219 cycles: 446264994 heartbeat IPC: 0.2531 cumulative IPC: 0.4496 (Simulation time: 00 hr 52 min 51 sec)
Heartbeat CPU 0 instructions: 244501223 cycles: 447346651 heartbeat IPC: 0.4623 cumulative IPC: 0.4496 (Simulation time: 00 hr 52 min 58 sec)
Heartbeat CPU 0 instructions: 245001223 cycles: 448722229 heartbeat IPC: 0.3635 cumulative IPC: 0.4493 (Simulation time: 00 hr 53 min 05 sec)
Heartbeat CPU 0 instructions: 245501224 cycles: 451076629 heartbeat IPC: 0.2124 cumulative IPC: 0.4481 (Simulation time: 00 hr 53 min 17 sec)
Heartbeat CPU 0 instructions: 246001224 cycles: 452929367 heartbeat IPC: 0.2699 cumulative IPC: 0.4473 (Simulation time: 00 hr 53 min 27 sec)
Heartbeat CPU 0 instructions: 246501229 cycles: 454521750 heartbeat IPC: 0.314 cumulative IPC: 0.4468 (Simulation time: 00 hr 53 min 37 sec)
Heartbeat CPU 0 instructions: 247001229 cycles: 455863974 heartbeat IPC: 0.3725 cumulative IPC: 0.4466 (Simulation time: 00 hr 53 min 45 sec)
Heartbeat CPU 0 instructions: 247501230 cycles: 458272701 heartbeat IPC: 0.2076 cumulative IPC: 0.4453 (Simulation time: 00 hr 53 min 57 sec)
Heartbeat CPU 0 instructions: 248001234 cycles: 459477840 heartbeat IPC: 0.4149 cumulative IPC: 0.4452 (Simulation time: 00 hr 54 min 05 sec)
Heartbeat CPU 0 instructions: 248501235 cycles: 461124256 heartbeat IPC: 0.3037 cumulative IPC: 0.4447 (Simulation time: 00 hr 54 min 14 sec)
Heartbeat CPU 0 instructions: 249001235 cycles: 462487536 heartbeat IPC: 0.3668 cumulative IPC: 0.4445 (Simulation time: 00 hr 54 min 21 sec)
Heartbeat CPU 0 instructions: 249501236 cycles: 463673997 heartbeat IPC: 0.4214 cumulative IPC: 0.4444 (Simulation time: 00 hr 54 min 28 sec)
Simulation finished CPU 0 instructions: 200000000 cycles: 450516392 cumulative IPC: 0.4439 (Simulation time: 00 hr 54 min 36 sec)
Simulation complete CPU 0 instructions: 200000000 cycles: 450516392 cumulative IPC: 0.4439 (Simulation time: 00 hr 54 min 36 sec)

ChampSim completed all CPUs

=== Simulation ===
CPU 0 runs /local-ssd/ben/dpc4-traces/gtraces_v2/tango_0004.champsim.gz

Region of Interest Statistics

CPU 0 cumulative IPC: 0.4439 instructions: 200000000 cycles: 450516392
CPU 0 Branch Prediction Accuracy: 90.34% MPKI: 17.97 Average ROB Occupancy at Mispredict: 25.1
Branch type MPKI
BRANCH_DIRECT_JUMP: 0.5656
BRANCH_INDIRECT: 0.3338
BRANCH_CONDITIONAL: 15.15
BRANCH_DIRECT_CALL: 0.8592
BRANCH_INDIRECT_CALL: 0.362
BRANCH_RETURN: 0.6986

cpu0->cpu0_STLB TOTAL        ACCESS:    2389813 HIT:    1633765 MISS:     756048 MSHR_MERGE:          0
cpu0->cpu0_STLB LOAD         ACCESS:    2389813 HIT:    1633765 MISS:     756048 MSHR_MERGE:          0
cpu0->cpu0_STLB RFO          ACCESS:          0 HIT:          0 MISS:          0 MSHR_MERGE:          0
cpu0->cpu0_STLB PREFETCH     ACCESS:          0 HIT:          0 MISS:          0 MSHR_MERGE:          0
cpu0->cpu0_STLB WRITE        ACCESS:          0 HIT:          0 MISS:          0 MSHR_MERGE:          0
cpu0->cpu0_STLB TRANSLATION  ACCESS:          0 HIT:          0 MISS:          0 MSHR_MERGE:          0
cpu0->cpu0_STLB PREFETCH REQUESTED:          0 ISSUED:          0 USEFUL:          0 USELESS:          0
cpu0->cpu0_STLB AVERAGE MISS LATENCY: 229.1 cycles
cpu0->cpu0_L2C TOTAL        ACCESS:   11838712 HIT:    7798919 MISS:    4039793 MSHR_MERGE:     477064
cpu0->cpu0_L2C LOAD         ACCESS:    3989012 HIT:    2810447 MISS:    1178565 MSHR_MERGE:      26995
cpu0->cpu0_L2C RFO          ACCESS:     682829 HIT:     216094 MISS:     466735 MSHR_MERGE:       6270
cpu0->cpu0_L2C PREFETCH     ACCESS:    5160772 HIT:    3105328 MISS:    2055444 MSHR_MERGE:     443799
cpu0->cpu0_L2C WRITE        ACCESS:    1136281 HIT:    1136218 MISS:         63 MSHR_MERGE:          0
cpu0->cpu0_L2C TRANSLATION  ACCESS:     869818 HIT:     530832 MISS:     338986 MSHR_MERGE:          0
cpu0->cpu0_L2C PREFETCH REQUESTED:    4311554 ISSUED:    4241997 USEFUL:     337660 USELESS:     865293
cpu0->cpu0_L2C AVERAGE MISS LATENCY: 337.2 cycles
cpu0->cpu0_L1I TOTAL        ACCESS:   17000685 HIT:   13941148 MISS:    3059537 MSHR_MERGE:     659646
cpu0->cpu0_L1I LOAD         ACCESS:   17000685 HIT:   13941148 MISS:    3059537 MSHR_MERGE:     659646
cpu0->cpu0_L1I RFO          ACCESS:          0 HIT:          0 MISS:          0 MSHR_MERGE:          0
cpu0->cpu0_L1I PREFETCH     ACCESS:          0 HIT:          0 MISS:          0 MSHR_MERGE:          0
cpu0->cpu0_L1I WRITE        ACCESS:          0 HIT:          0 MISS:          0 MSHR_MERGE:          0
cpu0->cpu0_L1I TRANSLATION  ACCESS:          0 HIT:          0 MISS:          0 MSHR_MERGE:          0
cpu0->cpu0_L1I PREFETCH REQUESTED:          0 ISSUED:          0 USEFUL:          0 USELESS:          0
cpu0->cpu0_L1I AVERAGE MISS LATENCY: 74.63 cycles
cpu0->cpu0_L1D TOTAL        ACCESS:   61635251 HIT:   54756709 MISS:    6878542 MSHR_MERGE:    2817961
cpu0->cpu0_L1D LOAD         ACCESS:   31426780 HIT:   29217729 MISS:    2209051 MSHR_MERGE:     619921
cpu0->cpu0_L1D RFO          ACCESS:          0 HIT:          0 MISS:          0 MSHR_MERGE:          0
cpu0->cpu0_L1D PREFETCH     ACCESS:    1921249 HIT:     920849 MISS:    1000400 MSHR_MERGE:      81625
cpu0->cpu0_L1D WRITE        ACCESS:   26266757 HIT:   23474212 MISS:    2792545 MSHR_MERGE:    2109687
cpu0->cpu0_L1D TRANSLATION  ACCESS:    2020465 HIT:    1143919 MISS:     876546 MSHR_MERGE:       6728
cpu0->cpu0_L1D PREFETCH REQUESTED:    9588183 ISSUED:    1921247 USEFUL:     311469 USELESS:     607277
cpu0->cpu0_L1D AVERAGE MISS LATENCY: 170.9 cycles
cpu0->cpu0_ITLB TOTAL        ACCESS:   14389459 HIT:   13990611 MISS:     398848 MSHR_MERGE:     186319
cpu0->cpu0_ITLB LOAD         ACCESS:   14389459 HIT:   13990611 MISS:     398848 MSHR_MERGE:     186319
cpu0->cpu0_ITLB RFO          ACCESS:          0 HIT:          0 MISS:          0 MSHR_MERGE:          0
cpu0->cpu0_ITLB PREFETCH     ACCESS:          0 HIT:          0 MISS:          0 MSHR_MERGE:          0
cpu0->cpu0_ITLB WRITE        ACCESS:          0 HIT:          0 MISS:          0 MSHR_MERGE:          0
cpu0->cpu0_ITLB TRANSLATION  ACCESS:          0 HIT:          0 MISS:          0 MSHR_MERGE:          0
cpu0->cpu0_ITLB PREFETCH REQUESTED:          0 ISSUED:          0 USEFUL:          0 USELESS:          0
cpu0->cpu0_ITLB AVERAGE MISS LATENCY: 30.91 cycles
cpu0->cpu0_DTLB TOTAL        ACCESS:   56707601 HIT:   52732671 MISS:    3974930 MSHR_MERGE:    1797646
cpu0->cpu0_DTLB LOAD         ACCESS:   56707601 HIT:   52732671 MISS:    3974930 MSHR_MERGE:    1797646
cpu0->cpu0_DTLB RFO          ACCESS:          0 HIT:          0 MISS:          0 MSHR_MERGE:          0
cpu0->cpu0_DTLB PREFETCH     ACCESS:          0 HIT:          0 MISS:          0 MSHR_MERGE:          0
cpu0->cpu0_DTLB WRITE        ACCESS:          0 HIT:          0 MISS:          0 MSHR_MERGE:          0
cpu0->cpu0_DTLB TRANSLATION  ACCESS:          0 HIT:          0 MISS:          0 MSHR_MERGE:          0
cpu0->cpu0_DTLB PREFETCH REQUESTED:          0 ISSUED:          0 USEFUL:          0 USELESS:          0
cpu0->cpu0_DTLB AVERAGE MISS LATENCY: 82.39 cycles
cpu0->LLC TOTAL        ACCESS:    5438100 HIT:    1069127 MISS:    4368973 MSHR_MERGE:     295946
cpu0->LLC LOAD         ACCESS:    1151570 HIT:     257150 MISS:     894420 MSHR_MERGE:       3928
cpu0->LLC RFO          ACCESS:     460465 HIT:      14837 MISS:     445628 MSHR_MERGE:        653
cpu0->LLC PREFETCH     ACCESS:    2716742 HIT:     408681 MISS:    2308061 MSHR_MERGE:     291365
cpu0->LLC WRITE        ACCESS:     770337 HIT:     351458 MISS:     418879 MSHR_MERGE:          0
cpu0->LLC TRANSLATION  ACCESS:     338986 HIT:      37001 MISS:     301985 MSHR_MERGE:          0
cpu0->LLC PREFETCH REQUESTED:    1172144 ISSUED:    1105097 USEFUL:      87195 USELESS:     574729
cpu0->LLC AVERAGE MISS LATENCY: 300.7 cycles

DRAM Statistics

Channel 0 RQ ROW_BUFFER_HIT:      36493
  ROW_BUFFER_MISS:    3617436
  AVG DBUS CONGESTED CYCLE: 4.144
Channel 0 WQ ROW_BUFFER_HIT:     151923
  ROW_BUFFER_MISS:     568692
  FULL:          0
Channel 0 REFRESHES ISSUED:      37543
