[VMEM] WARNING: physical memory size is smaller than virtual memory size.

*** ChampSim Multicore Out-of-Order Simulator ***
Warmup Instructions: 50000000
Simulation Instructions: 200000000
Number of CPUs: 1
Page size: 4096
Core 0: /local-ssd/ben/dpc4-traces/SPEC17/654.roms_s-523B.champsimtrace.xz
sBerti (Smart Stride + Berti) Prefetcher Initialized
Off-chip DRAM Size: 64 GiB Channels: 1 Width: 64-bit Data Rate: 800 MT/s
Heartbeat CPU 0 instructions: 500000 cycles: 127641 heartbeat IPC: 3.917 cumulative IPC: 3.917 (Simulation time: 00 hr 00 min 03 sec)
Heartbeat CPU 0 instructions: 1000002 cycles: 252856 heartbeat IPC: 3.993 cumulative IPC: 3.955 (Simulation time: 00 hr 00 min 05 sec)
Heartbeat CPU 0 instructions: 1500002 cycles: 377279 heartbeat IPC: 4.019 cumulative IPC: 3.976 (Simulation time: 00 hr 00 min 08 sec)
Heartbeat CPU 0 instructions: 2000004 cycles: 502628 heartbeat IPC: 3.989 cumulative IPC: 3.979 (Simulation time: 00 hr 00 min 10 sec)
Heartbeat CPU 0 instructions: 2500008 cycles: 627777 heartbeat IPC: 3.995 cumulative IPC: 3.982 (Simulation time: 00 hr 00 min 12 sec)
Heartbeat CPU 0 instructions: 3000008 cycles: 753213 heartbeat IPC: 3.986 cumulative IPC: 3.983 (Simulation time: 00 hr 00 min 15 sec)
Heartbeat CPU 0 instructions: 3500015 cycles: 878299 heartbeat IPC: 3.997 cumulative IPC: 3.985 (Simulation time: 00 hr 00 min 17 sec)
Heartbeat CPU 0 instructions: 4000017 cycles: 1004510 heartbeat IPC: 3.962 cumulative IPC: 3.982 (Simulation time: 00 hr 00 min 20 sec)
Heartbeat CPU 0 instructions: 4500017 cycles: 1108591 heartbeat IPC: 4.804 cumulative IPC: 4.059 (Simulation time: 00 hr 00 min 21 sec)
Heartbeat CPU 0 instructions: 5000017 cycles: 1211706 heartbeat IPC: 4.849 cumulative IPC: 4.126 (Simulation time: 00 hr 00 min 22 sec)
Heartbeat CPU 0 instructions: 5500020 cycles: 1314786 heartbeat IPC: 4.851 cumulative IPC: 4.183 (Simulation time: 00 hr 00 min 24 sec)
Heartbeat CPU 0 instructions: 6000026 cycles: 1417453 heartbeat IPC: 4.87 cumulative IPC: 4.233 (Simulation time: 00 hr 00 min 25 sec)
Heartbeat CPU 0 instructions: 6500027 cycles: 1520530 heartbeat IPC: 4.851 cumulative IPC: 4.275 (Simulation time: 00 hr 00 min 27 sec)
Heartbeat CPU 0 instructions: 7000032 cycles: 1623598 heartbeat IPC: 4.851 cumulative IPC: 4.311 (Simulation time: 00 hr 00 min 28 sec)
Heartbeat CPU 0 instructions: 7500037 cycles: 1726419 heartbeat IPC: 4.863 cumulative IPC: 4.344 (Simulation time: 00 hr 00 min 30 sec)
Heartbeat CPU 0 instructions: 8000039 cycles: 1829369 heartbeat IPC: 4.857 cumulative IPC: 4.373 (Simulation time: 00 hr 00 min 31 sec)
Heartbeat CPU 0 instructions: 8500041 cycles: 1930903 heartbeat IPC: 4.924 cumulative IPC: 4.402 (Simulation time: 00 hr 00 min 33 sec)
Heartbeat CPU 0 instructions: 9000047 cycles: 2030904 heartbeat IPC: 5 cumulative IPC: 4.432 (Simulation time: 00 hr 00 min 34 sec)
Heartbeat CPU 0 instructions: 9500047 cycles: 2130963 heartbeat IPC: 4.997 cumulative IPC: 4.458 (Simulation time: 00 hr 00 min 35 sec)
Heartbeat CPU 0 instructions: 10000047 cycles: 2230965 heartbeat IPC: 5 cumulative IPC: 4.482 (Simulation time: 00 hr 00 min 37 sec)
Heartbeat CPU 0 instructions: 10500048 cycles: 2330964 heartbeat IPC: 5 cumulative IPC: 4.505 (Simulation time: 00 hr 00 min 38 sec)
Heartbeat CPU 0 instructions: 11000051 cycles: 2430963 heartbeat IPC: 5 cumulative IPC: 4.525 (Simulation time: 00 hr 00 min 39 sec)
Heartbeat CPU 0 instructions: 11500052 cycles: 2530981 heartbeat IPC: 4.999 cumulative IPC: 4.544 (Simulation time: 00 hr 00 min 41 sec)
Heartbeat CPU 0 instructions: 12000056 cycles: 2631053 heartbeat IPC: 4.996 cumulative IPC: 4.561 (Simulation time: 00 hr 00 min 42 sec)
Heartbeat CPU 0 instructions: 12500057 cycles: 2731052 heartbeat IPC: 5 cumulative IPC: 4.577 (Simulation time: 00 hr 00 min 43 sec)
Heartbeat CPU 0 instructions: 13000063 cycles: 2831064 heartbeat IPC: 4.999 cumulative IPC: 4.592 (Simulation time: 00 hr 00 min 45 sec)
Heartbeat CPU 0 instructions: 13500063 cycles: 2931062 heartbeat IPC: 5 cumulative IPC: 4.606 (Simulation time: 00 hr 00 min 46 sec)
Heartbeat CPU 0 instructions: 14000070 cycles: 3031169 heartbeat IPC: 4.995 cumulative IPC: 4.619 (Simulation time: 00 hr 00 min 47 sec)
Heartbeat CPU 0 instructions: 14500073 cycles: 3131169 heartbeat IPC: 5 cumulative IPC: 4.631 (Simulation time: 00 hr 00 min 49 sec)
Heartbeat CPU 0 instructions: 15000074 cycles: 3231170 heartbeat IPC: 5 cumulative IPC: 4.642 (Simulation time: 00 hr 00 min 50 sec)
Heartbeat CPU 0 instructions: 15500078 cycles: 3331170 heartbeat IPC: 5 cumulative IPC: 4.653 (Simulation time: 00 hr 00 min 52 sec)
Heartbeat CPU 0 instructions: 16000083 cycles: 3431172 heartbeat IPC: 5 cumulative IPC: 4.663 (Simulation time: 00 hr 00 min 53 sec)
Heartbeat CPU 0 instructions: 16500085 cycles: 3531242 heartbeat IPC: 4.997 cumulative IPC: 4.673 (Simulation time: 00 hr 00 min 54 sec)
Heartbeat CPU 0 instructions: 17000087 cycles: 3631243 heartbeat IPC: 5 cumulative IPC: 4.682 (Simulation time: 00 hr 00 min 56 sec)
Heartbeat CPU 0 instructions: 17500093 cycles: 3731243 heartbeat IPC: 5 cumulative IPC: 4.69 (Simulation time: 00 hr 00 min 57 sec)
Heartbeat CPU 0 instructions: 18000093 cycles: 3836372 heartbeat IPC: 4.756 cumulative IPC: 4.692 (Simulation time: 00 hr 00 min 58 sec)
Heartbeat CPU 0 instructions: 18500093 cycles: 3978086 heartbeat IPC: 3.528 cumulative IPC: 4.651 (Simulation time: 00 hr 01 min 01 sec)
Heartbeat CPU 0 instructions: 19000099 cycles: 4118896 heartbeat IPC: 3.551 cumulative IPC: 4.613 (Simulation time: 00 hr 01 min 04 sec)
Heartbeat CPU 0 instructions: 19500102 cycles: 4259834 heartbeat IPC: 3.548 cumulative IPC: 4.578 (Simulation time: 00 hr 01 min 07 sec)
Heartbeat CPU 0 instructions: 20000105 cycles: 4400642 heartbeat IPC: 3.551 cumulative IPC: 4.545 (Simulation time: 00 hr 01 min 09 sec)
Heartbeat CPU 0 instructions: 20500108 cycles: 4542024 heartbeat IPC: 3.537 cumulative IPC: 4.513 (Simulation time: 00 hr 01 min 12 sec)
Heartbeat CPU 0 instructions: 21000108 cycles: 4679149 heartbeat IPC: 3.646 cumulative IPC: 4.488 (Simulation time: 00 hr 01 min 15 sec)
Heartbeat CPU 0 instructions: 21500113 cycles: 4810412 heartbeat IPC: 3.809 cumulative IPC: 4.469 (Simulation time: 00 hr 01 min 18 sec)
Heartbeat CPU 0 instructions: 22000113 cycles: 4941443 heartbeat IPC: 3.816 cumulative IPC: 4.452 (Simulation time: 00 hr 01 min 20 sec)
Heartbeat CPU 0 instructions: 22500117 cycles: 5072091 heartbeat IPC: 3.827 cumulative IPC: 4.436 (Simulation time: 00 hr 01 min 23 sec)
Heartbeat CPU 0 instructions: 23000119 cycles: 5203318 heartbeat IPC: 3.81 cumulative IPC: 4.42 (Simulation time: 00 hr 01 min 25 sec)
Heartbeat CPU 0 instructions: 23500122 cycles: 5334043 heartbeat IPC: 3.825 cumulative IPC: 4.406 (Simulation time: 00 hr 01 min 28 sec)
Heartbeat CPU 0 instructions: 24000125 cycles: 5464713 heartbeat IPC: 3.826 cumulative IPC: 4.392 (Simulation time: 00 hr 01 min 31 sec)
Heartbeat CPU 0 instructions: 24500127 cycles: 5594571 heartbeat IPC: 3.85 cumulative IPC: 4.379 (Simulation time: 00 hr 01 min 33 sec)
Heartbeat CPU 0 instructions: 25000132 cycles: 5725299 heartbeat IPC: 3.825 cumulative IPC: 4.367 (Simulation time: 00 hr 01 min 36 sec)
Heartbeat CPU 0 instructions: 25500138 cycles: 5854649 heartbeat IPC: 3.866 cumulative IPC: 4.356 (Simulation time: 00 hr 01 min 38 sec)
Heartbeat CPU 0 instructions: 26000139 cycles: 5983208 heartbeat IPC: 3.889 cumulative IPC: 4.346 (Simulation time: 00 hr 01 min 41 sec)
Heartbeat CPU 0 instructions: 26500146 cycles: 6113178 heartbeat IPC: 3.847 cumulative IPC: 4.335 (Simulation time: 00 hr 01 min 44 sec)
Heartbeat CPU 0 instructions: 27000147 cycles: 6243107 heartbeat IPC: 3.848 cumulative IPC: 4.325 (Simulation time: 00 hr 01 min 46 sec)
Heartbeat CPU 0 instructions: 27500154 cycles: 6372923 heartbeat IPC: 3.852 cumulative IPC: 4.315 (Simulation time: 00 hr 01 min 49 sec)
Heartbeat CPU 0 instructions: 28000154 cycles: 6502909 heartbeat IPC: 3.847 cumulative IPC: 4.306 (Simulation time: 00 hr 01 min 52 sec)
Heartbeat CPU 0 instructions: 28500161 cycles: 6631684 heartbeat IPC: 3.883 cumulative IPC: 4.298 (Simulation time: 00 hr 01 min 54 sec)
Heartbeat CPU 0 instructions: 29000163 cycles: 6762000 heartbeat IPC: 3.837 cumulative IPC: 4.289 (Simulation time: 00 hr 01 min 57 sec)
Heartbeat CPU 0 instructions: 29500167 cycles: 6892236 heartbeat IPC: 3.839 cumulative IPC: 4.28 (Simulation time: 00 hr 01 min 59 sec)
Heartbeat CPU 0 instructions: 30000174 cycles: 7020987 heartbeat IPC: 3.884 cumulative IPC: 4.273 (Simulation time: 00 hr 02 min 02 sec)
Heartbeat CPU 0 instructions: 30500176 cycles: 7150636 heartbeat IPC: 3.857 cumulative IPC: 4.265 (Simulation time: 00 hr 02 min 05 sec)
Heartbeat CPU 0 instructions: 31000181 cycles: 7280601 heartbeat IPC: 3.847 cumulative IPC: 4.258 (Simulation time: 00 hr 02 min 07 sec)
Heartbeat CPU 0 instructions: 31500182 cycles: 7410410 heartbeat IPC: 3.852 cumulative IPC: 4.251 (Simulation time: 00 hr 02 min 10 sec)
Heartbeat CPU 0 instructions: 32000187 cycles: 7540181 heartbeat IPC: 3.853 cumulative IPC: 4.244 (Simulation time: 00 hr 02 min 13 sec)
Heartbeat CPU 0 instructions: 32500189 cycles: 7669371 heartbeat IPC: 3.87 cumulative IPC: 4.238 (Simulation time: 00 hr 02 min 15 sec)
Heartbeat CPU 0 instructions: 33000192 cycles: 7796720 heartbeat IPC: 3.926 cumulative IPC: 4.233 (Simulation time: 00 hr 02 min 17 sec)
Heartbeat CPU 0 instructions: 33500194 cycles: 7924215 heartbeat IPC: 3.922 cumulative IPC: 4.228 (Simulation time: 00 hr 02 min 19 sec)
Heartbeat CPU 0 instructions: 34000197 cycles: 8051493 heartbeat IPC: 3.928 cumulative IPC: 4.223 (Simulation time: 00 hr 02 min 21 sec)
Heartbeat CPU 0 instructions: 34500202 cycles: 8178517 heartbeat IPC: 3.936 cumulative IPC: 4.218 (Simulation time: 00 hr 02 min 23 sec)
Heartbeat CPU 0 instructions: 35000205 cycles: 8299293 heartbeat IPC: 4.14 cumulative IPC: 4.217 (Simulation time: 00 hr 02 min 25 sec)
Heartbeat CPU 0 instructions: 35500211 cycles: 8419696 heartbeat IPC: 4.153 cumulative IPC: 4.216 (Simulation time: 00 hr 02 min 27 sec)
Heartbeat CPU 0 instructions: 36000216 cycles: 8540476 heartbeat IPC: 4.14 cumulative IPC: 4.215 (Simulation time: 00 hr 02 min 29 sec)
Heartbeat CPU 0 instructions: 36500219 cycles: 8660788 heartbeat IPC: 4.156 cumulative IPC: 4.214 (Simulation time: 00 hr 02 min 31 sec)
Heartbeat CPU 0 instructions: 37000223 cycles: 8781573 heartbeat IPC: 4.14 cumulative IPC: 4.213 (Simulation time: 00 hr 02 min 33 sec)
Heartbeat CPU 0 instructions: 37500227 cycles: 8907688 heartbeat IPC: 3.965 cumulative IPC: 4.21 (Simulation time: 00 hr 02 min 35 sec)
Heartbeat CPU 0 instructions: 38000228 cycles: 9032001 heartbeat IPC: 4.022 cumulative IPC: 4.207 (Simulation time: 00 hr 02 min 37 sec)
Heartbeat CPU 0 instructions: 38500229 cycles: 9160036 heartbeat IPC: 3.905 cumulative IPC: 4.203 (Simulation time: 00 hr 02 min 39 sec)
Heartbeat CPU 0 instructions: 39000233 cycles: 9287824 heartbeat IPC: 3.913 cumulative IPC: 4.199 (Simulation time: 00 hr 02 min 41 sec)
Heartbeat CPU 0 instructions: 39500237 cycles: 9411306 heartbeat IPC: 4.049 cumulative IPC: 4.197 (Simulation time: 00 hr 02 min 43 sec)
Heartbeat CPU 0 instructions: 40000242 cycles: 9538491 heartbeat IPC: 3.931 cumulative IPC: 4.194 (Simulation time: 00 hr 02 min 45 sec)
Heartbeat CPU 0 instructions: 40500248 cycles: 9665933 heartbeat IPC: 3.923 cumulative IPC: 4.19 (Simulation time: 00 hr 02 min 48 sec)
Heartbeat CPU 0 instructions: 41000248 cycles: 9790330 heartbeat IPC: 4.019 cumulative IPC: 4.188 (Simulation time: 00 hr 02 min 50 sec)
Heartbeat CPU 0 instructions: 41500254 cycles: 9917219 heartbeat IPC: 3.94 cumulative IPC: 4.185 (Simulation time: 00 hr 02 min 52 sec)
Heartbeat CPU 0 instructions: 42000257 cycles: 10037826 heartbeat IPC: 4.146 cumulative IPC: 4.184 (Simulation time: 00 hr 02 min 54 sec)
Heartbeat CPU 0 instructions: 42500263 cycles: 10157782 heartbeat IPC: 4.168 cumulative IPC: 4.184 (Simulation time: 00 hr 02 min 56 sec)
Heartbeat CPU 0 instructions: 43000263 cycles: 10277612 heartbeat IPC: 4.173 cumulative IPC: 4.184 (Simulation time: 00 hr 02 min 59 sec)
Heartbeat CPU 0 instructions: 43500269 cycles: 10397431 heartbeat IPC: 4.173 cumulative IPC: 4.184 (Simulation time: 00 hr 03 min 01 sec)
Heartbeat CPU 0 instructions: 44000273 cycles: 10516422 heartbeat IPC: 4.202 cumulative IPC: 4.184 (Simulation time: 00 hr 03 min 04 sec)
Heartbeat CPU 0 instructions: 44500278 cycles: 10633779 heartbeat IPC: 4.261 cumulative IPC: 4.185 (Simulation time: 00 hr 03 min 06 sec)
Heartbeat CPU 0 instructions: 45000283 cycles: 10750785 heartbeat IPC: 4.273 cumulative IPC: 4.186 (Simulation time: 00 hr 03 min 08 sec)
Heartbeat CPU 0 instructions: 45500288 cycles: 10867860 heartbeat IPC: 4.271 cumulative IPC: 4.187 (Simulation time: 00 hr 03 min 11 sec)
Heartbeat CPU 0 instructions: 46000294 cycles: 10985160 heartbeat IPC: 4.263 cumulative IPC: 4.187 (Simulation time: 00 hr 03 min 13 sec)
Heartbeat CPU 0 instructions: 46500297 cycles: 11102328 heartbeat IPC: 4.267 cumulative IPC: 4.188 (Simulation time: 00 hr 03 min 16 sec)
Heartbeat CPU 0 instructions: 47000298 cycles: 11219472 heartbeat IPC: 4.268 cumulative IPC: 4.189 (Simulation time: 00 hr 03 min 18 sec)
Heartbeat CPU 0 instructions: 47500301 cycles: 11336782 heartbeat IPC: 4.262 cumulative IPC: 4.19 (Simulation time: 00 hr 03 min 20 sec)
Heartbeat CPU 0 instructions: 48000306 cycles: 11453979 heartbeat IPC: 4.266 cumulative IPC: 4.191 (Simulation time: 00 hr 03 min 23 sec)
Heartbeat CPU 0 instructions: 48500310 cycles: 11572772 heartbeat IPC: 4.209 cumulative IPC: 4.191 (Simulation time: 00 hr 03 min 25 sec)
Heartbeat CPU 0 instructions: 49000313 cycles: 11692440 heartbeat IPC: 4.178 cumulative IPC: 4.191 (Simulation time: 00 hr 03 min 27 sec)
Heartbeat CPU 0 instructions: 49500316 cycles: 11812304 heartbeat IPC: 4.171 cumulative IPC: 4.191 (Simulation time: 00 hr 03 min 30 sec)
Warmup halting CPU 0 at instruction 50000005 cycle 11932118 for remainder of phase
Warmup finished CPU 0 instructions: 50000005 cycles: 11932118 cumulative IPC: 4.19 (Simulation time: 00 hr 03 min 32 sec)
Warmup complete CPU 0 instructions: 50000005 cycles: 11932118 cumulative IPC: 4.19 (Simulation time: 00 hr 03 min 32 sec)
Heartbeat CPU 0 instructions: 50000318 cycles: 11932173 heartbeat IPC: 4.171 cumulative IPC: 5.691 (Simulation time: 00 hr 03 min 32 sec)
Heartbeat CPU 0 instructions: 50500324 cycles: 12560386 heartbeat IPC: 0.7959 cumulative IPC: 0.7963 (Simulation time: 00 hr 03 min 39 sec)
Heartbeat CPU 0 instructions: 51000325 cycles: 13448771 heartbeat IPC: 0.5628 cumulative IPC: 0.6596 (Simulation time: 00 hr 03 min 49 sec)
Heartbeat CPU 0 instructions: 51500326 cycles: 14352555 heartbeat IPC: 0.5532 cumulative IPC: 0.6199 (Simulation time: 00 hr 03 min 58 sec)
Heartbeat CPU 0 instructions: 52000330 cycles: 15308617 heartbeat IPC: 0.523 cumulative IPC: 0.5924 (Simulation time: 00 hr 04 min 08 sec)
Heartbeat CPU 0 instructions: 52500334 cycles: 16270965 heartbeat IPC: 0.5196 cumulative IPC: 0.5763 (Simulation time: 00 hr 04 min 18 sec)
Heartbeat CPU 0 instructions: 53000339 cycles: 17122526 heartbeat IPC: 0.5872 cumulative IPC: 0.5781 (Simulation time: 00 hr 04 min 27 sec)
Heartbeat CPU 0 instructions: 53500346 cycles: 18087354 heartbeat IPC: 0.5182 cumulative IPC: 0.5687 (Simulation time: 00 hr 04 min 37 sec)
Heartbeat CPU 0 instructions: 54000348 cycles: 19179448 heartbeat IPC: 0.4578 cumulative IPC: 0.552 (Simulation time: 00 hr 04 min 48 sec)
Heartbeat CPU 0 instructions: 54500354 cycles: 20359712 heartbeat IPC: 0.4236 cumulative IPC: 0.534 (Simulation time: 00 hr 05 min 00 sec)
Heartbeat CPU 0 instructions: 55000356 cycles: 21567260 heartbeat IPC: 0.4141 cumulative IPC: 0.519 (Simulation time: 00 hr 05 min 13 sec)
Heartbeat CPU 0 instructions: 55500357 cycles: 22556370 heartbeat IPC: 0.5055 cumulative IPC: 0.5177 (Simulation time: 00 hr 05 min 23 sec)
Heartbeat CPU 0 instructions: 56000360 cycles: 23335840 heartbeat IPC: 0.6415 cumulative IPC: 0.5262 (Simulation time: 00 hr 05 min 32 sec)
Heartbeat CPU 0 instructions: 56500364 cycles: 24162176 heartbeat IPC: 0.6051 cumulative IPC: 0.5315 (Simulation time: 00 hr 05 min 41 sec)
Heartbeat CPU 0 instructions: 57000366 cycles: 24958818 heartbeat IPC: 0.6276 cumulative IPC: 0.5374 (Simulation time: 00 hr 05 min 49 sec)
Heartbeat CPU 0 instructions: 57500366 cycles: 25706832 heartbeat IPC: 0.6684 cumulative IPC: 0.5445 (Simulation time: 00 hr 05 min 58 sec)
Heartbeat CPU 0 instructions: 58000369 cycles: 26424238 heartbeat IPC: 0.697 cumulative IPC: 0.552 (Simulation time: 00 hr 06 min 06 sec)
Heartbeat CPU 0 instructions: 58500370 cycles: 27115208 heartbeat IPC: 0.7236 cumulative IPC: 0.5599 (Simulation time: 00 hr 06 min 13 sec)
Heartbeat CPU 0 instructions: 59000377 cycles: 27768803 heartbeat IPC: 0.765 cumulative IPC: 0.5683 (Simulation time: 00 hr 06 min 21 sec)
Heartbeat CPU 0 instructions: 59500381 cycles: 28410309 heartbeat IPC: 0.7794 cumulative IPC: 0.5765 (Simulation time: 00 hr 06 min 28 sec)
Heartbeat CPU 0 instructions: 60000381 cycles: 29049653 heartbeat IPC: 0.7821 cumulative IPC: 0.5842 (Simulation time: 00 hr 06 min 35 sec)
Heartbeat CPU 0 instructions: 60500382 cycles: 29649757 heartbeat IPC: 0.8332 cumulative IPC: 0.5927 (Simulation time: 00 hr 06 min 42 sec)
Heartbeat CPU 0 instructions: 61000383 cycles: 30259184 heartbeat IPC: 0.8204 cumulative IPC: 0.6002 (Simulation time: 00 hr 06 min 50 sec)
Heartbeat CPU 0 instructions: 61500384 cycles: 30869491 heartbeat IPC: 0.8193 cumulative IPC: 0.6073 (Simulation time: 00 hr 06 min 57 sec)
Heartbeat CPU 0 instructions: 62000387 cycles: 31456822 heartbeat IPC: 0.8513 cumulative IPC: 0.6146 (Simulation time: 00 hr 07 min 03 sec)
Heartbeat CPU 0 instructions: 62500390 cycles: 32054085 heartbeat IPC: 0.8372 cumulative IPC: 0.6212 (Simulation time: 00 hr 07 min 10 sec)
Heartbeat CPU 0 instructions: 63000391 cycles: 32644016 heartbeat IPC: 0.8476 cumulative IPC: 0.6277 (Simulation time: 00 hr 07 min 17 sec)
Heartbeat CPU 0 instructions: 63500391 cycles: 33243304 heartbeat IPC: 0.8343 cumulative IPC: 0.6335 (Simulation time: 00 hr 07 min 24 sec)
Heartbeat CPU 0 instructions: 64000391 cycles: 33835183 heartbeat IPC: 0.8448 cumulative IPC: 0.6392 (Simulation time: 00 hr 07 min 31 sec)
Heartbeat CPU 0 instructions: 64500397 cycles: 34469136 heartbeat IPC: 0.7887 cumulative IPC: 0.6434 (Simulation time: 00 hr 07 min 38 sec)
Heartbeat CPU 0 instructions: 65000400 cycles: 35347511 heartbeat IPC: 0.5692 cumulative IPC: 0.6406 (Simulation time: 00 hr 07 min 47 sec)
Heartbeat CPU 0 instructions: 65500400 cycles: 36209809 heartbeat IPC: 0.5798 cumulative IPC: 0.6385 (Simulation time: 00 hr 07 min 57 sec)
Heartbeat CPU 0 instructions: 66000404 cycles: 37168365 heartbeat IPC: 0.5216 cumulative IPC: 0.634 (Simulation time: 00 hr 08 min 07 sec)
Heartbeat CPU 0 instructions: 66500411 cycles: 38203964 heartbeat IPC: 0.4828 cumulative IPC: 0.6281 (Simulation time: 00 hr 08 min 17 sec)
Heartbeat CPU 0 instructions: 67000413 cycles: 39269110 heartbeat IPC: 0.4694 cumulative IPC: 0.6219 (Simulation time: 00 hr 08 min 28 sec)
Heartbeat CPU 0 instructions: 67500415 cycles: 40281064 heartbeat IPC: 0.4941 cumulative IPC: 0.6173 (Simulation time: 00 hr 08 min 38 sec)
Heartbeat CPU 0 instructions: 68000419 cycles: 41323868 heartbeat IPC: 0.4795 cumulative IPC: 0.6124 (Simulation time: 00 hr 08 min 49 sec)
Heartbeat CPU 0 instructions: 68500422 cycles: 42407666 heartbeat IPC: 0.4613 cumulative IPC: 0.6071 (Simulation time: 00 hr 09 min 00 sec)
Heartbeat CPU 0 instructions: 69000425 cycles: 43461681 heartbeat IPC: 0.4744 cumulative IPC: 0.6026 (Simulation time: 00 hr 09 min 10 sec)
Heartbeat CPU 0 instructions: 69500432 cycles: 44530659 heartbeat IPC: 0.4677 cumulative IPC: 0.5982 (Simulation time: 00 hr 09 min 21 sec)
Heartbeat CPU 0 instructions: 70000439 cycles: 45230314 heartbeat IPC: 0.7146 cumulative IPC: 0.6006 (Simulation time: 00 hr 09 min 29 sec)
Heartbeat CPU 0 instructions: 70500441 cycles: 45991724 heartbeat IPC: 0.6567 cumulative IPC: 0.6019 (Simulation time: 00 hr 09 min 37 sec)
Heartbeat CPU 0 instructions: 71000441 cycles: 46793933 heartbeat IPC: 0.6233 cumulative IPC: 0.6024 (Simulation time: 00 hr 09 min 45 sec)
Heartbeat CPU 0 instructions: 71500447 cycles: 47566235 heartbeat IPC: 0.6474 cumulative IPC: 0.6034 (Simulation time: 00 hr 09 min 54 sec)
Heartbeat CPU 0 instructions: 72000448 cycles: 48302915 heartbeat IPC: 0.6787 cumulative IPC: 0.6049 (Simulation time: 00 hr 10 min 02 sec)
Heartbeat CPU 0 instructions: 72500450 cycles: 49040666 heartbeat IPC: 0.6777 cumulative IPC: 0.6063 (Simulation time: 00 hr 10 min 10 sec)
Heartbeat CPU 0 instructions: 73000453 cycles: 49735541 heartbeat IPC: 0.7196 cumulative IPC: 0.6084 (Simulation time: 00 hr 10 min 17 sec)
Heartbeat CPU 0 instructions: 73500457 cycles: 50398837 heartbeat IPC: 0.7538 cumulative IPC: 0.6109 (Simulation time: 00 hr 10 min 25 sec)
Heartbeat CPU 0 instructions: 74000457 cycles: 51029366 heartbeat IPC: 0.793 cumulative IPC: 0.6139 (Simulation time: 00 hr 10 min 31 sec)
Heartbeat CPU 0 instructions: 74500463 cycles: 51657340 heartbeat IPC: 0.7962 cumulative IPC: 0.6167 (Simulation time: 00 hr 10 min 38 sec)
Heartbeat CPU 0 instructions: 75000463 cycles: 52283620 heartbeat IPC: 0.7984 cumulative IPC: 0.6196 (Simulation time: 00 hr 10 min 45 sec)
Heartbeat CPU 0 instructions: 75500469 cycles: 52928204 heartbeat IPC: 0.7757 cumulative IPC: 0.622 (Simulation time: 00 hr 10 min 52 sec)
Heartbeat CPU 0 instructions: 76000472 cycles: 53564289 heartbeat IPC: 0.7861 cumulative IPC: 0.6245 (Simulation time: 00 hr 10 min 59 sec)
Heartbeat CPU 0 instructions: 76500476 cycles: 54172403 heartbeat IPC: 0.8222 cumulative IPC: 0.6274 (Simulation time: 00 hr 11 min 06 sec)
Heartbeat CPU 0 instructions: 77000477 cycles: 54772617 heartbeat IPC: 0.833 cumulative IPC: 0.6303 (Simulation time: 00 hr 11 min 13 sec)
Heartbeat CPU 0 instructions: 77500481 cycles: 55341383 heartbeat IPC: 0.8791 cumulative IPC: 0.6335 (Simulation time: 00 hr 11 min 19 sec)
Heartbeat CPU 0 instructions: 78000482 cycles: 55954586 heartbeat IPC: 0.8154 cumulative IPC: 0.636 (Simulation time: 00 hr 11 min 26 sec)
Heartbeat CPU 0 instructions: 78500484 cycles: 56549609 heartbeat IPC: 0.8403 cumulative IPC: 0.6388 (Simulation time: 00 hr 11 min 33 sec)
Heartbeat CPU 0 instructions: 79000491 cycles: 57288232 heartbeat IPC: 0.6769 cumulative IPC: 0.6394 (Simulation time: 00 hr 11 min 41 sec)
Heartbeat CPU 0 instructions: 79500495 cycles: 58013001 heartbeat IPC: 0.6899 cumulative IPC: 0.6402 (Simulation time: 00 hr 11 min 49 sec)
Heartbeat CPU 0 instructions: 80000495 cycles: 58758933 heartbeat IPC: 0.6703 cumulative IPC: 0.6407 (Simulation time: 00 hr 11 min 57 sec)
Heartbeat CPU 0 instructions: 80500495 cycles: 59577206 heartbeat IPC: 0.611 cumulative IPC: 0.6402 (Simulation time: 00 hr 12 min 06 sec)
Heartbeat CPU 0 instructions: 81000497 cycles: 60443224 heartbeat IPC: 0.5774 cumulative IPC: 0.639 (Simulation time: 00 hr 12 min 15 sec)
Heartbeat CPU 0 instructions: 81500497 cycles: 61348606 heartbeat IPC: 0.5523 cumulative IPC: 0.6374 (Simulation time: 00 hr 12 min 25 sec)
Heartbeat CPU 0 instructions: 82000499 cycles: 62282462 heartbeat IPC: 0.5354 cumulative IPC: 0.6356 (Simulation time: 00 hr 12 min 35 sec)
Heartbeat CPU 0 instructions: 82500499 cycles: 63236961 heartbeat IPC: 0.5238 cumulative IPC: 0.6335 (Simulation time: 00 hr 12 min 45 sec)
Heartbeat CPU 0 instructions: 83000505 cycles: 64197323 heartbeat IPC: 0.5206 cumulative IPC: 0.6314 (Simulation time: 00 hr 12 min 55 sec)
Heartbeat CPU 0 instructions: 83500509 cycles: 65196594 heartbeat IPC: 0.5004 cumulative IPC: 0.6289 (Simulation time: 00 hr 13 min 05 sec)
Heartbeat CPU 0 instructions: 84000515 cycles: 66205909 heartbeat IPC: 0.4954 cumulative IPC: 0.6265 (Simulation time: 00 hr 13 min 16 sec)
Heartbeat CPU 0 instructions: 84500519 cycles: 67022489 heartbeat IPC: 0.6123 cumulative IPC: 0.6263 (Simulation time: 00 hr 13 min 24 sec)
Heartbeat CPU 0 instructions: 85000524 cycles: 67568448 heartbeat IPC: 0.9158 cumulative IPC: 0.6291 (Simulation time: 00 hr 13 min 30 sec)
Heartbeat CPU 0 instructions: 85500531 cycles: 68118121 heartbeat IPC: 0.9096 cumulative IPC: 0.6318 (Simulation time: 00 hr 13 min 36 sec)
Heartbeat CPU 0 instructions: 86000537 cycles: 68675014 heartbeat IPC: 0.8978 cumulative IPC: 0.6345 (Simulation time: 00 hr 13 min 42 sec)
Heartbeat CPU 0 instructions: 86500537 cycles: 69197074 heartbeat IPC: 0.9577 cumulative IPC: 0.6374 (Simulation time: 00 hr 13 min 48 sec)
Heartbeat CPU 0 instructions: 87000540 cycles: 69720699 heartbeat IPC: 0.9549 cumulative IPC: 0.6403 (Simulation time: 00 hr 13 min 54 sec)
Heartbeat CPU 0 instructions: 87500545 cycles: 70192520 heartbeat IPC: 1.06 cumulative IPC: 0.6437 (Simulation time: 00 hr 13 min 59 sec)
Heartbeat CPU 0 instructions: 88000547 cycles: 70661021 heartbeat IPC: 1.067 cumulative IPC: 0.6471 (Simulation time: 00 hr 14 min 04 sec)
Heartbeat CPU 0 instructions: 88500549 cycles: 71110875 heartbeat IPC: 1.111 cumulative IPC: 0.6506 (Simulation time: 00 hr 14 min 09 sec)
Heartbeat CPU 0 instructions: 89000549 cycles: 71565121 heartbeat IPC: 1.101 cumulative IPC: 0.654 (Simulation time: 00 hr 14 min 14 sec)
Heartbeat CPU 0 instructions: 89500549 cycles: 71987150 heartbeat IPC: 1.185 cumulative IPC: 0.6577 (Simulation time: 00 hr 14 min 19 sec)
Heartbeat CPU 0 instructions: 90000553 cycles: 72410970 heartbeat IPC: 1.18 cumulative IPC: 0.6614 (Simulation time: 00 hr 14 min 24 sec)
Heartbeat CPU 0 instructions: 90500556 cycles: 72831146 heartbeat IPC: 1.19 cumulative IPC: 0.665 (Simulation time: 00 hr 14 min 28 sec)
Heartbeat CPU 0 instructions: 91000560 cycles: 73218556 heartbeat IPC: 1.291 cumulative IPC: 0.669 (Simulation time: 00 hr 14 min 33 sec)
Heartbeat CPU 0 instructions: 91500563 cycles: 73615501 heartbeat IPC: 1.26 cumulative IPC: 0.6728 (Simulation time: 00 hr 14 min 37 sec)
Heartbeat CPU 0 instructions: 92000569 cycles: 73995838 heartbeat IPC: 1.315 cumulative IPC: 0.6767 (Simulation time: 00 hr 14 min 42 sec)
Heartbeat CPU 0 instructions: 92500571 cycles: 74392513 heartbeat IPC: 1.26 cumulative IPC: 0.6804 (Simulation time: 00 hr 14 min 46 sec)
Heartbeat CPU 0 instructions: 93000573 cycles: 74771171 heartbeat IPC: 1.32 cumulative IPC: 0.6843 (Simulation time: 00 hr 14 min 51 sec)
Heartbeat CPU 0 instructions: 93500579 cycles: 75159820 heartbeat IPC: 1.287 cumulative IPC: 0.688 (Simulation time: 00 hr 14 min 55 sec)
Heartbeat CPU 0 instructions: 94000585 cycles: 75562097 heartbeat IPC: 1.243 cumulative IPC: 0.6915 (Simulation time: 00 hr 15 min 00 sec)
Heartbeat CPU 0 instructions: 94500591 cycles: 75952997 heartbeat IPC: 1.279 cumulative IPC: 0.6951 (Simulation time: 00 hr 15 min 04 sec)
Heartbeat CPU 0 instructions: 95000591 cycles: 76337582 heartbeat IPC: 1.3 cumulative IPC: 0.6987 (Simulation time: 00 hr 15 min 09 sec)
Heartbeat CPU 0 instructions: 95500593 cycles: 76719061 heartbeat IPC: 1.311 cumulative IPC: 0.7023 (Simulation time: 00 hr 15 min 13 sec)
Heartbeat CPU 0 instructions: 96000593 cycles: 77086927 heartbeat IPC: 1.359 cumulative IPC: 0.706 (Simulation time: 00 hr 15 min 17 sec)
Heartbeat CPU 0 instructions: 96500599 cycles: 77467552 heartbeat IPC: 1.314 cumulative IPC: 0.7095 (Simulation time: 00 hr 15 min 22 sec)
Heartbeat CPU 0 instructions: 97000604 cycles: 77848873 heartbeat IPC: 1.311 cumulative IPC: 0.713 (Simulation time: 00 hr 15 min 26 sec)
Heartbeat CPU 0 instructions: 97500609 cycles: 78247032 heartbeat IPC: 1.256 cumulative IPC: 0.7163 (Simulation time: 00 hr 15 min 31 sec)
Heartbeat CPU 0 instructions: 98000611 cycles: 78631109 heartbeat IPC: 1.302 cumulative IPC: 0.7197 (Simulation time: 00 hr 15 min 35 sec)
Heartbeat CPU 0 instructions: 98500611 cycles: 79390346 heartbeat IPC: 0.6586 cumulative IPC: 0.719 (Simulation time: 00 hr 15 min 43 sec)
Heartbeat CPU 0 instructions: 99000616 cycles: 80483615 heartbeat IPC: 0.4573 cumulative IPC: 0.7148 (Simulation time: 00 hr 15 min 54 sec)
Heartbeat CPU 0 instructions: 99500616 cycles: 81606749 heartbeat IPC: 0.4452 cumulative IPC: 0.7105 (Simulation time: 00 hr 16 min 06 sec)
Heartbeat CPU 0 instructions: 100000622 cycles: 82780258 heartbeat IPC: 0.4261 cumulative IPC: 0.7057 (Simulation time: 00 hr 16 min 17 sec)
Heartbeat CPU 0 instructions: 100500622 cycles: 83991438 heartbeat IPC: 0.4128 cumulative IPC: 0.7008 (Simulation time: 00 hr 16 min 29 sec)
Heartbeat CPU 0 instructions: 101000629 cycles: 85250669 heartbeat IPC: 0.3971 cumulative IPC: 0.6956 (Simulation time: 00 hr 16 min 42 sec)
Heartbeat CPU 0 instructions: 101500633 cycles: 86443770 heartbeat IPC: 0.4191 cumulative IPC: 0.6912 (Simulation time: 00 hr 16 min 54 sec)
Heartbeat CPU 0 instructions: 102000633 cycles: 87607063 heartbeat IPC: 0.4298 cumulative IPC: 0.6872 (Simulation time: 00 hr 17 min 06 sec)
Heartbeat CPU 0 instructions: 102500633 cycles: 88751423 heartbeat IPC: 0.4369 cumulative IPC: 0.6834 (Simulation time: 00 hr 17 min 17 sec)
Heartbeat CPU 0 instructions: 103000633 cycles: 89882616 heartbeat IPC: 0.442 cumulative IPC: 0.6799 (Simulation time: 00 hr 17 min 28 sec)
Heartbeat CPU 0 instructions: 103500633 cycles: 91037373 heartbeat IPC: 0.433 cumulative IPC: 0.6763 (Simulation time: 00 hr 17 min 40 sec)
Heartbeat CPU 0 instructions: 104000633 cycles: 92176897 heartbeat IPC: 0.4388 cumulative IPC: 0.6729 (Simulation time: 00 hr 17 min 51 sec)
Heartbeat CPU 0 instructions: 104500640 cycles: 93371239 heartbeat IPC: 0.4186 cumulative IPC: 0.6692 (Simulation time: 00 hr 18 min 03 sec)
Heartbeat CPU 0 instructions: 105000645 cycles: 94669950 heartbeat IPC: 0.385 cumulative IPC: 0.6648 (Simulation time: 00 hr 18 min 17 sec)
Heartbeat CPU 0 instructions: 105500646 cycles: 95925676 heartbeat IPC: 0.3982 cumulative IPC: 0.6608 (Simulation time: 00 hr 18 min 30 sec)
Heartbeat CPU 0 instructions: 106000653 cycles: 97182796 heartbeat IPC: 0.3977 cumulative IPC: 0.6569 (Simulation time: 00 hr 18 min 43 sec)
Heartbeat CPU 0 instructions: 106500656 cycles: 98488584 heartbeat IPC: 0.3829 cumulative IPC: 0.6528 (Simulation time: 00 hr 18 min 57 sec)
Heartbeat CPU 0 instructions: 107000656 cycles: 99709093 heartbeat IPC: 0.4097 cumulative IPC: 0.6494 (Simulation time: 00 hr 19 min 10 sec)
Heartbeat CPU 0 instructions: 107500656 cycles: 100889614 heartbeat IPC: 0.4235 cumulative IPC: 0.6464 (Simulation time: 00 hr 19 min 23 sec)
Heartbeat CPU 0 instructions: 108000656 cycles: 102075183 heartbeat IPC: 0.4217 cumulative IPC: 0.6434 (Simulation time: 00 hr 19 min 35 sec)
Heartbeat CPU 0 instructions: 108500658 cycles: 103203922 heartbeat IPC: 0.443 cumulative IPC: 0.6409 (Simulation time: 00 hr 19 min 47 sec)
Heartbeat CPU 0 instructions: 109000663 cycles: 104391377 heartbeat IPC: 0.4211 cumulative IPC: 0.6381 (Simulation time: 00 hr 20 min 00 sec)
Heartbeat CPU 0 instructions: 109500670 cycles: 105526340 heartbeat IPC: 0.4405 cumulative IPC: 0.6357 (Simulation time: 00 hr 20 min 12 sec)
Heartbeat CPU 0 instructions: 110000676 cycles: 106689810 heartbeat IPC: 0.4298 cumulative IPC: 0.6332 (Simulation time: 00 hr 20 min 25 sec)
Heartbeat CPU 0 instructions: 110500679 cycles: 107872152 heartbeat IPC: 0.4229 cumulative IPC: 0.6306 (Simulation time: 00 hr 20 min 37 sec)
Heartbeat CPU 0 instructions: 111000679 cycles: 109022277 heartbeat IPC: 0.4347 cumulative IPC: 0.6283 (Simulation time: 00 hr 20 min 50 sec)
Heartbeat CPU 0 instructions: 111500679 cycles: 110141172 heartbeat IPC: 0.4469 cumulative IPC: 0.6262 (Simulation time: 00 hr 21 min 01 sec)
Heartbeat CPU 0 instructions: 112000679 cycles: 111346709 heartbeat IPC: 0.4148 cumulative IPC: 0.6237 (Simulation time: 00 hr 21 min 14 sec)
Heartbeat CPU 0 instructions: 112500679 cycles: 112472902 heartbeat IPC: 0.444 cumulative IPC: 0.6216 (Simulation time: 00 hr 21 min 26 sec)
Heartbeat CPU 0 instructions: 113000681 cycles: 113471385 heartbeat IPC: 0.5008 cumulative IPC: 0.6205 (Simulation time: 00 hr 21 min 36 sec)
Heartbeat CPU 0 instructions: 113500684 cycles: 114451390 heartbeat IPC: 0.5102 cumulative IPC: 0.6194 (Simulation time: 00 hr 21 min 46 sec)
Heartbeat CPU 0 instructions: 114000685 cycles: 115468941 heartbeat IPC: 0.4914 cumulative IPC: 0.6181 (Simulation time: 00 hr 21 min 56 sec)
Heartbeat CPU 0 instructions: 114500685 cycles: 116548709 heartbeat IPC: 0.4631 cumulative IPC: 0.6165 (Simulation time: 00 hr 22 min 06 sec)
Heartbeat CPU 0 instructions: 115000692 cycles: 117590663 heartbeat IPC: 0.4799 cumulative IPC: 0.6152 (Simulation time: 00 hr 22 min 16 sec)
Heartbeat CPU 0 instructions: 115500694 cycles: 118655979 heartbeat IPC: 0.4693 cumulative IPC: 0.6137 (Simulation time: 00 hr 22 min 26 sec)
Heartbeat CPU 0 instructions: 116000700 cycles: 119723031 heartbeat IPC: 0.4686 cumulative IPC: 0.6123 (Simulation time: 00 hr 22 min 36 sec)
Heartbeat CPU 0 instructions: 116500706 cycles: 120795523 heartbeat IPC: 0.4662 cumulative IPC: 0.6109 (Simulation time: 00 hr 22 min 46 sec)
Heartbeat CPU 0 instructions: 117000706 cycles: 121917584 heartbeat IPC: 0.4456 cumulative IPC: 0.6092 (Simulation time: 00 hr 22 min 57 sec)
Heartbeat CPU 0 instructions: 117500707 cycles: 123029794 heartbeat IPC: 0.4496 cumulative IPC: 0.6076 (Simulation time: 00 hr 23 min 08 sec)
Heartbeat CPU 0 instructions: 118000712 cycles: 124228060 heartbeat IPC: 0.4173 cumulative IPC: 0.6055 (Simulation time: 00 hr 23 min 20 sec)
Heartbeat CPU 0 instructions: 118500715 cycles: 125438404 heartbeat IPC: 0.4131 cumulative IPC: 0.6035 (Simulation time: 00 hr 23 min 32 sec)
Heartbeat CPU 0 instructions: 119000716 cycles: 126742237 heartbeat IPC: 0.3835 cumulative IPC: 0.601 (Simulation time: 00 hr 23 min 46 sec)
Heartbeat CPU 0 instructions: 119500717 cycles: 128087872 heartbeat IPC: 0.3716 cumulative IPC: 0.5983 (Simulation time: 00 hr 23 min 59 sec)
Heartbeat CPU 0 instructions: 120000720 cycles: 129414241 heartbeat IPC: 0.377 cumulative IPC: 0.5958 (Simulation time: 00 hr 24 min 13 sec)
Heartbeat CPU 0 instructions: 120500720 cycles: 130738881 heartbeat IPC: 0.3775 cumulative IPC: 0.5934 (Simulation time: 00 hr 24 min 26 sec)
Heartbeat CPU 0 instructions: 121000720 cycles: 132104531 heartbeat IPC: 0.3661 cumulative IPC: 0.5908 (Simulation time: 00 hr 24 min 40 sec)
Heartbeat CPU 0 instructions: 121500721 cycles: 133410022 heartbeat IPC: 0.383 cumulative IPC: 0.5886 (Simulation time: 00 hr 24 min 53 sec)
Heartbeat CPU 0 instructions: 122000726 cycles: 134706623 heartbeat IPC: 0.3856 cumulative IPC: 0.5864 (Simulation time: 00 hr 25 min 06 sec)
Heartbeat CPU 0 instructions: 122500730 cycles: 135539047 heartbeat IPC: 0.6007 cumulative IPC: 0.5865 (Simulation time: 00 hr 25 min 15 sec)
Heartbeat CPU 0 instructions: 123000736 cycles: 136435894 heartbeat IPC: 0.5575 cumulative IPC: 0.5863 (Simulation time: 00 hr 25 min 24 sec)
Heartbeat CPU 0 instructions: 123500737 cycles: 137295484 heartbeat IPC: 0.5817 cumulative IPC: 0.5863 (Simulation time: 00 hr 25 min 33 sec)
Heartbeat CPU 0 instructions: 124000744 cycles: 138082014 heartbeat IPC: 0.6357 cumulative IPC: 0.5866 (Simulation time: 00 hr 25 min 41 sec)
Heartbeat CPU 0 instructions: 124500748 cycles: 138938338 heartbeat IPC: 0.5839 cumulative IPC: 0.5866 (Simulation time: 00 hr 25 min 50 sec)
Heartbeat CPU 0 instructions: 125000755 cycles: 139755012 heartbeat IPC: 0.6122 cumulative IPC: 0.5868 (Simulation time: 00 hr 25 min 59 sec)
Heartbeat CPU 0 instructions: 125500756 cycles: 140539372 heartbeat IPC: 0.6375 cumulative IPC: 0.5871 (Simulation time: 00 hr 26 min 07 sec)
Heartbeat CPU 0 instructions: 126000756 cycles: 141320247 heartbeat IPC: 0.6403 cumulative IPC: 0.5874 (Simulation time: 00 hr 26 min 15 sec)
Heartbeat CPU 0 instructions: 126500759 cycles: 142092461 heartbeat IPC: 0.6475 cumulative IPC: 0.5877 (Simulation time: 00 hr 26 min 24 sec)
Heartbeat CPU 0 instructions: 127000762 cycles: 142836511 heartbeat IPC: 0.672 cumulative IPC: 0.5882 (Simulation time: 00 hr 26 min 32 sec)
Heartbeat CPU 0 instructions: 127500763 cycles: 143551955 heartbeat IPC: 0.6989 cumulative IPC: 0.5888 (Simulation time: 00 hr 26 min 40 sec)
Heartbeat CPU 0 instructions: 128000769 cycles: 144269125 heartbeat IPC: 0.6972 cumulative IPC: 0.5894 (Simulation time: 00 hr 26 min 47 sec)
Heartbeat CPU 0 instructions: 128500772 cycles: 144985010 heartbeat IPC: 0.6984 cumulative IPC: 0.59 (Simulation time: 00 hr 26 min 55 sec)
Heartbeat CPU 0 instructions: 129000774 cycles: 145566556 heartbeat IPC: 0.8598 cumulative IPC: 0.5912 (Simulation time: 00 hr 27 min 02 sec)
Heartbeat CPU 0 instructions: 129500778 cycles: 146175778 heartbeat IPC: 0.8207 cumulative IPC: 0.5922 (Simulation time: 00 hr 27 min 08 sec)
Heartbeat CPU 0 instructions: 130000784 cycles: 146762709 heartbeat IPC: 0.8519 cumulative IPC: 0.5933 (Simulation time: 00 hr 27 min 15 sec)
Heartbeat CPU 0 instructions: 130500787 cycles: 147366608 heartbeat IPC: 0.828 cumulative IPC: 0.5944 (Simulation time: 00 hr 27 min 21 sec)
Heartbeat CPU 0 instructions: 131000794 cycles: 148106455 heartbeat IPC: 0.6758 cumulative IPC: 0.5948 (Simulation time: 00 hr 27 min 29 sec)
Heartbeat CPU 0 instructions: 131500794 cycles: 148960000 heartbeat IPC: 0.5858 cumulative IPC: 0.5948 (Simulation time: 00 hr 27 min 38 sec)
Heartbeat CPU 0 instructions: 132000794 cycles: 149814931 heartbeat IPC: 0.5848 cumulative IPC: 0.5947 (Simulation time: 00 hr 27 min 46 sec)
Heartbeat CPU 0 instructions: 132500796 cycles: 150758218 heartbeat IPC: 0.5301 cumulative IPC: 0.5943 (Simulation time: 00 hr 27 min 56 sec)
Heartbeat CPU 0 instructions: 133000802 cycles: 151685590 heartbeat IPC: 0.5392 cumulative IPC: 0.5939 (Simulation time: 00 hr 28 min 05 sec)
Heartbeat CPU 0 instructions: 133500808 cycles: 152767058 heartbeat IPC: 0.4623 cumulative IPC: 0.5929 (Simulation time: 00 hr 28 min 15 sec)
Heartbeat CPU 0 instructions: 134000808 cycles: 153929571 heartbeat IPC: 0.4301 cumulative IPC: 0.5916 (Simulation time: 00 hr 28 min 27 sec)
Heartbeat CPU 0 instructions: 134500811 cycles: 155117663 heartbeat IPC: 0.4208 cumulative IPC: 0.5901 (Simulation time: 00 hr 28 min 38 sec)
Heartbeat CPU 0 instructions: 135000814 cycles: 156278873 heartbeat IPC: 0.4306 cumulative IPC: 0.5889 (Simulation time: 00 hr 28 min 49 sec)
Heartbeat CPU 0 instructions: 135500819 cycles: 157484032 heartbeat IPC: 0.4149 cumulative IPC: 0.5874 (Simulation time: 00 hr 29 min 01 sec)
Heartbeat CPU 0 instructions: 136000819 cycles: 158222745 heartbeat IPC: 0.6769 cumulative IPC: 0.5879 (Simulation time: 00 hr 29 min 08 sec)
Heartbeat CPU 0 instructions: 136500822 cycles: 158995990 heartbeat IPC: 0.6466 cumulative IPC: 0.5882 (Simulation time: 00 hr 29 min 16 sec)
Heartbeat CPU 0 instructions: 137000822 cycles: 159814247 heartbeat IPC: 0.6111 cumulative IPC: 0.5883 (Simulation time: 00 hr 29 min 25 sec)
Heartbeat CPU 0 instructions: 137500827 cycles: 160579496 heartbeat IPC: 0.6534 cumulative IPC: 0.5886 (Simulation time: 00 hr 29 min 33 sec)
Heartbeat CPU 0 instructions: 138000827 cycles: 161299417 heartbeat IPC: 0.6945 cumulative IPC: 0.5892 (Simulation time: 00 hr 29 min 40 sec)
Heartbeat CPU 0 instructions: 138500830 cycles: 161995259 heartbeat IPC: 0.7186 cumulative IPC: 0.5898 (Simulation time: 00 hr 29 min 48 sec)
Heartbeat CPU 0 instructions: 139000834 cycles: 162648634 heartbeat IPC: 0.7653 cumulative IPC: 0.5905 (Simulation time: 00 hr 29 min 55 sec)
Heartbeat CPU 0 instructions: 139500834 cycles: 163291985 heartbeat IPC: 0.7772 cumulative IPC: 0.5913 (Simulation time: 00 hr 30 min 02 sec)
Heartbeat CPU 0 instructions: 140000837 cycles: 163898713 heartbeat IPC: 0.8241 cumulative IPC: 0.5922 (Simulation time: 00 hr 30 min 08 sec)
Heartbeat CPU 0 instructions: 140500838 cycles: 164497269 heartbeat IPC: 0.8353 cumulative IPC: 0.5932 (Simulation time: 00 hr 30 min 15 sec)
Heartbeat CPU 0 instructions: 141000842 cycles: 165113913 heartbeat IPC: 0.8108 cumulative IPC: 0.5941 (Simulation time: 00 hr 30 min 21 sec)
Heartbeat CPU 0 instructions: 141500849 cycles: 165721622 heartbeat IPC: 0.8228 cumulative IPC: 0.595 (Simulation time: 00 hr 30 min 28 sec)
Heartbeat CPU 0 instructions: 142000852 cycles: 166299477 heartbeat IPC: 0.8653 cumulative IPC: 0.596 (Simulation time: 00 hr 30 min 34 sec)
Heartbeat CPU 0 instructions: 142500858 cycles: 166902748 heartbeat IPC: 0.8288 cumulative IPC: 0.5969 (Simulation time: 00 hr 30 min 40 sec)
Heartbeat CPU 0 instructions: 143000859 cycles: 167496184 heartbeat IPC: 0.8426 cumulative IPC: 0.5978 (Simulation time: 00 hr 30 min 47 sec)
Heartbeat CPU 0 instructions: 143500863 cycles: 168094897 heartbeat IPC: 0.8351 cumulative IPC: 0.5987 (Simulation time: 00 hr 30 min 53 sec)
Heartbeat CPU 0 instructions: 144000867 cycles: 168701767 heartbeat IPC: 0.8239 cumulative IPC: 0.5996 (Simulation time: 00 hr 31 min 00 sec)
Heartbeat CPU 0 instructions: 144500867 cycles: 169281760 heartbeat IPC: 0.8621 cumulative IPC: 0.6006 (Simulation time: 00 hr 31 min 06 sec)
Heartbeat CPU 0 instructions: 145000871 cycles: 170025895 heartbeat IPC: 0.6719 cumulative IPC: 0.6009 (Simulation time: 00 hr 31 min 14 sec)
Heartbeat CPU 0 instructions: 145500874 cycles: 170877762 heartbeat IPC: 0.5869 cumulative IPC: 0.6008 (Simulation time: 00 hr 31 min 22 sec)
Heartbeat CPU 0 instructions: 146000880 cycles: 171793848 heartbeat IPC: 0.5458 cumulative IPC: 0.6005 (Simulation time: 00 hr 31 min 31 sec)
Heartbeat CPU 0 instructions: 146500886 cycles: 172804236 heartbeat IPC: 0.4949 cumulative IPC: 0.5999 (Simulation time: 00 hr 31 min 41 sec)
Heartbeat CPU 0 instructions: 147000892 cycles: 173860547 heartbeat IPC: 0.4734 cumulative IPC: 0.599 (Simulation time: 00 hr 31 min 51 sec)
Heartbeat CPU 0 instructions: 147500892 cycles: 174909283 heartbeat IPC: 0.4768 cumulative IPC: 0.5982 (Simulation time: 00 hr 32 min 01 sec)
Heartbeat CPU 0 instructions: 148000893 cycles: 175938131 heartbeat IPC: 0.486 cumulative IPC: 0.5975 (Simulation time: 00 hr 32 min 10 sec)
Heartbeat CPU 0 instructions: 148500898 cycles: 176984142 heartbeat IPC: 0.478 cumulative IPC: 0.5968 (Simulation time: 00 hr 32 min 20 sec)
Heartbeat CPU 0 instructions: 149000903 cycles: 178049143 heartbeat IPC: 0.4695 cumulative IPC: 0.596 (Simulation time: 00 hr 32 min 30 sec)
Heartbeat CPU 0 instructions: 149500903 cycles: 179141788 heartbeat IPC: 0.4576 cumulative IPC: 0.5951 (Simulation time: 00 hr 32 min 40 sec)
Heartbeat CPU 0 instructions: 150000906 cycles: 180063383 heartbeat IPC: 0.5425 cumulative IPC: 0.5948 (Simulation time: 00 hr 32 min 49 sec)
Heartbeat CPU 0 instructions: 150500909 cycles: 180827845 heartbeat IPC: 0.6541 cumulative IPC: 0.595 (Simulation time: 00 hr 32 min 56 sec)
Heartbeat CPU 0 instructions: 151000909 cycles: 181594798 heartbeat IPC: 0.6519 cumulative IPC: 0.5953 (Simulation time: 00 hr 33 min 04 sec)
Heartbeat CPU 0 instructions: 151500911 cycles: 182405120 heartbeat IPC: 0.617 cumulative IPC: 0.5954 (Simulation time: 00 hr 33 min 12 sec)
Heartbeat CPU 0 instructions: 152000916 cycles: 183154508 heartbeat IPC: 0.6672 cumulative IPC: 0.5957 (Simulation time: 00 hr 33 min 19 sec)
Heartbeat CPU 0 instructions: 152500918 cycles: 183878774 heartbeat IPC: 0.6904 cumulative IPC: 0.5961 (Simulation time: 00 hr 33 min 26 sec)
Heartbeat CPU 0 instructions: 153000919 cycles: 184567028 heartbeat IPC: 0.7265 cumulative IPC: 0.5966 (Simulation time: 00 hr 33 min 33 sec)
Heartbeat CPU 0 instructions: 153500923 cycles: 185237262 heartbeat IPC: 0.746 cumulative IPC: 0.5972 (Simulation time: 00 hr 33 min 40 sec)
Heartbeat CPU 0 instructions: 154000925 cycles: 185886306 heartbeat IPC: 0.7704 cumulative IPC: 0.5979 (Simulation time: 00 hr 33 min 46 sec)
Heartbeat CPU 0 instructions: 154500927 cycles: 186501307 heartbeat IPC: 0.813 cumulative IPC: 0.5986 (Simulation time: 00 hr 33 min 53 sec)
Heartbeat CPU 0 instructions: 155000929 cycles: 187147789 heartbeat IPC: 0.7734 cumulative IPC: 0.5993 (Simulation time: 00 hr 33 min 59 sec)
Heartbeat CPU 0 instructions: 155500931 cycles: 187773662 heartbeat IPC: 0.7989 cumulative IPC: 0.6 (Simulation time: 00 hr 34 min 06 sec)
Heartbeat CPU 0 instructions: 156000931 cycles: 188398813 heartbeat IPC: 0.7998 cumulative IPC: 0.6007 (Simulation time: 00 hr 34 min 12 sec)
Heartbeat CPU 0 instructions: 156500932 cycles: 189011154 heartbeat IPC: 0.8165 cumulative IPC: 0.6014 (Simulation time: 00 hr 34 min 18 sec)
Heartbeat CPU 0 instructions: 157000937 cycles: 189597587 heartbeat IPC: 0.8526 cumulative IPC: 0.6023 (Simulation time: 00 hr 34 min 24 sec)
Heartbeat CPU 0 instructions: 157500939 cycles: 190205052 heartbeat IPC: 0.8231 cumulative IPC: 0.603 (Simulation time: 00 hr 34 min 30 sec)
Heartbeat CPU 0 instructions: 158000941 cycles: 190793925 heartbeat IPC: 0.8491 cumulative IPC: 0.6038 (Simulation time: 00 hr 34 min 37 sec)
Heartbeat CPU 0 instructions: 158500946 cycles: 191395126 heartbeat IPC: 0.8317 cumulative IPC: 0.6046 (Simulation time: 00 hr 34 min 43 sec)
Heartbeat CPU 0 instructions: 159000953 cycles: 192055244 heartbeat IPC: 0.7575 cumulative IPC: 0.6051 (Simulation time: 00 hr 34 min 49 sec)
Heartbeat CPU 0 instructions: 159500953 cycles: 192786955 heartbeat IPC: 0.6833 cumulative IPC: 0.6055 (Simulation time: 00 hr 34 min 57 sec)
Heartbeat CPU 0 instructions: 160000953 cycles: 193531228 heartbeat IPC: 0.6718 cumulative IPC: 0.6057 (Simulation time: 00 hr 35 min 04 sec)
Heartbeat CPU 0 instructions: 160500959 cycles: 194336986 heartbeat IPC: 0.6205 cumulative IPC: 0.6058 (Simulation time: 00 hr 35 min 12 sec)
Heartbeat CPU 0 instructions: 161000965 cycles: 195171699 heartbeat IPC: 0.599 cumulative IPC: 0.6058 (Simulation time: 00 hr 35 min 20 sec)
Heartbeat CPU 0 instructions: 161500965 cycles: 196086563 heartbeat IPC: 0.5465 cumulative IPC: 0.6055 (Simulation time: 00 hr 35 min 29 sec)
Heartbeat CPU 0 instructions: 162000966 cycles: 196996899 heartbeat IPC: 0.5492 cumulative IPC: 0.6052 (Simulation time: 00 hr 35 min 38 sec)
Heartbeat CPU 0 instructions: 162500967 cycles: 197930475 heartbeat IPC: 0.5356 cumulative IPC: 0.6048 (Simulation time: 00 hr 35 min 47 sec)
Heartbeat CPU 0 instructions: 163000967 cycles: 198902527 heartbeat IPC: 0.5144 cumulative IPC: 0.6044 (Simulation time: 00 hr 35 min 56 sec)
Heartbeat CPU 0 instructions: 163500970 cycles: 199879138 heartbeat IPC: 0.512 cumulative IPC: 0.6039 (Simulation time: 00 hr 36 min 06 sec)
Heartbeat CPU 0 instructions: 164000973 cycles: 200870380 heartbeat IPC: 0.5044 cumulative IPC: 0.6034 (Simulation time: 00 hr 36 min 15 sec)
Heartbeat CPU 0 instructions: 164500973 cycles: 201856907 heartbeat IPC: 0.5068 cumulative IPC: 0.6029 (Simulation time: 00 hr 36 min 24 sec)
Heartbeat CPU 0 instructions: 165000973 cycles: 202499079 heartbeat IPC: 0.7786 cumulative IPC: 0.6035 (Simulation time: 00 hr 36 min 31 sec)
Heartbeat CPU 0 instructions: 165500979 cycles: 203047241 heartbeat IPC: 0.9122 cumulative IPC: 0.6044 (Simulation time: 00 hr 36 min 36 sec)
Heartbeat CPU 0 instructions: 166000985 cycles: 203597762 heartbeat IPC: 0.9082 cumulative IPC: 0.6052 (Simulation time: 00 hr 36 min 41 sec)
Heartbeat CPU 0 instructions: 166500991 cycles: 204118210 heartbeat IPC: 0.9607 cumulative IPC: 0.6062 (Simulation time: 00 hr 36 min 47 sec)
Heartbeat CPU 0 instructions: 167000997 cycles: 204667053 heartbeat IPC: 0.911 cumulative IPC: 0.6071 (Simulation time: 00 hr 36 min 52 sec)
Heartbeat CPU 0 instructions: 167501003 cycles: 205162151 heartbeat IPC: 1.01 cumulative IPC: 0.6081 (Simulation time: 00 hr 36 min 57 sec)
Heartbeat CPU 0 instructions: 168001003 cycles: 205630924 heartbeat IPC: 1.067 cumulative IPC: 0.6092 (Simulation time: 00 hr 37 min 02 sec)
Heartbeat CPU 0 instructions: 168501007 cycles: 206093425 heartbeat IPC: 1.081 cumulative IPC: 0.6103 (Simulation time: 00 hr 37 min 07 sec)
Heartbeat CPU 0 instructions: 169001013 cycles: 206554367 heartbeat IPC: 1.085 cumulative IPC: 0.6114 (Simulation time: 00 hr 37 min 11 sec)
Heartbeat CPU 0 instructions: 169501013 cycles: 206991655 heartbeat IPC: 1.143 cumulative IPC: 0.6126 (Simulation time: 00 hr 37 min 16 sec)
Heartbeat CPU 0 instructions: 170001017 cycles: 207431721 heartbeat IPC: 1.136 cumulative IPC: 0.6138 (Simulation time: 00 hr 37 min 20 sec)
Heartbeat CPU 0 instructions: 170501023 cycles: 207832778 heartbeat IPC: 1.247 cumulative IPC: 0.6151 (Simulation time: 00 hr 37 min 25 sec)
Heartbeat CPU 0 instructions: 171001024 cycles: 208243460 heartbeat IPC: 1.217 cumulative IPC: 0.6164 (Simulation time: 00 hr 37 min 29 sec)
Heartbeat CPU 0 instructions: 171501027 cycles: 208642351 heartbeat IPC: 1.253 cumulative IPC: 0.6177 (Simulation time: 00 hr 37 min 33 sec)
Heartbeat CPU 0 instructions: 172001031 cycles: 209035460 heartbeat IPC: 1.272 cumulative IPC: 0.619 (Simulation time: 00 hr 37 min 37 sec)
Heartbeat CPU 0 instructions: 172501037 cycles: 209424134 heartbeat IPC: 1.286 cumulative IPC: 0.6203 (Simulation time: 00 hr 37 min 41 sec)
Heartbeat CPU 0 instructions: 173001037 cycles: 209825739 heartbeat IPC: 1.245 cumulative IPC: 0.6216 (Simulation time: 00 hr 37 min 45 sec)
Heartbeat CPU 0 instructions: 173501042 cycles: 210222173 heartbeat IPC: 1.261 cumulative IPC: 0.6228 (Simulation time: 00 hr 37 min 49 sec)
Heartbeat CPU 0 instructions: 174001049 cycles: 210621635 heartbeat IPC: 1.252 cumulative IPC: 0.6241 (Simulation time: 00 hr 37 min 54 sec)
Heartbeat CPU 0 instructions: 174501052 cycles: 211002445 heartbeat IPC: 1.313 cumulative IPC: 0.6254 (Simulation time: 00 hr 37 min 58 sec)
Heartbeat CPU 0 instructions: 175001055 cycles: 211386843 heartbeat IPC: 1.301 cumulative IPC: 0.6267 (Simulation time: 00 hr 38 min 02 sec)
Heartbeat CPU 0 instructions: 175501059 cycles: 211783174 heartbeat IPC: 1.262 cumulative IPC: 0.628 (Simulation time: 00 hr 38 min 06 sec)
Heartbeat CPU 0 instructions: 176001065 cycles: 212154050 heartbeat IPC: 1.348 cumulative IPC: 0.6293 (Simulation time: 00 hr 38 min 10 sec)
Heartbeat CPU 0 instructions: 176501065 cycles: 212537269 heartbeat IPC: 1.305 cumulative IPC: 0.6306 (Simulation time: 00 hr 38 min 14 sec)
Heartbeat CPU 0 instructions: 177001069 cycles: 212916130 heartbeat IPC: 1.32 cumulative IPC: 0.6319 (Simulation time: 00 hr 38 min 18 sec)
Heartbeat CPU 0 instructions: 177501073 cycles: 213295583 heartbeat IPC: 1.318 cumulative IPC: 0.6332 (Simulation time: 00 hr 38 min 22 sec)
Heartbeat CPU 0 instructions: 178001077 cycles: 213687008 heartbeat IPC: 1.277 cumulative IPC: 0.6344 (Simulation time: 00 hr 38 min 26 sec)
Heartbeat CPU 0 instructions: 178501079 cycles: 214069933 heartbeat IPC: 1.306 cumulative IPC: 0.6357 (Simulation time: 00 hr 38 min 30 sec)
Heartbeat CPU 0 instructions: 179001082 cycles: 215115126 heartbeat IPC: 0.4784 cumulative IPC: 0.6349 (Simulation time: 00 hr 38 min 39 sec)
Heartbeat CPU 0 instructions: 179501082 cycles: 216210825 heartbeat IPC: 0.4563 cumulative IPC: 0.6339 (Simulation time: 00 hr 38 min 49 sec)
Heartbeat CPU 0 instructions: 180001084 cycles: 217369560 heartbeat IPC: 0.4315 cumulative IPC: 0.6328 (Simulation time: 00 hr 39 min 00 sec)
Heartbeat CPU 0 instructions: 180501087 cycles: 218558911 heartbeat IPC: 0.4204 cumulative IPC: 0.6316 (Simulation time: 00 hr 39 min 11 sec)
Heartbeat CPU 0 instructions: 181001094 cycles: 219803286 heartbeat IPC: 0.4018 cumulative IPC: 0.6302 (Simulation time: 00 hr 39 min 22 sec)
Heartbeat CPU 0 instructions: 181501095 cycles: 221049336 heartbeat IPC: 0.4013 cumulative IPC: 0.6288 (Simulation time: 00 hr 39 min 33 sec)
Heartbeat CPU 0 instructions: 182001095 cycles: 222211580 heartbeat IPC: 0.4302 cumulative IPC: 0.6277 (Simulation time: 00 hr 39 min 43 sec)
Heartbeat CPU 0 instructions: 182501099 cycles: 223364534 heartbeat IPC: 0.4337 cumulative IPC: 0.6267 (Simulation time: 00 hr 39 min 54 sec)
Heartbeat CPU 0 instructions: 183001099 cycles: 224480708 heartbeat IPC: 0.448 cumulative IPC: 0.6257 (Simulation time: 00 hr 40 min 03 sec)
Heartbeat CPU 0 instructions: 183501099 cycles: 225631839 heartbeat IPC: 0.4344 cumulative IPC: 0.6247 (Simulation time: 00 hr 40 min 14 sec)
Heartbeat CPU 0 instructions: 184001099 cycles: 226779528 heartbeat IPC: 0.4357 cumulative IPC: 0.6237 (Simulation time: 00 hr 40 min 24 sec)
Heartbeat CPU 0 instructions: 184501099 cycles: 227946640 heartbeat IPC: 0.4284 cumulative IPC: 0.6226 (Simulation time: 00 hr 40 min 34 sec)
Heartbeat CPU 0 instructions: 185001100 cycles: 229200871 heartbeat IPC: 0.3987 cumulative IPC: 0.6214 (Simulation time: 00 hr 40 min 46 sec)
Heartbeat CPU 0 instructions: 185501107 cycles: 230487989 heartbeat IPC: 0.3885 cumulative IPC: 0.62 (Simulation time: 00 hr 40 min 58 sec)
Heartbeat CPU 0 instructions: 186001110 cycles: 231752643 heartbeat IPC: 0.3954 cumulative IPC: 0.6187 (Simulation time: 00 hr 41 min 10 sec)
Heartbeat CPU 0 instructions: 186501117 cycles: 233044460 heartbeat IPC: 0.3871 cumulative IPC: 0.6173 (Simulation time: 00 hr 41 min 22 sec)
Heartbeat CPU 0 instructions: 187001117 cycles: 234252068 heartbeat IPC: 0.414 cumulative IPC: 0.6162 (Simulation time: 00 hr 41 min 33 sec)
Heartbeat CPU 0 instructions: 187501123 cycles: 235453011 heartbeat IPC: 0.4163 cumulative IPC: 0.6152 (Simulation time: 00 hr 41 min 45 sec)
Heartbeat CPU 0 instructions: 188001130 cycles: 236629080 heartbeat IPC: 0.4252 cumulative IPC: 0.6142 (Simulation time: 00 hr 41 min 56 sec)
Heartbeat CPU 0 instructions: 188501136 cycles: 237783063 heartbeat IPC: 0.4333 cumulative IPC: 0.6132 (Simulation time: 00 hr 42 min 07 sec)
Heartbeat CPU 0 instructions: 189001143 cycles: 238928984 heartbeat IPC: 0.4363 cumulative IPC: 0.6123 (Simulation time: 00 hr 42 min 18 sec)
Heartbeat CPU 0 instructions: 189501147 cycles: 240084537 heartbeat IPC: 0.4327 cumulative IPC: 0.6114 (Simulation time: 00 hr 42 min 29 sec)
Heartbeat CPU 0 instructions: 190001149 cycles: 241261294 heartbeat IPC: 0.4249 cumulative IPC: 0.6105 (Simulation time: 00 hr 42 min 40 sec)
Heartbeat CPU 0 instructions: 190501149 cycles: 242420839 heartbeat IPC: 0.4312 cumulative IPC: 0.6096 (Simulation time: 00 hr 42 min 51 sec)
Heartbeat CPU 0 instructions: 191001155 cycles: 243583223 heartbeat IPC: 0.4302 cumulative IPC: 0.6087 (Simulation time: 00 hr 43 min 02 sec)
Heartbeat CPU 0 instructions: 191501162 cycles: 244760756 heartbeat IPC: 0.4246 cumulative IPC: 0.6077 (Simulation time: 00 hr 43 min 13 sec)
Heartbeat CPU 0 instructions: 192001168 cycles: 245919134 heartbeat IPC: 0.4316 cumulative IPC: 0.6069 (Simulation time: 00 hr 43 min 24 sec)
Heartbeat CPU 0 instructions: 192501170 cycles: 247067729 heartbeat IPC: 0.4353 cumulative IPC: 0.606 (Simulation time: 00 hr 43 min 35 sec)
Heartbeat CPU 0 instructions: 193001172 cycles: 248146723 heartbeat IPC: 0.4634 cumulative IPC: 0.6054 (Simulation time: 00 hr 43 min 45 sec)
Heartbeat CPU 0 instructions: 193501174 cycles: 249096118 heartbeat IPC: 0.5267 cumulative IPC: 0.6051 (Simulation time: 00 hr 43 min 53 sec)
Heartbeat CPU 0 instructions: 194001180 cycles: 250092320 heartbeat IPC: 0.5019 cumulative IPC: 0.6046 (Simulation time: 00 hr 44 min 01 sec)
Heartbeat CPU 0 instructions: 194501181 cycles: 251148178 heartbeat IPC: 0.4735 cumulative IPC: 0.6041 (Simulation time: 00 hr 44 min 11 sec)
Heartbeat CPU 0 instructions: 195001185 cycles: 252196166 heartbeat IPC: 0.4771 cumulative IPC: 0.6035 (Simulation time: 00 hr 44 min 19 sec)
Heartbeat CPU 0 instructions: 195501188 cycles: 253226128 heartbeat IPC: 0.4855 cumulative IPC: 0.603 (Simulation time: 00 hr 44 min 28 sec)
Heartbeat CPU 0 instructions: 196001192 cycles: 254283363 heartbeat IPC: 0.4729 cumulative IPC: 0.6024 (Simulation time: 00 hr 44 min 37 sec)
Heartbeat CPU 0 instructions: 196501194 cycles: 255375377 heartbeat IPC: 0.4579 cumulative IPC: 0.6018 (Simulation time: 00 hr 44 min 46 sec)
Heartbeat CPU 0 instructions: 197001196 cycles: 256496286 heartbeat IPC: 0.4461 cumulative IPC: 0.6011 (Simulation time: 00 hr 44 min 55 sec)
Heartbeat CPU 0 instructions: 197501198 cycles: 257617997 heartbeat IPC: 0.4457 cumulative IPC: 0.6004 (Simulation time: 00 hr 45 min 05 sec)
Heartbeat CPU 0 instructions: 198001202 cycles: 258794314 heartbeat IPC: 0.4251 cumulative IPC: 0.5995 (Simulation time: 00 hr 45 min 15 sec)
Heartbeat CPU 0 instructions: 198501203 cycles: 260106706 heartbeat IPC: 0.381 cumulative IPC: 0.5984 (Simulation time: 00 hr 45 min 27 sec)
Heartbeat CPU 0 instructions: 199001208 cycles: 261484242 heartbeat IPC: 0.363 cumulative IPC: 0.5971 (Simulation time: 00 hr 45 min 39 sec)
Heartbeat CPU 0 instructions: 199501213 cycles: 262879182 heartbeat IPC: 0.3584 cumulative IPC: 0.5957 (Simulation time: 00 hr 45 min 51 sec)
Heartbeat CPU 0 instructions: 200001216 cycles: 264316360 heartbeat IPC: 0.3479 cumulative IPC: 0.5943 (Simulation time: 00 hr 46 min 04 sec)
Heartbeat CPU 0 instructions: 200501223 cycles: 265670805 heartbeat IPC: 0.3692 cumulative IPC: 0.5931 (Simulation time: 00 hr 46 min 16 sec)
Heartbeat CPU 0 instructions: 201001230 cycles: 266987671 heartbeat IPC: 0.3797 cumulative IPC: 0.592 (Simulation time: 00 hr 46 min 28 sec)
Heartbeat CPU 0 instructions: 201501237 cycles: 268324038 heartbeat IPC: 0.3742 cumulative IPC: 0.5909 (Simulation time: 00 hr 46 min 40 sec)
Heartbeat CPU 0 instructions: 202001239 cycles: 269636446 heartbeat IPC: 0.381 cumulative IPC: 0.5898 (Simulation time: 00 hr 46 min 51 sec)
Heartbeat CPU 0 instructions: 202501240 cycles: 270719575 heartbeat IPC: 0.4616 cumulative IPC: 0.5893 (Simulation time: 00 hr 47 min 01 sec)
Heartbeat CPU 0 instructions: 203001247 cycles: 271591715 heartbeat IPC: 0.5733 cumulative IPC: 0.5892 (Simulation time: 00 hr 47 min 09 sec)
Heartbeat CPU 0 instructions: 203501252 cycles: 272435190 heartbeat IPC: 0.5928 cumulative IPC: 0.5892 (Simulation time: 00 hr 47 min 17 sec)
Heartbeat CPU 0 instructions: 204001256 cycles: 273269502 heartbeat IPC: 0.5993 cumulative IPC: 0.5893 (Simulation time: 00 hr 47 min 24 sec)
Heartbeat CPU 0 instructions: 204501263 cycles: 274041278 heartbeat IPC: 0.6479 cumulative IPC: 0.5895 (Simulation time: 00 hr 47 min 31 sec)
Heartbeat CPU 0 instructions: 205001263 cycles: 274920983 heartbeat IPC: 0.5684 cumulative IPC: 0.5894 (Simulation time: 00 hr 47 min 39 sec)
Heartbeat CPU 0 instructions: 205501268 cycles: 275709849 heartbeat IPC: 0.6338 cumulative IPC: 0.5895 (Simulation time: 00 hr 47 min 47 sec)
Heartbeat CPU 0 instructions: 206001268 cycles: 276518578 heartbeat IPC: 0.6183 cumulative IPC: 0.5896 (Simulation time: 00 hr 47 min 54 sec)
Heartbeat CPU 0 instructions: 206501269 cycles: 277309387 heartbeat IPC: 0.6323 cumulative IPC: 0.5897 (Simulation time: 00 hr 48 min 02 sec)
Heartbeat CPU 0 instructions: 207001273 cycles: 278056880 heartbeat IPC: 0.6689 cumulative IPC: 0.59 (Simulation time: 00 hr 48 min 09 sec)
Heartbeat CPU 0 instructions: 207501278 cycles: 278811265 heartbeat IPC: 0.6628 cumulative IPC: 0.5902 (Simulation time: 00 hr 48 min 16 sec)
Heartbeat CPU 0 instructions: 208001280 cycles: 279549945 heartbeat IPC: 0.6769 cumulative IPC: 0.5904 (Simulation time: 00 hr 48 min 22 sec)
Heartbeat CPU 0 instructions: 208501287 cycles: 280276652 heartbeat IPC: 0.688 cumulative IPC: 0.5907 (Simulation time: 00 hr 48 min 29 sec)
Heartbeat CPU 0 instructions: 209001290 cycles: 280951774 heartbeat IPC: 0.7406 cumulative IPC: 0.591 (Simulation time: 00 hr 48 min 36 sec)
Heartbeat CPU 0 instructions: 209501297 cycles: 281530560 heartbeat IPC: 0.8639 cumulative IPC: 0.5916 (Simulation time: 00 hr 48 min 41 sec)
Heartbeat CPU 0 instructions: 210001303 cycles: 282138174 heartbeat IPC: 0.8229 cumulative IPC: 0.5921 (Simulation time: 00 hr 48 min 47 sec)
Heartbeat CPU 0 instructions: 210501304 cycles: 282724562 heartbeat IPC: 0.8527 cumulative IPC: 0.5927 (Simulation time: 00 hr 48 min 53 sec)
Heartbeat CPU 0 instructions: 211001304 cycles: 283332803 heartbeat IPC: 0.822 cumulative IPC: 0.5932 (Simulation time: 00 hr 48 min 58 sec)
Heartbeat CPU 0 instructions: 211501310 cycles: 284175248 heartbeat IPC: 0.5935 cumulative IPC: 0.5932 (Simulation time: 00 hr 49 min 06 sec)
Heartbeat CPU 0 instructions: 212001310 cycles: 285025703 heartbeat IPC: 0.5879 cumulative IPC: 0.5932 (Simulation time: 00 hr 49 min 13 sec)
Heartbeat CPU 0 instructions: 212501310 cycles: 285933867 heartbeat IPC: 0.5506 cumulative IPC: 0.5931 (Simulation time: 00 hr 49 min 21 sec)
Heartbeat CPU 0 instructions: 213001310 cycles: 286855352 heartbeat IPC: 0.5426 cumulative IPC: 0.5929 (Simulation time: 00 hr 49 min 29 sec)
Heartbeat CPU 0 instructions: 213501313 cycles: 287771280 heartbeat IPC: 0.5459 cumulative IPC: 0.5927 (Simulation time: 00 hr 49 min 37 sec)
Heartbeat CPU 0 instructions: 214001314 cycles: 288910527 heartbeat IPC: 0.4389 cumulative IPC: 0.5921 (Simulation time: 00 hr 49 min 47 sec)
Heartbeat CPU 0 instructions: 214501321 cycles: 290107027 heartbeat IPC: 0.4179 cumulative IPC: 0.5914 (Simulation time: 00 hr 49 min 57 sec)
Heartbeat CPU 0 instructions: 215001324 cycles: 291310334 heartbeat IPC: 0.4155 cumulative IPC: 0.5906 (Simulation time: 00 hr 50 min 07 sec)
Heartbeat CPU 0 instructions: 215501325 cycles: 292478436 heartbeat IPC: 0.428 cumulative IPC: 0.5899 (Simulation time: 00 hr 50 min 17 sec)
Heartbeat CPU 0 instructions: 216001330 cycles: 293540575 heartbeat IPC: 0.4708 cumulative IPC: 0.5895 (Simulation time: 00 hr 50 min 26 sec)
Heartbeat CPU 0 instructions: 216501337 cycles: 294272185 heartbeat IPC: 0.6834 cumulative IPC: 0.5897 (Simulation time: 00 hr 50 min 33 sec)
Heartbeat CPU 0 instructions: 217001339 cycles: 295073693 heartbeat IPC: 0.6238 cumulative IPC: 0.5898 (Simulation time: 00 hr 50 min 40 sec)
Heartbeat CPU 0 instructions: 217501340 cycles: 295879246 heartbeat IPC: 0.6207 cumulative IPC: 0.5899 (Simulation time: 00 hr 50 min 47 sec)
Heartbeat CPU 0 instructions: 218001342 cycles: 296607618 heartbeat IPC: 0.6865 cumulative IPC: 0.5902 (Simulation time: 00 hr 50 min 54 sec)
Heartbeat CPU 0 instructions: 218501342 cycles: 297323742 heartbeat IPC: 0.6982 cumulative IPC: 0.5904 (Simulation time: 00 hr 51 min 00 sec)
Heartbeat CPU 0 instructions: 219001342 cycles: 298011054 heartbeat IPC: 0.7275 cumulative IPC: 0.5908 (Simulation time: 00 hr 51 min 06 sec)
Heartbeat CPU 0 instructions: 219501346 cycles: 298675644 heartbeat IPC: 0.7523 cumulative IPC: 0.5911 (Simulation time: 00 hr 51 min 13 sec)
Heartbeat CPU 0 instructions: 220001350 cycles: 299320142 heartbeat IPC: 0.7758 cumulative IPC: 0.5915 (Simulation time: 00 hr 51 min 19 sec)
Heartbeat CPU 0 instructions: 220501354 cycles: 299939756 heartbeat IPC: 0.807 cumulative IPC: 0.592 (Simulation time: 00 hr 51 min 24 sec)
Heartbeat CPU 0 instructions: 221001356 cycles: 300523831 heartbeat IPC: 0.8561 cumulative IPC: 0.5925 (Simulation time: 00 hr 51 min 30 sec)
Heartbeat CPU 0 instructions: 221501357 cycles: 301135010 heartbeat IPC: 0.8181 cumulative IPC: 0.593 (Simulation time: 00 hr 51 min 36 sec)
Heartbeat CPU 0 instructions: 222001362 cycles: 301737810 heartbeat IPC: 0.8295 cumulative IPC: 0.5935 (Simulation time: 00 hr 51 min 41 sec)
Heartbeat CPU 0 instructions: 222501362 cycles: 302324887 heartbeat IPC: 0.8517 cumulative IPC: 0.594 (Simulation time: 00 hr 51 min 47 sec)
Heartbeat CPU 0 instructions: 223001363 cycles: 302921689 heartbeat IPC: 0.8378 cumulative IPC: 0.5945 (Simulation time: 00 hr 51 min 53 sec)
Heartbeat CPU 0 instructions: 223501366 cycles: 303530479 heartbeat IPC: 0.8213 cumulative IPC: 0.595 (Simulation time: 00 hr 51 min 58 sec)
Heartbeat CPU 0 instructions: 224001367 cycles: 304122529 heartbeat IPC: 0.8445 cumulative IPC: 0.5955 (Simulation time: 00 hr 52 min 04 sec)
Heartbeat CPU 0 instructions: 224501374 cycles: 304716046 heartbeat IPC: 0.8424 cumulative IPC: 0.596 (Simulation time: 00 hr 52 min 10 sec)
Heartbeat CPU 0 instructions: 225001378 cycles: 305312028 heartbeat IPC: 0.839 cumulative IPC: 0.5965 (Simulation time: 00 hr 52 min 15 sec)
Heartbeat CPU 0 instructions: 225501380 cycles: 306170173 heartbeat IPC: 0.5827 cumulative IPC: 0.5965 (Simulation time: 00 hr 52 min 23 sec)
Heartbeat CPU 0 instructions: 226001382 cycles: 307041448 heartbeat IPC: 0.5739 cumulative IPC: 0.5964 (Simulation time: 00 hr 52 min 30 sec)
Heartbeat CPU 0 instructions: 226501385 cycles: 307968046 heartbeat IPC: 0.5396 cumulative IPC: 0.5962 (Simulation time: 00 hr 52 min 38 sec)
Heartbeat CPU 0 instructions: 227001390 cycles: 308983014 heartbeat IPC: 0.4926 cumulative IPC: 0.5959 (Simulation time: 00 hr 52 min 47 sec)
Heartbeat CPU 0 instructions: 227501392 cycles: 310050988 heartbeat IPC: 0.4682 cumulative IPC: 0.5954 (Simulation time: 00 hr 52 min 56 sec)
Heartbeat CPU 0 instructions: 228001395 cycles: 311080621 heartbeat IPC: 0.4856 cumulative IPC: 0.595 (Simulation time: 00 hr 53 min 04 sec)
Heartbeat CPU 0 instructions: 228501398 cycles: 312132463 heartbeat IPC: 0.4754 cumulative IPC: 0.5946 (Simulation time: 00 hr 53 min 13 sec)
Heartbeat CPU 0 instructions: 229001401 cycles: 313224502 heartbeat IPC: 0.4579 cumulative IPC: 0.5941 (Simulation time: 00 hr 53 min 22 sec)
Heartbeat CPU 0 instructions: 229501408 cycles: 314305588 heartbeat IPC: 0.4625 cumulative IPC: 0.5936 (Simulation time: 00 hr 53 min 31 sec)
Heartbeat CPU 0 instructions: 230001409 cycles: 315403665 heartbeat IPC: 0.4553 cumulative IPC: 0.5931 (Simulation time: 00 hr 53 min 40 sec)
Heartbeat CPU 0 instructions: 230501415 cycles: 316151126 heartbeat IPC: 0.6689 cumulative IPC: 0.5933 (Simulation time: 00 hr 53 min 46 sec)
Heartbeat CPU 0 instructions: 231001417 cycles: 316931452 heartbeat IPC: 0.6408 cumulative IPC: 0.5934 (Simulation time: 00 hr 53 min 53 sec)
Heartbeat CPU 0 instructions: 231501420 cycles: 317708926 heartbeat IPC: 0.6431 cumulative IPC: 0.5936 (Simulation time: 00 hr 54 min 00 sec)
Heartbeat CPU 0 instructions: 232001422 cycles: 318452996 heartbeat IPC: 0.672 cumulative IPC: 0.5938 (Simulation time: 00 hr 54 min 07 sec)
Heartbeat CPU 0 instructions: 232501426 cycles: 319204260 heartbeat IPC: 0.6656 cumulative IPC: 0.5939 (Simulation time: 00 hr 54 min 13 sec)
Heartbeat CPU 0 instructions: 233001430 cycles: 319936132 heartbeat IPC: 0.6832 cumulative IPC: 0.5942 (Simulation time: 00 hr 54 min 20 sec)
Heartbeat CPU 0 instructions: 233501432 cycles: 320611854 heartbeat IPC: 0.74 cumulative IPC: 0.5945 (Simulation time: 00 hr 54 min 26 sec)
Heartbeat CPU 0 instructions: 234001437 cycles: 321282765 heartbeat IPC: 0.7453 cumulative IPC: 0.5948 (Simulation time: 00 hr 54 min 32 sec)
Heartbeat CPU 0 instructions: 234501437 cycles: 321926922 heartbeat IPC: 0.7762 cumulative IPC: 0.5952 (Simulation time: 00 hr 54 min 38 sec)
Heartbeat CPU 0 instructions: 235001439 cycles: 322570819 heartbeat IPC: 0.7765 cumulative IPC: 0.5956 (Simulation time: 00 hr 54 min 44 sec)
Heartbeat CPU 0 instructions: 235501444 cycles: 323197292 heartbeat IPC: 0.7981 cumulative IPC: 0.596 (Simulation time: 00 hr 54 min 49 sec)
Heartbeat CPU 0 instructions: 236001446 cycles: 323814285 heartbeat IPC: 0.8104 cumulative IPC: 0.5964 (Simulation time: 00 hr 54 min 55 sec)
Heartbeat CPU 0 instructions: 236501449 cycles: 324428188 heartbeat IPC: 0.8145 cumulative IPC: 0.5968 (Simulation time: 00 hr 55 min 01 sec)
Heartbeat CPU 0 instructions: 237001451 cycles: 325036176 heartbeat IPC: 0.8224 cumulative IPC: 0.5973 (Simulation time: 00 hr 55 min 06 sec)
Heartbeat CPU 0 instructions: 237501454 cycles: 325632117 heartbeat IPC: 0.839 cumulative IPC: 0.5977 (Simulation time: 00 hr 55 min 12 sec)
Heartbeat CPU 0 instructions: 238001457 cycles: 326244521 heartbeat IPC: 0.8165 cumulative IPC: 0.5981 (Simulation time: 00 hr 55 min 17 sec)
Heartbeat CPU 0 instructions: 238501457 cycles: 326840559 heartbeat IPC: 0.8389 cumulative IPC: 0.5986 (Simulation time: 00 hr 55 min 23 sec)
Heartbeat CPU 0 instructions: 239001462 cycles: 327417210 heartbeat IPC: 0.8671 cumulative IPC: 0.5991 (Simulation time: 00 hr 55 min 28 sec)
Heartbeat CPU 0 instructions: 239501463 cycles: 328123061 heartbeat IPC: 0.7084 cumulative IPC: 0.5993 (Simulation time: 00 hr 55 min 35 sec)
Heartbeat CPU 0 instructions: 240001463 cycles: 328838219 heartbeat IPC: 0.6991 cumulative IPC: 0.5996 (Simulation time: 00 hr 55 min 41 sec)
Heartbeat CPU 0 instructions: 240501463 cycles: 329586513 heartbeat IPC: 0.6682 cumulative IPC: 0.5997 (Simulation time: 00 hr 55 min 48 sec)
Heartbeat CPU 0 instructions: 241001463 cycles: 330397261 heartbeat IPC: 0.6167 cumulative IPC: 0.5998 (Simulation time: 00 hr 55 min 55 sec)
Heartbeat CPU 0 instructions: 241501467 cycles: 331257580 heartbeat IPC: 0.5812 cumulative IPC: 0.5997 (Simulation time: 00 hr 56 min 03 sec)
Heartbeat CPU 0 instructions: 242001467 cycles: 332163254 heartbeat IPC: 0.5521 cumulative IPC: 0.5996 (Simulation time: 00 hr 56 min 11 sec)
Heartbeat CPU 0 instructions: 242501467 cycles: 333074296 heartbeat IPC: 0.5488 cumulative IPC: 0.5994 (Simulation time: 00 hr 56 min 19 sec)
Heartbeat CPU 0 instructions: 243001471 cycles: 334060100 heartbeat IPC: 0.5072 cumulative IPC: 0.5991 (Simulation time: 00 hr 56 min 27 sec)
Heartbeat CPU 0 instructions: 243501475 cycles: 335005821 heartbeat IPC: 0.5287 cumulative IPC: 0.5989 (Simulation time: 00 hr 56 min 35 sec)
Heartbeat CPU 0 instructions: 244001477 cycles: 335987853 heartbeat IPC: 0.5092 cumulative IPC: 0.5987 (Simulation time: 00 hr 56 min 44 sec)
Heartbeat CPU 0 instructions: 244501483 cycles: 336982016 heartbeat IPC: 0.5029 cumulative IPC: 0.5984 (Simulation time: 00 hr 56 min 52 sec)
Heartbeat CPU 0 instructions: 245001483 cycles: 337900516 heartbeat IPC: 0.5444 cumulative IPC: 0.5982 (Simulation time: 00 hr 57 min 00 sec)
Heartbeat CPU 0 instructions: 245501489 cycles: 338445628 heartbeat IPC: 0.9173 cumulative IPC: 0.5988 (Simulation time: 00 hr 57 min 05 sec)
Heartbeat CPU 0 instructions: 246001493 cycles: 338975638 heartbeat IPC: 0.9434 cumulative IPC: 0.5993 (Simulation time: 00 hr 57 min 10 sec)
Heartbeat CPU 0 instructions: 246501497 cycles: 339533319 heartbeat IPC: 0.8966 cumulative IPC: 0.5998 (Simulation time: 00 hr 57 min 15 sec)
Heartbeat CPU 0 instructions: 247001499 cycles: 340060782 heartbeat IPC: 0.9479 cumulative IPC: 0.6004 (Simulation time: 00 hr 57 min 20 sec)
Heartbeat CPU 0 instructions: 247501499 cycles: 340592209 heartbeat IPC: 0.9409 cumulative IPC: 0.6009 (Simulation time: 00 hr 57 min 24 sec)
Heartbeat CPU 0 instructions: 248001504 cycles: 341083058 heartbeat IPC: 1.019 cumulative IPC: 0.6016 (Simulation time: 00 hr 57 min 29 sec)
Heartbeat CPU 0 instructions: 248501511 cycles: 341570194 heartbeat IPC: 1.026 cumulative IPC: 0.6022 (Simulation time: 00 hr 57 min 33 sec)
Heartbeat CPU 0 instructions: 249001511 cycles: 342050606 heartbeat IPC: 1.041 cumulative IPC: 0.6028 (Simulation time: 00 hr 57 min 38 sec)
Heartbeat CPU 0 instructions: 249501514 cycles: 342492636 heartbeat IPC: 1.131 cumulative IPC: 0.6035 (Simulation time: 00 hr 57 min 42 sec)
Simulation finished CPU 0 instructions: 200000004 cycles: 330995996 cumulative IPC: 0.6042 (Simulation time: 00 hr 57 min 46 sec)
Simulation complete CPU 0 instructions: 200000004 cycles: 330995996 cumulative IPC: 0.6042 (Simulation time: 00 hr 57 min 46 sec)

ChampSim completed all CPUs

=== Simulation ===
CPU 0 runs /local-ssd/ben/dpc4-traces/SPEC17/654.roms_s-523B.champsimtrace.xz

Region of Interest Statistics

CPU 0 cumulative IPC: 0.6042 instructions: 200000004 cycles: 330995996
CPU 0 Branch Prediction Accuracy: 99.85% MPKI: 0.0973 Average ROB Occupancy at Mispredict: 543.3
Branch type MPKI
BRANCH_DIRECT_JUMP: 1e-05
BRANCH_INDIRECT: 0
BRANCH_CONDITIONAL: 0.09729
BRANCH_DIRECT_CALL: 0
BRANCH_INDIRECT_CALL: 0
BRANCH_RETURN: 0

cpu0->cpu0_STLB TOTAL        ACCESS:     106669 HIT:        901 MISS:     105768 MSHR_MERGE:          0
cpu0->cpu0_STLB LOAD         ACCESS:     106669 HIT:        901 MISS:     105768 MSHR_MERGE:          0
cpu0->cpu0_STLB RFO          ACCESS:          0 HIT:          0 MISS:          0 MSHR_MERGE:          0
cpu0->cpu0_STLB PREFETCH     ACCESS:          0 HIT:          0 MISS:          0 MSHR_MERGE:          0
cpu0->cpu0_STLB WRITE        ACCESS:          0 HIT:          0 MISS:          0 MSHR_MERGE:          0
cpu0->cpu0_STLB TRANSLATION  ACCESS:          0 HIT:          0 MISS:          0 MSHR_MERGE:          0
cpu0->cpu0_STLB PREFETCH REQUESTED:          0 ISSUED:          0 USEFUL:          0 USELESS:          0
cpu0->cpu0_STLB AVERAGE MISS LATENCY: 459.7 cycles
cpu0->cpu0_L2C TOTAL        ACCESS:   21326819 HIT:   12522992 MISS:    8803827 MSHR_MERGE:    4059786
cpu0->cpu0_L2C LOAD         ACCESS:     290104 HIT:     159201 MISS:     130903 MSHR_MERGE:      44277
cpu0->cpu0_L2C RFO          ACCESS:    1208189 HIT:         12 MISS:    1208177 MSHR_MERGE:          0
cpu0->cpu0_L2C PREFETCH     ACCESS:   18330085 HIT:   10888416 MISS:    7441669 MSHR_MERGE:    4015509
cpu0->cpu0_L2C WRITE        ACCESS:    1474414 HIT:    1474403 MISS:         11 MSHR_MERGE:          0
cpu0->cpu0_L2C TRANSLATION  ACCESS:      24027 HIT:        960 MISS:      23067 MSHR_MERGE:          0
cpu0->cpu0_L2C PREFETCH REQUESTED:   15800115 ISSUED:   15303000 USEFUL:    2517684 USELESS:     688788
cpu0->cpu0_L2C AVERAGE MISS LATENCY: 1580 cycles
cpu0->cpu0_L1I TOTAL        ACCESS:   34125717 HIT:   34125683 MISS:         34 MSHR_MERGE:          2
cpu0->cpu0_L1I LOAD         ACCESS:   34125717 HIT:   34125683 MISS:         34 MSHR_MERGE:          2
cpu0->cpu0_L1I RFO          ACCESS:          0 HIT:          0 MISS:          0 MSHR_MERGE:          0
cpu0->cpu0_L1I PREFETCH     ACCESS:          0 HIT:          0 MISS:          0 MSHR_MERGE:          0
cpu0->cpu0_L1I WRITE        ACCESS:          0 HIT:          0 MISS:          0 MSHR_MERGE:          0
cpu0->cpu0_L1I TRANSLATION  ACCESS:          0 HIT:          0 MISS:          0 MSHR_MERGE:          0
cpu0->cpu0_L1I PREFETCH REQUESTED:          0 ISSUED:          0 USEFUL:          0 USELESS:          0
cpu0->cpu0_L1I AVERAGE MISS LATENCY: 1248 cycles
cpu0->cpu0_L1D TOTAL        ACCESS:   55164287 HIT:   41167651 MISS:   13996636 MSHR_MERGE:    9447256
cpu0->cpu0_L1D LOAD         ACCESS:   38236154 HIT:   36629532 MISS:    1606622 MSHR_MERGE:    1316550
cpu0->cpu0_L1D RFO          ACCESS:          0 HIT:          0 MISS:          0 MSHR_MERGE:          0
cpu0->cpu0_L1D PREFETCH     ACCESS:    5312600 HIT:    2098688 MISS:    3213912 MSHR_MERGE:     186820
cpu0->cpu0_L1D WRITE        ACCESS:   11403766 HIT:    2252255 MISS:    9151511 MSHR_MERGE:    7943322
cpu0->cpu0_L1D TRANSLATION  ACCESS:     211767 HIT:     187176 MISS:      24591 MSHR_MERGE:        564
cpu0->cpu0_L1D PREFETCH REQUESTED:   13904800 ISSUED:    5312592 USEFUL:    2900930 USELESS:     126125
cpu0->cpu0_L1D AVERAGE MISS LATENCY: 1334 cycles
cpu0->cpu0_ITLB TOTAL        ACCESS:   27043093 HIT:   27043093 MISS:          0 MSHR_MERGE:          0
cpu0->cpu0_ITLB LOAD         ACCESS:   27043093 HIT:   27043093 MISS:          0 MSHR_MERGE:          0
cpu0->cpu0_ITLB RFO          ACCESS:          0 HIT:          0 MISS:          0 MSHR_MERGE:          0
cpu0->cpu0_ITLB PREFETCH     ACCESS:          0 HIT:          0 MISS:          0 MSHR_MERGE:          0
cpu0->cpu0_ITLB WRITE        ACCESS:          0 HIT:          0 MISS:          0 MSHR_MERGE:          0
cpu0->cpu0_ITLB TRANSLATION  ACCESS:          0 HIT:          0 MISS:          0 MSHR_MERGE:          0
cpu0->cpu0_ITLB PREFETCH REQUESTED:          0 ISSUED:          0 USEFUL:          0 USELESS:          0
cpu0->cpu0_ITLB AVERAGE MISS LATENCY: - cycles
cpu0->cpu0_DTLB TOTAL        ACCESS:   51520391 HIT:   51080261 MISS:     440130 MSHR_MERGE:     333461
cpu0->cpu0_DTLB LOAD         ACCESS:   51520391 HIT:   51080261 MISS:     440130 MSHR_MERGE:     333461
cpu0->cpu0_DTLB RFO          ACCESS:          0 HIT:          0 MISS:          0 MSHR_MERGE:          0
cpu0->cpu0_DTLB PREFETCH     ACCESS:          0 HIT:          0 MISS:          0 MSHR_MERGE:          0
cpu0->cpu0_DTLB WRITE        ACCESS:          0 HIT:          0 MISS:          0 MSHR_MERGE:          0
cpu0->cpu0_DTLB TRANSLATION  ACCESS:          0 HIT:          0 MISS:          0 MSHR_MERGE:          0
cpu0->cpu0_DTLB PREFETCH REQUESTED:          0 ISSUED:          0 USEFUL:          0 USELESS:          0
cpu0->cpu0_DTLB AVERAGE MISS LATENCY: 461.8 cycles
cpu0->LLC TOTAL        ACCESS:    9455702 HIT:    2084164 MISS:    7371538 MSHR_MERGE:    1049045
cpu0->LLC LOAD         ACCESS:      86626 HIT:       4013 MISS:      82613 MSHR_MERGE:       2601
cpu0->LLC RFO          ACCESS:    1208177 HIT:        834 MISS:    1207343 MSHR_MERGE:          0
cpu0->LLC PREFETCH     ACCESS:    6663483 HIT:    1949669 MISS:    4713814 MSHR_MERGE:    1046444
cpu0->LLC WRITE        ACCESS:    1474349 HIT:     129647 MISS:    1344702 MSHR_MERGE:          0
cpu0->LLC TRANSLATION  ACCESS:      23067 HIT:          1 MISS:      23066 MSHR_MERGE:          0
cpu0->LLC PREFETCH REQUESTED:    4558107 ISSUED:    3237324 USEFUL:    1819452 USELESS:    1066675
cpu0->LLC AVERAGE MISS LATENCY: 780 cycles

DRAM Statistics

Channel 0 RQ ROW_BUFFER_HIT:      68653
  ROW_BUFFER_MISS:    4908929
  AVG DBUS CONGESTED CYCLE: 4.068
Channel 0 WQ ROW_BUFFER_HIT:       6679
  ROW_BUFFER_MISS:    1461403
  FULL:       6488
Channel 0 REFRESHES ISSUED:      27583
