[VMEM] WARNING: physical memory size is smaller than virtual memory size.

*** ChampSim Multicore Out-of-Order Simulator ***
Warmup Instructions: 50000000
Simulation Instructions: 200000000
Number of CPUs: 1
Page size: 4096
Core 0: /local-ssd/ben/dpc4-traces/SPEC17/620.omnetpp_s-874B.champsimtrace.xz
sBerti (Smart Stride + Berti) Prefetcher Initialized
Off-chip DRAM Size: 64 GiB Channels: 1 Width: 64-bit Data Rate: 800 MT/s
Heartbeat CPU 0 instructions: 500000 cycles: 219019 heartbeat IPC: 2.283 cumulative IPC: 2.283 (Simulation time: 00 hr 00 min 04 sec)
Heartbeat CPU 0 instructions: 1000003 cycles: 413970 heartbeat IPC: 2.565 cumulative IPC: 2.416 (Simulation time: 00 hr 00 min 08 sec)
Heartbeat CPU 0 instructions: 1500005 cycles: 594525 heartbeat IPC: 2.769 cumulative IPC: 2.523 (Simulation time: 00 hr 00 min 11 sec)
Heartbeat CPU 0 instructions: 2000005 cycles: 750530 heartbeat IPC: 3.205 cumulative IPC: 2.665 (Simulation time: 00 hr 00 min 14 sec)
Heartbeat CPU 0 instructions: 2500010 cycles: 923351 heartbeat IPC: 2.893 cumulative IPC: 2.708 (Simulation time: 00 hr 00 min 17 sec)
Heartbeat CPU 0 instructions: 3000010 cycles: 1094808 heartbeat IPC: 2.916 cumulative IPC: 2.74 (Simulation time: 00 hr 00 min 20 sec)
Heartbeat CPU 0 instructions: 3500013 cycles: 1272266 heartbeat IPC: 2.818 cumulative IPC: 2.751 (Simulation time: 00 hr 00 min 24 sec)
Heartbeat CPU 0 instructions: 4000018 cycles: 1448159 heartbeat IPC: 2.843 cumulative IPC: 2.762 (Simulation time: 00 hr 00 min 27 sec)
Heartbeat CPU 0 instructions: 4500018 cycles: 1619431 heartbeat IPC: 2.919 cumulative IPC: 2.779 (Simulation time: 00 hr 00 min 30 sec)
Heartbeat CPU 0 instructions: 5000019 cycles: 1782346 heartbeat IPC: 3.069 cumulative IPC: 2.805 (Simulation time: 00 hr 00 min 33 sec)
Heartbeat CPU 0 instructions: 5500025 cycles: 1953311 heartbeat IPC: 2.925 cumulative IPC: 2.816 (Simulation time: 00 hr 00 min 36 sec)
Heartbeat CPU 0 instructions: 6000028 cycles: 2118022 heartbeat IPC: 3.036 cumulative IPC: 2.833 (Simulation time: 00 hr 00 min 39 sec)
Heartbeat CPU 0 instructions: 6500030 cycles: 2297375 heartbeat IPC: 2.788 cumulative IPC: 2.829 (Simulation time: 00 hr 00 min 43 sec)
Heartbeat CPU 0 instructions: 7000036 cycles: 2469782 heartbeat IPC: 2.9 cumulative IPC: 2.834 (Simulation time: 00 hr 00 min 46 sec)
Heartbeat CPU 0 instructions: 7500043 cycles: 2623751 heartbeat IPC: 3.247 cumulative IPC: 2.859 (Simulation time: 00 hr 00 min 49 sec)
Heartbeat CPU 0 instructions: 8000047 cycles: 2781287 heartbeat IPC: 3.174 cumulative IPC: 2.876 (Simulation time: 00 hr 00 min 52 sec)
Heartbeat CPU 0 instructions: 8500053 cycles: 2936306 heartbeat IPC: 3.225 cumulative IPC: 2.895 (Simulation time: 00 hr 00 min 55 sec)
Heartbeat CPU 0 instructions: 9000060 cycles: 3111816 heartbeat IPC: 2.849 cumulative IPC: 2.892 (Simulation time: 00 hr 00 min 58 sec)
Heartbeat CPU 0 instructions: 9500066 cycles: 3265231 heartbeat IPC: 3.259 cumulative IPC: 2.909 (Simulation time: 00 hr 01 min 01 sec)
Heartbeat CPU 0 instructions: 10000070 cycles: 3431206 heartbeat IPC: 3.013 cumulative IPC: 2.914 (Simulation time: 00 hr 01 min 04 sec)
Heartbeat CPU 0 instructions: 10500076 cycles: 3586686 heartbeat IPC: 3.216 cumulative IPC: 2.928 (Simulation time: 00 hr 01 min 07 sec)
Heartbeat CPU 0 instructions: 11000077 cycles: 3746526 heartbeat IPC: 3.128 cumulative IPC: 2.936 (Simulation time: 00 hr 01 min 10 sec)
Heartbeat CPU 0 instructions: 11500084 cycles: 3901448 heartbeat IPC: 3.227 cumulative IPC: 2.948 (Simulation time: 00 hr 01 min 13 sec)
Heartbeat CPU 0 instructions: 12000089 cycles: 4066241 heartbeat IPC: 3.034 cumulative IPC: 2.951 (Simulation time: 00 hr 01 min 16 sec)
Heartbeat CPU 0 instructions: 12500092 cycles: 4216664 heartbeat IPC: 3.324 cumulative IPC: 2.964 (Simulation time: 00 hr 01 min 19 sec)
Heartbeat CPU 0 instructions: 13000095 cycles: 4383422 heartbeat IPC: 2.998 cumulative IPC: 2.966 (Simulation time: 00 hr 01 min 22 sec)
Heartbeat CPU 0 instructions: 13500100 cycles: 4545124 heartbeat IPC: 3.092 cumulative IPC: 2.97 (Simulation time: 00 hr 01 min 25 sec)
Heartbeat CPU 0 instructions: 14000107 cycles: 4715671 heartbeat IPC: 2.932 cumulative IPC: 2.969 (Simulation time: 00 hr 01 min 28 sec)
Heartbeat CPU 0 instructions: 14500111 cycles: 4874807 heartbeat IPC: 3.142 cumulative IPC: 2.974 (Simulation time: 00 hr 01 min 31 sec)
Heartbeat CPU 0 instructions: 15000114 cycles: 5023770 heartbeat IPC: 3.357 cumulative IPC: 2.986 (Simulation time: 00 hr 01 min 34 sec)
Heartbeat CPU 0 instructions: 15500115 cycles: 5192861 heartbeat IPC: 2.957 cumulative IPC: 2.985 (Simulation time: 00 hr 01 min 38 sec)
Heartbeat CPU 0 instructions: 16000122 cycles: 5330134 heartbeat IPC: 3.642 cumulative IPC: 3.002 (Simulation time: 00 hr 01 min 40 sec)
Heartbeat CPU 0 instructions: 16500125 cycles: 5481740 heartbeat IPC: 3.298 cumulative IPC: 3.01 (Simulation time: 00 hr 01 min 43 sec)
Heartbeat CPU 0 instructions: 17000125 cycles: 5637458 heartbeat IPC: 3.211 cumulative IPC: 3.016 (Simulation time: 00 hr 01 min 46 sec)
Heartbeat CPU 0 instructions: 17500125 cycles: 5799479 heartbeat IPC: 3.086 cumulative IPC: 3.018 (Simulation time: 00 hr 01 min 49 sec)
Heartbeat CPU 0 instructions: 18000127 cycles: 5949139 heartbeat IPC: 3.341 cumulative IPC: 3.026 (Simulation time: 00 hr 01 min 52 sec)
Heartbeat CPU 0 instructions: 18500131 cycles: 6115672 heartbeat IPC: 3.002 cumulative IPC: 3.025 (Simulation time: 00 hr 01 min 55 sec)
Heartbeat CPU 0 instructions: 19000138 cycles: 6252180 heartbeat IPC: 3.663 cumulative IPC: 3.039 (Simulation time: 00 hr 01 min 58 sec)
Heartbeat CPU 0 instructions: 19500141 cycles: 6417176 heartbeat IPC: 3.03 cumulative IPC: 3.039 (Simulation time: 00 hr 02 min 01 sec)
Heartbeat CPU 0 instructions: 20000144 cycles: 6571744 heartbeat IPC: 3.235 cumulative IPC: 3.043 (Simulation time: 00 hr 02 min 04 sec)
Heartbeat CPU 0 instructions: 20500144 cycles: 6714701 heartbeat IPC: 3.498 cumulative IPC: 3.053 (Simulation time: 00 hr 02 min 07 sec)
Heartbeat CPU 0 instructions: 21000145 cycles: 6873214 heartbeat IPC: 3.154 cumulative IPC: 3.055 (Simulation time: 00 hr 02 min 10 sec)
Heartbeat CPU 0 instructions: 21500152 cycles: 7036828 heartbeat IPC: 3.056 cumulative IPC: 3.055 (Simulation time: 00 hr 02 min 13 sec)
Heartbeat CPU 0 instructions: 22000153 cycles: 7175385 heartbeat IPC: 3.609 cumulative IPC: 3.066 (Simulation time: 00 hr 02 min 16 sec)
Heartbeat CPU 0 instructions: 22500154 cycles: 7338851 heartbeat IPC: 3.059 cumulative IPC: 3.066 (Simulation time: 00 hr 02 min 19 sec)
Heartbeat CPU 0 instructions: 23000160 cycles: 7486096 heartbeat IPC: 3.396 cumulative IPC: 3.072 (Simulation time: 00 hr 02 min 22 sec)
Heartbeat CPU 0 instructions: 23500167 cycles: 7620262 heartbeat IPC: 3.727 cumulative IPC: 3.084 (Simulation time: 00 hr 02 min 25 sec)
Heartbeat CPU 0 instructions: 24000167 cycles: 7779919 heartbeat IPC: 3.132 cumulative IPC: 3.085 (Simulation time: 00 hr 02 min 28 sec)
Heartbeat CPU 0 instructions: 24500170 cycles: 7922297 heartbeat IPC: 3.512 cumulative IPC: 3.093 (Simulation time: 00 hr 02 min 31 sec)
Heartbeat CPU 0 instructions: 25000176 cycles: 8065388 heartbeat IPC: 3.494 cumulative IPC: 3.1 (Simulation time: 00 hr 02 min 33 sec)
Heartbeat CPU 0 instructions: 25500180 cycles: 8231633 heartbeat IPC: 3.008 cumulative IPC: 3.098 (Simulation time: 00 hr 02 min 37 sec)
Heartbeat CPU 0 instructions: 26000187 cycles: 8376009 heartbeat IPC: 3.463 cumulative IPC: 3.104 (Simulation time: 00 hr 02 min 39 sec)
Heartbeat CPU 0 instructions: 26500188 cycles: 8521219 heartbeat IPC: 3.443 cumulative IPC: 3.11 (Simulation time: 00 hr 02 min 42 sec)
Heartbeat CPU 0 instructions: 27000191 cycles: 8658613 heartbeat IPC: 3.639 cumulative IPC: 3.118 (Simulation time: 00 hr 02 min 45 sec)
Heartbeat CPU 0 instructions: 27500192 cycles: 8821584 heartbeat IPC: 3.068 cumulative IPC: 3.117 (Simulation time: 00 hr 02 min 48 sec)
Heartbeat CPU 0 instructions: 28000192 cycles: 8969280 heartbeat IPC: 3.385 cumulative IPC: 3.122 (Simulation time: 00 hr 02 min 51 sec)
Heartbeat CPU 0 instructions: 28500195 cycles: 9112765 heartbeat IPC: 3.485 cumulative IPC: 3.128 (Simulation time: 00 hr 02 min 54 sec)
Heartbeat CPU 0 instructions: 29000199 cycles: 9270147 heartbeat IPC: 3.177 cumulative IPC: 3.128 (Simulation time: 00 hr 02 min 57 sec)
Heartbeat CPU 0 instructions: 29500204 cycles: 9427074 heartbeat IPC: 3.186 cumulative IPC: 3.129 (Simulation time: 00 hr 03 min 00 sec)
Heartbeat CPU 0 instructions: 30000209 cycles: 9575142 heartbeat IPC: 3.377 cumulative IPC: 3.133 (Simulation time: 00 hr 03 min 03 sec)
Heartbeat CPU 0 instructions: 30500215 cycles: 9714198 heartbeat IPC: 3.596 cumulative IPC: 3.14 (Simulation time: 00 hr 03 min 06 sec)
Heartbeat CPU 0 instructions: 31000217 cycles: 9862164 heartbeat IPC: 3.379 cumulative IPC: 3.143 (Simulation time: 00 hr 03 min 09 sec)
Heartbeat CPU 0 instructions: 31500224 cycles: 10019281 heartbeat IPC: 3.182 cumulative IPC: 3.144 (Simulation time: 00 hr 03 min 12 sec)
Heartbeat CPU 0 instructions: 32000230 cycles: 10160187 heartbeat IPC: 3.549 cumulative IPC: 3.15 (Simulation time: 00 hr 03 min 15 sec)
Heartbeat CPU 0 instructions: 32500235 cycles: 10293841 heartbeat IPC: 3.741 cumulative IPC: 3.157 (Simulation time: 00 hr 03 min 18 sec)
Heartbeat CPU 0 instructions: 33000236 cycles: 10440327 heartbeat IPC: 3.413 cumulative IPC: 3.161 (Simulation time: 00 hr 03 min 21 sec)
Heartbeat CPU 0 instructions: 33500238 cycles: 10581213 heartbeat IPC: 3.549 cumulative IPC: 3.166 (Simulation time: 00 hr 03 min 23 sec)
Heartbeat CPU 0 instructions: 34000242 cycles: 10723278 heartbeat IPC: 3.52 cumulative IPC: 3.171 (Simulation time: 00 hr 03 min 26 sec)
Heartbeat CPU 0 instructions: 34500243 cycles: 10872773 heartbeat IPC: 3.345 cumulative IPC: 3.173 (Simulation time: 00 hr 03 min 29 sec)
Heartbeat CPU 0 instructions: 35000244 cycles: 11022713 heartbeat IPC: 3.335 cumulative IPC: 3.175 (Simulation time: 00 hr 03 min 32 sec)
Heartbeat CPU 0 instructions: 35500248 cycles: 11163017 heartbeat IPC: 3.564 cumulative IPC: 3.18 (Simulation time: 00 hr 03 min 35 sec)
Heartbeat CPU 0 instructions: 36000255 cycles: 11310331 heartbeat IPC: 3.394 cumulative IPC: 3.183 (Simulation time: 00 hr 03 min 38 sec)
Heartbeat CPU 0 instructions: 36500262 cycles: 11459726 heartbeat IPC: 3.347 cumulative IPC: 3.185 (Simulation time: 00 hr 03 min 41 sec)
Heartbeat CPU 0 instructions: 37000269 cycles: 11604995 heartbeat IPC: 3.442 cumulative IPC: 3.188 (Simulation time: 00 hr 03 min 44 sec)
Heartbeat CPU 0 instructions: 37500270 cycles: 11759887 heartbeat IPC: 3.228 cumulative IPC: 3.189 (Simulation time: 00 hr 03 min 47 sec)
Heartbeat CPU 0 instructions: 38000274 cycles: 11947321 heartbeat IPC: 2.668 cumulative IPC: 3.181 (Simulation time: 00 hr 03 min 50 sec)
Heartbeat CPU 0 instructions: 38500275 cycles: 12110246 heartbeat IPC: 3.069 cumulative IPC: 3.179 (Simulation time: 00 hr 03 min 54 sec)
Heartbeat CPU 0 instructions: 39000276 cycles: 12266562 heartbeat IPC: 3.199 cumulative IPC: 3.179 (Simulation time: 00 hr 03 min 57 sec)
Heartbeat CPU 0 instructions: 39500282 cycles: 12383419 heartbeat IPC: 4.279 cumulative IPC: 3.19 (Simulation time: 00 hr 03 min 59 sec)
Heartbeat CPU 0 instructions: 40000286 cycles: 12539454 heartbeat IPC: 3.204 cumulative IPC: 3.19 (Simulation time: 00 hr 04 min 02 sec)
Heartbeat CPU 0 instructions: 40500292 cycles: 12681887 heartbeat IPC: 3.51 cumulative IPC: 3.194 (Simulation time: 00 hr 04 min 05 sec)
Heartbeat CPU 0 instructions: 41000295 cycles: 12811839 heartbeat IPC: 3.848 cumulative IPC: 3.2 (Simulation time: 00 hr 04 min 08 sec)
Heartbeat CPU 0 instructions: 41500295 cycles: 12948109 heartbeat IPC: 3.669 cumulative IPC: 3.205 (Simulation time: 00 hr 04 min 10 sec)
Heartbeat CPU 0 instructions: 42000299 cycles: 13105097 heartbeat IPC: 3.185 cumulative IPC: 3.205 (Simulation time: 00 hr 04 min 14 sec)
Heartbeat CPU 0 instructions: 42500301 cycles: 13246119 heartbeat IPC: 3.546 cumulative IPC: 3.209 (Simulation time: 00 hr 04 min 16 sec)
Heartbeat CPU 0 instructions: 43000302 cycles: 13398270 heartbeat IPC: 3.286 cumulative IPC: 3.209 (Simulation time: 00 hr 04 min 19 sec)
Heartbeat CPU 0 instructions: 43500304 cycles: 13532243 heartbeat IPC: 3.732 cumulative IPC: 3.215 (Simulation time: 00 hr 04 min 22 sec)
Heartbeat CPU 0 instructions: 44000311 cycles: 13674786 heartbeat IPC: 3.508 cumulative IPC: 3.218 (Simulation time: 00 hr 04 min 25 sec)
Heartbeat CPU 0 instructions: 44500313 cycles: 13804748 heartbeat IPC: 3.847 cumulative IPC: 3.224 (Simulation time: 00 hr 04 min 28 sec)
Heartbeat CPU 0 instructions: 45000317 cycles: 13953937 heartbeat IPC: 3.351 cumulative IPC: 3.225 (Simulation time: 00 hr 04 min 31 sec)
Heartbeat CPU 0 instructions: 45500324 cycles: 14091149 heartbeat IPC: 3.644 cumulative IPC: 3.229 (Simulation time: 00 hr 04 min 34 sec)
Heartbeat CPU 0 instructions: 46000331 cycles: 14222409 heartbeat IPC: 3.809 cumulative IPC: 3.234 (Simulation time: 00 hr 04 min 36 sec)
Heartbeat CPU 0 instructions: 46500335 cycles: 14368677 heartbeat IPC: 3.418 cumulative IPC: 3.236 (Simulation time: 00 hr 04 min 39 sec)
Heartbeat CPU 0 instructions: 47000337 cycles: 14516894 heartbeat IPC: 3.373 cumulative IPC: 3.238 (Simulation time: 00 hr 04 min 42 sec)
Heartbeat CPU 0 instructions: 47500343 cycles: 14663707 heartbeat IPC: 3.406 cumulative IPC: 3.239 (Simulation time: 00 hr 04 min 45 sec)
Heartbeat CPU 0 instructions: 48000347 cycles: 14814102 heartbeat IPC: 3.325 cumulative IPC: 3.24 (Simulation time: 00 hr 04 min 48 sec)
Heartbeat CPU 0 instructions: 48500347 cycles: 14944143 heartbeat IPC: 3.845 cumulative IPC: 3.245 (Simulation time: 00 hr 04 min 51 sec)
Heartbeat CPU 0 instructions: 49000353 cycles: 15086439 heartbeat IPC: 3.514 cumulative IPC: 3.248 (Simulation time: 00 hr 04 min 54 sec)
Heartbeat CPU 0 instructions: 49500358 cycles: 15225853 heartbeat IPC: 3.586 cumulative IPC: 3.251 (Simulation time: 00 hr 04 min 57 sec)
Warmup halting CPU 0 at instruction 50000007 cycle 15359072 for remainder of phase
Warmup finished CPU 0 instructions: 50000007 cycles: 15359072 cumulative IPC: 3.255 (Simulation time: 00 hr 04 min 59 sec)
Warmup complete CPU 0 instructions: 50000007 cycles: 15359072 cumulative IPC: 3.255 (Simulation time: 00 hr 04 min 59 sec)
Heartbeat CPU 0 instructions: 50000359 cycles: 15359116 heartbeat IPC: 3.752 cumulative IPC: 8 (Simulation time: 00 hr 04 min 59 sec)
Heartbeat CPU 0 instructions: 50500359 cycles: 16529453 heartbeat IPC: 0.4272 cumulative IPC: 0.4275 (Simulation time: 00 hr 05 min 09 sec)
Heartbeat CPU 0 instructions: 51000359 cycles: 17565195 heartbeat IPC: 0.4827 cumulative IPC: 0.4534 (Simulation time: 00 hr 05 min 17 sec)
Heartbeat CPU 0 instructions: 51500360 cycles: 19186479 heartbeat IPC: 0.3084 cumulative IPC: 0.392 (Simulation time: 00 hr 05 min 29 sec)
Heartbeat CPU 0 instructions: 52000361 cycles: 20794259 heartbeat IPC: 0.311 cumulative IPC: 0.368 (Simulation time: 00 hr 05 min 42 sec)
Heartbeat CPU 0 instructions: 52500362 cycles: 22601509 heartbeat IPC: 0.2767 cumulative IPC: 0.3452 (Simulation time: 00 hr 05 min 56 sec)
Heartbeat CPU 0 instructions: 53000368 cycles: 23614972 heartbeat IPC: 0.4934 cumulative IPC: 0.3634 (Simulation time: 00 hr 06 min 04 sec)
Heartbeat CPU 0 instructions: 53500373 cycles: 25046746 heartbeat IPC: 0.3492 cumulative IPC: 0.3613 (Simulation time: 00 hr 06 min 15 sec)
Heartbeat CPU 0 instructions: 54000374 cycles: 26021367 heartbeat IPC: 0.513 cumulative IPC: 0.3752 (Simulation time: 00 hr 06 min 23 sec)
Heartbeat CPU 0 instructions: 54500375 cycles: 27149905 heartbeat IPC: 0.4431 cumulative IPC: 0.3817 (Simulation time: 00 hr 06 min 32 sec)
Heartbeat CPU 0 instructions: 55000377 cycles: 28482717 heartbeat IPC: 0.3751 cumulative IPC: 0.381 (Simulation time: 00 hr 06 min 43 sec)
Heartbeat CPU 0 instructions: 55500379 cycles: 29721587 heartbeat IPC: 0.4036 cumulative IPC: 0.383 (Simulation time: 00 hr 06 min 52 sec)
Heartbeat CPU 0 instructions: 56000385 cycles: 30952066 heartbeat IPC: 0.4064 cumulative IPC: 0.3848 (Simulation time: 00 hr 07 min 02 sec)
Heartbeat CPU 0 instructions: 56500385 cycles: 32225242 heartbeat IPC: 0.3927 cumulative IPC: 0.3854 (Simulation time: 00 hr 07 min 12 sec)
Heartbeat CPU 0 instructions: 57000385 cycles: 33568305 heartbeat IPC: 0.3723 cumulative IPC: 0.3844 (Simulation time: 00 hr 07 min 22 sec)
Heartbeat CPU 0 instructions: 57500391 cycles: 34835311 heartbeat IPC: 0.3946 cumulative IPC: 0.3851 (Simulation time: 00 hr 07 min 32 sec)
Heartbeat CPU 0 instructions: 58000392 cycles: 36046261 heartbeat IPC: 0.4129 cumulative IPC: 0.3867 (Simulation time: 00 hr 07 min 42 sec)
Heartbeat CPU 0 instructions: 58500393 cycles: 37394840 heartbeat IPC: 0.3708 cumulative IPC: 0.3858 (Simulation time: 00 hr 07 min 52 sec)
Heartbeat CPU 0 instructions: 59000396 cycles: 38713778 heartbeat IPC: 0.3791 cumulative IPC: 0.3854 (Simulation time: 00 hr 08 min 02 sec)
Heartbeat CPU 0 instructions: 59500396 cycles: 40067737 heartbeat IPC: 0.3693 cumulative IPC: 0.3845 (Simulation time: 00 hr 08 min 12 sec)
Heartbeat CPU 0 instructions: 60000399 cycles: 41041031 heartbeat IPC: 0.5137 cumulative IPC: 0.3894 (Simulation time: 00 hr 08 min 20 sec)
Heartbeat CPU 0 instructions: 60500402 cycles: 42459138 heartbeat IPC: 0.3526 cumulative IPC: 0.3875 (Simulation time: 00 hr 08 min 31 sec)
Heartbeat CPU 0 instructions: 61000402 cycles: 43576637 heartbeat IPC: 0.4474 cumulative IPC: 0.3898 (Simulation time: 00 hr 08 min 39 sec)
Heartbeat CPU 0 instructions: 61500407 cycles: 44849234 heartbeat IPC: 0.3929 cumulative IPC: 0.39 (Simulation time: 00 hr 08 min 49 sec)
Heartbeat CPU 0 instructions: 62000407 cycles: 46215029 heartbeat IPC: 0.3661 cumulative IPC: 0.3889 (Simulation time: 00 hr 08 min 59 sec)
Heartbeat CPU 0 instructions: 62500414 cycles: 47487836 heartbeat IPC: 0.3928 cumulative IPC: 0.3891 (Simulation time: 00 hr 09 min 09 sec)
Heartbeat CPU 0 instructions: 63000420 cycles: 48610458 heartbeat IPC: 0.4454 cumulative IPC: 0.391 (Simulation time: 00 hr 09 min 17 sec)
Heartbeat CPU 0 instructions: 63500420 cycles: 49677331 heartbeat IPC: 0.4687 cumulative IPC: 0.3934 (Simulation time: 00 hr 09 min 25 sec)
Heartbeat CPU 0 instructions: 64000421 cycles: 50978165 heartbeat IPC: 0.3844 cumulative IPC: 0.3931 (Simulation time: 00 hr 09 min 35 sec)
Heartbeat CPU 0 instructions: 64500424 cycles: 52123488 heartbeat IPC: 0.4366 cumulative IPC: 0.3944 (Simulation time: 00 hr 09 min 44 sec)
Heartbeat CPU 0 instructions: 65000425 cycles: 53546943 heartbeat IPC: 0.3513 cumulative IPC: 0.3928 (Simulation time: 00 hr 09 min 55 sec)
Heartbeat CPU 0 instructions: 65500425 cycles: 54717454 heartbeat IPC: 0.4272 cumulative IPC: 0.3938 (Simulation time: 00 hr 10 min 04 sec)
Heartbeat CPU 0 instructions: 66000426 cycles: 55898874 heartbeat IPC: 0.4232 cumulative IPC: 0.3947 (Simulation time: 00 hr 10 min 13 sec)
Heartbeat CPU 0 instructions: 66500430 cycles: 57262439 heartbeat IPC: 0.3667 cumulative IPC: 0.3938 (Simulation time: 00 hr 10 min 23 sec)
Heartbeat CPU 0 instructions: 67000431 cycles: 58602368 heartbeat IPC: 0.3732 cumulative IPC: 0.3931 (Simulation time: 00 hr 10 min 33 sec)
Heartbeat CPU 0 instructions: 67500431 cycles: 59801700 heartbeat IPC: 0.4169 cumulative IPC: 0.3938 (Simulation time: 00 hr 10 min 42 sec)
Heartbeat CPU 0 instructions: 68000431 cycles: 60810222 heartbeat IPC: 0.4958 cumulative IPC: 0.396 (Simulation time: 00 hr 10 min 51 sec)
Heartbeat CPU 0 instructions: 68500434 cycles: 62174898 heartbeat IPC: 0.3664 cumulative IPC: 0.3952 (Simulation time: 00 hr 11 min 01 sec)
Heartbeat CPU 0 instructions: 69000434 cycles: 63487451 heartbeat IPC: 0.3809 cumulative IPC: 0.3948 (Simulation time: 00 hr 11 min 11 sec)
Heartbeat CPU 0 instructions: 69500440 cycles: 64507238 heartbeat IPC: 0.4903 cumulative IPC: 0.3968 (Simulation time: 00 hr 11 min 19 sec)
Heartbeat CPU 0 instructions: 70000441 cycles: 65758321 heartbeat IPC: 0.3997 cumulative IPC: 0.3968 (Simulation time: 00 hr 11 min 29 sec)
Heartbeat CPU 0 instructions: 70500444 cycles: 67029997 heartbeat IPC: 0.3932 cumulative IPC: 0.3967 (Simulation time: 00 hr 11 min 39 sec)
Heartbeat CPU 0 instructions: 71000446 cycles: 68090085 heartbeat IPC: 0.4717 cumulative IPC: 0.3983 (Simulation time: 00 hr 11 min 47 sec)
Heartbeat CPU 0 instructions: 71500449 cycles: 69268220 heartbeat IPC: 0.4244 cumulative IPC: 0.3988 (Simulation time: 00 hr 11 min 56 sec)
Heartbeat CPU 0 instructions: 72000453 cycles: 70563708 heartbeat IPC: 0.386 cumulative IPC: 0.3985 (Simulation time: 00 hr 12 min 06 sec)
Heartbeat CPU 0 instructions: 72500454 cycles: 71750549 heartbeat IPC: 0.4213 cumulative IPC: 0.399 (Simulation time: 00 hr 12 min 15 sec)
Heartbeat CPU 0 instructions: 73000457 cycles: 73170511 heartbeat IPC: 0.3521 cumulative IPC: 0.3979 (Simulation time: 00 hr 12 min 26 sec)
Heartbeat CPU 0 instructions: 73500460 cycles: 74538866 heartbeat IPC: 0.3654 cumulative IPC: 0.3971 (Simulation time: 00 hr 12 min 36 sec)
Heartbeat CPU 0 instructions: 74000465 cycles: 75839742 heartbeat IPC: 0.3844 cumulative IPC: 0.3968 (Simulation time: 00 hr 12 min 46 sec)
Heartbeat CPU 0 instructions: 74500472 cycles: 76972901 heartbeat IPC: 0.4413 cumulative IPC: 0.3976 (Simulation time: 00 hr 12 min 55 sec)
Heartbeat CPU 0 instructions: 75000472 cycles: 78266739 heartbeat IPC: 0.3864 cumulative IPC: 0.3974 (Simulation time: 00 hr 13 min 05 sec)
Heartbeat CPU 0 instructions: 75500479 cycles: 79749957 heartbeat IPC: 0.3371 cumulative IPC: 0.396 (Simulation time: 00 hr 13 min 16 sec)
Heartbeat CPU 0 instructions: 76000483 cycles: 80919572 heartbeat IPC: 0.4275 cumulative IPC: 0.3966 (Simulation time: 00 hr 13 min 25 sec)
Heartbeat CPU 0 instructions: 76500486 cycles: 81981070 heartbeat IPC: 0.471 cumulative IPC: 0.3978 (Simulation time: 00 hr 13 min 33 sec)
Heartbeat CPU 0 instructions: 77000486 cycles: 83416467 heartbeat IPC: 0.3483 cumulative IPC: 0.3967 (Simulation time: 00 hr 13 min 44 sec)
Heartbeat CPU 0 instructions: 77500493 cycles: 84762615 heartbeat IPC: 0.3714 cumulative IPC: 0.3962 (Simulation time: 00 hr 13 min 54 sec)
Heartbeat CPU 0 instructions: 78000497 cycles: 85754841 heartbeat IPC: 0.5039 cumulative IPC: 0.3978 (Simulation time: 00 hr 14 min 02 sec)
Heartbeat CPU 0 instructions: 78500499 cycles: 87128108 heartbeat IPC: 0.3641 cumulative IPC: 0.3971 (Simulation time: 00 hr 14 min 12 sec)
Heartbeat CPU 0 instructions: 79000504 cycles: 88345978 heartbeat IPC: 0.4106 cumulative IPC: 0.3973 (Simulation time: 00 hr 14 min 22 sec)
Heartbeat CPU 0 instructions: 79500505 cycles: 89729759 heartbeat IPC: 0.3613 cumulative IPC: 0.3967 (Simulation time: 00 hr 14 min 32 sec)
Heartbeat CPU 0 instructions: 80000507 cycles: 90919027 heartbeat IPC: 0.4204 cumulative IPC: 0.397 (Simulation time: 00 hr 14 min 42 sec)
Heartbeat CPU 0 instructions: 80500508 cycles: 92136095 heartbeat IPC: 0.4108 cumulative IPC: 0.3973 (Simulation time: 00 hr 14 min 51 sec)
Heartbeat CPU 0 instructions: 81000510 cycles: 93338863 heartbeat IPC: 0.4157 cumulative IPC: 0.3975 (Simulation time: 00 hr 15 min 00 sec)
Heartbeat CPU 0 instructions: 81500511 cycles: 94580854 heartbeat IPC: 0.4026 cumulative IPC: 0.3976 (Simulation time: 00 hr 15 min 10 sec)
Heartbeat CPU 0 instructions: 82000517 cycles: 95866390 heartbeat IPC: 0.3889 cumulative IPC: 0.3975 (Simulation time: 00 hr 15 min 20 sec)
Heartbeat CPU 0 instructions: 82500517 cycles: 97270122 heartbeat IPC: 0.3562 cumulative IPC: 0.3968 (Simulation time: 00 hr 15 min 30 sec)
Heartbeat CPU 0 instructions: 83000517 cycles: 98387511 heartbeat IPC: 0.4475 cumulative IPC: 0.3975 (Simulation time: 00 hr 15 min 40 sec)
Heartbeat CPU 0 instructions: 83500518 cycles: 99878904 heartbeat IPC: 0.3353 cumulative IPC: 0.3964 (Simulation time: 00 hr 15 min 51 sec)
Heartbeat CPU 0 instructions: 84000518 cycles: 101044060 heartbeat IPC: 0.4291 cumulative IPC: 0.3968 (Simulation time: 00 hr 16 min 00 sec)
Heartbeat CPU 0 instructions: 84500523 cycles: 102308880 heartbeat IPC: 0.3953 cumulative IPC: 0.3968 (Simulation time: 00 hr 16 min 09 sec)
Heartbeat CPU 0 instructions: 85000530 cycles: 103412009 heartbeat IPC: 0.4533 cumulative IPC: 0.3975 (Simulation time: 00 hr 16 min 18 sec)
Heartbeat CPU 0 instructions: 85500532 cycles: 104789008 heartbeat IPC: 0.3631 cumulative IPC: 0.397 (Simulation time: 00 hr 16 min 29 sec)
Heartbeat CPU 0 instructions: 86000532 cycles: 105819963 heartbeat IPC: 0.485 cumulative IPC: 0.398 (Simulation time: 00 hr 16 min 37 sec)
Heartbeat CPU 0 instructions: 86500533 cycles: 106694288 heartbeat IPC: 0.5719 cumulative IPC: 0.3996 (Simulation time: 00 hr 16 min 43 sec)
Heartbeat CPU 0 instructions: 87000538 cycles: 107864468 heartbeat IPC: 0.4273 cumulative IPC: 0.4 (Simulation time: 00 hr 16 min 52 sec)
Heartbeat CPU 0 instructions: 87500544 cycles: 108798688 heartbeat IPC: 0.5352 cumulative IPC: 0.4013 (Simulation time: 00 hr 16 min 59 sec)
Heartbeat CPU 0 instructions: 88000545 cycles: 110103526 heartbeat IPC: 0.3832 cumulative IPC: 0.4011 (Simulation time: 00 hr 17 min 09 sec)
Heartbeat CPU 0 instructions: 88500549 cycles: 111014298 heartbeat IPC: 0.549 cumulative IPC: 0.4025 (Simulation time: 00 hr 17 min 16 sec)
Heartbeat CPU 0 instructions: 89000551 cycles: 112165045 heartbeat IPC: 0.4345 cumulative IPC: 0.4029 (Simulation time: 00 hr 17 min 25 sec)
Heartbeat CPU 0 instructions: 89500557 cycles: 113478731 heartbeat IPC: 0.3806 cumulative IPC: 0.4026 (Simulation time: 00 hr 17 min 35 sec)
Heartbeat CPU 0 instructions: 90000562 cycles: 115094213 heartbeat IPC: 0.3095 cumulative IPC: 0.4011 (Simulation time: 00 hr 17 min 47 sec)
Heartbeat CPU 0 instructions: 90500566 cycles: 116250924 heartbeat IPC: 0.4323 cumulative IPC: 0.4014 (Simulation time: 00 hr 17 min 55 sec)
Heartbeat CPU 0 instructions: 91000569 cycles: 117258650 heartbeat IPC: 0.4962 cumulative IPC: 0.4024 (Simulation time: 00 hr 18 min 03 sec)
Heartbeat CPU 0 instructions: 91500569 cycles: 118654262 heartbeat IPC: 0.3583 cumulative IPC: 0.4018 (Simulation time: 00 hr 18 min 13 sec)
Heartbeat CPU 0 instructions: 92000575 cycles: 120004292 heartbeat IPC: 0.3704 cumulative IPC: 0.4014 (Simulation time: 00 hr 18 min 23 sec)
Heartbeat CPU 0 instructions: 92500581 cycles: 121307212 heartbeat IPC: 0.3838 cumulative IPC: 0.4011 (Simulation time: 00 hr 18 min 33 sec)
Heartbeat CPU 0 instructions: 93000581 cycles: 122596014 heartbeat IPC: 0.388 cumulative IPC: 0.401 (Simulation time: 00 hr 18 min 43 sec)
Heartbeat CPU 0 instructions: 93500581 cycles: 123944177 heartbeat IPC: 0.3709 cumulative IPC: 0.4006 (Simulation time: 00 hr 18 min 53 sec)
Heartbeat CPU 0 instructions: 94000581 cycles: 125405866 heartbeat IPC: 0.3421 cumulative IPC: 0.3998 (Simulation time: 00 hr 19 min 04 sec)
Heartbeat CPU 0 instructions: 94500587 cycles: 126413558 heartbeat IPC: 0.4962 cumulative IPC: 0.4007 (Simulation time: 00 hr 19 min 12 sec)
Heartbeat CPU 0 instructions: 95000587 cycles: 127586847 heartbeat IPC: 0.4262 cumulative IPC: 0.401 (Simulation time: 00 hr 19 min 21 sec)
Heartbeat CPU 0 instructions: 95500594 cycles: 128955120 heartbeat IPC: 0.3654 cumulative IPC: 0.4005 (Simulation time: 00 hr 19 min 31 sec)
Heartbeat CPU 0 instructions: 96000595 cycles: 130030115 heartbeat IPC: 0.4651 cumulative IPC: 0.4012 (Simulation time: 00 hr 19 min 39 sec)
Heartbeat CPU 0 instructions: 96500597 cycles: 131519178 heartbeat IPC: 0.3358 cumulative IPC: 0.4003 (Simulation time: 00 hr 19 min 50 sec)
Heartbeat CPU 0 instructions: 97000597 cycles: 132923498 heartbeat IPC: 0.356 cumulative IPC: 0.3998 (Simulation time: 00 hr 20 min 01 sec)
Heartbeat CPU 0 instructions: 97500597 cycles: 134174833 heartbeat IPC: 0.3996 cumulative IPC: 0.3998 (Simulation time: 00 hr 20 min 10 sec)
Heartbeat CPU 0 instructions: 98000602 cycles: 135416833 heartbeat IPC: 0.4026 cumulative IPC: 0.3998 (Simulation time: 00 hr 20 min 19 sec)
Heartbeat CPU 0 instructions: 98500609 cycles: 136702567 heartbeat IPC: 0.3889 cumulative IPC: 0.3997 (Simulation time: 00 hr 20 min 29 sec)
Heartbeat CPU 0 instructions: 99000613 cycles: 138078037 heartbeat IPC: 0.3635 cumulative IPC: 0.3993 (Simulation time: 00 hr 20 min 39 sec)
Heartbeat CPU 0 instructions: 99500614 cycles: 139295319 heartbeat IPC: 0.4108 cumulative IPC: 0.3994 (Simulation time: 00 hr 20 min 48 sec)
Heartbeat CPU 0 instructions: 100000614 cycles: 140552287 heartbeat IPC: 0.3978 cumulative IPC: 0.3994 (Simulation time: 00 hr 20 min 58 sec)
Heartbeat CPU 0 instructions: 100500618 cycles: 141657511 heartbeat IPC: 0.4524 cumulative IPC: 0.3999 (Simulation time: 00 hr 21 min 06 sec)
Heartbeat CPU 0 instructions: 101000620 cycles: 142989531 heartbeat IPC: 0.3754 cumulative IPC: 0.3996 (Simulation time: 00 hr 21 min 16 sec)
Heartbeat CPU 0 instructions: 101500626 cycles: 144434322 heartbeat IPC: 0.3461 cumulative IPC: 0.399 (Simulation time: 00 hr 21 min 27 sec)
Heartbeat CPU 0 instructions: 102000628 cycles: 145745627 heartbeat IPC: 0.3813 cumulative IPC: 0.3988 (Simulation time: 00 hr 21 min 37 sec)
Heartbeat CPU 0 instructions: 102500628 cycles: 146717278 heartbeat IPC: 0.5146 cumulative IPC: 0.3997 (Simulation time: 00 hr 21 min 44 sec)
Heartbeat CPU 0 instructions: 103000631 cycles: 147934367 heartbeat IPC: 0.4108 cumulative IPC: 0.3998 (Simulation time: 00 hr 21 min 53 sec)
Heartbeat CPU 0 instructions: 103500636 cycles: 149255681 heartbeat IPC: 0.3784 cumulative IPC: 0.3996 (Simulation time: 00 hr 22 min 03 sec)
Heartbeat CPU 0 instructions: 104000637 cycles: 150629758 heartbeat IPC: 0.3639 cumulative IPC: 0.3992 (Simulation time: 00 hr 22 min 13 sec)
Heartbeat CPU 0 instructions: 104500639 cycles: 151890565 heartbeat IPC: 0.3966 cumulative IPC: 0.3992 (Simulation time: 00 hr 22 min 23 sec)
Heartbeat CPU 0 instructions: 105000640 cycles: 152815115 heartbeat IPC: 0.5408 cumulative IPC: 0.4001 (Simulation time: 00 hr 22 min 30 sec)
Heartbeat CPU 0 instructions: 105500647 cycles: 154227725 heartbeat IPC: 0.354 cumulative IPC: 0.3997 (Simulation time: 00 hr 22 min 41 sec)
Heartbeat CPU 0 instructions: 106000647 cycles: 155634419 heartbeat IPC: 0.3554 cumulative IPC: 0.3992 (Simulation time: 00 hr 22 min 51 sec)
Heartbeat CPU 0 instructions: 106500650 cycles: 157599677 heartbeat IPC: 0.2544 cumulative IPC: 0.3972 (Simulation time: 00 hr 23 min 06 sec)
Heartbeat CPU 0 instructions: 107000650 cycles: 158805211 heartbeat IPC: 0.4148 cumulative IPC: 0.3974 (Simulation time: 00 hr 23 min 15 sec)
Heartbeat CPU 0 instructions: 107500652 cycles: 160164549 heartbeat IPC: 0.3678 cumulative IPC: 0.3971 (Simulation time: 00 hr 23 min 25 sec)
Heartbeat CPU 0 instructions: 108000656 cycles: 161156903 heartbeat IPC: 0.5039 cumulative IPC: 0.3978 (Simulation time: 00 hr 23 min 33 sec)
Heartbeat CPU 0 instructions: 108500658 cycles: 161847400 heartbeat IPC: 0.7241 cumulative IPC: 0.3994 (Simulation time: 00 hr 23 min 39 sec)
Heartbeat CPU 0 instructions: 109000659 cycles: 163265376 heartbeat IPC: 0.3526 cumulative IPC: 0.3989 (Simulation time: 00 hr 23 min 49 sec)
Heartbeat CPU 0 instructions: 109500659 cycles: 164297566 heartbeat IPC: 0.4844 cumulative IPC: 0.3995 (Simulation time: 00 hr 23 min 57 sec)
Heartbeat CPU 0 instructions: 110000663 cycles: 165545300 heartbeat IPC: 0.4007 cumulative IPC: 0.3995 (Simulation time: 00 hr 24 min 06 sec)
Heartbeat CPU 0 instructions: 110500667 cycles: 166888900 heartbeat IPC: 0.3721 cumulative IPC: 0.3993 (Simulation time: 00 hr 24 min 16 sec)
Heartbeat CPU 0 instructions: 111000670 cycles: 168185572 heartbeat IPC: 0.3856 cumulative IPC: 0.3991 (Simulation time: 00 hr 24 min 25 sec)
Heartbeat CPU 0 instructions: 111500673 cycles: 169402441 heartbeat IPC: 0.4109 cumulative IPC: 0.3992 (Simulation time: 00 hr 24 min 34 sec)
Heartbeat CPU 0 instructions: 112000678 cycles: 170623366 heartbeat IPC: 0.4095 cumulative IPC: 0.3993 (Simulation time: 00 hr 24 min 43 sec)
Heartbeat CPU 0 instructions: 112500682 cycles: 172152389 heartbeat IPC: 0.327 cumulative IPC: 0.3986 (Simulation time: 00 hr 24 min 54 sec)
Heartbeat CPU 0 instructions: 113000685 cycles: 173373896 heartbeat IPC: 0.4093 cumulative IPC: 0.3987 (Simulation time: 00 hr 25 min 03 sec)
Heartbeat CPU 0 instructions: 113500689 cycles: 174550233 heartbeat IPC: 0.4251 cumulative IPC: 0.3989 (Simulation time: 00 hr 25 min 12 sec)
Heartbeat CPU 0 instructions: 114000691 cycles: 175899931 heartbeat IPC: 0.3705 cumulative IPC: 0.3987 (Simulation time: 00 hr 25 min 22 sec)
Heartbeat CPU 0 instructions: 114500695 cycles: 176704652 heartbeat IPC: 0.6213 cumulative IPC: 0.3998 (Simulation time: 00 hr 25 min 28 sec)
Heartbeat CPU 0 instructions: 115000695 cycles: 178048829 heartbeat IPC: 0.372 cumulative IPC: 0.3995 (Simulation time: 00 hr 25 min 38 sec)
Heartbeat CPU 0 instructions: 115500701 cycles: 179131220 heartbeat IPC: 0.4619 cumulative IPC: 0.4 (Simulation time: 00 hr 25 min 46 sec)
Heartbeat CPU 0 instructions: 116000706 cycles: 180379702 heartbeat IPC: 0.4005 cumulative IPC: 0.4 (Simulation time: 00 hr 25 min 56 sec)
Heartbeat CPU 0 instructions: 116500713 cycles: 181699483 heartbeat IPC: 0.3789 cumulative IPC: 0.3998 (Simulation time: 00 hr 26 min 06 sec)
Heartbeat CPU 0 instructions: 117000717 cycles: 183081679 heartbeat IPC: 0.3617 cumulative IPC: 0.3995 (Simulation time: 00 hr 26 min 16 sec)
Heartbeat CPU 0 instructions: 117500717 cycles: 184190413 heartbeat IPC: 0.451 cumulative IPC: 0.3998 (Simulation time: 00 hr 26 min 24 sec)
Heartbeat CPU 0 instructions: 118000717 cycles: 185511641 heartbeat IPC: 0.3784 cumulative IPC: 0.3996 (Simulation time: 00 hr 26 min 34 sec)
Heartbeat CPU 0 instructions: 118500719 cycles: 186728255 heartbeat IPC: 0.411 cumulative IPC: 0.3997 (Simulation time: 00 hr 26 min 43 sec)
Heartbeat CPU 0 instructions: 119000721 cycles: 187866223 heartbeat IPC: 0.4394 cumulative IPC: 0.4 (Simulation time: 00 hr 26 min 52 sec)
Heartbeat CPU 0 instructions: 119500724 cycles: 189140665 heartbeat IPC: 0.3923 cumulative IPC: 0.3999 (Simulation time: 00 hr 27 min 01 sec)
Heartbeat CPU 0 instructions: 120000725 cycles: 190323476 heartbeat IPC: 0.4227 cumulative IPC: 0.4001 (Simulation time: 00 hr 27 min 10 sec)
Heartbeat CPU 0 instructions: 120500731 cycles: 191486435 heartbeat IPC: 0.4299 cumulative IPC: 0.4003 (Simulation time: 00 hr 27 min 18 sec)
Heartbeat CPU 0 instructions: 121000735 cycles: 192687461 heartbeat IPC: 0.4163 cumulative IPC: 0.4004 (Simulation time: 00 hr 27 min 27 sec)
Heartbeat CPU 0 instructions: 121500741 cycles: 194015928 heartbeat IPC: 0.3764 cumulative IPC: 0.4002 (Simulation time: 00 hr 27 min 37 sec)
Heartbeat CPU 0 instructions: 122000746 cycles: 195367067 heartbeat IPC: 0.3701 cumulative IPC: 0.4 (Simulation time: 00 hr 27 min 47 sec)
Heartbeat CPU 0 instructions: 122500748 cycles: 196588789 heartbeat IPC: 0.4093 cumulative IPC: 0.4 (Simulation time: 00 hr 27 min 56 sec)
Heartbeat CPU 0 instructions: 123000750 cycles: 197675723 heartbeat IPC: 0.46 cumulative IPC: 0.4004 (Simulation time: 00 hr 28 min 04 sec)
Heartbeat CPU 0 instructions: 123500751 cycles: 199025277 heartbeat IPC: 0.3705 cumulative IPC: 0.4002 (Simulation time: 00 hr 28 min 14 sec)
Heartbeat CPU 0 instructions: 124000751 cycles: 200533273 heartbeat IPC: 0.3316 cumulative IPC: 0.3996 (Simulation time: 00 hr 28 min 25 sec)
Heartbeat CPU 0 instructions: 124500754 cycles: 201608602 heartbeat IPC: 0.465 cumulative IPC: 0.4 (Simulation time: 00 hr 28 min 33 sec)
Heartbeat CPU 0 instructions: 125000756 cycles: 202896389 heartbeat IPC: 0.3883 cumulative IPC: 0.3999 (Simulation time: 00 hr 28 min 42 sec)
Heartbeat CPU 0 instructions: 125500763 cycles: 204076447 heartbeat IPC: 0.4237 cumulative IPC: 0.4001 (Simulation time: 00 hr 28 min 50 sec)
Heartbeat CPU 0 instructions: 126000765 cycles: 205330903 heartbeat IPC: 0.3986 cumulative IPC: 0.4001 (Simulation time: 00 hr 29 min 00 sec)
Heartbeat CPU 0 instructions: 126500765 cycles: 206427738 heartbeat IPC: 0.4559 cumulative IPC: 0.4004 (Simulation time: 00 hr 29 min 08 sec)
Heartbeat CPU 0 instructions: 127000772 cycles: 207763936 heartbeat IPC: 0.3742 cumulative IPC: 0.4002 (Simulation time: 00 hr 29 min 18 sec)
Heartbeat CPU 0 instructions: 127500772 cycles: 209018648 heartbeat IPC: 0.3985 cumulative IPC: 0.4002 (Simulation time: 00 hr 29 min 27 sec)
Heartbeat CPU 0 instructions: 128000776 cycles: 210149807 heartbeat IPC: 0.442 cumulative IPC: 0.4004 (Simulation time: 00 hr 29 min 35 sec)
Heartbeat CPU 0 instructions: 128500777 cycles: 211512108 heartbeat IPC: 0.367 cumulative IPC: 0.4002 (Simulation time: 00 hr 29 min 45 sec)
Heartbeat CPU 0 instructions: 129000779 cycles: 212884058 heartbeat IPC: 0.3644 cumulative IPC: 0.4 (Simulation time: 00 hr 29 min 55 sec)
Heartbeat CPU 0 instructions: 129500780 cycles: 214298401 heartbeat IPC: 0.3535 cumulative IPC: 0.3996 (Simulation time: 00 hr 30 min 05 sec)
Heartbeat CPU 0 instructions: 130000785 cycles: 215563608 heartbeat IPC: 0.3952 cumulative IPC: 0.3996 (Simulation time: 00 hr 30 min 14 sec)
Heartbeat CPU 0 instructions: 130500785 cycles: 216692695 heartbeat IPC: 0.4428 cumulative IPC: 0.3998 (Simulation time: 00 hr 30 min 22 sec)
Heartbeat CPU 0 instructions: 131000785 cycles: 217771541 heartbeat IPC: 0.4635 cumulative IPC: 0.4002 (Simulation time: 00 hr 30 min 30 sec)
Heartbeat CPU 0 instructions: 131500792 cycles: 219106787 heartbeat IPC: 0.3745 cumulative IPC: 0.4 (Simulation time: 00 hr 30 min 40 sec)
Heartbeat CPU 0 instructions: 132000795 cycles: 220446821 heartbeat IPC: 0.3731 cumulative IPC: 0.3998 (Simulation time: 00 hr 30 min 49 sec)
Heartbeat CPU 0 instructions: 132500798 cycles: 221757065 heartbeat IPC: 0.3816 cumulative IPC: 0.3997 (Simulation time: 00 hr 30 min 59 sec)
Heartbeat CPU 0 instructions: 133000803 cycles: 223028984 heartbeat IPC: 0.3931 cumulative IPC: 0.3997 (Simulation time: 00 hr 31 min 08 sec)
Heartbeat CPU 0 instructions: 133500803 cycles: 224064035 heartbeat IPC: 0.4831 cumulative IPC: 0.4001 (Simulation time: 00 hr 31 min 15 sec)
Heartbeat CPU 0 instructions: 134000803 cycles: 225374258 heartbeat IPC: 0.3816 cumulative IPC: 0.4 (Simulation time: 00 hr 31 min 25 sec)
Heartbeat CPU 0 instructions: 134500803 cycles: 226445072 heartbeat IPC: 0.4669 cumulative IPC: 0.4003 (Simulation time: 00 hr 31 min 32 sec)
Heartbeat CPU 0 instructions: 135000803 cycles: 227912021 heartbeat IPC: 0.3408 cumulative IPC: 0.3999 (Simulation time: 00 hr 31 min 43 sec)
Heartbeat CPU 0 instructions: 135500805 cycles: 228941547 heartbeat IPC: 0.4857 cumulative IPC: 0.4003 (Simulation time: 00 hr 31 min 50 sec)
Heartbeat CPU 0 instructions: 136000806 cycles: 230306083 heartbeat IPC: 0.3664 cumulative IPC: 0.4001 (Simulation time: 00 hr 32 min 00 sec)
Heartbeat CPU 0 instructions: 136500806 cycles: 231411120 heartbeat IPC: 0.4525 cumulative IPC: 0.4004 (Simulation time: 00 hr 32 min 08 sec)
Heartbeat CPU 0 instructions: 137000812 cycles: 232591310 heartbeat IPC: 0.4237 cumulative IPC: 0.4005 (Simulation time: 00 hr 32 min 16 sec)
Heartbeat CPU 0 instructions: 137500814 cycles: 233965412 heartbeat IPC: 0.3639 cumulative IPC: 0.4003 (Simulation time: 00 hr 32 min 26 sec)
Heartbeat CPU 0 instructions: 138000819 cycles: 234998658 heartbeat IPC: 0.4839 cumulative IPC: 0.4007 (Simulation time: 00 hr 32 min 34 sec)
Heartbeat CPU 0 instructions: 138500825 cycles: 236477344 heartbeat IPC: 0.3381 cumulative IPC: 0.4002 (Simulation time: 00 hr 32 min 44 sec)
Heartbeat CPU 0 instructions: 139000827 cycles: 237971516 heartbeat IPC: 0.3346 cumulative IPC: 0.3998 (Simulation time: 00 hr 32 min 54 sec)
Heartbeat CPU 0 instructions: 139500827 cycles: 239145709 heartbeat IPC: 0.4258 cumulative IPC: 0.3999 (Simulation time: 00 hr 33 min 03 sec)
Heartbeat CPU 0 instructions: 140000830 cycles: 239992593 heartbeat IPC: 0.5904 cumulative IPC: 0.4007 (Simulation time: 00 hr 33 min 09 sec)
Heartbeat CPU 0 instructions: 140500830 cycles: 241066933 heartbeat IPC: 0.4654 cumulative IPC: 0.401 (Simulation time: 00 hr 33 min 17 sec)
Heartbeat CPU 0 instructions: 141000833 cycles: 242501916 heartbeat IPC: 0.3484 cumulative IPC: 0.4006 (Simulation time: 00 hr 33 min 26 sec)
Heartbeat CPU 0 instructions: 141500840 cycles: 243263781 heartbeat IPC: 0.6563 cumulative IPC: 0.4015 (Simulation time: 00 hr 33 min 32 sec)
Heartbeat CPU 0 instructions: 142000847 cycles: 244696412 heartbeat IPC: 0.349 cumulative IPC: 0.4012 (Simulation time: 00 hr 33 min 42 sec)
Heartbeat CPU 0 instructions: 142500847 cycles: 245925114 heartbeat IPC: 0.4069 cumulative IPC: 0.4012 (Simulation time: 00 hr 33 min 51 sec)
Heartbeat CPU 0 instructions: 143000852 cycles: 247244793 heartbeat IPC: 0.3789 cumulative IPC: 0.4011 (Simulation time: 00 hr 34 min 00 sec)
Heartbeat CPU 0 instructions: 143500852 cycles: 248322042 heartbeat IPC: 0.4641 cumulative IPC: 0.4014 (Simulation time: 00 hr 34 min 08 sec)
Heartbeat CPU 0 instructions: 144000855 cycles: 249671429 heartbeat IPC: 0.3705 cumulative IPC: 0.4012 (Simulation time: 00 hr 34 min 17 sec)
Heartbeat CPU 0 instructions: 144500855 cycles: 250986899 heartbeat IPC: 0.3801 cumulative IPC: 0.4011 (Simulation time: 00 hr 34 min 27 sec)
Heartbeat CPU 0 instructions: 145000856 cycles: 252150991 heartbeat IPC: 0.4295 cumulative IPC: 0.4012 (Simulation time: 00 hr 34 min 35 sec)
Heartbeat CPU 0 instructions: 145500860 cycles: 253632015 heartbeat IPC: 0.3376 cumulative IPC: 0.4008 (Simulation time: 00 hr 34 min 45 sec)
Heartbeat CPU 0 instructions: 146000862 cycles: 254756295 heartbeat IPC: 0.4447 cumulative IPC: 0.401 (Simulation time: 00 hr 34 min 53 sec)
Heartbeat CPU 0 instructions: 146500868 cycles: 256045470 heartbeat IPC: 0.3878 cumulative IPC: 0.4009 (Simulation time: 00 hr 35 min 02 sec)
Heartbeat CPU 0 instructions: 147000871 cycles: 257292044 heartbeat IPC: 0.4011 cumulative IPC: 0.4009 (Simulation time: 00 hr 35 min 11 sec)
Heartbeat CPU 0 instructions: 147500871 cycles: 258734884 heartbeat IPC: 0.3465 cumulative IPC: 0.4006 (Simulation time: 00 hr 35 min 21 sec)
Heartbeat CPU 0 instructions: 148000871 cycles: 259896336 heartbeat IPC: 0.4305 cumulative IPC: 0.4008 (Simulation time: 00 hr 35 min 29 sec)
Heartbeat CPU 0 instructions: 148500874 cycles: 261018122 heartbeat IPC: 0.4457 cumulative IPC: 0.401 (Simulation time: 00 hr 35 min 37 sec)
Heartbeat CPU 0 instructions: 149000881 cycles: 262386535 heartbeat IPC: 0.3654 cumulative IPC: 0.4008 (Simulation time: 00 hr 35 min 46 sec)
Heartbeat CPU 0 instructions: 149500886 cycles: 263529617 heartbeat IPC: 0.4374 cumulative IPC: 0.4009 (Simulation time: 00 hr 35 min 54 sec)
Heartbeat CPU 0 instructions: 150000890 cycles: 264736897 heartbeat IPC: 0.4142 cumulative IPC: 0.401 (Simulation time: 00 hr 36 min 03 sec)
Heartbeat CPU 0 instructions: 150500891 cycles: 266008415 heartbeat IPC: 0.3932 cumulative IPC: 0.401 (Simulation time: 00 hr 36 min 12 sec)
Heartbeat CPU 0 instructions: 151000894 cycles: 267442643 heartbeat IPC: 0.3486 cumulative IPC: 0.4007 (Simulation time: 00 hr 36 min 21 sec)
Heartbeat CPU 0 instructions: 151500894 cycles: 268667621 heartbeat IPC: 0.4082 cumulative IPC: 0.4007 (Simulation time: 00 hr 36 min 30 sec)
Heartbeat CPU 0 instructions: 152000898 cycles: 269899421 heartbeat IPC: 0.4059 cumulative IPC: 0.4007 (Simulation time: 00 hr 36 min 39 sec)
Heartbeat CPU 0 instructions: 152500902 cycles: 271328562 heartbeat IPC: 0.3499 cumulative IPC: 0.4004 (Simulation time: 00 hr 36 min 48 sec)
Heartbeat CPU 0 instructions: 153000903 cycles: 272372274 heartbeat IPC: 0.4791 cumulative IPC: 0.4008 (Simulation time: 00 hr 36 min 56 sec)
Heartbeat CPU 0 instructions: 153500910 cycles: 273657052 heartbeat IPC: 0.3892 cumulative IPC: 0.4007 (Simulation time: 00 hr 37 min 05 sec)
Heartbeat CPU 0 instructions: 154000912 cycles: 274774021 heartbeat IPC: 0.4476 cumulative IPC: 0.4009 (Simulation time: 00 hr 37 min 13 sec)
Heartbeat CPU 0 instructions: 154500913 cycles: 276121369 heartbeat IPC: 0.3711 cumulative IPC: 0.4008 (Simulation time: 00 hr 37 min 22 sec)
Heartbeat CPU 0 instructions: 155000918 cycles: 277567904 heartbeat IPC: 0.3457 cumulative IPC: 0.4004 (Simulation time: 00 hr 37 min 31 sec)
Heartbeat CPU 0 instructions: 155500920 cycles: 278983394 heartbeat IPC: 0.3532 cumulative IPC: 0.4002 (Simulation time: 00 hr 37 min 41 sec)
Heartbeat CPU 0 instructions: 156000923 cycles: 280231243 heartbeat IPC: 0.4007 cumulative IPC: 0.4002 (Simulation time: 00 hr 37 min 50 sec)
Heartbeat CPU 0 instructions: 156500927 cycles: 281302169 heartbeat IPC: 0.4669 cumulative IPC: 0.4005 (Simulation time: 00 hr 37 min 57 sec)
Heartbeat CPU 0 instructions: 157000927 cycles: 282468042 heartbeat IPC: 0.4289 cumulative IPC: 0.4006 (Simulation time: 00 hr 38 min 06 sec)
Heartbeat CPU 0 instructions: 157500933 cycles: 283947348 heartbeat IPC: 0.338 cumulative IPC: 0.4002 (Simulation time: 00 hr 38 min 16 sec)
Heartbeat CPU 0 instructions: 158000934 cycles: 285098223 heartbeat IPC: 0.4345 cumulative IPC: 0.4004 (Simulation time: 00 hr 38 min 24 sec)
Heartbeat CPU 0 instructions: 158500940 cycles: 285835183 heartbeat IPC: 0.6785 cumulative IPC: 0.4011 (Simulation time: 00 hr 38 min 29 sec)
Heartbeat CPU 0 instructions: 159000941 cycles: 287081112 heartbeat IPC: 0.4013 cumulative IPC: 0.4011 (Simulation time: 00 hr 38 min 38 sec)
Heartbeat CPU 0 instructions: 159500944 cycles: 288443850 heartbeat IPC: 0.3669 cumulative IPC: 0.401 (Simulation time: 00 hr 38 min 48 sec)
Heartbeat CPU 0 instructions: 160000944 cycles: 289901651 heartbeat IPC: 0.343 cumulative IPC: 0.4007 (Simulation time: 00 hr 38 min 58 sec)
Heartbeat CPU 0 instructions: 160500947 cycles: 291884124 heartbeat IPC: 0.2522 cumulative IPC: 0.3996 (Simulation time: 00 hr 39 min 12 sec)
Heartbeat CPU 0 instructions: 161000950 cycles: 292851642 heartbeat IPC: 0.5168 cumulative IPC: 0.4 (Simulation time: 00 hr 39 min 19 sec)
Heartbeat CPU 0 instructions: 161500952 cycles: 294031281 heartbeat IPC: 0.4239 cumulative IPC: 0.4001 (Simulation time: 00 hr 39 min 27 sec)
Heartbeat CPU 0 instructions: 162000954 cycles: 294719042 heartbeat IPC: 0.727 cumulative IPC: 0.4009 (Simulation time: 00 hr 39 min 32 sec)
Heartbeat CPU 0 instructions: 162500954 cycles: 295906409 heartbeat IPC: 0.4211 cumulative IPC: 0.401 (Simulation time: 00 hr 39 min 41 sec)
Heartbeat CPU 0 instructions: 163000957 cycles: 297226030 heartbeat IPC: 0.3789 cumulative IPC: 0.4009 (Simulation time: 00 hr 39 min 49 sec)
Heartbeat CPU 0 instructions: 163500963 cycles: 298286334 heartbeat IPC: 0.4716 cumulative IPC: 0.4012 (Simulation time: 00 hr 39 min 57 sec)
Heartbeat CPU 0 instructions: 164000967 cycles: 299559702 heartbeat IPC: 0.3927 cumulative IPC: 0.4011 (Simulation time: 00 hr 40 min 05 sec)
Heartbeat CPU 0 instructions: 164500968 cycles: 300868834 heartbeat IPC: 0.3819 cumulative IPC: 0.401 (Simulation time: 00 hr 40 min 14 sec)
Heartbeat CPU 0 instructions: 165000970 cycles: 302058889 heartbeat IPC: 0.4202 cumulative IPC: 0.4011 (Simulation time: 00 hr 40 min 22 sec)
Heartbeat CPU 0 instructions: 165500974 cycles: 303233141 heartbeat IPC: 0.4258 cumulative IPC: 0.4012 (Simulation time: 00 hr 40 min 30 sec)
Heartbeat CPU 0 instructions: 166000975 cycles: 304611164 heartbeat IPC: 0.3628 cumulative IPC: 0.401 (Simulation time: 00 hr 40 min 39 sec)
Heartbeat CPU 0 instructions: 166500977 cycles: 305801278 heartbeat IPC: 0.4201 cumulative IPC: 0.4011 (Simulation time: 00 hr 40 min 48 sec)
Heartbeat CPU 0 instructions: 167000984 cycles: 307051806 heartbeat IPC: 0.3998 cumulative IPC: 0.4011 (Simulation time: 00 hr 40 min 56 sec)
Heartbeat CPU 0 instructions: 167500985 cycles: 308404007 heartbeat IPC: 0.3698 cumulative IPC: 0.401 (Simulation time: 00 hr 41 min 06 sec)
Heartbeat CPU 0 instructions: 168000988 cycles: 309572935 heartbeat IPC: 0.4277 cumulative IPC: 0.4011 (Simulation time: 00 hr 41 min 14 sec)
Heartbeat CPU 0 instructions: 168500993 cycles: 310912286 heartbeat IPC: 0.3733 cumulative IPC: 0.4009 (Simulation time: 00 hr 41 min 23 sec)
Heartbeat CPU 0 instructions: 169000999 cycles: 312205381 heartbeat IPC: 0.3867 cumulative IPC: 0.4009 (Simulation time: 00 hr 41 min 32 sec)
Heartbeat CPU 0 instructions: 169500999 cycles: 313323167 heartbeat IPC: 0.4473 cumulative IPC: 0.4011 (Simulation time: 00 hr 41 min 39 sec)
Heartbeat CPU 0 instructions: 170001006 cycles: 314344548 heartbeat IPC: 0.4895 cumulative IPC: 0.4014 (Simulation time: 00 hr 41 min 46 sec)
Heartbeat CPU 0 instructions: 170501007 cycles: 315544246 heartbeat IPC: 0.4168 cumulative IPC: 0.4014 (Simulation time: 00 hr 41 min 55 sec)
Heartbeat CPU 0 instructions: 171001012 cycles: 316926122 heartbeat IPC: 0.3618 cumulative IPC: 0.4012 (Simulation time: 00 hr 42 min 04 sec)
Heartbeat CPU 0 instructions: 171501017 cycles: 318186974 heartbeat IPC: 0.3966 cumulative IPC: 0.4012 (Simulation time: 00 hr 42 min 13 sec)
Heartbeat CPU 0 instructions: 172001022 cycles: 319367360 heartbeat IPC: 0.4236 cumulative IPC: 0.4013 (Simulation time: 00 hr 42 min 21 sec)
Heartbeat CPU 0 instructions: 172501025 cycles: 320671166 heartbeat IPC: 0.3835 cumulative IPC: 0.4012 (Simulation time: 00 hr 42 min 30 sec)
Heartbeat CPU 0 instructions: 173001026 cycles: 321620488 heartbeat IPC: 0.5267 cumulative IPC: 0.4016 (Simulation time: 00 hr 42 min 36 sec)
Heartbeat CPU 0 instructions: 173501031 cycles: 322876049 heartbeat IPC: 0.3982 cumulative IPC: 0.4016 (Simulation time: 00 hr 42 min 45 sec)
Heartbeat CPU 0 instructions: 174001031 cycles: 324224862 heartbeat IPC: 0.3707 cumulative IPC: 0.4015 (Simulation time: 00 hr 42 min 54 sec)
Heartbeat CPU 0 instructions: 174501034 cycles: 325266673 heartbeat IPC: 0.4799 cumulative IPC: 0.4017 (Simulation time: 00 hr 43 min 01 sec)
Heartbeat CPU 0 instructions: 175001036 cycles: 326683834 heartbeat IPC: 0.3528 cumulative IPC: 0.4015 (Simulation time: 00 hr 43 min 10 sec)
Heartbeat CPU 0 instructions: 175501039 cycles: 327791989 heartbeat IPC: 0.4512 cumulative IPC: 0.4017 (Simulation time: 00 hr 43 min 18 sec)
Heartbeat CPU 0 instructions: 176001043 cycles: 329203884 heartbeat IPC: 0.3541 cumulative IPC: 0.4015 (Simulation time: 00 hr 43 min 28 sec)
Heartbeat CPU 0 instructions: 176501043 cycles: 330486567 heartbeat IPC: 0.3898 cumulative IPC: 0.4014 (Simulation time: 00 hr 43 min 36 sec)
Heartbeat CPU 0 instructions: 177001045 cycles: 331588093 heartbeat IPC: 0.4539 cumulative IPC: 0.4016 (Simulation time: 00 hr 43 min 44 sec)
Heartbeat CPU 0 instructions: 177501049 cycles: 332778676 heartbeat IPC: 0.42 cumulative IPC: 0.4017 (Simulation time: 00 hr 43 min 52 sec)
Heartbeat CPU 0 instructions: 178001050 cycles: 333802050 heartbeat IPC: 0.4886 cumulative IPC: 0.402 (Simulation time: 00 hr 43 min 59 sec)
Heartbeat CPU 0 instructions: 178501054 cycles: 335272528 heartbeat IPC: 0.34 cumulative IPC: 0.4017 (Simulation time: 00 hr 44 min 09 sec)
Heartbeat CPU 0 instructions: 179001054 cycles: 336534453 heartbeat IPC: 0.3962 cumulative IPC: 0.4017 (Simulation time: 00 hr 44 min 17 sec)
Heartbeat CPU 0 instructions: 179501057 cycles: 337706159 heartbeat IPC: 0.4267 cumulative IPC: 0.4017 (Simulation time: 00 hr 44 min 25 sec)
Heartbeat CPU 0 instructions: 180001059 cycles: 338829271 heartbeat IPC: 0.4452 cumulative IPC: 0.4019 (Simulation time: 00 hr 44 min 33 sec)
Heartbeat CPU 0 instructions: 180501060 cycles: 340019540 heartbeat IPC: 0.4201 cumulative IPC: 0.402 (Simulation time: 00 hr 44 min 41 sec)
Heartbeat CPU 0 instructions: 181001060 cycles: 341478088 heartbeat IPC: 0.3428 cumulative IPC: 0.4017 (Simulation time: 00 hr 44 min 50 sec)
Heartbeat CPU 0 instructions: 181501065 cycles: 342603237 heartbeat IPC: 0.4444 cumulative IPC: 0.4018 (Simulation time: 00 hr 44 min 58 sec)
Heartbeat CPU 0 instructions: 182001069 cycles: 343856111 heartbeat IPC: 0.3991 cumulative IPC: 0.4018 (Simulation time: 00 hr 45 min 06 sec)
Heartbeat CPU 0 instructions: 182501070 cycles: 344881284 heartbeat IPC: 0.4877 cumulative IPC: 0.4021 (Simulation time: 00 hr 45 min 13 sec)
Heartbeat CPU 0 instructions: 183001076 cycles: 346100810 heartbeat IPC: 0.41 cumulative IPC: 0.4021 (Simulation time: 00 hr 45 min 21 sec)
Heartbeat CPU 0 instructions: 183501079 cycles: 347259885 heartbeat IPC: 0.4314 cumulative IPC: 0.4022 (Simulation time: 00 hr 45 min 29 sec)
Heartbeat CPU 0 instructions: 184001081 cycles: 348553934 heartbeat IPC: 0.3864 cumulative IPC: 0.4022 (Simulation time: 00 hr 45 min 37 sec)
Heartbeat CPU 0 instructions: 184501081 cycles: 349841552 heartbeat IPC: 0.3883 cumulative IPC: 0.4021 (Simulation time: 00 hr 45 min 45 sec)
Heartbeat CPU 0 instructions: 185001087 cycles: 351119934 heartbeat IPC: 0.3911 cumulative IPC: 0.4021 (Simulation time: 00 hr 45 min 54 sec)
Heartbeat CPU 0 instructions: 185501092 cycles: 352593640 heartbeat IPC: 0.3393 cumulative IPC: 0.4018 (Simulation time: 00 hr 46 min 03 sec)
Heartbeat CPU 0 instructions: 186001095 cycles: 353828291 heartbeat IPC: 0.405 cumulative IPC: 0.4018 (Simulation time: 00 hr 46 min 12 sec)
Heartbeat CPU 0 instructions: 186501095 cycles: 355075703 heartbeat IPC: 0.4008 cumulative IPC: 0.4018 (Simulation time: 00 hr 46 min 20 sec)
Heartbeat CPU 0 instructions: 187001096 cycles: 356228934 heartbeat IPC: 0.4336 cumulative IPC: 0.4019 (Simulation time: 00 hr 46 min 28 sec)
Heartbeat CPU 0 instructions: 187501097 cycles: 357311014 heartbeat IPC: 0.4621 cumulative IPC: 0.4021 (Simulation time: 00 hr 46 min 35 sec)
Heartbeat CPU 0 instructions: 188001097 cycles: 358581804 heartbeat IPC: 0.3935 cumulative IPC: 0.4021 (Simulation time: 00 hr 46 min 43 sec)
Heartbeat CPU 0 instructions: 188501097 cycles: 359601767 heartbeat IPC: 0.4902 cumulative IPC: 0.4023 (Simulation time: 00 hr 46 min 50 sec)
Heartbeat CPU 0 instructions: 189001097 cycles: 361086137 heartbeat IPC: 0.3368 cumulative IPC: 0.4021 (Simulation time: 00 hr 46 min 59 sec)
Heartbeat CPU 0 instructions: 189501097 cycles: 362188096 heartbeat IPC: 0.4537 cumulative IPC: 0.4022 (Simulation time: 00 hr 47 min 07 sec)
Heartbeat CPU 0 instructions: 190001104 cycles: 363342557 heartbeat IPC: 0.4331 cumulative IPC: 0.4023 (Simulation time: 00 hr 47 min 14 sec)
Heartbeat CPU 0 instructions: 190501105 cycles: 364546057 heartbeat IPC: 0.4155 cumulative IPC: 0.4024 (Simulation time: 00 hr 47 min 22 sec)
Heartbeat CPU 0 instructions: 191001105 cycles: 365696620 heartbeat IPC: 0.4346 cumulative IPC: 0.4025 (Simulation time: 00 hr 47 min 30 sec)
Heartbeat CPU 0 instructions: 191501105 cycles: 367051252 heartbeat IPC: 0.3691 cumulative IPC: 0.4023 (Simulation time: 00 hr 47 min 38 sec)
Heartbeat CPU 0 instructions: 192001106 cycles: 368238527 heartbeat IPC: 0.4211 cumulative IPC: 0.4024 (Simulation time: 00 hr 47 min 46 sec)
Heartbeat CPU 0 instructions: 192501108 cycles: 369462256 heartbeat IPC: 0.4086 cumulative IPC: 0.4024 (Simulation time: 00 hr 47 min 54 sec)
Heartbeat CPU 0 instructions: 193001114 cycles: 370736002 heartbeat IPC: 0.3925 cumulative IPC: 0.4024 (Simulation time: 00 hr 48 min 02 sec)
Heartbeat CPU 0 instructions: 193501114 cycles: 371994230 heartbeat IPC: 0.3974 cumulative IPC: 0.4024 (Simulation time: 00 hr 48 min 10 sec)
Heartbeat CPU 0 instructions: 194001115 cycles: 373089323 heartbeat IPC: 0.4566 cumulative IPC: 0.4025 (Simulation time: 00 hr 48 min 18 sec)
Heartbeat CPU 0 instructions: 194501122 cycles: 374218789 heartbeat IPC: 0.4427 cumulative IPC: 0.4027 (Simulation time: 00 hr 48 min 25 sec)
Heartbeat CPU 0 instructions: 195001126 cycles: 375658155 heartbeat IPC: 0.3474 cumulative IPC: 0.4024 (Simulation time: 00 hr 48 min 34 sec)
Heartbeat CPU 0 instructions: 195501133 cycles: 377193627 heartbeat IPC: 0.3256 cumulative IPC: 0.4021 (Simulation time: 00 hr 48 min 44 sec)
Heartbeat CPU 0 instructions: 196001139 cycles: 378257901 heartbeat IPC: 0.4698 cumulative IPC: 0.4023 (Simulation time: 00 hr 48 min 51 sec)
Heartbeat CPU 0 instructions: 196501145 cycles: 379158226 heartbeat IPC: 0.5554 cumulative IPC: 0.4027 (Simulation time: 00 hr 48 min 57 sec)
Heartbeat CPU 0 instructions: 197001151 cycles: 380428654 heartbeat IPC: 0.3936 cumulative IPC: 0.4027 (Simulation time: 00 hr 49 min 05 sec)
Heartbeat CPU 0 instructions: 197501152 cycles: 381583575 heartbeat IPC: 0.4329 cumulative IPC: 0.4028 (Simulation time: 00 hr 49 min 12 sec)
Heartbeat CPU 0 instructions: 198001153 cycles: 383025928 heartbeat IPC: 0.3467 cumulative IPC: 0.4025 (Simulation time: 00 hr 49 min 21 sec)
Heartbeat CPU 0 instructions: 198501156 cycles: 384162711 heartbeat IPC: 0.4398 cumulative IPC: 0.4027 (Simulation time: 00 hr 49 min 29 sec)
Heartbeat CPU 0 instructions: 199001156 cycles: 385469670 heartbeat IPC: 0.3826 cumulative IPC: 0.4026 (Simulation time: 00 hr 49 min 37 sec)
Heartbeat CPU 0 instructions: 199501156 cycles: 386718589 heartbeat IPC: 0.4003 cumulative IPC: 0.4026 (Simulation time: 00 hr 49 min 45 sec)
Heartbeat CPU 0 instructions: 200001156 cycles: 387830440 heartbeat IPC: 0.4497 cumulative IPC: 0.4027 (Simulation time: 00 hr 49 min 52 sec)
Heartbeat CPU 0 instructions: 200501158 cycles: 389067655 heartbeat IPC: 0.4041 cumulative IPC: 0.4027 (Simulation time: 00 hr 50 min 00 sec)
Heartbeat CPU 0 instructions: 201001159 cycles: 390355660 heartbeat IPC: 0.3882 cumulative IPC: 0.4027 (Simulation time: 00 hr 50 min 09 sec)
Heartbeat CPU 0 instructions: 201501163 cycles: 391599053 heartbeat IPC: 0.4021 cumulative IPC: 0.4027 (Simulation time: 00 hr 50 min 17 sec)
Heartbeat CPU 0 instructions: 202001170 cycles: 392660511 heartbeat IPC: 0.4711 cumulative IPC: 0.4029 (Simulation time: 00 hr 50 min 24 sec)
Heartbeat CPU 0 instructions: 202501177 cycles: 393835928 heartbeat IPC: 0.4254 cumulative IPC: 0.4029 (Simulation time: 00 hr 50 min 31 sec)
Heartbeat CPU 0 instructions: 203001184 cycles: 395116632 heartbeat IPC: 0.3904 cumulative IPC: 0.4029 (Simulation time: 00 hr 50 min 39 sec)
Heartbeat CPU 0 instructions: 203501184 cycles: 396503962 heartbeat IPC: 0.3604 cumulative IPC: 0.4027 (Simulation time: 00 hr 50 min 48 sec)
Heartbeat CPU 0 instructions: 204001184 cycles: 397728322 heartbeat IPC: 0.4084 cumulative IPC: 0.4028 (Simulation time: 00 hr 50 min 56 sec)
Heartbeat CPU 0 instructions: 204501185 cycles: 398747751 heartbeat IPC: 0.4905 cumulative IPC: 0.403 (Simulation time: 00 hr 51 min 03 sec)
Heartbeat CPU 0 instructions: 205001191 cycles: 400006416 heartbeat IPC: 0.3973 cumulative IPC: 0.403 (Simulation time: 00 hr 51 min 11 sec)
Heartbeat CPU 0 instructions: 205501195 cycles: 401213122 heartbeat IPC: 0.4144 cumulative IPC: 0.403 (Simulation time: 00 hr 51 min 19 sec)
Heartbeat CPU 0 instructions: 206001197 cycles: 402394782 heartbeat IPC: 0.4231 cumulative IPC: 0.4031 (Simulation time: 00 hr 51 min 26 sec)
Heartbeat CPU 0 instructions: 206501202 cycles: 403913722 heartbeat IPC: 0.3292 cumulative IPC: 0.4028 (Simulation time: 00 hr 51 min 36 sec)
Heartbeat CPU 0 instructions: 207001208 cycles: 405160013 heartbeat IPC: 0.4012 cumulative IPC: 0.4028 (Simulation time: 00 hr 51 min 44 sec)
Heartbeat CPU 0 instructions: 207501211 cycles: 406257367 heartbeat IPC: 0.4556 cumulative IPC: 0.4029 (Simulation time: 00 hr 51 min 51 sec)
Heartbeat CPU 0 instructions: 208001214 cycles: 407722493 heartbeat IPC: 0.3413 cumulative IPC: 0.4027 (Simulation time: 00 hr 52 min 00 sec)
Heartbeat CPU 0 instructions: 208501221 cycles: 408818354 heartbeat IPC: 0.4563 cumulative IPC: 0.4028 (Simulation time: 00 hr 52 min 07 sec)
Heartbeat CPU 0 instructions: 209001224 cycles: 409903915 heartbeat IPC: 0.4606 cumulative IPC: 0.403 (Simulation time: 00 hr 52 min 14 sec)
Heartbeat CPU 0 instructions: 209501225 cycles: 411232753 heartbeat IPC: 0.3763 cumulative IPC: 0.4029 (Simulation time: 00 hr 52 min 23 sec)
Heartbeat CPU 0 instructions: 210001225 cycles: 412388380 heartbeat IPC: 0.4327 cumulative IPC: 0.403 (Simulation time: 00 hr 52 min 30 sec)
Heartbeat CPU 0 instructions: 210501230 cycles: 413867842 heartbeat IPC: 0.338 cumulative IPC: 0.4028 (Simulation time: 00 hr 52 min 39 sec)
Heartbeat CPU 0 instructions: 211001231 cycles: 415152336 heartbeat IPC: 0.3893 cumulative IPC: 0.4027 (Simulation time: 00 hr 52 min 48 sec)
Heartbeat CPU 0 instructions: 211501233 cycles: 416395181 heartbeat IPC: 0.4023 cumulative IPC: 0.4027 (Simulation time: 00 hr 52 min 55 sec)
Heartbeat CPU 0 instructions: 212001237 cycles: 417624477 heartbeat IPC: 0.4067 cumulative IPC: 0.4027 (Simulation time: 00 hr 53 min 03 sec)
Heartbeat CPU 0 instructions: 212501237 cycles: 418694483 heartbeat IPC: 0.4673 cumulative IPC: 0.4029 (Simulation time: 00 hr 53 min 10 sec)
Heartbeat CPU 0 instructions: 213001240 cycles: 419840389 heartbeat IPC: 0.4363 cumulative IPC: 0.403 (Simulation time: 00 hr 53 min 17 sec)
Heartbeat CPU 0 instructions: 213501245 cycles: 421176704 heartbeat IPC: 0.3742 cumulative IPC: 0.4029 (Simulation time: 00 hr 53 min 25 sec)
Heartbeat CPU 0 instructions: 214001246 cycles: 422249671 heartbeat IPC: 0.466 cumulative IPC: 0.4031 (Simulation time: 00 hr 53 min 32 sec)
Heartbeat CPU 0 instructions: 214501253 cycles: 423439655 heartbeat IPC: 0.4202 cumulative IPC: 0.4031 (Simulation time: 00 hr 53 min 40 sec)
Heartbeat CPU 0 instructions: 215001253 cycles: 424581077 heartbeat IPC: 0.4381 cumulative IPC: 0.4032 (Simulation time: 00 hr 53 min 47 sec)
Heartbeat CPU 0 instructions: 215501256 cycles: 425899443 heartbeat IPC: 0.3793 cumulative IPC: 0.4031 (Simulation time: 00 hr 53 min 56 sec)
Heartbeat CPU 0 instructions: 216001258 cycles: 427413599 heartbeat IPC: 0.3302 cumulative IPC: 0.4029 (Simulation time: 00 hr 54 min 06 sec)
Heartbeat CPU 0 instructions: 216501259 cycles: 429476826 heartbeat IPC: 0.2423 cumulative IPC: 0.4021 (Simulation time: 00 hr 54 min 18 sec)
Heartbeat CPU 0 instructions: 217001264 cycles: 430433604 heartbeat IPC: 0.5226 cumulative IPC: 0.4023 (Simulation time: 00 hr 54 min 25 sec)
Heartbeat CPU 0 instructions: 217501270 cycles: 431513508 heartbeat IPC: 0.463 cumulative IPC: 0.4025 (Simulation time: 00 hr 54 min 32 sec)
Heartbeat CPU 0 instructions: 218001270 cycles: 432078726 heartbeat IPC: 0.8846 cumulative IPC: 0.4032 (Simulation time: 00 hr 54 min 36 sec)
Heartbeat CPU 0 instructions: 218501270 cycles: 433427487 heartbeat IPC: 0.3707 cumulative IPC: 0.403 (Simulation time: 00 hr 54 min 45 sec)
Heartbeat CPU 0 instructions: 219001271 cycles: 434601055 heartbeat IPC: 0.4261 cumulative IPC: 0.4031 (Simulation time: 00 hr 54 min 52 sec)
Heartbeat CPU 0 instructions: 219501272 cycles: 435714966 heartbeat IPC: 0.4489 cumulative IPC: 0.4032 (Simulation time: 00 hr 54 min 59 sec)
Heartbeat CPU 0 instructions: 220001274 cycles: 437064863 heartbeat IPC: 0.3704 cumulative IPC: 0.4031 (Simulation time: 00 hr 55 min 07 sec)
Heartbeat CPU 0 instructions: 220501274 cycles: 438242665 heartbeat IPC: 0.4245 cumulative IPC: 0.4032 (Simulation time: 00 hr 55 min 15 sec)
Heartbeat CPU 0 instructions: 221001276 cycles: 439553253 heartbeat IPC: 0.3815 cumulative IPC: 0.4031 (Simulation time: 00 hr 55 min 23 sec)
Heartbeat CPU 0 instructions: 221501276 cycles: 440764986 heartbeat IPC: 0.4126 cumulative IPC: 0.4031 (Simulation time: 00 hr 55 min 31 sec)
Heartbeat CPU 0 instructions: 222001283 cycles: 441649360 heartbeat IPC: 0.5654 cumulative IPC: 0.4035 (Simulation time: 00 hr 55 min 37 sec)
Heartbeat CPU 0 instructions: 222501286 cycles: 443070882 heartbeat IPC: 0.3517 cumulative IPC: 0.4033 (Simulation time: 00 hr 55 min 46 sec)
Heartbeat CPU 0 instructions: 223001292 cycles: 444170302 heartbeat IPC: 0.4548 cumulative IPC: 0.4034 (Simulation time: 00 hr 55 min 53 sec)
Heartbeat CPU 0 instructions: 223501292 cycles: 445289886 heartbeat IPC: 0.4466 cumulative IPC: 0.4036 (Simulation time: 00 hr 56 min 00 sec)
Heartbeat CPU 0 instructions: 224001298 cycles: 446581536 heartbeat IPC: 0.3871 cumulative IPC: 0.4035 (Simulation time: 00 hr 56 min 08 sec)
Heartbeat CPU 0 instructions: 224501300 cycles: 447730959 heartbeat IPC: 0.435 cumulative IPC: 0.4036 (Simulation time: 00 hr 56 min 16 sec)
Heartbeat CPU 0 instructions: 225001300 cycles: 449095893 heartbeat IPC: 0.3663 cumulative IPC: 0.4035 (Simulation time: 00 hr 56 min 24 sec)
Heartbeat CPU 0 instructions: 225501301 cycles: 450104662 heartbeat IPC: 0.4957 cumulative IPC: 0.4037 (Simulation time: 00 hr 56 min 31 sec)
Heartbeat CPU 0 instructions: 226001308 cycles: 451267128 heartbeat IPC: 0.4301 cumulative IPC: 0.4038 (Simulation time: 00 hr 56 min 38 sec)
Heartbeat CPU 0 instructions: 226501310 cycles: 452507833 heartbeat IPC: 0.403 cumulative IPC: 0.4038 (Simulation time: 00 hr 56 min 46 sec)
Heartbeat CPU 0 instructions: 227001310 cycles: 453775593 heartbeat IPC: 0.3944 cumulative IPC: 0.4037 (Simulation time: 00 hr 56 min 54 sec)
Heartbeat CPU 0 instructions: 227501313 cycles: 455021804 heartbeat IPC: 0.4012 cumulative IPC: 0.4037 (Simulation time: 00 hr 57 min 02 sec)
Heartbeat CPU 0 instructions: 228001313 cycles: 456321100 heartbeat IPC: 0.3848 cumulative IPC: 0.4037 (Simulation time: 00 hr 57 min 10 sec)
Heartbeat CPU 0 instructions: 228501315 cycles: 457604001 heartbeat IPC: 0.3897 cumulative IPC: 0.4036 (Simulation time: 00 hr 57 min 18 sec)
Heartbeat CPU 0 instructions: 229001315 cycles: 458771241 heartbeat IPC: 0.4284 cumulative IPC: 0.4037 (Simulation time: 00 hr 57 min 25 sec)
Heartbeat CPU 0 instructions: 229501317 cycles: 459948240 heartbeat IPC: 0.4248 cumulative IPC: 0.4037 (Simulation time: 00 hr 57 min 33 sec)
Heartbeat CPU 0 instructions: 230001323 cycles: 461219331 heartbeat IPC: 0.3934 cumulative IPC: 0.4037 (Simulation time: 00 hr 57 min 41 sec)
Heartbeat CPU 0 instructions: 230501323 cycles: 462440200 heartbeat IPC: 0.4095 cumulative IPC: 0.4037 (Simulation time: 00 hr 57 min 49 sec)
Heartbeat CPU 0 instructions: 231001329 cycles: 463817908 heartbeat IPC: 0.3629 cumulative IPC: 0.4036 (Simulation time: 00 hr 57 min 58 sec)
Heartbeat CPU 0 instructions: 231501329 cycles: 464864253 heartbeat IPC: 0.4779 cumulative IPC: 0.4038 (Simulation time: 00 hr 58 min 04 sec)
Heartbeat CPU 0 instructions: 232001332 cycles: 466258769 heartbeat IPC: 0.3585 cumulative IPC: 0.4036 (Simulation time: 00 hr 58 min 13 sec)
Heartbeat CPU 0 instructions: 232501332 cycles: 467480270 heartbeat IPC: 0.4093 cumulative IPC: 0.4037 (Simulation time: 00 hr 58 min 21 sec)
Heartbeat CPU 0 instructions: 233001335 cycles: 468777651 heartbeat IPC: 0.3854 cumulative IPC: 0.4036 (Simulation time: 00 hr 58 min 30 sec)
Heartbeat CPU 0 instructions: 233501341 cycles: 469778096 heartbeat IPC: 0.4998 cumulative IPC: 0.4038 (Simulation time: 00 hr 58 min 38 sec)
Heartbeat CPU 0 instructions: 234001346 cycles: 471293720 heartbeat IPC: 0.3299 cumulative IPC: 0.4036 (Simulation time: 00 hr 58 min 50 sec)
Heartbeat CPU 0 instructions: 234501346 cycles: 472448613 heartbeat IPC: 0.4329 cumulative IPC: 0.4036 (Simulation time: 00 hr 59 min 00 sec)
Heartbeat CPU 0 instructions: 235001350 cycles: 473681605 heartbeat IPC: 0.4055 cumulative IPC: 0.4036 (Simulation time: 00 hr 59 min 11 sec)
Heartbeat CPU 0 instructions: 235501352 cycles: 474964049 heartbeat IPC: 0.3899 cumulative IPC: 0.4036 (Simulation time: 00 hr 59 min 21 sec)
Heartbeat CPU 0 instructions: 236001357 cycles: 476311266 heartbeat IPC: 0.3711 cumulative IPC: 0.4035 (Simulation time: 00 hr 59 min 32 sec)
Heartbeat CPU 0 instructions: 236501362 cycles: 477394532 heartbeat IPC: 0.4616 cumulative IPC: 0.4037 (Simulation time: 00 hr 59 min 41 sec)
Heartbeat CPU 0 instructions: 237001363 cycles: 478634082 heartbeat IPC: 0.4034 cumulative IPC: 0.4037 (Simulation time: 00 hr 59 min 52 sec)
Heartbeat CPU 0 instructions: 237501368 cycles: 479915888 heartbeat IPC: 0.3901 cumulative IPC: 0.4036 (Simulation time: 01 hr 00 min 02 sec)
Heartbeat CPU 0 instructions: 238001369 cycles: 481268300 heartbeat IPC: 0.3697 cumulative IPC: 0.4035 (Simulation time: 01 hr 00 min 14 sec)
Heartbeat CPU 0 instructions: 238501376 cycles: 482280654 heartbeat IPC: 0.4939 cumulative IPC: 0.4037 (Simulation time: 01 hr 00 min 22 sec)
Heartbeat CPU 0 instructions: 239001381 cycles: 483511113 heartbeat IPC: 0.4064 cumulative IPC: 0.4037 (Simulation time: 01 hr 00 min 32 sec)
Heartbeat CPU 0 instructions: 239501381 cycles: 484637462 heartbeat IPC: 0.4439 cumulative IPC: 0.4038 (Simulation time: 01 hr 00 min 42 sec)
Heartbeat CPU 0 instructions: 240001381 cycles: 485785870 heartbeat IPC: 0.4354 cumulative IPC: 0.4039 (Simulation time: 01 hr 00 min 51 sec)
Heartbeat CPU 0 instructions: 240501381 cycles: 487083115 heartbeat IPC: 0.3854 cumulative IPC: 0.4038 (Simulation time: 01 hr 01 min 02 sec)
Heartbeat CPU 0 instructions: 241001382 cycles: 488307486 heartbeat IPC: 0.4084 cumulative IPC: 0.4039 (Simulation time: 01 hr 01 min 12 sec)
Heartbeat CPU 0 instructions: 241501387 cycles: 489540566 heartbeat IPC: 0.4055 cumulative IPC: 0.4039 (Simulation time: 01 hr 01 min 23 sec)
Heartbeat CPU 0 instructions: 242001389 cycles: 490854957 heartbeat IPC: 0.3804 cumulative IPC: 0.4038 (Simulation time: 01 hr 01 min 34 sec)
Heartbeat CPU 0 instructions: 242501392 cycles: 491941545 heartbeat IPC: 0.4602 cumulative IPC: 0.4039 (Simulation time: 01 hr 01 min 43 sec)
Heartbeat CPU 0 instructions: 243001398 cycles: 493194377 heartbeat IPC: 0.3991 cumulative IPC: 0.4039 (Simulation time: 01 hr 01 min 53 sec)
Heartbeat CPU 0 instructions: 243501404 cycles: 494249592 heartbeat IPC: 0.4738 cumulative IPC: 0.4041 (Simulation time: 01 hr 02 min 02 sec)
Heartbeat CPU 0 instructions: 244001406 cycles: 495643963 heartbeat IPC: 0.3586 cumulative IPC: 0.4039 (Simulation time: 01 hr 02 min 14 sec)
Heartbeat CPU 0 instructions: 244501408 cycles: 496842270 heartbeat IPC: 0.4173 cumulative IPC: 0.404 (Simulation time: 01 hr 02 min 28 sec)
Heartbeat CPU 0 instructions: 245001411 cycles: 498323036 heartbeat IPC: 0.3377 cumulative IPC: 0.4038 (Simulation time: 01 hr 02 min 46 sec)
Heartbeat CPU 0 instructions: 245501417 cycles: 499390645 heartbeat IPC: 0.4683 cumulative IPC: 0.4039 (Simulation time: 01 hr 03 min 00 sec)
Heartbeat CPU 0 instructions: 246001417 cycles: 500573942 heartbeat IPC: 0.4225 cumulative IPC: 0.4039 (Simulation time: 01 hr 03 min 13 sec)
Heartbeat CPU 0 instructions: 246501419 cycles: 501896176 heartbeat IPC: 0.3781 cumulative IPC: 0.4039 (Simulation time: 01 hr 03 min 24 sec)
Heartbeat CPU 0 instructions: 247001419 cycles: 503103847 heartbeat IPC: 0.414 cumulative IPC: 0.4039 (Simulation time: 01 hr 03 min 34 sec)
Heartbeat CPU 0 instructions: 247501425 cycles: 504178807 heartbeat IPC: 0.4651 cumulative IPC: 0.404 (Simulation time: 01 hr 03 min 43 sec)
Heartbeat CPU 0 instructions: 248001427 cycles: 505630092 heartbeat IPC: 0.3445 cumulative IPC: 0.4039 (Simulation time: 01 hr 03 min 54 sec)
Heartbeat CPU 0 instructions: 248501432 cycles: 506588530 heartbeat IPC: 0.5217 cumulative IPC: 0.4041 (Simulation time: 01 hr 04 min 03 sec)
Heartbeat CPU 0 instructions: 249001437 cycles: 507901734 heartbeat IPC: 0.3808 cumulative IPC: 0.404 (Simulation time: 01 hr 04 min 14 sec)
Heartbeat CPU 0 instructions: 249501440 cycles: 508971337 heartbeat IPC: 0.4675 cumulative IPC: 0.4042 (Simulation time: 01 hr 04 min 23 sec)
Simulation finished CPU 0 instructions: 200000002 cycles: 495018936 cumulative IPC: 0.404 (Simulation time: 01 hr 04 min 34 sec)
Simulation complete CPU 0 instructions: 200000002 cycles: 495018936 cumulative IPC: 0.404 (Simulation time: 01 hr 04 min 34 sec)

ChampSim completed all CPUs

=== Simulation ===
CPU 0 runs /local-ssd/ben/dpc4-traces/SPEC17/620.omnetpp_s-874B.champsimtrace.xz

Region of Interest Statistics

CPU 0 cumulative IPC: 0.404 instructions: 200000002 cycles: 495018936
CPU 0 Branch Prediction Accuracy: 94.91% MPKI: 10.59 Average ROB Occupancy at Mispredict: 77.05
Branch type MPKI
BRANCH_DIRECT_JUMP: 0.9232
BRANCH_INDIRECT: 0.1267
BRANCH_CONDITIONAL: 8.407
BRANCH_DIRECT_CALL: 0.000125
BRANCH_INDIRECT_CALL: 0.7329
BRANCH_RETURN: 0.3971

cpu0->cpu0_STLB TOTAL        ACCESS:    4286386 HIT:    3329061 MISS:     957325 MSHR_MERGE:          0
cpu0->cpu0_STLB LOAD         ACCESS:    4286386 HIT:    3329061 MISS:     957325 MSHR_MERGE:          0
cpu0->cpu0_STLB RFO          ACCESS:          0 HIT:          0 MISS:          0 MSHR_MERGE:          0
cpu0->cpu0_STLB PREFETCH     ACCESS:          0 HIT:          0 MISS:          0 MSHR_MERGE:          0
cpu0->cpu0_STLB WRITE        ACCESS:          0 HIT:          0 MISS:          0 MSHR_MERGE:          0
cpu0->cpu0_STLB TRANSLATION  ACCESS:          0 HIT:          0 MISS:          0 MSHR_MERGE:          0
cpu0->cpu0_STLB PREFETCH REQUESTED:          0 ISSUED:          0 USEFUL:          0 USELESS:          0
cpu0->cpu0_STLB AVERAGE MISS LATENCY: 142.4 cycles
cpu0->cpu0_L2C TOTAL        ACCESS:   14487658 HIT:    9086577 MISS:    5401081 MSHR_MERGE:     847870
cpu0->cpu0_L2C LOAD         ACCESS:    2966554 HIT:    1782619 MISS:    1183935 MSHR_MERGE:      42724
cpu0->cpu0_L2C RFO          ACCESS:     459504 HIT:     312074 MISS:     147430 MSHR_MERGE:      11127
cpu0->cpu0_L2C PREFETCH     ACCESS:    8308209 HIT:    4526710 MISS:    3781499 MSHR_MERGE:     794019
cpu0->cpu0_L2C WRITE        ACCESS:    1916934 HIT:    1916611 MISS:        323 MSHR_MERGE:          0
cpu0->cpu0_L2C TRANSLATION  ACCESS:     836457 HIT:     548563 MISS:     287894 MSHR_MERGE:          0
cpu0->cpu0_L2C PREFETCH REQUESTED:    6547699 ISSUED:    6518697 USEFUL:     733372 USELESS:    1438848
cpu0->cpu0_L2C AVERAGE MISS LATENCY: 326.3 cycles
cpu0->cpu0_L1I TOTAL        ACCESS:    6107748 HIT:    6107675 MISS:         73 MSHR_MERGE:          1
cpu0->cpu0_L1I LOAD         ACCESS:    6107748 HIT:    6107675 MISS:         73 MSHR_MERGE:          1
cpu0->cpu0_L1I RFO          ACCESS:          0 HIT:          0 MISS:          0 MSHR_MERGE:          0
cpu0->cpu0_L1I PREFETCH     ACCESS:          0 HIT:          0 MISS:          0 MSHR_MERGE:          0
cpu0->cpu0_L1I WRITE        ACCESS:          0 HIT:          0 MISS:          0 MSHR_MERGE:          0
cpu0->cpu0_L1I TRANSLATION  ACCESS:          0 HIT:          0 MISS:          0 MSHR_MERGE:          0
cpu0->cpu0_L1I PREFETCH REQUESTED:          0 ISSUED:          0 USEFUL:          0 USELESS:          0
cpu0->cpu0_L1I AVERAGE MISS LATENCY: 268.8 cycles
cpu0->cpu0_L1D TOTAL        ACCESS:   79310345 HIT:   71777752 MISS:    7532593 MSHR_MERGE:    1480608
cpu0->cpu0_L1D LOAD         ACCESS:   38662167 HIT:   34994912 MISS:    3667255 MSHR_MERGE:     700764
cpu0->cpu0_L1D RFO          ACCESS:          0 HIT:          0 MISS:          0 MSHR_MERGE:          0
cpu0->cpu0_L1D PREFETCH     ACCESS:    3304275 HIT:    1434284 MISS:    1869991 MSHR_MERGE:      80478
cpu0->cpu0_L1D WRITE        ACCESS:   35059752 HIT:   33903089 MISS:    1156663 MSHR_MERGE:     697139
cpu0->cpu0_L1D TRANSLATION  ACCESS:    2284151 HIT:    1445467 MISS:     838684 MSHR_MERGE:       2227
cpu0->cpu0_L1D PREFETCH REQUESTED:    3304372 ISSUED:    3304270 USEFUL:     500932 USELESS:    1288453
cpu0->cpu0_L1D AVERAGE MISS LATENCY: 132.9 cycles
cpu0->cpu0_ITLB TOTAL        ACCESS:    5387258 HIT:    5293441 MISS:      93817 MSHR_MERGE:      44341
cpu0->cpu0_ITLB LOAD         ACCESS:    5387258 HIT:    5293441 MISS:      93817 MSHR_MERGE:      44341
cpu0->cpu0_ITLB RFO          ACCESS:          0 HIT:          0 MISS:          0 MSHR_MERGE:          0
cpu0->cpu0_ITLB PREFETCH     ACCESS:          0 HIT:          0 MISS:          0 MSHR_MERGE:          0
cpu0->cpu0_ITLB WRITE        ACCESS:          0 HIT:          0 MISS:          0 MSHR_MERGE:          0
cpu0->cpu0_ITLB TRANSLATION  ACCESS:          0 HIT:          0 MISS:          0 MSHR_MERGE:          0
cpu0->cpu0_ITLB PREFETCH REQUESTED:          0 ISSUED:          0 USEFUL:          0 USELESS:          0
cpu0->cpu0_ITLB AVERAGE MISS LATENCY: 14.13 cycles
cpu0->cpu0_DTLB TOTAL        ACCESS:   72298882 HIT:   67349808 MISS:    4949074 MSHR_MERGE:     712163
cpu0->cpu0_DTLB LOAD         ACCESS:   72298882 HIT:   67349808 MISS:    4949074 MSHR_MERGE:     712163
cpu0->cpu0_DTLB RFO          ACCESS:          0 HIT:          0 MISS:          0 MSHR_MERGE:          0
cpu0->cpu0_DTLB PREFETCH     ACCESS:          0 HIT:          0 MISS:          0 MSHR_MERGE:          0
cpu0->cpu0_DTLB WRITE        ACCESS:          0 HIT:          0 MISS:          0 MSHR_MERGE:          0
cpu0->cpu0_DTLB TRANSLATION  ACCESS:          0 HIT:          0 MISS:          0 MSHR_MERGE:          0
cpu0->cpu0_DTLB PREFETCH REQUESTED:          0 ISSUED:          0 USEFUL:          0 USELESS:          0
cpu0->cpu0_DTLB AVERAGE MISS LATENCY: 37.29 cycles
cpu0->LLC TOTAL        ACCESS:    9053614 HIT:    1777587 MISS:    7276027 MSHR_MERGE:    1003144
cpu0->LLC LOAD         ACCESS:    1141211 HIT:     261769 MISS:     879442 MSHR_MERGE:      28289
cpu0->LLC RFO          ACCESS:     136303 HIT:      44973 MISS:      91330 MSHR_MERGE:       4931
cpu0->LLC PREFETCH     ACCESS:    6503111 HIT:    1078608 MISS:    5424503 MSHR_MERGE:     969924
cpu0->LLC WRITE        ACCESS:     985095 HIT:     385782 MISS:     599313 MSHR_MERGE:          0
cpu0->LLC TRANSLATION  ACCESS:     287894 HIT:       6455 MISS:     281439 MSHR_MERGE:          0
cpu0->LLC PREFETCH REQUESTED:    3516653 ISSUED:    3515631 USEFUL:     624785 USELESS:    1617575
cpu0->LLC AVERAGE MISS LATENCY: 266 cycles

DRAM Statistics

Channel 0 RQ ROW_BUFFER_HIT:      95835
  ROW_BUFFER_MISS:    5577265
  AVG DBUS CONGESTED CYCLE: 4.055
Channel 0 WQ ROW_BUFFER_HIT:     105329
  ROW_BUFFER_MISS:     683485
  FULL:          0
Channel 0 REFRESHES ISSUED:      41252
