[VMEM] WARNING: physical memory size is smaller than virtual memory size.

*** ChampSim Multicore Out-of-Order Simulator ***
Warmup Instructions: 50000000
Simulation Instructions: 200000000
Number of CPUs: 1
Page size: 4096
Core 0: /local-ssd/ben/dpc4-traces/ai-ml/llama2.c-stories42M.1.champsimtrace.gz
Off-chip DRAM Size: 64 GiB Channels: 1 Width: 64-bit Data Rate: 4807 MT/s
Heartbeat CPU 0 instructions: 500007 cycles: 120941 heartbeat IPC: 4.134 cumulative IPC: 4.134 (Simulation time: 00 hr 00 min 02 sec)
Heartbeat CPU 0 instructions: 1000007 cycles: 239840 heartbeat IPC: 4.205 cumulative IPC: 4.169 (Simulation time: 00 hr 00 min 04 sec)
Heartbeat CPU 0 instructions: 1500007 cycles: 358907 heartbeat IPC: 4.199 cumulative IPC: 4.179 (Simulation time: 00 hr 00 min 06 sec)
Heartbeat CPU 0 instructions: 2000011 cycles: 477807 heartbeat IPC: 4.205 cumulative IPC: 4.186 (Simulation time: 00 hr 00 min 08 sec)
Heartbeat CPU 0 instructions: 2500017 cycles: 596883 heartbeat IPC: 4.199 cumulative IPC: 4.188 (Simulation time: 00 hr 00 min 10 sec)
Heartbeat CPU 0 instructions: 3000023 cycles: 715990 heartbeat IPC: 4.198 cumulative IPC: 4.19 (Simulation time: 00 hr 00 min 12 sec)
Heartbeat CPU 0 instructions: 3500025 cycles: 835073 heartbeat IPC: 4.199 cumulative IPC: 4.191 (Simulation time: 00 hr 00 min 14 sec)
Heartbeat CPU 0 instructions: 4000025 cycles: 954148 heartbeat IPC: 4.199 cumulative IPC: 4.192 (Simulation time: 00 hr 00 min 16 sec)
Heartbeat CPU 0 instructions: 4500025 cycles: 1073044 heartbeat IPC: 4.205 cumulative IPC: 4.194 (Simulation time: 00 hr 00 min 18 sec)
Heartbeat CPU 0 instructions: 5000025 cycles: 1192116 heartbeat IPC: 4.199 cumulative IPC: 4.194 (Simulation time: 00 hr 00 min 21 sec)
Heartbeat CPU 0 instructions: 5500025 cycles: 1311012 heartbeat IPC: 4.205 cumulative IPC: 4.195 (Simulation time: 00 hr 00 min 23 sec)
Heartbeat CPU 0 instructions: 6000025 cycles: 1430084 heartbeat IPC: 4.199 cumulative IPC: 4.196 (Simulation time: 00 hr 00 min 25 sec)
Heartbeat CPU 0 instructions: 6500025 cycles: 1548978 heartbeat IPC: 4.205 cumulative IPC: 4.196 (Simulation time: 00 hr 00 min 28 sec)
Heartbeat CPU 0 instructions: 7000025 cycles: 1668050 heartbeat IPC: 4.199 cumulative IPC: 4.197 (Simulation time: 00 hr 00 min 30 sec)
Heartbeat CPU 0 instructions: 7500030 cycles: 1786946 heartbeat IPC: 4.205 cumulative IPC: 4.197 (Simulation time: 00 hr 00 min 32 sec)
Heartbeat CPU 0 instructions: 8000030 cycles: 1906021 heartbeat IPC: 4.199 cumulative IPC: 4.197 (Simulation time: 00 hr 00 min 35 sec)
Heartbeat CPU 0 instructions: 8500030 cycles: 2024916 heartbeat IPC: 4.205 cumulative IPC: 4.198 (Simulation time: 00 hr 00 min 37 sec)
Heartbeat CPU 0 instructions: 9000034 cycles: 2143986 heartbeat IPC: 4.199 cumulative IPC: 4.198 (Simulation time: 00 hr 00 min 39 sec)
Heartbeat CPU 0 instructions: 9500034 cycles: 2262883 heartbeat IPC: 4.205 cumulative IPC: 4.198 (Simulation time: 00 hr 00 min 42 sec)
Heartbeat CPU 0 instructions: 10000034 cycles: 2381960 heartbeat IPC: 4.199 cumulative IPC: 4.198 (Simulation time: 00 hr 00 min 44 sec)
Heartbeat CPU 0 instructions: 10500034 cycles: 2501059 heartbeat IPC: 4.198 cumulative IPC: 4.198 (Simulation time: 00 hr 00 min 46 sec)
Heartbeat CPU 0 instructions: 11000034 cycles: 2619929 heartbeat IPC: 4.206 cumulative IPC: 4.199 (Simulation time: 00 hr 00 min 48 sec)
Heartbeat CPU 0 instructions: 11500034 cycles: 2739029 heartbeat IPC: 4.198 cumulative IPC: 4.199 (Simulation time: 00 hr 00 min 51 sec)
Heartbeat CPU 0 instructions: 12000037 cycles: 2857926 heartbeat IPC: 4.205 cumulative IPC: 4.199 (Simulation time: 00 hr 00 min 53 sec)
Heartbeat CPU 0 instructions: 12500037 cycles: 2976999 heartbeat IPC: 4.199 cumulative IPC: 4.199 (Simulation time: 00 hr 00 min 55 sec)
Heartbeat CPU 0 instructions: 13000037 cycles: 3095894 heartbeat IPC: 4.205 cumulative IPC: 4.199 (Simulation time: 00 hr 00 min 58 sec)
Heartbeat CPU 0 instructions: 13500041 cycles: 3214968 heartbeat IPC: 4.199 cumulative IPC: 4.199 (Simulation time: 00 hr 01 min 00 sec)
Heartbeat CPU 0 instructions: 14000041 cycles: 3333863 heartbeat IPC: 4.205 cumulative IPC: 4.199 (Simulation time: 00 hr 01 min 02 sec)
Heartbeat CPU 0 instructions: 14500041 cycles: 3452934 heartbeat IPC: 4.199 cumulative IPC: 4.199 (Simulation time: 00 hr 01 min 05 sec)
Heartbeat CPU 0 instructions: 15000045 cycles: 3571832 heartbeat IPC: 4.205 cumulative IPC: 4.2 (Simulation time: 00 hr 01 min 07 sec)
Heartbeat CPU 0 instructions: 15500045 cycles: 3690907 heartbeat IPC: 4.199 cumulative IPC: 4.2 (Simulation time: 00 hr 01 min 09 sec)
Heartbeat CPU 0 instructions: 16000045 cycles: 3809804 heartbeat IPC: 4.205 cumulative IPC: 4.2 (Simulation time: 00 hr 01 min 12 sec)
Heartbeat CPU 0 instructions: 16500049 cycles: 3928878 heartbeat IPC: 4.199 cumulative IPC: 4.2 (Simulation time: 00 hr 01 min 14 sec)
Heartbeat CPU 0 instructions: 17000049 cycles: 4047775 heartbeat IPC: 4.205 cumulative IPC: 4.2 (Simulation time: 00 hr 01 min 16 sec)
Heartbeat CPU 0 instructions: 17500055 cycles: 4167041 heartbeat IPC: 4.192 cumulative IPC: 4.2 (Simulation time: 00 hr 01 min 19 sec)
Heartbeat CPU 0 instructions: 18000055 cycles: 4286135 heartbeat IPC: 4.198 cumulative IPC: 4.2 (Simulation time: 00 hr 01 min 21 sec)
Heartbeat CPU 0 instructions: 18500055 cycles: 4405007 heartbeat IPC: 4.206 cumulative IPC: 4.2 (Simulation time: 00 hr 01 min 23 sec)
Heartbeat CPU 0 instructions: 19000055 cycles: 4524106 heartbeat IPC: 4.198 cumulative IPC: 4.2 (Simulation time: 00 hr 01 min 25 sec)
Heartbeat CPU 0 instructions: 19500055 cycles: 4642999 heartbeat IPC: 4.205 cumulative IPC: 4.2 (Simulation time: 00 hr 01 min 28 sec)
Heartbeat CPU 0 instructions: 20000055 cycles: 4762076 heartbeat IPC: 4.199 cumulative IPC: 4.2 (Simulation time: 00 hr 01 min 30 sec)
Heartbeat CPU 0 instructions: 20500055 cycles: 4880967 heartbeat IPC: 4.206 cumulative IPC: 4.2 (Simulation time: 00 hr 01 min 32 sec)
Heartbeat CPU 0 instructions: 21000055 cycles: 5000044 heartbeat IPC: 4.199 cumulative IPC: 4.2 (Simulation time: 00 hr 01 min 35 sec)
Heartbeat CPU 0 instructions: 21500055 cycles: 5118935 heartbeat IPC: 4.206 cumulative IPC: 4.2 (Simulation time: 00 hr 01 min 37 sec)
Heartbeat CPU 0 instructions: 22000055 cycles: 5238012 heartbeat IPC: 4.199 cumulative IPC: 4.2 (Simulation time: 00 hr 01 min 39 sec)
Heartbeat CPU 0 instructions: 22500055 cycles: 5356909 heartbeat IPC: 4.205 cumulative IPC: 4.2 (Simulation time: 00 hr 01 min 42 sec)
Heartbeat CPU 0 instructions: 23000055 cycles: 5475975 heartbeat IPC: 4.199 cumulative IPC: 4.2 (Simulation time: 00 hr 01 min 44 sec)
Heartbeat CPU 0 instructions: 23500055 cycles: 5594876 heartbeat IPC: 4.205 cumulative IPC: 4.2 (Simulation time: 00 hr 01 min 46 sec)
Heartbeat CPU 0 instructions: 24000056 cycles: 5713952 heartbeat IPC: 4.199 cumulative IPC: 4.2 (Simulation time: 00 hr 01 min 49 sec)
Heartbeat CPU 0 instructions: 24500061 cycles: 5837007 heartbeat IPC: 4.063 cumulative IPC: 4.197 (Simulation time: 00 hr 01 min 51 sec)
Heartbeat CPU 0 instructions: 25000061 cycles: 5958806 heartbeat IPC: 4.105 cumulative IPC: 4.195 (Simulation time: 00 hr 01 min 54 sec)
Heartbeat CPU 0 instructions: 25500062 cycles: 6077471 heartbeat IPC: 4.214 cumulative IPC: 4.196 (Simulation time: 00 hr 01 min 56 sec)
Heartbeat CPU 0 instructions: 26000069 cycles: 6197040 heartbeat IPC: 4.182 cumulative IPC: 4.196 (Simulation time: 00 hr 01 min 58 sec)
Heartbeat CPU 0 instructions: 26500072 cycles: 6317291 heartbeat IPC: 4.158 cumulative IPC: 4.195 (Simulation time: 00 hr 02 min 01 sec)
Heartbeat CPU 0 instructions: 27000078 cycles: 6435039 heartbeat IPC: 4.246 cumulative IPC: 4.196 (Simulation time: 00 hr 02 min 03 sec)
Heartbeat CPU 0 instructions: 27500078 cycles: 6552807 heartbeat IPC: 4.246 cumulative IPC: 4.197 (Simulation time: 00 hr 02 min 05 sec)
Heartbeat CPU 0 instructions: 28000083 cycles: 6670812 heartbeat IPC: 4.237 cumulative IPC: 4.197 (Simulation time: 00 hr 02 min 08 sec)
Heartbeat CPU 0 instructions: 28500083 cycles: 6788561 heartbeat IPC: 4.246 cumulative IPC: 4.198 (Simulation time: 00 hr 02 min 10 sec)
Heartbeat CPU 0 instructions: 29000084 cycles: 6906830 heartbeat IPC: 4.228 cumulative IPC: 4.199 (Simulation time: 00 hr 02 min 13 sec)
Heartbeat CPU 0 instructions: 29500089 cycles: 7029967 heartbeat IPC: 4.061 cumulative IPC: 4.196 (Simulation time: 00 hr 02 min 15 sec)
Heartbeat CPU 0 instructions: 30000092 cycles: 7153012 heartbeat IPC: 4.064 cumulative IPC: 4.194 (Simulation time: 00 hr 02 min 17 sec)
Heartbeat CPU 0 instructions: 30500099 cycles: 7275365 heartbeat IPC: 4.087 cumulative IPC: 4.192 (Simulation time: 00 hr 02 min 20 sec)
Heartbeat CPU 0 instructions: 31000101 cycles: 7394444 heartbeat IPC: 4.199 cumulative IPC: 4.192 (Simulation time: 00 hr 02 min 22 sec)
Heartbeat CPU 0 instructions: 31500102 cycles: 7512923 heartbeat IPC: 4.22 cumulative IPC: 4.193 (Simulation time: 00 hr 02 min 25 sec)
Heartbeat CPU 0 instructions: 32000104 cycles: 7631611 heartbeat IPC: 4.213 cumulative IPC: 4.193 (Simulation time: 00 hr 02 min 27 sec)
Heartbeat CPU 0 instructions: 32500107 cycles: 7749645 heartbeat IPC: 4.236 cumulative IPC: 4.194 (Simulation time: 00 hr 02 min 29 sec)
Heartbeat CPU 0 instructions: 33000111 cycles: 7867405 heartbeat IPC: 4.246 cumulative IPC: 4.195 (Simulation time: 00 hr 02 min 32 sec)
Heartbeat CPU 0 instructions: 33500112 cycles: 7985137 heartbeat IPC: 4.247 cumulative IPC: 4.195 (Simulation time: 00 hr 02 min 34 sec)
Heartbeat CPU 0 instructions: 34000116 cycles: 8102881 heartbeat IPC: 4.247 cumulative IPC: 4.196 (Simulation time: 00 hr 02 min 36 sec)
Heartbeat CPU 0 instructions: 34500118 cycles: 8220611 heartbeat IPC: 4.247 cumulative IPC: 4.197 (Simulation time: 00 hr 02 min 39 sec)
Heartbeat CPU 0 instructions: 35000122 cycles: 8338775 heartbeat IPC: 4.231 cumulative IPC: 4.197 (Simulation time: 00 hr 02 min 41 sec)
Heartbeat CPU 0 instructions: 35500129 cycles: 8457653 heartbeat IPC: 4.206 cumulative IPC: 4.197 (Simulation time: 00 hr 02 min 44 sec)
Heartbeat CPU 0 instructions: 36000131 cycles: 8577450 heartbeat IPC: 4.174 cumulative IPC: 4.197 (Simulation time: 00 hr 02 min 46 sec)
Heartbeat CPU 0 instructions: 36500137 cycles: 8698264 heartbeat IPC: 4.139 cumulative IPC: 4.196 (Simulation time: 00 hr 02 min 48 sec)
Heartbeat CPU 0 instructions: 37000140 cycles: 8815682 heartbeat IPC: 4.258 cumulative IPC: 4.197 (Simulation time: 00 hr 02 min 51 sec)
Heartbeat CPU 0 instructions: 37500143 cycles: 8932424 heartbeat IPC: 4.283 cumulative IPC: 4.198 (Simulation time: 00 hr 02 min 53 sec)
Heartbeat CPU 0 instructions: 38000144 cycles: 9050471 heartbeat IPC: 4.236 cumulative IPC: 4.199 (Simulation time: 00 hr 02 min 56 sec)
Heartbeat CPU 0 instructions: 38500144 cycles: 9167239 heartbeat IPC: 4.282 cumulative IPC: 4.2 (Simulation time: 00 hr 02 min 58 sec)
Heartbeat CPU 0 instructions: 39000150 cycles: 9283606 heartbeat IPC: 4.297 cumulative IPC: 4.201 (Simulation time: 00 hr 03 min 00 sec)
Heartbeat CPU 0 instructions: 39500157 cycles: 9400189 heartbeat IPC: 4.289 cumulative IPC: 4.202 (Simulation time: 00 hr 03 min 03 sec)
Heartbeat CPU 0 instructions: 40000163 cycles: 9516762 heartbeat IPC: 4.289 cumulative IPC: 4.203 (Simulation time: 00 hr 03 min 05 sec)
Heartbeat CPU 0 instructions: 40500164 cycles: 9633222 heartbeat IPC: 4.293 cumulative IPC: 4.204 (Simulation time: 00 hr 03 min 07 sec)
Heartbeat CPU 0 instructions: 41000168 cycles: 9752404 heartbeat IPC: 4.195 cumulative IPC: 4.204 (Simulation time: 00 hr 03 min 10 sec)
Heartbeat CPU 0 instructions: 41500170 cycles: 9871814 heartbeat IPC: 4.187 cumulative IPC: 4.204 (Simulation time: 00 hr 03 min 12 sec)
Heartbeat CPU 0 instructions: 42000177 cycles: 9993272 heartbeat IPC: 4.117 cumulative IPC: 4.203 (Simulation time: 00 hr 03 min 15 sec)
Heartbeat CPU 0 instructions: 42500180 cycles: 10118543 heartbeat IPC: 3.991 cumulative IPC: 4.2 (Simulation time: 00 hr 03 min 17 sec)
Heartbeat CPU 0 instructions: 43000182 cycles: 10244709 heartbeat IPC: 3.963 cumulative IPC: 4.197 (Simulation time: 00 hr 03 min 20 sec)
Heartbeat CPU 0 instructions: 43500189 cycles: 10368975 heartbeat IPC: 4.024 cumulative IPC: 4.195 (Simulation time: 00 hr 03 min 22 sec)
Heartbeat CPU 0 instructions: 44000189 cycles: 10495319 heartbeat IPC: 3.957 cumulative IPC: 4.192 (Simulation time: 00 hr 03 min 25 sec)
Heartbeat CPU 0 instructions: 44500195 cycles: 10621392 heartbeat IPC: 3.966 cumulative IPC: 4.19 (Simulation time: 00 hr 03 min 28 sec)
Heartbeat CPU 0 instructions: 45000202 cycles: 10747904 heartbeat IPC: 3.952 cumulative IPC: 4.187 (Simulation time: 00 hr 03 min 30 sec)
Heartbeat CPU 0 instructions: 45500208 cycles: 10874175 heartbeat IPC: 3.96 cumulative IPC: 4.184 (Simulation time: 00 hr 03 min 33 sec)
Heartbeat CPU 0 instructions: 46000208 cycles: 11000479 heartbeat IPC: 3.959 cumulative IPC: 4.182 (Simulation time: 00 hr 03 min 36 sec)
Heartbeat CPU 0 instructions: 46500210 cycles: 11119834 heartbeat IPC: 4.189 cumulative IPC: 4.182 (Simulation time: 00 hr 03 min 38 sec)
Heartbeat CPU 0 instructions: 47000216 cycles: 11239073 heartbeat IPC: 4.193 cumulative IPC: 4.182 (Simulation time: 00 hr 03 min 40 sec)
Heartbeat CPU 0 instructions: 47500221 cycles: 11359080 heartbeat IPC: 4.166 cumulative IPC: 4.182 (Simulation time: 00 hr 03 min 43 sec)
Heartbeat CPU 0 instructions: 48000228 cycles: 11480637 heartbeat IPC: 4.113 cumulative IPC: 4.181 (Simulation time: 00 hr 03 min 45 sec)
Heartbeat CPU 0 instructions: 48500235 cycles: 11600926 heartbeat IPC: 4.157 cumulative IPC: 4.181 (Simulation time: 00 hr 03 min 48 sec)
Heartbeat CPU 0 instructions: 49000241 cycles: 11720429 heartbeat IPC: 4.184 cumulative IPC: 4.181 (Simulation time: 00 hr 03 min 50 sec)
Heartbeat CPU 0 instructions: 49500242 cycles: 11840991 heartbeat IPC: 4.147 cumulative IPC: 4.18 (Simulation time: 00 hr 03 min 52 sec)
Warmup halting CPU 0 at instruction 50000002 cycle 11960054 for remainder of phase
Warmup finished CPU 0 instructions: 50000002 cycles: 11960054 cumulative IPC: 4.181 (Simulation time: 00 hr 03 min 55 sec)
Warmup complete CPU 0 instructions: 50000002 cycles: 11960054 cumulative IPC: 4.181 (Simulation time: 00 hr 03 min 55 sec)
Heartbeat CPU 0 instructions: 50000248 cycles: 11960106 heartbeat IPC: 4.198 cumulative IPC: 4.731 (Simulation time: 00 hr 03 min 55 sec)
Heartbeat CPU 0 instructions: 50500253 cycles: 12214583 heartbeat IPC: 1.965 cumulative IPC: 1.965 (Simulation time: 00 hr 03 min 59 sec)
Heartbeat CPU 0 instructions: 51000253 cycles: 12472115 heartbeat IPC: 1.942 cumulative IPC: 1.953 (Simulation time: 00 hr 04 min 03 sec)
Heartbeat CPU 0 instructions: 51500258 cycles: 12726558 heartbeat IPC: 1.965 cumulative IPC: 1.957 (Simulation time: 00 hr 04 min 07 sec)
Heartbeat CPU 0 instructions: 52000260 cycles: 12993811 heartbeat IPC: 1.871 cumulative IPC: 1.935 (Simulation time: 00 hr 04 min 11 sec)
Heartbeat CPU 0 instructions: 52500261 cycles: 13248650 heartbeat IPC: 1.962 cumulative IPC: 1.94 (Simulation time: 00 hr 04 min 15 sec)
Heartbeat CPU 0 instructions: 53000265 cycles: 13504563 heartbeat IPC: 1.954 cumulative IPC: 1.943 (Simulation time: 00 hr 04 min 20 sec)
Heartbeat CPU 0 instructions: 53500266 cycles: 13756224 heartbeat IPC: 1.987 cumulative IPC: 1.949 (Simulation time: 00 hr 04 min 24 sec)
Heartbeat CPU 0 instructions: 54000271 cycles: 14007927 heartbeat IPC: 1.986 cumulative IPC: 1.953 (Simulation time: 00 hr 04 min 28 sec)
Heartbeat CPU 0 instructions: 54500271 cycles: 14266003 heartbeat IPC: 1.937 cumulative IPC: 1.952 (Simulation time: 00 hr 04 min 32 sec)
Heartbeat CPU 0 instructions: 55000275 cycles: 14527461 heartbeat IPC: 1.912 cumulative IPC: 1.948 (Simulation time: 00 hr 04 min 36 sec)
Heartbeat CPU 0 instructions: 55500280 cycles: 14781996 heartbeat IPC: 1.964 cumulative IPC: 1.949 (Simulation time: 00 hr 04 min 41 sec)
Heartbeat CPU 0 instructions: 56000285 cycles: 15034029 heartbeat IPC: 1.984 cumulative IPC: 1.952 (Simulation time: 00 hr 04 min 45 sec)
Heartbeat CPU 0 instructions: 56500288 cycles: 15288886 heartbeat IPC: 1.962 cumulative IPC: 1.953 (Simulation time: 00 hr 04 min 49 sec)
Heartbeat CPU 0 instructions: 57000293 cycles: 15543702 heartbeat IPC: 1.962 cumulative IPC: 1.953 (Simulation time: 00 hr 04 min 53 sec)
Heartbeat CPU 0 instructions: 57500298 cycles: 15795525 heartbeat IPC: 1.986 cumulative IPC: 1.956 (Simulation time: 00 hr 04 min 58 sec)
Heartbeat CPU 0 instructions: 58000300 cycles: 16066667 heartbeat IPC: 1.844 cumulative IPC: 1.948 (Simulation time: 00 hr 05 min 02 sec)
Heartbeat CPU 0 instructions: 58500307 cycles: 16325896 heartbeat IPC: 1.929 cumulative IPC: 1.947 (Simulation time: 00 hr 05 min 06 sec)
Heartbeat CPU 0 instructions: 59000313 cycles: 16582885 heartbeat IPC: 1.946 cumulative IPC: 1.947 (Simulation time: 00 hr 05 min 10 sec)
Heartbeat CPU 0 instructions: 59500316 cycles: 16835181 heartbeat IPC: 1.982 cumulative IPC: 1.949 (Simulation time: 00 hr 05 min 14 sec)
Heartbeat CPU 0 instructions: 60000318 cycles: 17086974 heartbeat IPC: 1.986 cumulative IPC: 1.951 (Simulation time: 00 hr 05 min 18 sec)
Heartbeat CPU 0 instructions: 60500319 cycles: 17352733 heartbeat IPC: 1.881 cumulative IPC: 1.947 (Simulation time: 00 hr 05 min 23 sec)
Heartbeat CPU 0 instructions: 61000322 cycles: 17610591 heartbeat IPC: 1.939 cumulative IPC: 1.947 (Simulation time: 00 hr 05 min 27 sec)
Heartbeat CPU 0 instructions: 61500327 cycles: 17863869 heartbeat IPC: 1.974 cumulative IPC: 1.948 (Simulation time: 00 hr 05 min 31 sec)
Heartbeat CPU 0 instructions: 62000327 cycles: 18117839 heartbeat IPC: 1.969 cumulative IPC: 1.949 (Simulation time: 00 hr 05 min 35 sec)
Heartbeat CPU 0 instructions: 62500329 cycles: 18371627 heartbeat IPC: 1.97 cumulative IPC: 1.95 (Simulation time: 00 hr 05 min 40 sec)
Heartbeat CPU 0 instructions: 63000334 cycles: 18625053 heartbeat IPC: 1.973 cumulative IPC: 1.951 (Simulation time: 00 hr 05 min 44 sec)
Heartbeat CPU 0 instructions: 63500334 cycles: 18894379 heartbeat IPC: 1.856 cumulative IPC: 1.947 (Simulation time: 00 hr 05 min 48 sec)
Heartbeat CPU 0 instructions: 64000340 cycles: 19149297 heartbeat IPC: 1.961 cumulative IPC: 1.947 (Simulation time: 00 hr 05 min 52 sec)
Heartbeat CPU 0 instructions: 64500345 cycles: 19403845 heartbeat IPC: 1.964 cumulative IPC: 1.948 (Simulation time: 00 hr 05 min 56 sec)
Heartbeat CPU 0 instructions: 65000351 cycles: 19654064 heartbeat IPC: 1.998 cumulative IPC: 1.95 (Simulation time: 00 hr 06 min 00 sec)
Heartbeat CPU 0 instructions: 65500353 cycles: 19906060 heartbeat IPC: 1.984 cumulative IPC: 1.951 (Simulation time: 00 hr 06 min 05 sec)
Heartbeat CPU 0 instructions: 66000359 cycles: 20168629 heartbeat IPC: 1.904 cumulative IPC: 1.949 (Simulation time: 00 hr 06 min 09 sec)
Heartbeat CPU 0 instructions: 66500364 cycles: 20422861 heartbeat IPC: 1.967 cumulative IPC: 1.95 (Simulation time: 00 hr 06 min 13 sec)
Heartbeat CPU 0 instructions: 67000369 cycles: 20676274 heartbeat IPC: 1.973 cumulative IPC: 1.95 (Simulation time: 00 hr 06 min 17 sec)
Heartbeat CPU 0 instructions: 67500374 cycles: 20929385 heartbeat IPC: 1.975 cumulative IPC: 1.951 (Simulation time: 00 hr 06 min 21 sec)
Heartbeat CPU 0 instructions: 68000374 cycles: 21184636 heartbeat IPC: 1.959 cumulative IPC: 1.951 (Simulation time: 00 hr 06 min 26 sec)
Heartbeat CPU 0 instructions: 68500379 cycles: 21437242 heartbeat IPC: 1.979 cumulative IPC: 1.952 (Simulation time: 00 hr 06 min 30 sec)
Heartbeat CPU 0 instructions: 69000384 cycles: 21695758 heartbeat IPC: 1.934 cumulative IPC: 1.952 (Simulation time: 00 hr 06 min 34 sec)
Heartbeat CPU 0 instructions: 69500388 cycles: 21959909 heartbeat IPC: 1.893 cumulative IPC: 1.95 (Simulation time: 00 hr 06 min 39 sec)
Heartbeat CPU 0 instructions: 70000394 cycles: 22218051 heartbeat IPC: 1.937 cumulative IPC: 1.95 (Simulation time: 00 hr 06 min 43 sec)
Heartbeat CPU 0 instructions: 70500396 cycles: 22474699 heartbeat IPC: 1.948 cumulative IPC: 1.95 (Simulation time: 00 hr 06 min 47 sec)
Heartbeat CPU 0 instructions: 71000402 cycles: 22726144 heartbeat IPC: 1.989 cumulative IPC: 1.951 (Simulation time: 00 hr 06 min 51 sec)
Heartbeat CPU 0 instructions: 71500404 cycles: 22977737 heartbeat IPC: 1.987 cumulative IPC: 1.951 (Simulation time: 00 hr 06 min 55 sec)
Heartbeat CPU 0 instructions: 72000405 cycles: 23229433 heartbeat IPC: 1.987 cumulative IPC: 1.952 (Simulation time: 00 hr 06 min 59 sec)
Heartbeat CPU 0 instructions: 72500408 cycles: 23480546 heartbeat IPC: 1.991 cumulative IPC: 1.953 (Simulation time: 00 hr 07 min 03 sec)
Heartbeat CPU 0 instructions: 73000414 cycles: 23732620 heartbeat IPC: 1.984 cumulative IPC: 1.954 (Simulation time: 00 hr 07 min 07 sec)
Heartbeat CPU 0 instructions: 73500420 cycles: 23984311 heartbeat IPC: 1.987 cumulative IPC: 1.954 (Simulation time: 00 hr 07 min 11 sec)
Heartbeat CPU 0 instructions: 74000426 cycles: 24236588 heartbeat IPC: 1.982 cumulative IPC: 1.955 (Simulation time: 00 hr 07 min 15 sec)
Heartbeat CPU 0 instructions: 74500432 cycles: 24488578 heartbeat IPC: 1.984 cumulative IPC: 1.956 (Simulation time: 00 hr 07 min 20 sec)
Heartbeat CPU 0 instructions: 75000438 cycles: 24740724 heartbeat IPC: 1.983 cumulative IPC: 1.956 (Simulation time: 00 hr 07 min 24 sec)
Heartbeat CPU 0 instructions: 75500444 cycles: 24975321 heartbeat IPC: 2.131 cumulative IPC: 1.959 (Simulation time: 00 hr 07 min 28 sec)
Heartbeat CPU 0 instructions: 76000450 cycles: 25213701 heartbeat IPC: 2.098 cumulative IPC: 1.962 (Simulation time: 00 hr 07 min 32 sec)
Heartbeat CPU 0 instructions: 76500456 cycles: 25449803 heartbeat IPC: 2.118 cumulative IPC: 1.964 (Simulation time: 00 hr 07 min 36 sec)
Heartbeat CPU 0 instructions: 77000462 cycles: 25664307 heartbeat IPC: 2.331 cumulative IPC: 1.97 (Simulation time: 00 hr 07 min 39 sec)
Heartbeat CPU 0 instructions: 77500468 cycles: 25866089 heartbeat IPC: 2.478 cumulative IPC: 1.978 (Simulation time: 00 hr 07 min 43 sec)
Heartbeat CPU 0 instructions: 78000474 cycles: 26073176 heartbeat IPC: 2.414 cumulative IPC: 1.984 (Simulation time: 00 hr 07 min 47 sec)
Heartbeat CPU 0 instructions: 78500474 cycles: 26277490 heartbeat IPC: 2.447 cumulative IPC: 1.991 (Simulation time: 00 hr 07 min 50 sec)
Heartbeat CPU 0 instructions: 79000474 cycles: 26485039 heartbeat IPC: 2.409 cumulative IPC: 1.997 (Simulation time: 00 hr 07 min 54 sec)
Heartbeat CPU 0 instructions: 79500480 cycles: 26687724 heartbeat IPC: 2.467 cumulative IPC: 2.003 (Simulation time: 00 hr 07 min 58 sec)
Heartbeat CPU 0 instructions: 80000486 cycles: 26891425 heartbeat IPC: 2.455 cumulative IPC: 2.009 (Simulation time: 00 hr 08 min 01 sec)
Heartbeat CPU 0 instructions: 80500492 cycles: 27095017 heartbeat IPC: 2.456 cumulative IPC: 2.015 (Simulation time: 00 hr 08 min 05 sec)
Heartbeat CPU 0 instructions: 81000498 cycles: 27301643 heartbeat IPC: 2.42 cumulative IPC: 2.021 (Simulation time: 00 hr 08 min 09 sec)
Heartbeat CPU 0 instructions: 81500504 cycles: 27504364 heartbeat IPC: 2.466 cumulative IPC: 2.026 (Simulation time: 00 hr 08 min 12 sec)
Heartbeat CPU 0 instructions: 82000510 cycles: 27708367 heartbeat IPC: 2.451 cumulative IPC: 2.032 (Simulation time: 00 hr 08 min 16 sec)
Heartbeat CPU 0 instructions: 82500516 cycles: 27910970 heartbeat IPC: 2.468 cumulative IPC: 2.038 (Simulation time: 00 hr 08 min 20 sec)
Heartbeat CPU 0 instructions: 83000522 cycles: 28117900 heartbeat IPC: 2.416 cumulative IPC: 2.042 (Simulation time: 00 hr 08 min 23 sec)
Heartbeat CPU 0 instructions: 83500528 cycles: 28320062 heartbeat IPC: 2.473 cumulative IPC: 2.048 (Simulation time: 00 hr 08 min 27 sec)
Heartbeat CPU 0 instructions: 84000534 cycles: 28527098 heartbeat IPC: 2.415 cumulative IPC: 2.052 (Simulation time: 00 hr 08 min 31 sec)
Heartbeat CPU 0 instructions: 84500540 cycles: 28729951 heartbeat IPC: 2.465 cumulative IPC: 2.057 (Simulation time: 00 hr 08 min 34 sec)
Heartbeat CPU 0 instructions: 85000547 cycles: 28933630 heartbeat IPC: 2.455 cumulative IPC: 2.062 (Simulation time: 00 hr 08 min 38 sec)
Heartbeat CPU 0 instructions: 85500547 cycles: 29137565 heartbeat IPC: 2.452 cumulative IPC: 2.067 (Simulation time: 00 hr 08 min 42 sec)
Heartbeat CPU 0 instructions: 86000553 cycles: 29341994 heartbeat IPC: 2.446 cumulative IPC: 2.071 (Simulation time: 00 hr 08 min 45 sec)
Heartbeat CPU 0 instructions: 86500555 cycles: 29548403 heartbeat IPC: 2.422 cumulative IPC: 2.075 (Simulation time: 00 hr 08 min 49 sec)
Heartbeat CPU 0 instructions: 87000558 cycles: 29752710 heartbeat IPC: 2.447 cumulative IPC: 2.08 (Simulation time: 00 hr 08 min 53 sec)
Heartbeat CPU 0 instructions: 87500564 cycles: 29956161 heartbeat IPC: 2.458 cumulative IPC: 2.084 (Simulation time: 00 hr 08 min 57 sec)
Heartbeat CPU 0 instructions: 88000570 cycles: 30161358 heartbeat IPC: 2.437 cumulative IPC: 2.088 (Simulation time: 00 hr 09 min 00 sec)
Heartbeat CPU 0 instructions: 88500576 cycles: 30366459 heartbeat IPC: 2.438 cumulative IPC: 2.092 (Simulation time: 00 hr 09 min 04 sec)
Heartbeat CPU 0 instructions: 89000582 cycles: 30570191 heartbeat IPC: 2.454 cumulative IPC: 2.096 (Simulation time: 00 hr 09 min 08 sec)
Heartbeat CPU 0 instructions: 89500588 cycles: 30774824 heartbeat IPC: 2.443 cumulative IPC: 2.099 (Simulation time: 00 hr 09 min 11 sec)
Heartbeat CPU 0 instructions: 90000591 cycles: 30976775 heartbeat IPC: 2.476 cumulative IPC: 2.103 (Simulation time: 00 hr 09 min 15 sec)
Heartbeat CPU 0 instructions: 90500593 cycles: 31179414 heartbeat IPC: 2.467 cumulative IPC: 2.107 (Simulation time: 00 hr 09 min 19 sec)
Heartbeat CPU 0 instructions: 91000599 cycles: 31386094 heartbeat IPC: 2.419 cumulative IPC: 2.111 (Simulation time: 00 hr 09 min 23 sec)
Heartbeat CPU 0 instructions: 91500601 cycles: 31590162 heartbeat IPC: 2.45 cumulative IPC: 2.114 (Simulation time: 00 hr 09 min 26 sec)
Heartbeat CPU 0 instructions: 92000602 cycles: 31796672 heartbeat IPC: 2.421 cumulative IPC: 2.117 (Simulation time: 00 hr 09 min 30 sec)
Heartbeat CPU 0 instructions: 92500605 cycles: 31999780 heartbeat IPC: 2.462 cumulative IPC: 2.121 (Simulation time: 00 hr 09 min 34 sec)
Heartbeat CPU 0 instructions: 93000611 cycles: 32205184 heartbeat IPC: 2.434 cumulative IPC: 2.124 (Simulation time: 00 hr 09 min 37 sec)
Heartbeat CPU 0 instructions: 93500617 cycles: 32413045 heartbeat IPC: 2.405 cumulative IPC: 2.127 (Simulation time: 00 hr 09 min 41 sec)
Heartbeat CPU 0 instructions: 94000623 cycles: 32617956 heartbeat IPC: 2.44 cumulative IPC: 2.13 (Simulation time: 00 hr 09 min 45 sec)
Heartbeat CPU 0 instructions: 94500629 cycles: 32821331 heartbeat IPC: 2.459 cumulative IPC: 2.133 (Simulation time: 00 hr 09 min 49 sec)
Heartbeat CPU 0 instructions: 95000635 cycles: 33026023 heartbeat IPC: 2.443 cumulative IPC: 2.136 (Simulation time: 00 hr 09 min 52 sec)
Heartbeat CPU 0 instructions: 95500641 cycles: 33231992 heartbeat IPC: 2.428 cumulative IPC: 2.139 (Simulation time: 00 hr 09 min 56 sec)
Heartbeat CPU 0 instructions: 96000647 cycles: 33435707 heartbeat IPC: 2.454 cumulative IPC: 2.142 (Simulation time: 00 hr 10 min 00 sec)
Heartbeat CPU 0 instructions: 96500650 cycles: 33640928 heartbeat IPC: 2.436 cumulative IPC: 2.145 (Simulation time: 00 hr 10 min 03 sec)
Heartbeat CPU 0 instructions: 97000652 cycles: 33844625 heartbeat IPC: 2.455 cumulative IPC: 2.148 (Simulation time: 00 hr 10 min 07 sec)
Heartbeat CPU 0 instructions: 97500658 cycles: 34050213 heartbeat IPC: 2.432 cumulative IPC: 2.15 (Simulation time: 00 hr 10 min 11 sec)
Heartbeat CPU 0 instructions: 98000664 cycles: 34257528 heartbeat IPC: 2.412 cumulative IPC: 2.153 (Simulation time: 00 hr 10 min 15 sec)
Heartbeat CPU 0 instructions: 98500665 cycles: 34464980 heartbeat IPC: 2.41 cumulative IPC: 2.155 (Simulation time: 00 hr 10 min 18 sec)
Heartbeat CPU 0 instructions: 99000671 cycles: 34671447 heartbeat IPC: 2.422 cumulative IPC: 2.158 (Simulation time: 00 hr 10 min 22 sec)
Heartbeat CPU 0 instructions: 99500677 cycles: 34877213 heartbeat IPC: 2.43 cumulative IPC: 2.16 (Simulation time: 00 hr 10 min 26 sec)
Heartbeat CPU 0 instructions: 100000681 cycles: 35093833 heartbeat IPC: 2.308 cumulative IPC: 2.161 (Simulation time: 00 hr 10 min 30 sec)
Heartbeat CPU 0 instructions: 100500685 cycles: 35300585 heartbeat IPC: 2.418 cumulative IPC: 2.164 (Simulation time: 00 hr 10 min 33 sec)
Heartbeat CPU 0 instructions: 101000687 cycles: 35516995 heartbeat IPC: 2.31 cumulative IPC: 2.165 (Simulation time: 00 hr 10 min 37 sec)
Heartbeat CPU 0 instructions: 101500690 cycles: 35744319 heartbeat IPC: 2.2 cumulative IPC: 2.165 (Simulation time: 00 hr 10 min 40 sec)
Heartbeat CPU 0 instructions: 102000692 cycles: 35958109 heartbeat IPC: 2.339 cumulative IPC: 2.167 (Simulation time: 00 hr 10 min 44 sec)
Heartbeat CPU 0 instructions: 102500697 cycles: 36169345 heartbeat IPC: 2.367 cumulative IPC: 2.169 (Simulation time: 00 hr 10 min 47 sec)
Heartbeat CPU 0 instructions: 103000702 cycles: 36372285 heartbeat IPC: 2.464 cumulative IPC: 2.171 (Simulation time: 00 hr 10 min 51 sec)
Heartbeat CPU 0 instructions: 103500705 cycles: 36575659 heartbeat IPC: 2.459 cumulative IPC: 2.173 (Simulation time: 00 hr 10 min 55 sec)
Heartbeat CPU 0 instructions: 104000710 cycles: 36777198 heartbeat IPC: 2.481 cumulative IPC: 2.176 (Simulation time: 00 hr 10 min 58 sec)
Heartbeat CPU 0 instructions: 104500712 cycles: 36994755 heartbeat IPC: 2.298 cumulative IPC: 2.177 (Simulation time: 00 hr 11 min 02 sec)
Heartbeat CPU 0 instructions: 105000713 cycles: 37194379 heartbeat IPC: 2.505 cumulative IPC: 2.18 (Simulation time: 00 hr 11 min 06 sec)
Heartbeat CPU 0 instructions: 105500716 cycles: 37400518 heartbeat IPC: 2.426 cumulative IPC: 2.182 (Simulation time: 00 hr 11 min 10 sec)
Heartbeat CPU 0 instructions: 106000721 cycles: 37601811 heartbeat IPC: 2.484 cumulative IPC: 2.184 (Simulation time: 00 hr 11 min 13 sec)
Heartbeat CPU 0 instructions: 106500723 cycles: 37808199 heartbeat IPC: 2.423 cumulative IPC: 2.186 (Simulation time: 00 hr 11 min 17 sec)
Heartbeat CPU 0 instructions: 107000725 cycles: 38030557 heartbeat IPC: 2.249 cumulative IPC: 2.186 (Simulation time: 00 hr 11 min 21 sec)
Heartbeat CPU 0 instructions: 107500728 cycles: 38241603 heartbeat IPC: 2.369 cumulative IPC: 2.188 (Simulation time: 00 hr 11 min 24 sec)
Heartbeat CPU 0 instructions: 108000733 cycles: 38445112 heartbeat IPC: 2.457 cumulative IPC: 2.19 (Simulation time: 00 hr 11 min 28 sec)
Heartbeat CPU 0 instructions: 108500738 cycles: 38650663 heartbeat IPC: 2.433 cumulative IPC: 2.192 (Simulation time: 00 hr 11 min 32 sec)
Heartbeat CPU 0 instructions: 109000741 cycles: 38856777 heartbeat IPC: 2.426 cumulative IPC: 2.194 (Simulation time: 00 hr 11 min 36 sec)
Heartbeat CPU 0 instructions: 109500746 cycles: 39060530 heartbeat IPC: 2.454 cumulative IPC: 2.196 (Simulation time: 00 hr 11 min 40 sec)
Heartbeat CPU 0 instructions: 110000750 cycles: 39281370 heartbeat IPC: 2.264 cumulative IPC: 2.196 (Simulation time: 00 hr 11 min 44 sec)
Heartbeat CPU 0 instructions: 110500754 cycles: 39484177 heartbeat IPC: 2.465 cumulative IPC: 2.198 (Simulation time: 00 hr 11 min 47 sec)
Heartbeat CPU 0 instructions: 111000755 cycles: 39684589 heartbeat IPC: 2.495 cumulative IPC: 2.2 (Simulation time: 00 hr 11 min 51 sec)
Heartbeat CPU 0 instructions: 111500755 cycles: 39889600 heartbeat IPC: 2.439 cumulative IPC: 2.202 (Simulation time: 00 hr 11 min 54 sec)
Heartbeat CPU 0 instructions: 112000755 cycles: 40092378 heartbeat IPC: 2.466 cumulative IPC: 2.204 (Simulation time: 00 hr 11 min 58 sec)
Heartbeat CPU 0 instructions: 112500757 cycles: 40301420 heartbeat IPC: 2.392 cumulative IPC: 2.205 (Simulation time: 00 hr 12 min 01 sec)
Heartbeat CPU 0 instructions: 113000757 cycles: 40525236 heartbeat IPC: 2.234 cumulative IPC: 2.206 (Simulation time: 00 hr 12 min 05 sec)
Heartbeat CPU 0 instructions: 113500762 cycles: 40737090 heartbeat IPC: 2.36 cumulative IPC: 2.207 (Simulation time: 00 hr 12 min 09 sec)
Heartbeat CPU 0 instructions: 114000767 cycles: 40945430 heartbeat IPC: 2.4 cumulative IPC: 2.208 (Simulation time: 00 hr 12 min 12 sec)
Heartbeat CPU 0 instructions: 114500769 cycles: 41155268 heartbeat IPC: 2.383 cumulative IPC: 2.209 (Simulation time: 00 hr 12 min 16 sec)
Heartbeat CPU 0 instructions: 115000775 cycles: 41365443 heartbeat IPC: 2.379 cumulative IPC: 2.211 (Simulation time: 00 hr 12 min 19 sec)
Heartbeat CPU 0 instructions: 115500780 cycles: 41575022 heartbeat IPC: 2.386 cumulative IPC: 2.212 (Simulation time: 00 hr 12 min 23 sec)
Heartbeat CPU 0 instructions: 116000781 cycles: 41798660 heartbeat IPC: 2.236 cumulative IPC: 2.212 (Simulation time: 00 hr 12 min 27 sec)
Heartbeat CPU 0 instructions: 116500782 cycles: 42009246 heartbeat IPC: 2.374 cumulative IPC: 2.213 (Simulation time: 00 hr 12 min 30 sec)
Heartbeat CPU 0 instructions: 117000783 cycles: 42213582 heartbeat IPC: 2.447 cumulative IPC: 2.215 (Simulation time: 00 hr 12 min 34 sec)
Heartbeat CPU 0 instructions: 117500784 cycles: 42416624 heartbeat IPC: 2.463 cumulative IPC: 2.216 (Simulation time: 00 hr 12 min 38 sec)
Heartbeat CPU 0 instructions: 118000786 cycles: 42622450 heartbeat IPC: 2.429 cumulative IPC: 2.218 (Simulation time: 00 hr 12 min 41 sec)
Heartbeat CPU 0 instructions: 118500792 cycles: 42842209 heartbeat IPC: 2.275 cumulative IPC: 2.218 (Simulation time: 00 hr 12 min 45 sec)
Heartbeat CPU 0 instructions: 119000798 cycles: 43048996 heartbeat IPC: 2.418 cumulative IPC: 2.219 (Simulation time: 00 hr 12 min 49 sec)
Heartbeat CPU 0 instructions: 119500803 cycles: 43256160 heartbeat IPC: 2.414 cumulative IPC: 2.221 (Simulation time: 00 hr 12 min 53 sec)
Heartbeat CPU 0 instructions: 120000808 cycles: 43463716 heartbeat IPC: 2.409 cumulative IPC: 2.222 (Simulation time: 00 hr 12 min 57 sec)
Heartbeat CPU 0 instructions: 120500811 cycles: 43672585 heartbeat IPC: 2.394 cumulative IPC: 2.223 (Simulation time: 00 hr 13 min 01 sec)
Heartbeat CPU 0 instructions: 121000816 cycles: 43880125 heartbeat IPC: 2.409 cumulative IPC: 2.224 (Simulation time: 00 hr 13 min 04 sec)
Heartbeat CPU 0 instructions: 121500816 cycles: 44101920 heartbeat IPC: 2.254 cumulative IPC: 2.225 (Simulation time: 00 hr 13 min 08 sec)
Heartbeat CPU 0 instructions: 122000816 cycles: 44308429 heartbeat IPC: 2.421 cumulative IPC: 2.226 (Simulation time: 00 hr 13 min 12 sec)
Heartbeat CPU 0 instructions: 122500817 cycles: 44514711 heartbeat IPC: 2.424 cumulative IPC: 2.227 (Simulation time: 00 hr 13 min 16 sec)
Heartbeat CPU 0 instructions: 123000823 cycles: 44716700 heartbeat IPC: 2.475 cumulative IPC: 2.229 (Simulation time: 00 hr 13 min 19 sec)
Heartbeat CPU 0 instructions: 123500825 cycles: 44922541 heartbeat IPC: 2.429 cumulative IPC: 2.23 (Simulation time: 00 hr 13 min 23 sec)
Heartbeat CPU 0 instructions: 124000827 cycles: 45139564 heartbeat IPC: 2.304 cumulative IPC: 2.23 (Simulation time: 00 hr 13 min 27 sec)
Heartbeat CPU 0 instructions: 124500830 cycles: 45385687 heartbeat IPC: 2.032 cumulative IPC: 2.229 (Simulation time: 00 hr 13 min 31 sec)
Heartbeat CPU 0 instructions: 125000832 cycles: 45633248 heartbeat IPC: 2.02 cumulative IPC: 2.227 (Simulation time: 00 hr 13 min 35 sec)
Heartbeat CPU 0 instructions: 125500838 cycles: 45863060 heartbeat IPC: 2.176 cumulative IPC: 2.227 (Simulation time: 00 hr 13 min 39 sec)
Heartbeat CPU 0 instructions: 126000839 cycles: 46075960 heartbeat IPC: 2.349 cumulative IPC: 2.228 (Simulation time: 00 hr 13 min 43 sec)
Heartbeat CPU 0 instructions: 126500845 cycles: 46286561 heartbeat IPC: 2.374 cumulative IPC: 2.229 (Simulation time: 00 hr 13 min 47 sec)
Heartbeat CPU 0 instructions: 127000849 cycles: 46496411 heartbeat IPC: 2.383 cumulative IPC: 2.23 (Simulation time: 00 hr 13 min 51 sec)
Heartbeat CPU 0 instructions: 127500850 cycles: 46715005 heartbeat IPC: 2.287 cumulative IPC: 2.23 (Simulation time: 00 hr 13 min 55 sec)
Heartbeat CPU 0 instructions: 128000851 cycles: 46924728 heartbeat IPC: 2.384 cumulative IPC: 2.231 (Simulation time: 00 hr 13 min 59 sec)
Heartbeat CPU 0 instructions: 128500857 cycles: 47129193 heartbeat IPC: 2.445 cumulative IPC: 2.232 (Simulation time: 00 hr 14 min 02 sec)
Heartbeat CPU 0 instructions: 129000861 cycles: 47332716 heartbeat IPC: 2.457 cumulative IPC: 2.233 (Simulation time: 00 hr 14 min 06 sec)
Heartbeat CPU 0 instructions: 129500862 cycles: 47538876 heartbeat IPC: 2.425 cumulative IPC: 2.234 (Simulation time: 00 hr 14 min 10 sec)
Heartbeat CPU 0 instructions: 130000862 cycles: 47757487 heartbeat IPC: 2.287 cumulative IPC: 2.235 (Simulation time: 00 hr 14 min 13 sec)
Heartbeat CPU 0 instructions: 130500868 cycles: 47966733 heartbeat IPC: 2.39 cumulative IPC: 2.236 (Simulation time: 00 hr 14 min 17 sec)
Heartbeat CPU 0 instructions: 131000870 cycles: 48172433 heartbeat IPC: 2.431 cumulative IPC: 2.237 (Simulation time: 00 hr 14 min 21 sec)
Heartbeat CPU 0 instructions: 131500871 cycles: 48377018 heartbeat IPC: 2.444 cumulative IPC: 2.238 (Simulation time: 00 hr 14 min 25 sec)
Heartbeat CPU 0 instructions: 132000874 cycles: 48586723 heartbeat IPC: 2.384 cumulative IPC: 2.239 (Simulation time: 00 hr 14 min 29 sec)
Heartbeat CPU 0 instructions: 132500879 cycles: 48791194 heartbeat IPC: 2.445 cumulative IPC: 2.24 (Simulation time: 00 hr 14 min 33 sec)
Heartbeat CPU 0 instructions: 133000881 cycles: 49010113 heartbeat IPC: 2.284 cumulative IPC: 2.24 (Simulation time: 00 hr 14 min 37 sec)
Heartbeat CPU 0 instructions: 133500885 cycles: 49216416 heartbeat IPC: 2.424 cumulative IPC: 2.241 (Simulation time: 00 hr 14 min 40 sec)
Heartbeat CPU 0 instructions: 134000885 cycles: 49418953 heartbeat IPC: 2.469 cumulative IPC: 2.242 (Simulation time: 00 hr 14 min 44 sec)
Heartbeat CPU 0 instructions: 134500888 cycles: 49625949 heartbeat IPC: 2.416 cumulative IPC: 2.243 (Simulation time: 00 hr 14 min 47 sec)
Heartbeat CPU 0 instructions: 135000888 cycles: 49829734 heartbeat IPC: 2.454 cumulative IPC: 2.245 (Simulation time: 00 hr 14 min 51 sec)
Heartbeat CPU 0 instructions: 135500889 cycles: 50042628 heartbeat IPC: 2.349 cumulative IPC: 2.245 (Simulation time: 00 hr 14 min 55 sec)
Heartbeat CPU 0 instructions: 136000890 cycles: 50253095 heartbeat IPC: 2.376 cumulative IPC: 2.246 (Simulation time: 00 hr 14 min 59 sec)
Heartbeat CPU 0 instructions: 136500890 cycles: 50468012 heartbeat IPC: 2.326 cumulative IPC: 2.246 (Simulation time: 00 hr 15 min 03 sec)
Heartbeat CPU 0 instructions: 137000893 cycles: 50693546 heartbeat IPC: 2.217 cumulative IPC: 2.246 (Simulation time: 00 hr 15 min 07 sec)
Heartbeat CPU 0 instructions: 137500896 cycles: 50924051 heartbeat IPC: 2.169 cumulative IPC: 2.246 (Simulation time: 00 hr 15 min 11 sec)
Heartbeat CPU 0 instructions: 138000901 cycles: 51153002 heartbeat IPC: 2.184 cumulative IPC: 2.245 (Simulation time: 00 hr 15 min 15 sec)
Heartbeat CPU 0 instructions: 138500906 cycles: 51373553 heartbeat IPC: 2.267 cumulative IPC: 2.245 (Simulation time: 00 hr 15 min 19 sec)
Heartbeat CPU 0 instructions: 139000912 cycles: 51595073 heartbeat IPC: 2.257 cumulative IPC: 2.246 (Simulation time: 00 hr 15 min 23 sec)
Heartbeat CPU 0 instructions: 139500913 cycles: 51799102 heartbeat IPC: 2.451 cumulative IPC: 2.247 (Simulation time: 00 hr 15 min 26 sec)
Heartbeat CPU 0 instructions: 140000917 cycles: 52005320 heartbeat IPC: 2.425 cumulative IPC: 2.247 (Simulation time: 00 hr 15 min 30 sec)
Heartbeat CPU 0 instructions: 140500917 cycles: 52211883 heartbeat IPC: 2.421 cumulative IPC: 2.248 (Simulation time: 00 hr 15 min 34 sec)
Heartbeat CPU 0 instructions: 141000919 cycles: 52422311 heartbeat IPC: 2.376 cumulative IPC: 2.249 (Simulation time: 00 hr 15 min 37 sec)
Heartbeat CPU 0 instructions: 141500920 cycles: 52645911 heartbeat IPC: 2.236 cumulative IPC: 2.249 (Simulation time: 00 hr 15 min 41 sec)
Heartbeat CPU 0 instructions: 142000924 cycles: 52852992 heartbeat IPC: 2.415 cumulative IPC: 2.25 (Simulation time: 00 hr 15 min 45 sec)
Heartbeat CPU 0 instructions: 142500929 cycles: 53057689 heartbeat IPC: 2.443 cumulative IPC: 2.251 (Simulation time: 00 hr 15 min 48 sec)
Heartbeat CPU 0 instructions: 143000930 cycles: 53265976 heartbeat IPC: 2.401 cumulative IPC: 2.252 (Simulation time: 00 hr 15 min 52 sec)
Heartbeat CPU 0 instructions: 143500930 cycles: 53471084 heartbeat IPC: 2.438 cumulative IPC: 2.252 (Simulation time: 00 hr 15 min 55 sec)
Heartbeat CPU 0 instructions: 144000935 cycles: 53683118 heartbeat IPC: 2.358 cumulative IPC: 2.253 (Simulation time: 00 hr 15 min 59 sec)
Heartbeat CPU 0 instructions: 144500938 cycles: 53908781 heartbeat IPC: 2.216 cumulative IPC: 2.253 (Simulation time: 00 hr 16 min 03 sec)
Heartbeat CPU 0 instructions: 145000939 cycles: 54111584 heartbeat IPC: 2.465 cumulative IPC: 2.254 (Simulation time: 00 hr 16 min 06 sec)
Heartbeat CPU 0 instructions: 145500941 cycles: 54316721 heartbeat IPC: 2.437 cumulative IPC: 2.255 (Simulation time: 00 hr 16 min 10 sec)
Heartbeat CPU 0 instructions: 146000942 cycles: 54516263 heartbeat IPC: 2.506 cumulative IPC: 2.256 (Simulation time: 00 hr 16 min 14 sec)
Heartbeat CPU 0 instructions: 146500948 cycles: 54715214 heartbeat IPC: 2.513 cumulative IPC: 2.257 (Simulation time: 00 hr 16 min 18 sec)
Heartbeat CPU 0 instructions: 147000954 cycles: 54908181 heartbeat IPC: 2.591 cumulative IPC: 2.259 (Simulation time: 00 hr 16 min 21 sec)
Heartbeat CPU 0 instructions: 147500959 cycles: 55102351 heartbeat IPC: 2.575 cumulative IPC: 2.26 (Simulation time: 00 hr 16 min 25 sec)
Heartbeat CPU 0 instructions: 148000959 cycles: 55297654 heartbeat IPC: 2.56 cumulative IPC: 2.261 (Simulation time: 00 hr 16 min 29 sec)
Heartbeat CPU 0 instructions: 148500960 cycles: 55496138 heartbeat IPC: 2.519 cumulative IPC: 2.263 (Simulation time: 00 hr 16 min 33 sec)
Heartbeat CPU 0 instructions: 149000963 cycles: 55692538 heartbeat IPC: 2.546 cumulative IPC: 2.264 (Simulation time: 00 hr 16 min 37 sec)
Heartbeat CPU 0 instructions: 149500965 cycles: 55890148 heartbeat IPC: 2.53 cumulative IPC: 2.265 (Simulation time: 00 hr 16 min 41 sec)
Heartbeat CPU 0 instructions: 150000971 cycles: 56085400 heartbeat IPC: 2.561 cumulative IPC: 2.266 (Simulation time: 00 hr 16 min 44 sec)
Heartbeat CPU 0 instructions: 150500977 cycles: 56281654 heartbeat IPC: 2.548 cumulative IPC: 2.268 (Simulation time: 00 hr 16 min 48 sec)
Heartbeat CPU 0 instructions: 151000983 cycles: 56506079 heartbeat IPC: 2.228 cumulative IPC: 2.267 (Simulation time: 00 hr 16 min 52 sec)
Heartbeat CPU 0 instructions: 151500989 cycles: 56745475 heartbeat IPC: 2.089 cumulative IPC: 2.266 (Simulation time: 00 hr 16 min 56 sec)
Heartbeat CPU 0 instructions: 152000995 cycles: 56972109 heartbeat IPC: 2.206 cumulative IPC: 2.266 (Simulation time: 00 hr 17 min 00 sec)
Heartbeat CPU 0 instructions: 152501001 cycles: 57175838 heartbeat IPC: 2.454 cumulative IPC: 2.267 (Simulation time: 00 hr 17 min 04 sec)
Heartbeat CPU 0 instructions: 153001007 cycles: 57373712 heartbeat IPC: 2.527 cumulative IPC: 2.268 (Simulation time: 00 hr 17 min 08 sec)
Heartbeat CPU 0 instructions: 153501013 cycles: 57573827 heartbeat IPC: 2.499 cumulative IPC: 2.269 (Simulation time: 00 hr 17 min 12 sec)
Heartbeat CPU 0 instructions: 154001019 cycles: 57773353 heartbeat IPC: 2.506 cumulative IPC: 2.27 (Simulation time: 00 hr 17 min 16 sec)
Heartbeat CPU 0 instructions: 154501022 cycles: 57970215 heartbeat IPC: 2.54 cumulative IPC: 2.271 (Simulation time: 00 hr 17 min 19 sec)
Heartbeat CPU 0 instructions: 155001026 cycles: 58165722 heartbeat IPC: 2.557 cumulative IPC: 2.272 (Simulation time: 00 hr 17 min 23 sec)
Heartbeat CPU 0 instructions: 155501032 cycles: 58362174 heartbeat IPC: 2.545 cumulative IPC: 2.274 (Simulation time: 00 hr 17 min 27 sec)
Heartbeat CPU 0 instructions: 156001038 cycles: 58557757 heartbeat IPC: 2.556 cumulative IPC: 2.275 (Simulation time: 00 hr 17 min 31 sec)
Heartbeat CPU 0 instructions: 156501044 cycles: 58758366 heartbeat IPC: 2.492 cumulative IPC: 2.276 (Simulation time: 00 hr 17 min 35 sec)
Heartbeat CPU 0 instructions: 157001050 cycles: 58954387 heartbeat IPC: 2.551 cumulative IPC: 2.277 (Simulation time: 00 hr 17 min 39 sec)
Heartbeat CPU 0 instructions: 157501056 cycles: 59154163 heartbeat IPC: 2.503 cumulative IPC: 2.278 (Simulation time: 00 hr 17 min 42 sec)
Heartbeat CPU 0 instructions: 158001062 cycles: 59351414 heartbeat IPC: 2.535 cumulative IPC: 2.279 (Simulation time: 00 hr 17 min 46 sec)
Heartbeat CPU 0 instructions: 158501068 cycles: 59551256 heartbeat IPC: 2.502 cumulative IPC: 2.28 (Simulation time: 00 hr 17 min 50 sec)
Heartbeat CPU 0 instructions: 159001074 cycles: 59747712 heartbeat IPC: 2.545 cumulative IPC: 2.281 (Simulation time: 00 hr 17 min 54 sec)
Heartbeat CPU 0 instructions: 159501080 cycles: 59945883 heartbeat IPC: 2.523 cumulative IPC: 2.282 (Simulation time: 00 hr 17 min 58 sec)
Heartbeat CPU 0 instructions: 160001086 cycles: 60141519 heartbeat IPC: 2.556 cumulative IPC: 2.283 (Simulation time: 00 hr 18 min 02 sec)
Heartbeat CPU 0 instructions: 160501092 cycles: 60339314 heartbeat IPC: 2.528 cumulative IPC: 2.284 (Simulation time: 00 hr 18 min 05 sec)
Heartbeat CPU 0 instructions: 161001093 cycles: 60536826 heartbeat IPC: 2.531 cumulative IPC: 2.285 (Simulation time: 00 hr 18 min 09 sec)
Heartbeat CPU 0 instructions: 161501093 cycles: 60734171 heartbeat IPC: 2.534 cumulative IPC: 2.286 (Simulation time: 00 hr 18 min 13 sec)
Heartbeat CPU 0 instructions: 162001098 cycles: 60931521 heartbeat IPC: 2.534 cumulative IPC: 2.287 (Simulation time: 00 hr 18 min 17 sec)
Heartbeat CPU 0 instructions: 162501101 cycles: 61130332 heartbeat IPC: 2.515 cumulative IPC: 2.288 (Simulation time: 00 hr 18 min 21 sec)
Heartbeat CPU 0 instructions: 163001103 cycles: 61326133 heartbeat IPC: 2.554 cumulative IPC: 2.289 (Simulation time: 00 hr 18 min 25 sec)
Heartbeat CPU 0 instructions: 163501109 cycles: 61523859 heartbeat IPC: 2.529 cumulative IPC: 2.29 (Simulation time: 00 hr 18 min 29 sec)
Heartbeat CPU 0 instructions: 164001115 cycles: 61721577 heartbeat IPC: 2.529 cumulative IPC: 2.291 (Simulation time: 00 hr 18 min 32 sec)
Heartbeat CPU 0 instructions: 164501121 cycles: 61919150 heartbeat IPC: 2.531 cumulative IPC: 2.292 (Simulation time: 00 hr 18 min 36 sec)
Heartbeat CPU 0 instructions: 165001127 cycles: 62118971 heartbeat IPC: 2.502 cumulative IPC: 2.293 (Simulation time: 00 hr 18 min 40 sec)
Heartbeat CPU 0 instructions: 165501133 cycles: 62314086 heartbeat IPC: 2.563 cumulative IPC: 2.294 (Simulation time: 00 hr 18 min 44 sec)
Heartbeat CPU 0 instructions: 166001139 cycles: 62510325 heartbeat IPC: 2.548 cumulative IPC: 2.295 (Simulation time: 00 hr 18 min 48 sec)
Heartbeat CPU 0 instructions: 166501145 cycles: 62706440 heartbeat IPC: 2.55 cumulative IPC: 2.296 (Simulation time: 00 hr 18 min 52 sec)
Heartbeat CPU 0 instructions: 167001151 cycles: 62904620 heartbeat IPC: 2.523 cumulative IPC: 2.297 (Simulation time: 00 hr 18 min 55 sec)
Heartbeat CPU 0 instructions: 167501156 cycles: 63102853 heartbeat IPC: 2.522 cumulative IPC: 2.298 (Simulation time: 00 hr 18 min 59 sec)
Heartbeat CPU 0 instructions: 168001156 cycles: 63299316 heartbeat IPC: 2.545 cumulative IPC: 2.298 (Simulation time: 00 hr 19 min 03 sec)
Heartbeat CPU 0 instructions: 168501157 cycles: 63496082 heartbeat IPC: 2.541 cumulative IPC: 2.299 (Simulation time: 00 hr 19 min 07 sec)
Heartbeat CPU 0 instructions: 169001163 cycles: 63694766 heartbeat IPC: 2.517 cumulative IPC: 2.3 (Simulation time: 00 hr 19 min 11 sec)
Heartbeat CPU 0 instructions: 169501169 cycles: 63890406 heartbeat IPC: 2.556 cumulative IPC: 2.301 (Simulation time: 00 hr 19 min 15 sec)
Heartbeat CPU 0 instructions: 170001175 cycles: 64091959 heartbeat IPC: 2.481 cumulative IPC: 2.302 (Simulation time: 00 hr 19 min 19 sec)
Heartbeat CPU 0 instructions: 170501181 cycles: 64288006 heartbeat IPC: 2.55 cumulative IPC: 2.303 (Simulation time: 00 hr 19 min 22 sec)
Heartbeat CPU 0 instructions: 171001187 cycles: 64485300 heartbeat IPC: 2.534 cumulative IPC: 2.304 (Simulation time: 00 hr 19 min 26 sec)
Heartbeat CPU 0 instructions: 171501193 cycles: 64682933 heartbeat IPC: 2.53 cumulative IPC: 2.305 (Simulation time: 00 hr 19 min 30 sec)
Heartbeat CPU 0 instructions: 172001196 cycles: 64882432 heartbeat IPC: 2.506 cumulative IPC: 2.305 (Simulation time: 00 hr 19 min 34 sec)
Heartbeat CPU 0 instructions: 172501198 cycles: 65080208 heartbeat IPC: 2.528 cumulative IPC: 2.306 (Simulation time: 00 hr 19 min 38 sec)
Heartbeat CPU 0 instructions: 173001204 cycles: 65280182 heartbeat IPC: 2.5 cumulative IPC: 2.307 (Simulation time: 00 hr 19 min 42 sec)
Heartbeat CPU 0 instructions: 173501210 cycles: 65480370 heartbeat IPC: 2.498 cumulative IPC: 2.308 (Simulation time: 00 hr 19 min 46 sec)
Heartbeat CPU 0 instructions: 174001216 cycles: 65677704 heartbeat IPC: 2.534 cumulative IPC: 2.308 (Simulation time: 00 hr 19 min 49 sec)
Heartbeat CPU 0 instructions: 174501219 cycles: 65875968 heartbeat IPC: 2.522 cumulative IPC: 2.309 (Simulation time: 00 hr 19 min 53 sec)
Heartbeat CPU 0 instructions: 175001222 cycles: 66085330 heartbeat IPC: 2.388 cumulative IPC: 2.309 (Simulation time: 00 hr 19 min 57 sec)
Heartbeat CPU 0 instructions: 175501228 cycles: 66290958 heartbeat IPC: 2.432 cumulative IPC: 2.31 (Simulation time: 00 hr 20 min 01 sec)
Heartbeat CPU 0 instructions: 176001230 cycles: 66496456 heartbeat IPC: 2.433 cumulative IPC: 2.31 (Simulation time: 00 hr 20 min 05 sec)
Heartbeat CPU 0 instructions: 176501236 cycles: 66721028 heartbeat IPC: 2.226 cumulative IPC: 2.31 (Simulation time: 00 hr 20 min 09 sec)
Heartbeat CPU 0 instructions: 177001236 cycles: 66926480 heartbeat IPC: 2.434 cumulative IPC: 2.311 (Simulation time: 00 hr 20 min 12 sec)
Heartbeat CPU 0 instructions: 177501237 cycles: 67136033 heartbeat IPC: 2.386 cumulative IPC: 2.311 (Simulation time: 00 hr 20 min 16 sec)
Heartbeat CPU 0 instructions: 178001242 cycles: 67349835 heartbeat IPC: 2.339 cumulative IPC: 2.311 (Simulation time: 00 hr 20 min 20 sec)
Heartbeat CPU 0 instructions: 178501242 cycles: 67559959 heartbeat IPC: 2.38 cumulative IPC: 2.311 (Simulation time: 00 hr 20 min 24 sec)
Heartbeat CPU 0 instructions: 179001247 cycles: 67770069 heartbeat IPC: 2.38 cumulative IPC: 2.311 (Simulation time: 00 hr 20 min 28 sec)
Heartbeat CPU 0 instructions: 179501247 cycles: 67995310 heartbeat IPC: 2.22 cumulative IPC: 2.311 (Simulation time: 00 hr 20 min 32 sec)
Heartbeat CPU 0 instructions: 180001249 cycles: 68199077 heartbeat IPC: 2.454 cumulative IPC: 2.312 (Simulation time: 00 hr 20 min 36 sec)
Heartbeat CPU 0 instructions: 180501253 cycles: 68408183 heartbeat IPC: 2.391 cumulative IPC: 2.312 (Simulation time: 00 hr 20 min 40 sec)
Heartbeat CPU 0 instructions: 181001259 cycles: 68610740 heartbeat IPC: 2.468 cumulative IPC: 2.312 (Simulation time: 00 hr 20 min 43 sec)
Heartbeat CPU 0 instructions: 181501259 cycles: 68818640 heartbeat IPC: 2.405 cumulative IPC: 2.313 (Simulation time: 00 hr 20 min 47 sec)
Heartbeat CPU 0 instructions: 182001261 cycles: 69026666 heartbeat IPC: 2.404 cumulative IPC: 2.313 (Simulation time: 00 hr 20 min 51 sec)
Heartbeat CPU 0 instructions: 182501266 cycles: 69243818 heartbeat IPC: 2.303 cumulative IPC: 2.313 (Simulation time: 00 hr 20 min 54 sec)
Heartbeat CPU 0 instructions: 183001270 cycles: 69452911 heartbeat IPC: 2.391 cumulative IPC: 2.313 (Simulation time: 00 hr 20 min 58 sec)
Heartbeat CPU 0 instructions: 183501275 cycles: 69661579 heartbeat IPC: 2.396 cumulative IPC: 2.314 (Simulation time: 00 hr 21 min 01 sec)
Heartbeat CPU 0 instructions: 184001275 cycles: 69866132 heartbeat IPC: 2.444 cumulative IPC: 2.314 (Simulation time: 00 hr 21 min 05 sec)
Heartbeat CPU 0 instructions: 184501276 cycles: 70074945 heartbeat IPC: 2.394 cumulative IPC: 2.314 (Simulation time: 00 hr 21 min 09 sec)
Heartbeat CPU 0 instructions: 185001281 cycles: 70285081 heartbeat IPC: 2.379 cumulative IPC: 2.315 (Simulation time: 00 hr 21 min 12 sec)
Heartbeat CPU 0 instructions: 185501281 cycles: 70506424 heartbeat IPC: 2.259 cumulative IPC: 2.314 (Simulation time: 00 hr 21 min 16 sec)
Heartbeat CPU 0 instructions: 186001285 cycles: 70712688 heartbeat IPC: 2.424 cumulative IPC: 2.315 (Simulation time: 00 hr 21 min 20 sec)
Heartbeat CPU 0 instructions: 186501285 cycles: 70919822 heartbeat IPC: 2.414 cumulative IPC: 2.315 (Simulation time: 00 hr 21 min 24 sec)
Heartbeat CPU 0 instructions: 187001285 cycles: 71124924 heartbeat IPC: 2.438 cumulative IPC: 2.316 (Simulation time: 00 hr 21 min 27 sec)
Heartbeat CPU 0 instructions: 187501287 cycles: 71331567 heartbeat IPC: 2.42 cumulative IPC: 2.316 (Simulation time: 00 hr 21 min 31 sec)
Heartbeat CPU 0 instructions: 188001292 cycles: 71552125 heartbeat IPC: 2.267 cumulative IPC: 2.316 (Simulation time: 00 hr 21 min 35 sec)
Heartbeat CPU 0 instructions: 188501293 cycles: 71757864 heartbeat IPC: 2.43 cumulative IPC: 2.316 (Simulation time: 00 hr 21 min 39 sec)
Heartbeat CPU 0 instructions: 189001294 cycles: 71970159 heartbeat IPC: 2.355 cumulative IPC: 2.316 (Simulation time: 00 hr 21 min 43 sec)
Heartbeat CPU 0 instructions: 189501301 cycles: 72172341 heartbeat IPC: 2.473 cumulative IPC: 2.317 (Simulation time: 00 hr 21 min 47 sec)
Heartbeat CPU 0 instructions: 190001302 cycles: 72382451 heartbeat IPC: 2.38 cumulative IPC: 2.317 (Simulation time: 00 hr 21 min 51 sec)
Heartbeat CPU 0 instructions: 190501307 cycles: 72592485 heartbeat IPC: 2.381 cumulative IPC: 2.317 (Simulation time: 00 hr 21 min 55 sec)
Heartbeat CPU 0 instructions: 191001313 cycles: 72815693 heartbeat IPC: 2.24 cumulative IPC: 2.317 (Simulation time: 00 hr 21 min 59 sec)
Heartbeat CPU 0 instructions: 191501317 cycles: 73024126 heartbeat IPC: 2.399 cumulative IPC: 2.317 (Simulation time: 00 hr 22 min 02 sec)
Heartbeat CPU 0 instructions: 192001318 cycles: 73234850 heartbeat IPC: 2.373 cumulative IPC: 2.317 (Simulation time: 00 hr 22 min 06 sec)
Heartbeat CPU 0 instructions: 192501322 cycles: 73439844 heartbeat IPC: 2.439 cumulative IPC: 2.318 (Simulation time: 00 hr 22 min 10 sec)
Heartbeat CPU 0 instructions: 193001323 cycles: 73645366 heartbeat IPC: 2.433 cumulative IPC: 2.318 (Simulation time: 00 hr 22 min 13 sec)
Heartbeat CPU 0 instructions: 193501325 cycles: 73851758 heartbeat IPC: 2.423 cumulative IPC: 2.319 (Simulation time: 00 hr 22 min 17 sec)
Heartbeat CPU 0 instructions: 194001329 cycles: 74073903 heartbeat IPC: 2.251 cumulative IPC: 2.318 (Simulation time: 00 hr 22 min 21 sec)
Heartbeat CPU 0 instructions: 194501330 cycles: 74282190 heartbeat IPC: 2.401 cumulative IPC: 2.319 (Simulation time: 00 hr 22 min 25 sec)
Heartbeat CPU 0 instructions: 195001335 cycles: 74491641 heartbeat IPC: 2.387 cumulative IPC: 2.319 (Simulation time: 00 hr 22 min 29 sec)
Heartbeat CPU 0 instructions: 195501335 cycles: 74701473 heartbeat IPC: 2.383 cumulative IPC: 2.319 (Simulation time: 00 hr 22 min 33 sec)
Heartbeat CPU 0 instructions: 196001340 cycles: 74906391 heartbeat IPC: 2.44 cumulative IPC: 2.319 (Simulation time: 00 hr 22 min 37 sec)
Heartbeat CPU 0 instructions: 196501345 cycles: 75115320 heartbeat IPC: 2.393 cumulative IPC: 2.32 (Simulation time: 00 hr 22 min 41 sec)
Heartbeat CPU 0 instructions: 197001349 cycles: 75333772 heartbeat IPC: 2.289 cumulative IPC: 2.32 (Simulation time: 00 hr 22 min 45 sec)
Heartbeat CPU 0 instructions: 197501350 cycles: 75546360 heartbeat IPC: 2.352 cumulative IPC: 2.32 (Simulation time: 00 hr 22 min 49 sec)
Heartbeat CPU 0 instructions: 198001355 cycles: 75756112 heartbeat IPC: 2.384 cumulative IPC: 2.32 (Simulation time: 00 hr 22 min 52 sec)
Heartbeat CPU 0 instructions: 198501355 cycles: 75967352 heartbeat IPC: 2.367 cumulative IPC: 2.32 (Simulation time: 00 hr 22 min 56 sec)
Heartbeat CPU 0 instructions: 199001356 cycles: 76185929 heartbeat IPC: 2.288 cumulative IPC: 2.32 (Simulation time: 00 hr 23 min 00 sec)
Heartbeat CPU 0 instructions: 199501358 cycles: 76422399 heartbeat IPC: 2.114 cumulative IPC: 2.319 (Simulation time: 00 hr 23 min 04 sec)
Heartbeat CPU 0 instructions: 200001363 cycles: 76663930 heartbeat IPC: 2.07 cumulative IPC: 2.318 (Simulation time: 00 hr 23 min 08 sec)
Heartbeat CPU 0 instructions: 200501368 cycles: 76908377 heartbeat IPC: 2.045 cumulative IPC: 2.317 (Simulation time: 00 hr 23 min 13 sec)
Heartbeat CPU 0 instructions: 201001373 cycles: 77120837 heartbeat IPC: 2.353 cumulative IPC: 2.317 (Simulation time: 00 hr 23 min 17 sec)
Heartbeat CPU 0 instructions: 201501373 cycles: 77330679 heartbeat IPC: 2.383 cumulative IPC: 2.318 (Simulation time: 00 hr 23 min 21 sec)
Heartbeat CPU 0 instructions: 202001378 cycles: 77538853 heartbeat IPC: 2.402 cumulative IPC: 2.318 (Simulation time: 00 hr 23 min 25 sec)
Heartbeat CPU 0 instructions: 202501381 cycles: 77761073 heartbeat IPC: 2.25 cumulative IPC: 2.318 (Simulation time: 00 hr 23 min 29 sec)
Heartbeat CPU 0 instructions: 203001382 cycles: 77961249 heartbeat IPC: 2.498 cumulative IPC: 2.318 (Simulation time: 00 hr 23 min 32 sec)
Heartbeat CPU 0 instructions: 203501383 cycles: 78169084 heartbeat IPC: 2.406 cumulative IPC: 2.318 (Simulation time: 00 hr 23 min 36 sec)
Heartbeat CPU 0 instructions: 204001384 cycles: 78372252 heartbeat IPC: 2.461 cumulative IPC: 2.319 (Simulation time: 00 hr 23 min 40 sec)
Heartbeat CPU 0 instructions: 204501390 cycles: 78586184 heartbeat IPC: 2.337 cumulative IPC: 2.319 (Simulation time: 00 hr 23 min 43 sec)
Heartbeat CPU 0 instructions: 205001392 cycles: 78793783 heartbeat IPC: 2.408 cumulative IPC: 2.319 (Simulation time: 00 hr 23 min 47 sec)
Heartbeat CPU 0 instructions: 205501392 cycles: 79010083 heartbeat IPC: 2.312 cumulative IPC: 2.319 (Simulation time: 00 hr 23 min 51 sec)
Heartbeat CPU 0 instructions: 206001393 cycles: 79213018 heartbeat IPC: 2.464 cumulative IPC: 2.32 (Simulation time: 00 hr 23 min 55 sec)
Heartbeat CPU 0 instructions: 206501399 cycles: 79417807 heartbeat IPC: 2.442 cumulative IPC: 2.32 (Simulation time: 00 hr 23 min 59 sec)
Heartbeat CPU 0 instructions: 207001399 cycles: 79626595 heartbeat IPC: 2.395 cumulative IPC: 2.32 (Simulation time: 00 hr 24 min 03 sec)
Heartbeat CPU 0 instructions: 207501404 cycles: 79836177 heartbeat IPC: 2.386 cumulative IPC: 2.32 (Simulation time: 00 hr 24 min 07 sec)
Heartbeat CPU 0 instructions: 208001406 cycles: 80042415 heartbeat IPC: 2.424 cumulative IPC: 2.321 (Simulation time: 00 hr 24 min 11 sec)
Heartbeat CPU 0 instructions: 208501406 cycles: 80265719 heartbeat IPC: 2.239 cumulative IPC: 2.32 (Simulation time: 00 hr 24 min 15 sec)
Heartbeat CPU 0 instructions: 209001411 cycles: 80470226 heartbeat IPC: 2.445 cumulative IPC: 2.321 (Simulation time: 00 hr 24 min 18 sec)
Heartbeat CPU 0 instructions: 209501411 cycles: 80675219 heartbeat IPC: 2.439 cumulative IPC: 2.321 (Simulation time: 00 hr 24 min 22 sec)
Heartbeat CPU 0 instructions: 210001412 cycles: 80876897 heartbeat IPC: 2.479 cumulative IPC: 2.322 (Simulation time: 00 hr 24 min 26 sec)
Heartbeat CPU 0 instructions: 210501418 cycles: 81085611 heartbeat IPC: 2.396 cumulative IPC: 2.322 (Simulation time: 00 hr 24 min 30 sec)
Heartbeat CPU 0 instructions: 211001419 cycles: 81306856 heartbeat IPC: 2.26 cumulative IPC: 2.322 (Simulation time: 00 hr 24 min 34 sec)
Heartbeat CPU 0 instructions: 211501420 cycles: 81514286 heartbeat IPC: 2.41 cumulative IPC: 2.322 (Simulation time: 00 hr 24 min 37 sec)
Heartbeat CPU 0 instructions: 212001425 cycles: 81729520 heartbeat IPC: 2.323 cumulative IPC: 2.322 (Simulation time: 00 hr 24 min 41 sec)
Heartbeat CPU 0 instructions: 212501430 cycles: 81958861 heartbeat IPC: 2.18 cumulative IPC: 2.321 (Simulation time: 00 hr 24 min 46 sec)
Heartbeat CPU 0 instructions: 213001436 cycles: 82191261 heartbeat IPC: 2.151 cumulative IPC: 2.321 (Simulation time: 00 hr 24 min 50 sec)
Heartbeat CPU 0 instructions: 213501436 cycles: 82419707 heartbeat IPC: 2.189 cumulative IPC: 2.32 (Simulation time: 00 hr 24 min 54 sec)
Heartbeat CPU 0 instructions: 214001439 cycles: 82644748 heartbeat IPC: 2.222 cumulative IPC: 2.32 (Simulation time: 00 hr 24 min 58 sec)
Heartbeat CPU 0 instructions: 214501443 cycles: 82852721 heartbeat IPC: 2.404 cumulative IPC: 2.32 (Simulation time: 00 hr 25 min 02 sec)
Heartbeat CPU 0 instructions: 215001444 cycles: 83061089 heartbeat IPC: 2.4 cumulative IPC: 2.321 (Simulation time: 00 hr 25 min 06 sec)
Heartbeat CPU 0 instructions: 215501448 cycles: 83265976 heartbeat IPC: 2.44 cumulative IPC: 2.321 (Simulation time: 00 hr 25 min 09 sec)
Heartbeat CPU 0 instructions: 216001450 cycles: 83472360 heartbeat IPC: 2.423 cumulative IPC: 2.321 (Simulation time: 00 hr 25 min 13 sec)
Heartbeat CPU 0 instructions: 216501456 cycles: 83680600 heartbeat IPC: 2.401 cumulative IPC: 2.322 (Simulation time: 00 hr 25 min 17 sec)
Heartbeat CPU 0 instructions: 217001462 cycles: 83900230 heartbeat IPC: 2.277 cumulative IPC: 2.321 (Simulation time: 00 hr 25 min 20 sec)
Heartbeat CPU 0 instructions: 217501465 cycles: 84111035 heartbeat IPC: 2.372 cumulative IPC: 2.322 (Simulation time: 00 hr 25 min 24 sec)
Heartbeat CPU 0 instructions: 218001470 cycles: 84319934 heartbeat IPC: 2.394 cumulative IPC: 2.322 (Simulation time: 00 hr 25 min 28 sec)
Heartbeat CPU 0 instructions: 218501473 cycles: 84528308 heartbeat IPC: 2.4 cumulative IPC: 2.322 (Simulation time: 00 hr 25 min 31 sec)
Heartbeat CPU 0 instructions: 219001478 cycles: 84734322 heartbeat IPC: 2.427 cumulative IPC: 2.322 (Simulation time: 00 hr 25 min 35 sec)
Heartbeat CPU 0 instructions: 219501483 cycles: 84944640 heartbeat IPC: 2.377 cumulative IPC: 2.322 (Simulation time: 00 hr 25 min 39 sec)
Heartbeat CPU 0 instructions: 220001489 cycles: 85166128 heartbeat IPC: 2.257 cumulative IPC: 2.322 (Simulation time: 00 hr 25 min 43 sec)
Heartbeat CPU 0 instructions: 220501490 cycles: 85366678 heartbeat IPC: 2.493 cumulative IPC: 2.323 (Simulation time: 00 hr 25 min 46 sec)
Heartbeat CPU 0 instructions: 221001496 cycles: 85570469 heartbeat IPC: 2.454 cumulative IPC: 2.323 (Simulation time: 00 hr 25 min 50 sec)
Heartbeat CPU 0 instructions: 221501502 cycles: 85765944 heartbeat IPC: 2.558 cumulative IPC: 2.324 (Simulation time: 00 hr 25 min 54 sec)
Heartbeat CPU 0 instructions: 222001508 cycles: 85964927 heartbeat IPC: 2.513 cumulative IPC: 2.324 (Simulation time: 00 hr 25 min 58 sec)
Heartbeat CPU 0 instructions: 222501511 cycles: 86162227 heartbeat IPC: 2.534 cumulative IPC: 2.325 (Simulation time: 00 hr 26 min 02 sec)
Heartbeat CPU 0 instructions: 223001513 cycles: 86360840 heartbeat IPC: 2.517 cumulative IPC: 2.325 (Simulation time: 00 hr 26 min 06 sec)
Heartbeat CPU 0 instructions: 223501519 cycles: 86559079 heartbeat IPC: 2.522 cumulative IPC: 2.326 (Simulation time: 00 hr 26 min 10 sec)
Heartbeat CPU 0 instructions: 224001525 cycles: 86753179 heartbeat IPC: 2.576 cumulative IPC: 2.326 (Simulation time: 00 hr 26 min 13 sec)
Heartbeat CPU 0 instructions: 224501531 cycles: 86951153 heartbeat IPC: 2.526 cumulative IPC: 2.327 (Simulation time: 00 hr 26 min 17 sec)
Heartbeat CPU 0 instructions: 225001537 cycles: 87148242 heartbeat IPC: 2.537 cumulative IPC: 2.328 (Simulation time: 00 hr 26 min 21 sec)
Heartbeat CPU 0 instructions: 225501543 cycles: 87345853 heartbeat IPC: 2.53 cumulative IPC: 2.328 (Simulation time: 00 hr 26 min 25 sec)
Heartbeat CPU 0 instructions: 226001549 cycles: 87547393 heartbeat IPC: 2.481 cumulative IPC: 2.328 (Simulation time: 00 hr 26 min 29 sec)
Heartbeat CPU 0 instructions: 226501554 cycles: 87783512 heartbeat IPC: 2.118 cumulative IPC: 2.328 (Simulation time: 00 hr 26 min 33 sec)
Heartbeat CPU 0 instructions: 227001554 cycles: 88019727 heartbeat IPC: 2.117 cumulative IPC: 2.327 (Simulation time: 00 hr 26 min 38 sec)
Heartbeat CPU 0 instructions: 227501555 cycles: 88235552 heartbeat IPC: 2.317 cumulative IPC: 2.327 (Simulation time: 00 hr 26 min 42 sec)
Heartbeat CPU 0 instructions: 228001558 cycles: 88438920 heartbeat IPC: 2.459 cumulative IPC: 2.327 (Simulation time: 00 hr 26 min 46 sec)
Heartbeat CPU 0 instructions: 228501560 cycles: 88636791 heartbeat IPC: 2.527 cumulative IPC: 2.328 (Simulation time: 00 hr 26 min 49 sec)
Heartbeat CPU 0 instructions: 229001566 cycles: 88835296 heartbeat IPC: 2.519 cumulative IPC: 2.328 (Simulation time: 00 hr 26 min 53 sec)
Heartbeat CPU 0 instructions: 229501572 cycles: 89036957 heartbeat IPC: 2.479 cumulative IPC: 2.329 (Simulation time: 00 hr 26 min 57 sec)
Heartbeat CPU 0 instructions: 230001578 cycles: 89236819 heartbeat IPC: 2.502 cumulative IPC: 2.329 (Simulation time: 00 hr 27 min 01 sec)
Heartbeat CPU 0 instructions: 230501584 cycles: 89435686 heartbeat IPC: 2.514 cumulative IPC: 2.33 (Simulation time: 00 hr 27 min 05 sec)
Heartbeat CPU 0 instructions: 231001590 cycles: 89632679 heartbeat IPC: 2.538 cumulative IPC: 2.33 (Simulation time: 00 hr 27 min 09 sec)
Heartbeat CPU 0 instructions: 231501596 cycles: 89832127 heartbeat IPC: 2.507 cumulative IPC: 2.331 (Simulation time: 00 hr 27 min 13 sec)
Heartbeat CPU 0 instructions: 232001602 cycles: 90031429 heartbeat IPC: 2.509 cumulative IPC: 2.331 (Simulation time: 00 hr 27 min 17 sec)
Heartbeat CPU 0 instructions: 232501608 cycles: 90228737 heartbeat IPC: 2.534 cumulative IPC: 2.332 (Simulation time: 00 hr 27 min 21 sec)
Heartbeat CPU 0 instructions: 233001614 cycles: 90428973 heartbeat IPC: 2.497 cumulative IPC: 2.332 (Simulation time: 00 hr 27 min 25 sec)
Heartbeat CPU 0 instructions: 233501615 cycles: 90628574 heartbeat IPC: 2.505 cumulative IPC: 2.333 (Simulation time: 00 hr 27 min 29 sec)
Heartbeat CPU 0 instructions: 234001621 cycles: 90825499 heartbeat IPC: 2.539 cumulative IPC: 2.333 (Simulation time: 00 hr 27 min 33 sec)
Heartbeat CPU 0 instructions: 234501627 cycles: 91021176 heartbeat IPC: 2.555 cumulative IPC: 2.334 (Simulation time: 00 hr 27 min 37 sec)
Heartbeat CPU 0 instructions: 235001633 cycles: 91221812 heartbeat IPC: 2.492 cumulative IPC: 2.334 (Simulation time: 00 hr 27 min 41 sec)
Heartbeat CPU 0 instructions: 235501639 cycles: 91423120 heartbeat IPC: 2.484 cumulative IPC: 2.334 (Simulation time: 00 hr 27 min 45 sec)
Heartbeat CPU 0 instructions: 236001645 cycles: 91621273 heartbeat IPC: 2.523 cumulative IPC: 2.335 (Simulation time: 00 hr 27 min 49 sec)
Heartbeat CPU 0 instructions: 236501651 cycles: 91818111 heartbeat IPC: 2.54 cumulative IPC: 2.335 (Simulation time: 00 hr 27 min 53 sec)
Heartbeat CPU 0 instructions: 237001657 cycles: 92016960 heartbeat IPC: 2.515 cumulative IPC: 2.336 (Simulation time: 00 hr 27 min 57 sec)
Heartbeat CPU 0 instructions: 237501663 cycles: 92213986 heartbeat IPC: 2.538 cumulative IPC: 2.336 (Simulation time: 00 hr 28 min 01 sec)
Heartbeat CPU 0 instructions: 238001669 cycles: 92410877 heartbeat IPC: 2.54 cumulative IPC: 2.337 (Simulation time: 00 hr 28 min 05 sec)
Heartbeat CPU 0 instructions: 238501675 cycles: 92606771 heartbeat IPC: 2.552 cumulative IPC: 2.337 (Simulation time: 00 hr 28 min 08 sec)
Heartbeat CPU 0 instructions: 239001681 cycles: 92803716 heartbeat IPC: 2.539 cumulative IPC: 2.338 (Simulation time: 00 hr 28 min 12 sec)
Heartbeat CPU 0 instructions: 239501687 cycles: 93003015 heartbeat IPC: 2.509 cumulative IPC: 2.338 (Simulation time: 00 hr 28 min 16 sec)
Heartbeat CPU 0 instructions: 240001688 cycles: 93200873 heartbeat IPC: 2.527 cumulative IPC: 2.339 (Simulation time: 00 hr 28 min 20 sec)
Heartbeat CPU 0 instructions: 240501694 cycles: 93396902 heartbeat IPC: 2.551 cumulative IPC: 2.339 (Simulation time: 00 hr 28 min 24 sec)
Heartbeat CPU 0 instructions: 241001700 cycles: 93590982 heartbeat IPC: 2.576 cumulative IPC: 2.34 (Simulation time: 00 hr 28 min 28 sec)
Heartbeat CPU 0 instructions: 241501706 cycles: 93788443 heartbeat IPC: 2.532 cumulative IPC: 2.34 (Simulation time: 00 hr 28 min 32 sec)
Heartbeat CPU 0 instructions: 242001712 cycles: 93984328 heartbeat IPC: 2.553 cumulative IPC: 2.341 (Simulation time: 00 hr 28 min 36 sec)
Heartbeat CPU 0 instructions: 242501718 cycles: 94181364 heartbeat IPC: 2.538 cumulative IPC: 2.341 (Simulation time: 00 hr 28 min 40 sec)
Heartbeat CPU 0 instructions: 243001724 cycles: 94379438 heartbeat IPC: 2.524 cumulative IPC: 2.342 (Simulation time: 00 hr 28 min 44 sec)
Heartbeat CPU 0 instructions: 243501730 cycles: 94577034 heartbeat IPC: 2.53 cumulative IPC: 2.342 (Simulation time: 00 hr 28 min 48 sec)
Heartbeat CPU 0 instructions: 244001736 cycles: 94776196 heartbeat IPC: 2.511 cumulative IPC: 2.343 (Simulation time: 00 hr 28 min 52 sec)
Heartbeat CPU 0 instructions: 244501742 cycles: 94973759 heartbeat IPC: 2.531 cumulative IPC: 2.343 (Simulation time: 00 hr 28 min 56 sec)
Heartbeat CPU 0 instructions: 245001748 cycles: 95169939 heartbeat IPC: 2.549 cumulative IPC: 2.343 (Simulation time: 00 hr 29 min 00 sec)
Heartbeat CPU 0 instructions: 245501754 cycles: 95369277 heartbeat IPC: 2.508 cumulative IPC: 2.344 (Simulation time: 00 hr 29 min 04 sec)
Heartbeat CPU 0 instructions: 246001760 cycles: 95566734 heartbeat IPC: 2.532 cumulative IPC: 2.344 (Simulation time: 00 hr 29 min 08 sec)
Heartbeat CPU 0 instructions: 246501767 cycles: 95761913 heartbeat IPC: 2.562 cumulative IPC: 2.345 (Simulation time: 00 hr 29 min 12 sec)
Heartbeat CPU 0 instructions: 247001767 cycles: 95960243 heartbeat IPC: 2.521 cumulative IPC: 2.345 (Simulation time: 00 hr 29 min 16 sec)
Heartbeat CPU 0 instructions: 247501773 cycles: 96157916 heartbeat IPC: 2.529 cumulative IPC: 2.346 (Simulation time: 00 hr 29 min 20 sec)
Heartbeat CPU 0 instructions: 248001779 cycles: 96358909 heartbeat IPC: 2.488 cumulative IPC: 2.346 (Simulation time: 00 hr 29 min 24 sec)
Heartbeat CPU 0 instructions: 248501785 cycles: 96558253 heartbeat IPC: 2.508 cumulative IPC: 2.346 (Simulation time: 00 hr 29 min 27 sec)
Heartbeat CPU 0 instructions: 249001791 cycles: 96756923 heartbeat IPC: 2.517 cumulative IPC: 2.347 (Simulation time: 00 hr 29 min 32 sec)
Heartbeat CPU 0 instructions: 249501797 cycles: 96958793 heartbeat IPC: 2.477 cumulative IPC: 2.347 (Simulation time: 00 hr 29 min 36 sec)
Simulation finished CPU 0 instructions: 200000005 cycles: 85194783 cumulative IPC: 2.348 (Simulation time: 00 hr 29 min 39 sec)
Simulation complete CPU 0 instructions: 200000005 cycles: 85194783 cumulative IPC: 2.348 (Simulation time: 00 hr 29 min 39 sec)

ChampSim completed all CPUs

=== Simulation ===
CPU 0 runs /local-ssd/ben/dpc4-traces/ai-ml/llama2.c-stories42M.1.champsimtrace.gz

Region of Interest Statistics

CPU 0 cumulative IPC: 2.348 instructions: 200000005 cycles: 85194783
CPU 0 Branch Prediction Accuracy: 99.29% MPKI: 1.012 Average ROB Occupancy at Mispredict: 475.1
Branch type MPKI
BRANCH_DIRECT_JUMP: 5e-06
BRANCH_INDIRECT: 0
BRANCH_CONDITIONAL: 1.012
BRANCH_DIRECT_CALL: 1.5e-05
BRANCH_INDIRECT_CALL: 5e-06
BRANCH_RETURN: 2.5e-05

cpu0->cpu0_STLB TOTAL        ACCESS:     109345 HIT:        318 MISS:     109027 MSHR_MERGE:          0
cpu0->cpu0_STLB LOAD         ACCESS:     109345 HIT:        318 MISS:     109027 MSHR_MERGE:          0
cpu0->cpu0_STLB RFO          ACCESS:          0 HIT:          0 MISS:          0 MSHR_MERGE:          0
cpu0->cpu0_STLB PREFETCH     ACCESS:          0 HIT:          0 MISS:          0 MSHR_MERGE:          0
cpu0->cpu0_STLB WRITE        ACCESS:          0 HIT:          0 MISS:          0 MSHR_MERGE:          0
cpu0->cpu0_STLB TRANSLATION  ACCESS:          0 HIT:          0 MISS:          0 MSHR_MERGE:          0
cpu0->cpu0_STLB PREFETCH REQUESTED:          0 ISSUED:          0 USEFUL:          0 USELESS:          0
cpu0->cpu0_STLB AVERAGE MISS LATENCY: 70.15 cycles
cpu0->cpu0_L2C TOTAL        ACCESS:   33923371 HIT:    1245113 MISS:   32678258 MSHR_MERGE:   25705336
cpu0->cpu0_L2C LOAD         ACCESS:     904356 HIT:     143992 MISS:     760364 MSHR_MERGE:     707569
cpu0->cpu0_L2C RFO          ACCESS:      13565 HIT:       1792 MISS:      11773 MSHR_MERGE:          0
cpu0->cpu0_L2C PREFETCH     ACCESS:   32972052 HIT:    1082780 MISS:   31889272 MSHR_MERGE:   24997767
cpu0->cpu0_L2C WRITE        ACCESS:      18984 HIT:      16360 MISS:       2624 MSHR_MERGE:          0
cpu0->cpu0_L2C TRANSLATION  ACCESS:      14414 HIT:        189 MISS:      14225 MSHR_MERGE:          0
cpu0->cpu0_L2C PREFETCH REQUESTED:   32386042 ISSUED:   26930749 USEFUL:    1049558 USELESS:    4187531
cpu0->cpu0_L2C AVERAGE MISS LATENCY: 71.96 cycles
cpu0->cpu0_L1I TOTAL        ACCESS:   22117918 HIT:   22117904 MISS:         14 MSHR_MERGE:          1
cpu0->cpu0_L1I LOAD         ACCESS:   22117918 HIT:   22117904 MISS:         14 MSHR_MERGE:          1
cpu0->cpu0_L1I RFO          ACCESS:          0 HIT:          0 MISS:          0 MSHR_MERGE:          0
cpu0->cpu0_L1I PREFETCH     ACCESS:          0 HIT:          0 MISS:          0 MSHR_MERGE:          0
cpu0->cpu0_L1I WRITE        ACCESS:          0 HIT:          0 MISS:          0 MSHR_MERGE:          0
cpu0->cpu0_L1I TRANSLATION  ACCESS:          0 HIT:          0 MISS:          0 MSHR_MERGE:          0
cpu0->cpu0_L1I PREFETCH REQUESTED:          0 ISSUED:          0 USEFUL:          0 USELESS:          0
cpu0->cpu0_L1I AVERAGE MISS LATENCY: 236 cycles
cpu0->cpu0_L1D TOTAL        ACCESS:   52968714 HIT:   26582944 MISS:   26385770 MSHR_MERGE:   19412140
cpu0->cpu0_L1D LOAD         ACCESS:   33600111 HIT:   19317723 MISS:   14282388 MSHR_MERGE:   13378045
cpu0->cpu0_L1D RFO          ACCESS:          0 HIT:          0 MISS:          0 MSHR_MERGE:          0
cpu0->cpu0_L1D PREFETCH     ACCESS:   18863530 HIT:    6789195 MISS:   12074335 MSHR_MERGE:    6033029
cpu0->cpu0_L1D WRITE        ACCESS:     286731 HIT:     272108 MISS:      14623 MSHR_MERGE:       1056
cpu0->cpu0_L1D TRANSLATION  ACCESS:     218342 HIT:     203918 MISS:      14424 MSHR_MERGE:         10
cpu0->cpu0_L1D PREFETCH REQUESTED:   30050360 ISSUED:   18863525 USEFUL:    6037481 USELESS:       3818
cpu0->cpu0_L1D AVERAGE MISS LATENCY: 62.87 cycles
cpu0->cpu0_ITLB TOTAL        ACCESS:   20292471 HIT:   20292470 MISS:          1 MSHR_MERGE:          0
cpu0->cpu0_ITLB LOAD         ACCESS:   20292471 HIT:   20292470 MISS:          1 MSHR_MERGE:          0
cpu0->cpu0_ITLB RFO          ACCESS:          0 HIT:          0 MISS:          0 MSHR_MERGE:          0
cpu0->cpu0_ITLB PREFETCH     ACCESS:          0 HIT:          0 MISS:          0 MSHR_MERGE:          0
cpu0->cpu0_ITLB WRITE        ACCESS:          0 HIT:          0 MISS:          0 MSHR_MERGE:          0
cpu0->cpu0_ITLB TRANSLATION  ACCESS:          0 HIT:          0 MISS:          0 MSHR_MERGE:          0
cpu0->cpu0_ITLB PREFETCH REQUESTED:          0 ISSUED:          0 USEFUL:          0 USELESS:          0
cpu0->cpu0_ITLB AVERAGE MISS LATENCY: 694 cycles
cpu0->cpu0_DTLB TOTAL        ACCESS:   42036936 HIT:   41287640 MISS:     749296 MSHR_MERGE:     639952
cpu0->cpu0_DTLB LOAD         ACCESS:   42036936 HIT:   41287640 MISS:     749296 MSHR_MERGE:     639952
cpu0->cpu0_DTLB RFO          ACCESS:          0 HIT:          0 MISS:          0 MSHR_MERGE:          0
cpu0->cpu0_DTLB PREFETCH     ACCESS:          0 HIT:          0 MISS:          0 MSHR_MERGE:          0
cpu0->cpu0_DTLB WRITE        ACCESS:          0 HIT:          0 MISS:          0 MSHR_MERGE:          0
cpu0->cpu0_DTLB TRANSLATION  ACCESS:          0 HIT:          0 MISS:          0 MSHR_MERGE:          0
cpu0->cpu0_DTLB PREFETCH REQUESTED:          0 ISSUED:          0 USEFUL:          0 USELESS:          0
cpu0->cpu0_DTLB AVERAGE MISS LATENCY: 75.94 cycles
cpu0->LLC TOTAL        ACCESS:   13702277 HIT:     341023 MISS:   13361254 MSHR_MERGE:    6414499
cpu0->LLC LOAD         ACCESS:      52795 HIT:      10387 MISS:      42408 MSHR_MERGE:      22238
cpu0->LLC RFO          ACCESS:      11773 HIT:       3909 MISS:       7864 MSHR_MERGE:          1
cpu0->LLC PREFETCH     ACCESS:   13606806 HIT:     316986 MISS:   13289820 MSHR_MERGE:    6392260
cpu0->LLC WRITE        ACCESS:      16678 HIT:       9630 MISS:       7048 MSHR_MERGE:          0
cpu0->LLC TRANSLATION  ACCESS:      14225 HIT:        111 MISS:      14114 MSHR_MERGE:          0
cpu0->LLC PREFETCH REQUESTED:    6722349 ISSUED:    6715334 USEFUL:     282706 USELESS:    5035957
cpu0->LLC AVERAGE MISS LATENCY: 195.4 cycles

DRAM Statistics

Channel 0 RQ ROW_BUFFER_HIT:    3053428
  ROW_BUFFER_MISS:    3885930
  AVG DBUS CONGESTED CYCLE: 4.953
Channel 0 WQ ROW_BUFFER_HIT:        339
  ROW_BUFFER_MISS:       7543
  FULL:          0
Channel 0 REFRESHES ISSUED:       7099
