[VMEM] WARNING: physical memory size is smaller than virtual memory size.

*** ChampSim Multicore Out-of-Order Simulator ***
Warmup Instructions: 50000000
Simulation Instructions: 200000000
Number of CPUs: 1
Page size: 4096
Core 0: /local-ssd/ben/dpc4-traces/ai-ml/whisper_trace_1.champsimtrace.gz
Off-chip DRAM Size: 64 GiB Channels: 1 Width: 64-bit Data Rate: 4807 MT/s
Heartbeat CPU 0 instructions: 500006 cycles: 160152 heartbeat IPC: 3.122 cumulative IPC: 3.122 (Simulation time: 00 hr 00 min 03 sec)
Heartbeat CPU 0 instructions: 1000009 cycles: 331058 heartbeat IPC: 2.926 cumulative IPC: 3.021 (Simulation time: 00 hr 00 min 06 sec)
Heartbeat CPU 0 instructions: 1500013 cycles: 496126 heartbeat IPC: 3.029 cumulative IPC: 3.023 (Simulation time: 00 hr 00 min 09 sec)
Heartbeat CPU 0 instructions: 2000014 cycles: 657916 heartbeat IPC: 3.09 cumulative IPC: 3.04 (Simulation time: 00 hr 00 min 12 sec)
Heartbeat CPU 0 instructions: 2500016 cycles: 805951 heartbeat IPC: 3.378 cumulative IPC: 3.102 (Simulation time: 00 hr 00 min 16 sec)
Heartbeat CPU 0 instructions: 3000018 cycles: 962284 heartbeat IPC: 3.198 cumulative IPC: 3.118 (Simulation time: 00 hr 00 min 19 sec)
Heartbeat CPU 0 instructions: 3500024 cycles: 1116018 heartbeat IPC: 3.252 cumulative IPC: 3.136 (Simulation time: 00 hr 00 min 22 sec)
Heartbeat CPU 0 instructions: 4000026 cycles: 1270932 heartbeat IPC: 3.228 cumulative IPC: 3.147 (Simulation time: 00 hr 00 min 26 sec)
Heartbeat CPU 0 instructions: 4500033 cycles: 1422546 heartbeat IPC: 3.298 cumulative IPC: 3.163 (Simulation time: 00 hr 00 min 29 sec)
Heartbeat CPU 0 instructions: 5000036 cycles: 1575527 heartbeat IPC: 3.268 cumulative IPC: 3.174 (Simulation time: 00 hr 00 min 33 sec)
Heartbeat CPU 0 instructions: 5500043 cycles: 1748626 heartbeat IPC: 2.889 cumulative IPC: 3.145 (Simulation time: 00 hr 00 min 36 sec)
Heartbeat CPU 0 instructions: 6000049 cycles: 1901770 heartbeat IPC: 3.265 cumulative IPC: 3.155 (Simulation time: 00 hr 00 min 40 sec)
Heartbeat CPU 0 instructions: 6500055 cycles: 2058506 heartbeat IPC: 3.19 cumulative IPC: 3.158 (Simulation time: 00 hr 00 min 43 sec)
Heartbeat CPU 0 instructions: 7000061 cycles: 2217578 heartbeat IPC: 3.143 cumulative IPC: 3.157 (Simulation time: 00 hr 00 min 47 sec)
Heartbeat CPU 0 instructions: 7500061 cycles: 2371178 heartbeat IPC: 3.255 cumulative IPC: 3.163 (Simulation time: 00 hr 00 min 50 sec)
Heartbeat CPU 0 instructions: 8000067 cycles: 2533624 heartbeat IPC: 3.078 cumulative IPC: 3.158 (Simulation time: 00 hr 00 min 54 sec)
Heartbeat CPU 0 instructions: 8500067 cycles: 2687645 heartbeat IPC: 3.246 cumulative IPC: 3.163 (Simulation time: 00 hr 00 min 57 sec)
Heartbeat CPU 0 instructions: 9000067 cycles: 2851427 heartbeat IPC: 3.053 cumulative IPC: 3.156 (Simulation time: 00 hr 01 min 01 sec)
Heartbeat CPU 0 instructions: 9500070 cycles: 3007557 heartbeat IPC: 3.202 cumulative IPC: 3.159 (Simulation time: 00 hr 01 min 04 sec)
Heartbeat CPU 0 instructions: 10000072 cycles: 3183320 heartbeat IPC: 2.845 cumulative IPC: 3.141 (Simulation time: 00 hr 01 min 08 sec)
Heartbeat CPU 0 instructions: 10500072 cycles: 3334229 heartbeat IPC: 3.313 cumulative IPC: 3.149 (Simulation time: 00 hr 01 min 11 sec)
Heartbeat CPU 0 instructions: 11000073 cycles: 3481828 heartbeat IPC: 3.388 cumulative IPC: 3.159 (Simulation time: 00 hr 01 min 15 sec)
Heartbeat CPU 0 instructions: 11500075 cycles: 3640316 heartbeat IPC: 3.155 cumulative IPC: 3.159 (Simulation time: 00 hr 01 min 18 sec)
Heartbeat CPU 0 instructions: 12000080 cycles: 3799720 heartbeat IPC: 3.137 cumulative IPC: 3.158 (Simulation time: 00 hr 01 min 22 sec)
Heartbeat CPU 0 instructions: 12500082 cycles: 3971154 heartbeat IPC: 2.917 cumulative IPC: 3.148 (Simulation time: 00 hr 01 min 25 sec)
Heartbeat CPU 0 instructions: 13000085 cycles: 4138347 heartbeat IPC: 2.991 cumulative IPC: 3.141 (Simulation time: 00 hr 01 min 29 sec)
Heartbeat CPU 0 instructions: 13500091 cycles: 4299273 heartbeat IPC: 3.107 cumulative IPC: 3.14 (Simulation time: 00 hr 01 min 33 sec)
Heartbeat CPU 0 instructions: 14000097 cycles: 4453291 heartbeat IPC: 3.246 cumulative IPC: 3.144 (Simulation time: 00 hr 01 min 36 sec)
Heartbeat CPU 0 instructions: 14500101 cycles: 4590645 heartbeat IPC: 3.64 cumulative IPC: 3.159 (Simulation time: 00 hr 01 min 39 sec)
Heartbeat CPU 0 instructions: 15000103 cycles: 4727140 heartbeat IPC: 3.663 cumulative IPC: 3.173 (Simulation time: 00 hr 01 min 42 sec)
Heartbeat CPU 0 instructions: 15500109 cycles: 4886341 heartbeat IPC: 3.141 cumulative IPC: 3.172 (Simulation time: 00 hr 01 min 46 sec)
Heartbeat CPU 0 instructions: 16000109 cycles: 5053613 heartbeat IPC: 2.989 cumulative IPC: 3.166 (Simulation time: 00 hr 01 min 49 sec)
Heartbeat CPU 0 instructions: 16500116 cycles: 5213143 heartbeat IPC: 3.134 cumulative IPC: 3.165 (Simulation time: 00 hr 01 min 53 sec)
Heartbeat CPU 0 instructions: 17000122 cycles: 5358890 heartbeat IPC: 3.431 cumulative IPC: 3.172 (Simulation time: 00 hr 01 min 56 sec)
Heartbeat CPU 0 instructions: 17500124 cycles: 5516835 heartbeat IPC: 3.166 cumulative IPC: 3.172 (Simulation time: 00 hr 02 min 00 sec)
Heartbeat CPU 0 instructions: 18000127 cycles: 5692700 heartbeat IPC: 2.843 cumulative IPC: 3.162 (Simulation time: 00 hr 02 min 04 sec)
Heartbeat CPU 0 instructions: 18500130 cycles: 5855409 heartbeat IPC: 3.073 cumulative IPC: 3.159 (Simulation time: 00 hr 02 min 07 sec)
Heartbeat CPU 0 instructions: 19000136 cycles: 6019894 heartbeat IPC: 3.04 cumulative IPC: 3.156 (Simulation time: 00 hr 02 min 11 sec)
Heartbeat CPU 0 instructions: 19500136 cycles: 6170826 heartbeat IPC: 3.313 cumulative IPC: 3.16 (Simulation time: 00 hr 02 min 14 sec)
Heartbeat CPU 0 instructions: 20000137 cycles: 6308309 heartbeat IPC: 3.637 cumulative IPC: 3.17 (Simulation time: 00 hr 02 min 17 sec)
Heartbeat CPU 0 instructions: 20500138 cycles: 6445273 heartbeat IPC: 3.651 cumulative IPC: 3.181 (Simulation time: 00 hr 02 min 20 sec)
Heartbeat CPU 0 instructions: 21000141 cycles: 6603557 heartbeat IPC: 3.159 cumulative IPC: 3.18 (Simulation time: 00 hr 02 min 24 sec)
Heartbeat CPU 0 instructions: 21500141 cycles: 6757767 heartbeat IPC: 3.242 cumulative IPC: 3.182 (Simulation time: 00 hr 02 min 27 sec)
Heartbeat CPU 0 instructions: 22000141 cycles: 6913371 heartbeat IPC: 3.213 cumulative IPC: 3.182 (Simulation time: 00 hr 02 min 31 sec)
Heartbeat CPU 0 instructions: 22500147 cycles: 7069594 heartbeat IPC: 3.201 cumulative IPC: 3.183 (Simulation time: 00 hr 02 min 34 sec)
Heartbeat CPU 0 instructions: 23000148 cycles: 7235151 heartbeat IPC: 3.02 cumulative IPC: 3.179 (Simulation time: 00 hr 02 min 38 sec)
Heartbeat CPU 0 instructions: 23500154 cycles: 7421275 heartbeat IPC: 2.686 cumulative IPC: 3.167 (Simulation time: 00 hr 02 min 41 sec)
Heartbeat CPU 0 instructions: 24000161 cycles: 7605745 heartbeat IPC: 2.711 cumulative IPC: 3.156 (Simulation time: 00 hr 02 min 45 sec)
Heartbeat CPU 0 instructions: 24500165 cycles: 7769641 heartbeat IPC: 3.051 cumulative IPC: 3.153 (Simulation time: 00 hr 02 min 49 sec)
Heartbeat CPU 0 instructions: 25000168 cycles: 7953054 heartbeat IPC: 2.726 cumulative IPC: 3.143 (Simulation time: 00 hr 02 min 53 sec)
Heartbeat CPU 0 instructions: 25500174 cycles: 8120806 heartbeat IPC: 2.981 cumulative IPC: 3.14 (Simulation time: 00 hr 02 min 57 sec)
Heartbeat CPU 0 instructions: 26000180 cycles: 8298802 heartbeat IPC: 2.809 cumulative IPC: 3.133 (Simulation time: 00 hr 03 min 00 sec)
Heartbeat CPU 0 instructions: 26500185 cycles: 8487413 heartbeat IPC: 2.651 cumulative IPC: 3.122 (Simulation time: 00 hr 03 min 04 sec)
Heartbeat CPU 0 instructions: 27000189 cycles: 8663122 heartbeat IPC: 2.846 cumulative IPC: 3.117 (Simulation time: 00 hr 03 min 08 sec)
Heartbeat CPU 0 instructions: 27500195 cycles: 8820910 heartbeat IPC: 3.169 cumulative IPC: 3.118 (Simulation time: 00 hr 03 min 12 sec)
Heartbeat CPU 0 instructions: 28000195 cycles: 8999708 heartbeat IPC: 2.796 cumulative IPC: 3.111 (Simulation time: 00 hr 03 min 16 sec)
Heartbeat CPU 0 instructions: 28500196 cycles: 9170597 heartbeat IPC: 2.926 cumulative IPC: 3.108 (Simulation time: 00 hr 03 min 19 sec)
Heartbeat CPU 0 instructions: 29000199 cycles: 9363189 heartbeat IPC: 2.596 cumulative IPC: 3.097 (Simulation time: 00 hr 03 min 23 sec)
Heartbeat CPU 0 instructions: 29500199 cycles: 9538683 heartbeat IPC: 2.849 cumulative IPC: 3.093 (Simulation time: 00 hr 03 min 27 sec)
Heartbeat CPU 0 instructions: 30000200 cycles: 9698145 heartbeat IPC: 3.136 cumulative IPC: 3.093 (Simulation time: 00 hr 03 min 31 sec)
Heartbeat CPU 0 instructions: 30500200 cycles: 9860743 heartbeat IPC: 3.075 cumulative IPC: 3.093 (Simulation time: 00 hr 03 min 34 sec)
Heartbeat CPU 0 instructions: 31000203 cycles: 10050883 heartbeat IPC: 2.63 cumulative IPC: 3.084 (Simulation time: 00 hr 03 min 38 sec)
Heartbeat CPU 0 instructions: 31500207 cycles: 10174173 heartbeat IPC: 4.056 cumulative IPC: 3.096 (Simulation time: 00 hr 03 min 41 sec)
Heartbeat CPU 0 instructions: 32000207 cycles: 10297641 heartbeat IPC: 4.05 cumulative IPC: 3.108 (Simulation time: 00 hr 03 min 44 sec)
Heartbeat CPU 0 instructions: 32500210 cycles: 10421197 heartbeat IPC: 4.047 cumulative IPC: 3.119 (Simulation time: 00 hr 03 min 47 sec)
Heartbeat CPU 0 instructions: 33000213 cycles: 10544504 heartbeat IPC: 4.055 cumulative IPC: 3.13 (Simulation time: 00 hr 03 min 50 sec)
Heartbeat CPU 0 instructions: 33500215 cycles: 10668002 heartbeat IPC: 4.049 cumulative IPC: 3.14 (Simulation time: 00 hr 03 min 53 sec)
Heartbeat CPU 0 instructions: 34000220 cycles: 10791159 heartbeat IPC: 4.06 cumulative IPC: 3.151 (Simulation time: 00 hr 03 min 56 sec)
Heartbeat CPU 0 instructions: 34500226 cycles: 10914656 heartbeat IPC: 4.049 cumulative IPC: 3.161 (Simulation time: 00 hr 03 min 59 sec)
Heartbeat CPU 0 instructions: 35000229 cycles: 11038117 heartbeat IPC: 4.05 cumulative IPC: 3.171 (Simulation time: 00 hr 04 min 02 sec)
Heartbeat CPU 0 instructions: 35500229 cycles: 11161695 heartbeat IPC: 4.046 cumulative IPC: 3.181 (Simulation time: 00 hr 04 min 05 sec)
Heartbeat CPU 0 instructions: 36000232 cycles: 11303149 heartbeat IPC: 3.535 cumulative IPC: 3.185 (Simulation time: 00 hr 04 min 08 sec)
Heartbeat CPU 0 instructions: 36500235 cycles: 11426453 heartbeat IPC: 4.055 cumulative IPC: 3.194 (Simulation time: 00 hr 04 min 11 sec)
Heartbeat CPU 0 instructions: 37000240 cycles: 11549914 heartbeat IPC: 4.05 cumulative IPC: 3.204 (Simulation time: 00 hr 04 min 14 sec)
Heartbeat CPU 0 instructions: 37500245 cycles: 11673441 heartbeat IPC: 4.048 cumulative IPC: 3.212 (Simulation time: 00 hr 04 min 17 sec)
Heartbeat CPU 0 instructions: 38000250 cycles: 11797036 heartbeat IPC: 4.046 cumulative IPC: 3.221 (Simulation time: 00 hr 04 min 19 sec)
Heartbeat CPU 0 instructions: 38500253 cycles: 11920805 heartbeat IPC: 4.04 cumulative IPC: 3.23 (Simulation time: 00 hr 04 min 22 sec)
Heartbeat CPU 0 instructions: 39000259 cycles: 12044032 heartbeat IPC: 4.058 cumulative IPC: 3.238 (Simulation time: 00 hr 04 min 25 sec)
Heartbeat CPU 0 instructions: 39500265 cycles: 12167772 heartbeat IPC: 4.041 cumulative IPC: 3.246 (Simulation time: 00 hr 04 min 28 sec)
Heartbeat CPU 0 instructions: 40000268 cycles: 12291107 heartbeat IPC: 4.054 cumulative IPC: 3.254 (Simulation time: 00 hr 04 min 31 sec)
Heartbeat CPU 0 instructions: 40500271 cycles: 12414399 heartbeat IPC: 4.055 cumulative IPC: 3.262 (Simulation time: 00 hr 04 min 34 sec)
Heartbeat CPU 0 instructions: 41000277 cycles: 12537891 heartbeat IPC: 4.049 cumulative IPC: 3.27 (Simulation time: 00 hr 04 min 37 sec)
Heartbeat CPU 0 instructions: 41500283 cycles: 12661312 heartbeat IPC: 4.051 cumulative IPC: 3.278 (Simulation time: 00 hr 04 min 40 sec)
Heartbeat CPU 0 instructions: 42000286 cycles: 12801667 heartbeat IPC: 3.562 cumulative IPC: 3.281 (Simulation time: 00 hr 04 min 43 sec)
Heartbeat CPU 0 instructions: 42500292 cycles: 12925172 heartbeat IPC: 4.048 cumulative IPC: 3.288 (Simulation time: 00 hr 04 min 46 sec)
Heartbeat CPU 0 instructions: 43000293 cycles: 13048392 heartbeat IPC: 4.058 cumulative IPC: 3.295 (Simulation time: 00 hr 04 min 49 sec)
Heartbeat CPU 0 instructions: 43500298 cycles: 13171880 heartbeat IPC: 4.049 cumulative IPC: 3.303 (Simulation time: 00 hr 04 min 52 sec)
Heartbeat CPU 0 instructions: 44000299 cycles: 13295445 heartbeat IPC: 4.046 cumulative IPC: 3.309 (Simulation time: 00 hr 04 min 55 sec)
Heartbeat CPU 0 instructions: 44500299 cycles: 13428453 heartbeat IPC: 3.759 cumulative IPC: 3.314 (Simulation time: 00 hr 04 min 58 sec)
Heartbeat CPU 0 instructions: 45000300 cycles: 13552138 heartbeat IPC: 4.043 cumulative IPC: 3.321 (Simulation time: 00 hr 05 min 01 sec)
Heartbeat CPU 0 instructions: 45500306 cycles: 13675666 heartbeat IPC: 4.048 cumulative IPC: 3.327 (Simulation time: 00 hr 05 min 04 sec)
Heartbeat CPU 0 instructions: 46000306 cycles: 13799198 heartbeat IPC: 4.048 cumulative IPC: 3.334 (Simulation time: 00 hr 05 min 06 sec)
Heartbeat CPU 0 instructions: 46500306 cycles: 13922807 heartbeat IPC: 4.045 cumulative IPC: 3.34 (Simulation time: 00 hr 05 min 09 sec)
Heartbeat CPU 0 instructions: 47000312 cycles: 14046378 heartbeat IPC: 4.046 cumulative IPC: 3.346 (Simulation time: 00 hr 05 min 12 sec)
Heartbeat CPU 0 instructions: 47500315 cycles: 14169658 heartbeat IPC: 4.056 cumulative IPC: 3.352 (Simulation time: 00 hr 05 min 15 sec)
Heartbeat CPU 0 instructions: 48000316 cycles: 14292939 heartbeat IPC: 4.056 cumulative IPC: 3.358 (Simulation time: 00 hr 05 min 18 sec)
Heartbeat CPU 0 instructions: 48500322 cycles: 14416602 heartbeat IPC: 4.043 cumulative IPC: 3.364 (Simulation time: 00 hr 05 min 21 sec)
Heartbeat CPU 0 instructions: 49000325 cycles: 14540197 heartbeat IPC: 4.045 cumulative IPC: 3.37 (Simulation time: 00 hr 05 min 24 sec)
Heartbeat CPU 0 instructions: 49500329 cycles: 14663806 heartbeat IPC: 4.045 cumulative IPC: 3.376 (Simulation time: 00 hr 05 min 27 sec)
Warmup halting CPU 0 at instruction 50000005 cycle 14787194 for remainder of phase
Warmup finished CPU 0 instructions: 50000005 cycles: 14787194 cumulative IPC: 3.381 (Simulation time: 00 hr 05 min 30 sec)
Warmup complete CPU 0 instructions: 50000005 cycles: 14787194 cumulative IPC: 3.381 (Simulation time: 00 hr 05 min 30 sec)
Heartbeat CPU 0 instructions: 50000336 cycles: 14787293 heartbeat IPC: 4.049 cumulative IPC: 3.343 (Simulation time: 00 hr 05 min 30 sec)
Heartbeat CPU 0 instructions: 50500343 cycles: 14957511 heartbeat IPC: 2.937 cumulative IPC: 2.938 (Simulation time: 00 hr 05 min 33 sec)
Heartbeat CPU 0 instructions: 51000345 cycles: 15126305 heartbeat IPC: 2.962 cumulative IPC: 2.95 (Simulation time: 00 hr 05 min 36 sec)
Heartbeat CPU 0 instructions: 51500345 cycles: 15294793 heartbeat IPC: 2.968 cumulative IPC: 2.956 (Simulation time: 00 hr 05 min 39 sec)
Heartbeat CPU 0 instructions: 52000352 cycles: 15464371 heartbeat IPC: 2.949 cumulative IPC: 2.954 (Simulation time: 00 hr 05 min 42 sec)
Heartbeat CPU 0 instructions: 52500352 cycles: 15640033 heartbeat IPC: 2.846 cumulative IPC: 2.932 (Simulation time: 00 hr 05 min 45 sec)
Heartbeat CPU 0 instructions: 53000359 cycles: 15809364 heartbeat IPC: 2.953 cumulative IPC: 2.935 (Simulation time: 00 hr 05 min 48 sec)
Heartbeat CPU 0 instructions: 53500362 cycles: 15977947 heartbeat IPC: 2.966 cumulative IPC: 2.94 (Simulation time: 00 hr 05 min 51 sec)
Heartbeat CPU 0 instructions: 54000364 cycles: 16147821 heartbeat IPC: 2.943 cumulative IPC: 2.94 (Simulation time: 00 hr 05 min 54 sec)
Heartbeat CPU 0 instructions: 54500364 cycles: 16323364 heartbeat IPC: 2.848 cumulative IPC: 2.93 (Simulation time: 00 hr 05 min 57 sec)
Heartbeat CPU 0 instructions: 55000369 cycles: 16493769 heartbeat IPC: 2.934 cumulative IPC: 2.93 (Simulation time: 00 hr 06 min 00 sec)
Heartbeat CPU 0 instructions: 55500374 cycles: 16663236 heartbeat IPC: 2.95 cumulative IPC: 2.932 (Simulation time: 00 hr 06 min 03 sec)
Heartbeat CPU 0 instructions: 56000375 cycles: 16837161 heartbeat IPC: 2.875 cumulative IPC: 2.927 (Simulation time: 00 hr 06 min 07 sec)
Heartbeat CPU 0 instructions: 56500380 cycles: 17007392 heartbeat IPC: 2.937 cumulative IPC: 2.928 (Simulation time: 00 hr 06 min 10 sec)
Heartbeat CPU 0 instructions: 57000381 cycles: 17177009 heartbeat IPC: 2.948 cumulative IPC: 2.929 (Simulation time: 00 hr 06 min 13 sec)
Heartbeat CPU 0 instructions: 57500383 cycles: 17347348 heartbeat IPC: 2.935 cumulative IPC: 2.93 (Simulation time: 00 hr 06 min 16 sec)
Heartbeat CPU 0 instructions: 58000383 cycles: 17517709 heartbeat IPC: 2.935 cumulative IPC: 2.93 (Simulation time: 00 hr 06 min 19 sec)
Heartbeat CPU 0 instructions: 58500386 cycles: 17687330 heartbeat IPC: 2.948 cumulative IPC: 2.931 (Simulation time: 00 hr 06 min 22 sec)
Heartbeat CPU 0 instructions: 59000387 cycles: 17857815 heartbeat IPC: 2.933 cumulative IPC: 2.931 (Simulation time: 00 hr 06 min 25 sec)
Heartbeat CPU 0 instructions: 59500389 cycles: 18029693 heartbeat IPC: 2.909 cumulative IPC: 2.93 (Simulation time: 00 hr 06 min 28 sec)
Heartbeat CPU 0 instructions: 60000392 cycles: 18202839 heartbeat IPC: 2.888 cumulative IPC: 2.928 (Simulation time: 00 hr 06 min 31 sec)
Heartbeat CPU 0 instructions: 60500397 cycles: 18372998 heartbeat IPC: 2.938 cumulative IPC: 2.928 (Simulation time: 00 hr 06 min 34 sec)
Heartbeat CPU 0 instructions: 61000400 cycles: 18543467 heartbeat IPC: 2.933 cumulative IPC: 2.929 (Simulation time: 00 hr 06 min 37 sec)
Heartbeat CPU 0 instructions: 61500407 cycles: 18714088 heartbeat IPC: 2.931 cumulative IPC: 2.929 (Simulation time: 00 hr 06 min 40 sec)
Heartbeat CPU 0 instructions: 62000407 cycles: 18883592 heartbeat IPC: 2.95 cumulative IPC: 2.93 (Simulation time: 00 hr 06 min 43 sec)
Heartbeat CPU 0 instructions: 62500413 cycles: 19053353 heartbeat IPC: 2.945 cumulative IPC: 2.93 (Simulation time: 00 hr 06 min 46 sec)
Heartbeat CPU 0 instructions: 63000416 cycles: 19222520 heartbeat IPC: 2.956 cumulative IPC: 2.931 (Simulation time: 00 hr 06 min 49 sec)
Heartbeat CPU 0 instructions: 63500419 cycles: 19398103 heartbeat IPC: 2.848 cumulative IPC: 2.928 (Simulation time: 00 hr 06 min 52 sec)
Heartbeat CPU 0 instructions: 64000426 cycles: 19567880 heartbeat IPC: 2.945 cumulative IPC: 2.929 (Simulation time: 00 hr 06 min 55 sec)
Heartbeat CPU 0 instructions: 64500430 cycles: 19737855 heartbeat IPC: 2.942 cumulative IPC: 2.929 (Simulation time: 00 hr 06 min 58 sec)
Heartbeat CPU 0 instructions: 65000430 cycles: 19908542 heartbeat IPC: 2.929 cumulative IPC: 2.929 (Simulation time: 00 hr 07 min 02 sec)
Heartbeat CPU 0 instructions: 65500437 cycles: 20078269 heartbeat IPC: 2.946 cumulative IPC: 2.93 (Simulation time: 00 hr 07 min 05 sec)
Heartbeat CPU 0 instructions: 66000442 cycles: 20248817 heartbeat IPC: 2.932 cumulative IPC: 2.93 (Simulation time: 00 hr 07 min 08 sec)
Heartbeat CPU 0 instructions: 66500448 cycles: 20420115 heartbeat IPC: 2.919 cumulative IPC: 2.929 (Simulation time: 00 hr 07 min 11 sec)
Heartbeat CPU 0 instructions: 67000455 cycles: 20595727 heartbeat IPC: 2.847 cumulative IPC: 2.927 (Simulation time: 00 hr 07 min 14 sec)
Heartbeat CPU 0 instructions: 67500458 cycles: 20765265 heartbeat IPC: 2.949 cumulative IPC: 2.927 (Simulation time: 00 hr 07 min 17 sec)
Heartbeat CPU 0 instructions: 68000460 cycles: 20935569 heartbeat IPC: 2.936 cumulative IPC: 2.928 (Simulation time: 00 hr 07 min 20 sec)
Heartbeat CPU 0 instructions: 68500464 cycles: 21104350 heartbeat IPC: 2.962 cumulative IPC: 2.929 (Simulation time: 00 hr 07 min 23 sec)
Heartbeat CPU 0 instructions: 69000467 cycles: 21274404 heartbeat IPC: 2.94 cumulative IPC: 2.929 (Simulation time: 00 hr 07 min 26 sec)
Heartbeat CPU 0 instructions: 69500470 cycles: 21444346 heartbeat IPC: 2.942 cumulative IPC: 2.929 (Simulation time: 00 hr 07 min 29 sec)
Heartbeat CPU 0 instructions: 70000473 cycles: 21615050 heartbeat IPC: 2.929 cumulative IPC: 2.929 (Simulation time: 00 hr 07 min 32 sec)
Heartbeat CPU 0 instructions: 70500474 cycles: 21785410 heartbeat IPC: 2.935 cumulative IPC: 2.929 (Simulation time: 00 hr 07 min 35 sec)
Heartbeat CPU 0 instructions: 71000476 cycles: 21957312 heartbeat IPC: 2.909 cumulative IPC: 2.929 (Simulation time: 00 hr 07 min 38 sec)
Heartbeat CPU 0 instructions: 71500480 cycles: 22127101 heartbeat IPC: 2.945 cumulative IPC: 2.929 (Simulation time: 00 hr 07 min 41 sec)
Heartbeat CPU 0 instructions: 72000481 cycles: 22297319 heartbeat IPC: 2.937 cumulative IPC: 2.929 (Simulation time: 00 hr 07 min 44 sec)
Heartbeat CPU 0 instructions: 72500481 cycles: 22466861 heartbeat IPC: 2.949 cumulative IPC: 2.93 (Simulation time: 00 hr 07 min 47 sec)
Heartbeat CPU 0 instructions: 73000487 cycles: 22636070 heartbeat IPC: 2.955 cumulative IPC: 2.93 (Simulation time: 00 hr 07 min 50 sec)
Heartbeat CPU 0 instructions: 73500489 cycles: 22805826 heartbeat IPC: 2.945 cumulative IPC: 2.931 (Simulation time: 00 hr 07 min 53 sec)
Heartbeat CPU 0 instructions: 74000489 cycles: 22976126 heartbeat IPC: 2.936 cumulative IPC: 2.931 (Simulation time: 00 hr 07 min 56 sec)
Heartbeat CPU 0 instructions: 74500491 cycles: 23149415 heartbeat IPC: 2.885 cumulative IPC: 2.93 (Simulation time: 00 hr 07 min 59 sec)
Heartbeat CPU 0 instructions: 75000492 cycles: 23318208 heartbeat IPC: 2.962 cumulative IPC: 2.931 (Simulation time: 00 hr 08 min 03 sec)
Heartbeat CPU 0 instructions: 75500495 cycles: 23487151 heartbeat IPC: 2.96 cumulative IPC: 2.931 (Simulation time: 00 hr 08 min 06 sec)
Heartbeat CPU 0 instructions: 76000500 cycles: 23655897 heartbeat IPC: 2.963 cumulative IPC: 2.932 (Simulation time: 00 hr 08 min 09 sec)
Heartbeat CPU 0 instructions: 76500501 cycles: 23822685 heartbeat IPC: 2.998 cumulative IPC: 2.933 (Simulation time: 00 hr 08 min 12 sec)
Heartbeat CPU 0 instructions: 77000504 cycles: 23991158 heartbeat IPC: 2.968 cumulative IPC: 2.934 (Simulation time: 00 hr 08 min 15 sec)
Heartbeat CPU 0 instructions: 77500505 cycles: 24160343 heartbeat IPC: 2.955 cumulative IPC: 2.934 (Simulation time: 00 hr 08 min 18 sec)
Heartbeat CPU 0 instructions: 78000506 cycles: 24332309 heartbeat IPC: 2.908 cumulative IPC: 2.933 (Simulation time: 00 hr 08 min 21 sec)
Heartbeat CPU 0 instructions: 78500510 cycles: 24500004 heartbeat IPC: 2.982 cumulative IPC: 2.934 (Simulation time: 00 hr 08 min 24 sec)
Heartbeat CPU 0 instructions: 79000516 cycles: 24664851 heartbeat IPC: 3.033 cumulative IPC: 2.936 (Simulation time: 00 hr 08 min 27 sec)
Heartbeat CPU 0 instructions: 79500519 cycles: 24830750 heartbeat IPC: 3.014 cumulative IPC: 2.937 (Simulation time: 00 hr 08 min 30 sec)
Heartbeat CPU 0 instructions: 80000522 cycles: 24995929 heartbeat IPC: 3.027 cumulative IPC: 2.939 (Simulation time: 00 hr 08 min 33 sec)
Heartbeat CPU 0 instructions: 80500523 cycles: 25160510 heartbeat IPC: 3.038 cumulative IPC: 2.94 (Simulation time: 00 hr 08 min 36 sec)
Heartbeat CPU 0 instructions: 81000524 cycles: 25323574 heartbeat IPC: 3.066 cumulative IPC: 2.942 (Simulation time: 00 hr 08 min 39 sec)
Heartbeat CPU 0 instructions: 81500524 cycles: 25493646 heartbeat IPC: 2.94 cumulative IPC: 2.942 (Simulation time: 00 hr 08 min 42 sec)
Heartbeat CPU 0 instructions: 82000529 cycles: 25665788 heartbeat IPC: 2.905 cumulative IPC: 2.942 (Simulation time: 00 hr 08 min 45 sec)
Heartbeat CPU 0 instructions: 82500530 cycles: 25834701 heartbeat IPC: 2.96 cumulative IPC: 2.942 (Simulation time: 00 hr 08 min 48 sec)
Heartbeat CPU 0 instructions: 83000535 cycles: 26003077 heartbeat IPC: 2.97 cumulative IPC: 2.942 (Simulation time: 00 hr 08 min 51 sec)
Heartbeat CPU 0 instructions: 83500542 cycles: 26171244 heartbeat IPC: 2.973 cumulative IPC: 2.943 (Simulation time: 00 hr 08 min 54 sec)
Heartbeat CPU 0 instructions: 84000543 cycles: 26341327 heartbeat IPC: 2.94 cumulative IPC: 2.943 (Simulation time: 00 hr 08 min 57 sec)
Heartbeat CPU 0 instructions: 84500546 cycles: 26509704 heartbeat IPC: 2.97 cumulative IPC: 2.943 (Simulation time: 00 hr 09 min 00 sec)
Heartbeat CPU 0 instructions: 85000549 cycles: 26677512 heartbeat IPC: 2.98 cumulative IPC: 2.944 (Simulation time: 00 hr 09 min 03 sec)
Heartbeat CPU 0 instructions: 85500554 cycles: 26853233 heartbeat IPC: 2.845 cumulative IPC: 2.942 (Simulation time: 00 hr 09 min 06 sec)
Heartbeat CPU 0 instructions: 86000560 cycles: 27026618 heartbeat IPC: 2.884 cumulative IPC: 2.941 (Simulation time: 00 hr 09 min 09 sec)
Heartbeat CPU 0 instructions: 86500564 cycles: 27194644 heartbeat IPC: 2.976 cumulative IPC: 2.942 (Simulation time: 00 hr 09 min 12 sec)
Heartbeat CPU 0 instructions: 87000564 cycles: 27360902 heartbeat IPC: 3.007 cumulative IPC: 2.943 (Simulation time: 00 hr 09 min 15 sec)
Heartbeat CPU 0 instructions: 87500566 cycles: 27526809 heartbeat IPC: 3.014 cumulative IPC: 2.944 (Simulation time: 00 hr 09 min 18 sec)
Heartbeat CPU 0 instructions: 88000567 cycles: 27691481 heartbeat IPC: 3.036 cumulative IPC: 2.945 (Simulation time: 00 hr 09 min 21 sec)
Heartbeat CPU 0 instructions: 88500568 cycles: 27857516 heartbeat IPC: 3.011 cumulative IPC: 2.946 (Simulation time: 00 hr 09 min 24 sec)
Heartbeat CPU 0 instructions: 89000572 cycles: 28024247 heartbeat IPC: 2.999 cumulative IPC: 2.946 (Simulation time: 00 hr 09 min 27 sec)
Heartbeat CPU 0 instructions: 89500577 cycles: 28186939 heartbeat IPC: 3.073 cumulative IPC: 2.948 (Simulation time: 00 hr 09 min 30 sec)
Heartbeat CPU 0 instructions: 90000578 cycles: 28347740 heartbeat IPC: 3.109 cumulative IPC: 2.95 (Simulation time: 00 hr 09 min 33 sec)
Heartbeat CPU 0 instructions: 90500581 cycles: 28507911 heartbeat IPC: 3.122 cumulative IPC: 2.952 (Simulation time: 00 hr 09 min 36 sec)
Heartbeat CPU 0 instructions: 91000584 cycles: 28667888 heartbeat IPC: 3.125 cumulative IPC: 2.954 (Simulation time: 00 hr 09 min 39 sec)
Heartbeat CPU 0 instructions: 91500585 cycles: 28826704 heartbeat IPC: 3.148 cumulative IPC: 2.956 (Simulation time: 00 hr 09 min 42 sec)
Heartbeat CPU 0 instructions: 92000588 cycles: 28985730 heartbeat IPC: 3.144 cumulative IPC: 2.958 (Simulation time: 00 hr 09 min 44 sec)
Heartbeat CPU 0 instructions: 92500591 cycles: 29149474 heartbeat IPC: 3.054 cumulative IPC: 2.959 (Simulation time: 00 hr 09 min 47 sec)
Heartbeat CPU 0 instructions: 93000593 cycles: 29324930 heartbeat IPC: 2.85 cumulative IPC: 2.958 (Simulation time: 00 hr 09 min 51 sec)
Heartbeat CPU 0 instructions: 93500596 cycles: 29497145 heartbeat IPC: 2.903 cumulative IPC: 2.957 (Simulation time: 00 hr 09 min 54 sec)
Heartbeat CPU 0 instructions: 94000598 cycles: 29666862 heartbeat IPC: 2.946 cumulative IPC: 2.957 (Simulation time: 00 hr 09 min 57 sec)
Heartbeat CPU 0 instructions: 94500600 cycles: 29835920 heartbeat IPC: 2.958 cumulative IPC: 2.957 (Simulation time: 00 hr 10 min 00 sec)
Heartbeat CPU 0 instructions: 95000604 cycles: 30004797 heartbeat IPC: 2.961 cumulative IPC: 2.957 (Simulation time: 00 hr 10 min 03 sec)
Heartbeat CPU 0 instructions: 95500609 cycles: 30174979 heartbeat IPC: 2.938 cumulative IPC: 2.957 (Simulation time: 00 hr 10 min 06 sec)
Heartbeat CPU 0 instructions: 96000610 cycles: 30344886 heartbeat IPC: 2.943 cumulative IPC: 2.957 (Simulation time: 00 hr 10 min 09 sec)
Heartbeat CPU 0 instructions: 96500616 cycles: 30519575 heartbeat IPC: 2.862 cumulative IPC: 2.956 (Simulation time: 00 hr 10 min 12 sec)
Heartbeat CPU 0 instructions: 97000617 cycles: 30689370 heartbeat IPC: 2.945 cumulative IPC: 2.956 (Simulation time: 00 hr 10 min 15 sec)
Heartbeat CPU 0 instructions: 97500617 cycles: 30858987 heartbeat IPC: 2.948 cumulative IPC: 2.956 (Simulation time: 00 hr 10 min 18 sec)
Heartbeat CPU 0 instructions: 98000623 cycles: 31028498 heartbeat IPC: 2.95 cumulative IPC: 2.955 (Simulation time: 00 hr 10 min 21 sec)
Heartbeat CPU 0 instructions: 98500626 cycles: 31198358 heartbeat IPC: 2.944 cumulative IPC: 2.955 (Simulation time: 00 hr 10 min 24 sec)
Heartbeat CPU 0 instructions: 99000628 cycles: 31368487 heartbeat IPC: 2.939 cumulative IPC: 2.955 (Simulation time: 00 hr 10 min 27 sec)
Heartbeat CPU 0 instructions: 99500634 cycles: 31537454 heartbeat IPC: 2.959 cumulative IPC: 2.955 (Simulation time: 00 hr 10 min 30 sec)
Heartbeat CPU 0 instructions: 100000640 cycles: 31712248 heartbeat IPC: 2.861 cumulative IPC: 2.954 (Simulation time: 00 hr 10 min 34 sec)
Heartbeat CPU 0 instructions: 100500643 cycles: 31881778 heartbeat IPC: 2.949 cumulative IPC: 2.954 (Simulation time: 00 hr 10 min 37 sec)
Heartbeat CPU 0 instructions: 101000647 cycles: 32051727 heartbeat IPC: 2.942 cumulative IPC: 2.954 (Simulation time: 00 hr 10 min 40 sec)
Heartbeat CPU 0 instructions: 101500649 cycles: 32220729 heartbeat IPC: 2.959 cumulative IPC: 2.954 (Simulation time: 00 hr 10 min 43 sec)
Heartbeat CPU 0 instructions: 102000650 cycles: 32389017 heartbeat IPC: 2.971 cumulative IPC: 2.954 (Simulation time: 00 hr 10 min 46 sec)
Heartbeat CPU 0 instructions: 102500654 cycles: 32558528 heartbeat IPC: 2.95 cumulative IPC: 2.954 (Simulation time: 00 hr 10 min 49 sec)
Heartbeat CPU 0 instructions: 103000657 cycles: 32728294 heartbeat IPC: 2.945 cumulative IPC: 2.954 (Simulation time: 00 hr 10 min 52 sec)
Heartbeat CPU 0 instructions: 103500657 cycles: 32899606 heartbeat IPC: 2.919 cumulative IPC: 2.954 (Simulation time: 00 hr 10 min 55 sec)
Heartbeat CPU 0 instructions: 104000658 cycles: 33071649 heartbeat IPC: 2.906 cumulative IPC: 2.953 (Simulation time: 00 hr 10 min 58 sec)
Heartbeat CPU 0 instructions: 104500661 cycles: 33241449 heartbeat IPC: 2.945 cumulative IPC: 2.953 (Simulation time: 00 hr 11 min 01 sec)
Heartbeat CPU 0 instructions: 105000662 cycles: 33411261 heartbeat IPC: 2.944 cumulative IPC: 2.953 (Simulation time: 00 hr 11 min 04 sec)
Heartbeat CPU 0 instructions: 105500665 cycles: 33579661 heartbeat IPC: 2.969 cumulative IPC: 2.953 (Simulation time: 00 hr 11 min 07 sec)
Heartbeat CPU 0 instructions: 106000668 cycles: 33748060 heartbeat IPC: 2.969 cumulative IPC: 2.953 (Simulation time: 00 hr 11 min 10 sec)
Heartbeat CPU 0 instructions: 106500671 cycles: 33917047 heartbeat IPC: 2.959 cumulative IPC: 2.954 (Simulation time: 00 hr 11 min 13 sec)
Heartbeat CPU 0 instructions: 107000674 cycles: 34086255 heartbeat IPC: 2.955 cumulative IPC: 2.954 (Simulation time: 00 hr 11 min 16 sec)
Heartbeat CPU 0 instructions: 107500675 cycles: 34258720 heartbeat IPC: 2.899 cumulative IPC: 2.953 (Simulation time: 00 hr 11 min 19 sec)
Heartbeat CPU 0 instructions: 108000676 cycles: 34427610 heartbeat IPC: 2.961 cumulative IPC: 2.953 (Simulation time: 00 hr 11 min 22 sec)
Heartbeat CPU 0 instructions: 108500681 cycles: 34597224 heartbeat IPC: 2.948 cumulative IPC: 2.953 (Simulation time: 00 hr 11 min 25 sec)
Heartbeat CPU 0 instructions: 109000684 cycles: 34763466 heartbeat IPC: 3.008 cumulative IPC: 2.954 (Simulation time: 00 hr 11 min 28 sec)
Heartbeat CPU 0 instructions: 109500691 cycles: 34930992 heartbeat IPC: 2.985 cumulative IPC: 2.954 (Simulation time: 00 hr 11 min 31 sec)
Heartbeat CPU 0 instructions: 110000692 cycles: 35097259 heartbeat IPC: 3.007 cumulative IPC: 2.954 (Simulation time: 00 hr 11 min 34 sec)
Heartbeat CPU 0 instructions: 110500693 cycles: 35263997 heartbeat IPC: 2.999 cumulative IPC: 2.955 (Simulation time: 00 hr 11 min 37 sec)
Heartbeat CPU 0 instructions: 111000697 cycles: 35434393 heartbeat IPC: 2.934 cumulative IPC: 2.954 (Simulation time: 00 hr 11 min 40 sec)
Heartbeat CPU 0 instructions: 111500700 cycles: 35601068 heartbeat IPC: 3 cumulative IPC: 2.955 (Simulation time: 00 hr 11 min 43 sec)
Heartbeat CPU 0 instructions: 112000705 cycles: 35765085 heartbeat IPC: 3.048 cumulative IPC: 2.956 (Simulation time: 00 hr 11 min 46 sec)
Heartbeat CPU 0 instructions: 112500706 cycles: 35931522 heartbeat IPC: 3.004 cumulative IPC: 2.956 (Simulation time: 00 hr 11 min 49 sec)
Heartbeat CPU 0 instructions: 113000709 cycles: 36100622 heartbeat IPC: 2.957 cumulative IPC: 2.956 (Simulation time: 00 hr 11 min 52 sec)
Heartbeat CPU 0 instructions: 113500710 cycles: 36268876 heartbeat IPC: 2.972 cumulative IPC: 2.956 (Simulation time: 00 hr 11 min 55 sec)
Heartbeat CPU 0 instructions: 114000713 cycles: 36438471 heartbeat IPC: 2.948 cumulative IPC: 2.956 (Simulation time: 00 hr 11 min 59 sec)
Heartbeat CPU 0 instructions: 114500715 cycles: 36610277 heartbeat IPC: 2.91 cumulative IPC: 2.956 (Simulation time: 00 hr 12 min 02 sec)
Heartbeat CPU 0 instructions: 115000719 cycles: 36780381 heartbeat IPC: 2.939 cumulative IPC: 2.955 (Simulation time: 00 hr 12 min 05 sec)
Heartbeat CPU 0 instructions: 115500722 cycles: 36949871 heartbeat IPC: 2.95 cumulative IPC: 2.955 (Simulation time: 00 hr 12 min 08 sec)
Heartbeat CPU 0 instructions: 116000723 cycles: 37118470 heartbeat IPC: 2.966 cumulative IPC: 2.956 (Simulation time: 00 hr 12 min 11 sec)
Heartbeat CPU 0 instructions: 116500725 cycles: 37286744 heartbeat IPC: 2.971 cumulative IPC: 2.956 (Simulation time: 00 hr 12 min 14 sec)
Heartbeat CPU 0 instructions: 117000729 cycles: 37462881 heartbeat IPC: 2.839 cumulative IPC: 2.955 (Simulation time: 00 hr 12 min 17 sec)
Heartbeat CPU 0 instructions: 117500734 cycles: 37631207 heartbeat IPC: 2.97 cumulative IPC: 2.955 (Simulation time: 00 hr 12 min 20 sec)
Heartbeat CPU 0 instructions: 118000734 cycles: 37797426 heartbeat IPC: 3.008 cumulative IPC: 2.955 (Simulation time: 00 hr 12 min 23 sec)
Heartbeat CPU 0 instructions: 118500739 cycles: 37967945 heartbeat IPC: 2.932 cumulative IPC: 2.955 (Simulation time: 00 hr 12 min 26 sec)
Heartbeat CPU 0 instructions: 119000742 cycles: 38135182 heartbeat IPC: 2.99 cumulative IPC: 2.955 (Simulation time: 00 hr 12 min 29 sec)
Heartbeat CPU 0 instructions: 119500747 cycles: 38298376 heartbeat IPC: 3.064 cumulative IPC: 2.956 (Simulation time: 00 hr 12 min 32 sec)
Heartbeat CPU 0 instructions: 120000748 cycles: 38461772 heartbeat IPC: 3.06 cumulative IPC: 2.957 (Simulation time: 00 hr 12 min 35 sec)
Heartbeat CPU 0 instructions: 120500753 cycles: 38625711 heartbeat IPC: 3.05 cumulative IPC: 2.957 (Simulation time: 00 hr 12 min 38 sec)
Heartbeat CPU 0 instructions: 121000753 cycles: 38788724 heartbeat IPC: 3.067 cumulative IPC: 2.958 (Simulation time: 00 hr 12 min 41 sec)
Heartbeat CPU 0 instructions: 121500755 cycles: 38949764 heartbeat IPC: 3.105 cumulative IPC: 2.959 (Simulation time: 00 hr 12 min 44 sec)
Heartbeat CPU 0 instructions: 122000758 cycles: 39113652 heartbeat IPC: 3.051 cumulative IPC: 2.96 (Simulation time: 00 hr 12 min 47 sec)
Heartbeat CPU 0 instructions: 122500760 cycles: 39273296 heartbeat IPC: 3.132 cumulative IPC: 2.961 (Simulation time: 00 hr 12 min 50 sec)
Heartbeat CPU 0 instructions: 123000764 cycles: 39433788 heartbeat IPC: 3.115 cumulative IPC: 2.962 (Simulation time: 00 hr 12 min 52 sec)
Heartbeat CPU 0 instructions: 123500766 cycles: 39593850 heartbeat IPC: 3.124 cumulative IPC: 2.963 (Simulation time: 00 hr 12 min 55 sec)
Heartbeat CPU 0 instructions: 124000767 cycles: 39760524 heartbeat IPC: 3 cumulative IPC: 2.963 (Simulation time: 00 hr 12 min 58 sec)
Heartbeat CPU 0 instructions: 124500771 cycles: 39930438 heartbeat IPC: 2.943 cumulative IPC: 2.963 (Simulation time: 00 hr 13 min 01 sec)
Heartbeat CPU 0 instructions: 125000778 cycles: 40100662 heartbeat IPC: 2.937 cumulative IPC: 2.963 (Simulation time: 00 hr 13 min 04 sec)
Heartbeat CPU 0 instructions: 125500779 cycles: 40273947 heartbeat IPC: 2.885 cumulative IPC: 2.962 (Simulation time: 00 hr 13 min 08 sec)
Heartbeat CPU 0 instructions: 126000782 cycles: 40445493 heartbeat IPC: 2.915 cumulative IPC: 2.962 (Simulation time: 00 hr 13 min 11 sec)
Heartbeat CPU 0 instructions: 126500788 cycles: 40614053 heartbeat IPC: 2.966 cumulative IPC: 2.962 (Simulation time: 00 hr 13 min 14 sec)
Heartbeat CPU 0 instructions: 127000789 cycles: 40784150 heartbeat IPC: 2.94 cumulative IPC: 2.962 (Simulation time: 00 hr 13 min 17 sec)
Heartbeat CPU 0 instructions: 127500790 cycles: 40955646 heartbeat IPC: 2.916 cumulative IPC: 2.962 (Simulation time: 00 hr 13 min 20 sec)
Heartbeat CPU 0 instructions: 128000795 cycles: 41126113 heartbeat IPC: 2.933 cumulative IPC: 2.961 (Simulation time: 00 hr 13 min 23 sec)
Heartbeat CPU 0 instructions: 128500796 cycles: 41296484 heartbeat IPC: 2.935 cumulative IPC: 2.961 (Simulation time: 00 hr 13 min 26 sec)
Heartbeat CPU 0 instructions: 129000796 cycles: 41466511 heartbeat IPC: 2.941 cumulative IPC: 2.961 (Simulation time: 00 hr 13 min 29 sec)
Heartbeat CPU 0 instructions: 129500798 cycles: 41640632 heartbeat IPC: 2.872 cumulative IPC: 2.961 (Simulation time: 00 hr 13 min 32 sec)
Heartbeat CPU 0 instructions: 130000802 cycles: 41810807 heartbeat IPC: 2.938 cumulative IPC: 2.96 (Simulation time: 00 hr 13 min 35 sec)
Heartbeat CPU 0 instructions: 130500808 cycles: 41980852 heartbeat IPC: 2.94 cumulative IPC: 2.96 (Simulation time: 00 hr 13 min 38 sec)
Heartbeat CPU 0 instructions: 131000809 cycles: 42150600 heartbeat IPC: 2.946 cumulative IPC: 2.96 (Simulation time: 00 hr 13 min 41 sec)
Heartbeat CPU 0 instructions: 131500811 cycles: 42319943 heartbeat IPC: 2.953 cumulative IPC: 2.96 (Simulation time: 00 hr 13 min 44 sec)
Heartbeat CPU 0 instructions: 132000815 cycles: 42489717 heartbeat IPC: 2.945 cumulative IPC: 2.96 (Simulation time: 00 hr 13 min 47 sec)
Heartbeat CPU 0 instructions: 132500816 cycles: 42659101 heartbeat IPC: 2.952 cumulative IPC: 2.96 (Simulation time: 00 hr 13 min 50 sec)
Heartbeat CPU 0 instructions: 133000822 cycles: 42834690 heartbeat IPC: 2.848 cumulative IPC: 2.959 (Simulation time: 00 hr 13 min 53 sec)
Heartbeat CPU 0 instructions: 133500825 cycles: 43004798 heartbeat IPC: 2.939 cumulative IPC: 2.959 (Simulation time: 00 hr 13 min 56 sec)
Heartbeat CPU 0 instructions: 134000830 cycles: 43173788 heartbeat IPC: 2.959 cumulative IPC: 2.959 (Simulation time: 00 hr 13 min 59 sec)
Heartbeat CPU 0 instructions: 134500831 cycles: 43342747 heartbeat IPC: 2.959 cumulative IPC: 2.959 (Simulation time: 00 hr 14 min 02 sec)
Heartbeat CPU 0 instructions: 135000832 cycles: 43513413 heartbeat IPC: 2.93 cumulative IPC: 2.959 (Simulation time: 00 hr 14 min 06 sec)
Heartbeat CPU 0 instructions: 135500835 cycles: 43683330 heartbeat IPC: 2.943 cumulative IPC: 2.959 (Simulation time: 00 hr 14 min 09 sec)
Heartbeat CPU 0 instructions: 136000838 cycles: 43853271 heartbeat IPC: 2.942 cumulative IPC: 2.959 (Simulation time: 00 hr 14 min 12 sec)
Heartbeat CPU 0 instructions: 136500841 cycles: 44024459 heartbeat IPC: 2.921 cumulative IPC: 2.959 (Simulation time: 00 hr 14 min 15 sec)
Heartbeat CPU 0 instructions: 137000844 cycles: 44196092 heartbeat IPC: 2.913 cumulative IPC: 2.958 (Simulation time: 00 hr 14 min 18 sec)
Heartbeat CPU 0 instructions: 137500844 cycles: 44365380 heartbeat IPC: 2.954 cumulative IPC: 2.958 (Simulation time: 00 hr 14 min 21 sec)
Heartbeat CPU 0 instructions: 138000844 cycles: 44533138 heartbeat IPC: 2.98 cumulative IPC: 2.958 (Simulation time: 00 hr 14 min 24 sec)
Heartbeat CPU 0 instructions: 138500851 cycles: 44701273 heartbeat IPC: 2.974 cumulative IPC: 2.959 (Simulation time: 00 hr 14 min 27 sec)
Heartbeat CPU 0 instructions: 139000854 cycles: 44869763 heartbeat IPC: 2.968 cumulative IPC: 2.959 (Simulation time: 00 hr 14 min 30 sec)
Heartbeat CPU 0 instructions: 139500855 cycles: 45039529 heartbeat IPC: 2.945 cumulative IPC: 2.958 (Simulation time: 00 hr 14 min 33 sec)
Heartbeat CPU 0 instructions: 140000860 cycles: 45206980 heartbeat IPC: 2.986 cumulative IPC: 2.959 (Simulation time: 00 hr 14 min 36 sec)
Heartbeat CPU 0 instructions: 140500864 cycles: 45379566 heartbeat IPC: 2.897 cumulative IPC: 2.958 (Simulation time: 00 hr 14 min 39 sec)
Heartbeat CPU 0 instructions: 141000867 cycles: 45546051 heartbeat IPC: 3.003 cumulative IPC: 2.959 (Simulation time: 00 hr 14 min 42 sec)
Heartbeat CPU 0 instructions: 141500870 cycles: 45713177 heartbeat IPC: 2.992 cumulative IPC: 2.959 (Simulation time: 00 hr 14 min 45 sec)
Heartbeat CPU 0 instructions: 142000873 cycles: 45880441 heartbeat IPC: 2.989 cumulative IPC: 2.959 (Simulation time: 00 hr 14 min 48 sec)
Heartbeat CPU 0 instructions: 142500876 cycles: 46046140 heartbeat IPC: 3.018 cumulative IPC: 2.959 (Simulation time: 00 hr 14 min 51 sec)
Heartbeat CPU 0 instructions: 143000879 cycles: 46210783 heartbeat IPC: 3.037 cumulative IPC: 2.96 (Simulation time: 00 hr 14 min 54 sec)
Heartbeat CPU 0 instructions: 143500880 cycles: 46374488 heartbeat IPC: 3.054 cumulative IPC: 2.96 (Simulation time: 00 hr 14 min 57 sec)
Heartbeat CPU 0 instructions: 144000882 cycles: 46547557 heartbeat IPC: 2.889 cumulative IPC: 2.96 (Simulation time: 00 hr 15 min 00 sec)
Heartbeat CPU 0 instructions: 144500885 cycles: 46717605 heartbeat IPC: 2.94 cumulative IPC: 2.96 (Simulation time: 00 hr 15 min 03 sec)
Heartbeat CPU 0 instructions: 145000889 cycles: 46887722 heartbeat IPC: 2.939 cumulative IPC: 2.959 (Simulation time: 00 hr 15 min 06 sec)
Heartbeat CPU 0 instructions: 145500892 cycles: 47057870 heartbeat IPC: 2.939 cumulative IPC: 2.959 (Simulation time: 00 hr 15 min 09 sec)
Heartbeat CPU 0 instructions: 146000892 cycles: 47227025 heartbeat IPC: 2.956 cumulative IPC: 2.959 (Simulation time: 00 hr 15 min 12 sec)
Heartbeat CPU 0 instructions: 146500896 cycles: 47396744 heartbeat IPC: 2.946 cumulative IPC: 2.959 (Simulation time: 00 hr 15 min 15 sec)
Heartbeat CPU 0 instructions: 147000901 cycles: 47566020 heartbeat IPC: 2.954 cumulative IPC: 2.959 (Simulation time: 00 hr 15 min 18 sec)
Heartbeat CPU 0 instructions: 147500904 cycles: 47738212 heartbeat IPC: 2.904 cumulative IPC: 2.959 (Simulation time: 00 hr 15 min 21 sec)
Heartbeat CPU 0 instructions: 148000907 cycles: 47915312 heartbeat IPC: 2.823 cumulative IPC: 2.958 (Simulation time: 00 hr 15 min 25 sec)
Heartbeat CPU 0 instructions: 148500907 cycles: 48084133 heartbeat IPC: 2.962 cumulative IPC: 2.958 (Simulation time: 00 hr 15 min 28 sec)
Heartbeat CPU 0 instructions: 149000912 cycles: 48250354 heartbeat IPC: 3.008 cumulative IPC: 2.959 (Simulation time: 00 hr 15 min 31 sec)
Heartbeat CPU 0 instructions: 149500917 cycles: 48417041 heartbeat IPC: 3 cumulative IPC: 2.959 (Simulation time: 00 hr 15 min 34 sec)
Heartbeat CPU 0 instructions: 150000920 cycles: 48583139 heartbeat IPC: 3.01 cumulative IPC: 2.959 (Simulation time: 00 hr 15 min 37 sec)
Heartbeat CPU 0 instructions: 150500923 cycles: 48747972 heartbeat IPC: 3.033 cumulative IPC: 2.959 (Simulation time: 00 hr 15 min 40 sec)
Heartbeat CPU 0 instructions: 151000927 cycles: 48911634 heartbeat IPC: 3.055 cumulative IPC: 2.96 (Simulation time: 00 hr 15 min 43 sec)
Heartbeat CPU 0 instructions: 151500927 cycles: 49078818 heartbeat IPC: 2.991 cumulative IPC: 2.96 (Simulation time: 00 hr 15 min 46 sec)
Heartbeat CPU 0 instructions: 152000927 cycles: 49242403 heartbeat IPC: 3.057 cumulative IPC: 2.96 (Simulation time: 00 hr 15 min 49 sec)
Heartbeat CPU 0 instructions: 152500931 cycles: 49406789 heartbeat IPC: 3.042 cumulative IPC: 2.961 (Simulation time: 00 hr 15 min 52 sec)
Heartbeat CPU 0 instructions: 153000936 cycles: 49566462 heartbeat IPC: 3.131 cumulative IPC: 2.962 (Simulation time: 00 hr 15 min 55 sec)
Heartbeat CPU 0 instructions: 153500939 cycles: 49726834 heartbeat IPC: 3.118 cumulative IPC: 2.962 (Simulation time: 00 hr 15 min 58 sec)
Heartbeat CPU 0 instructions: 154000944 cycles: 49887371 heartbeat IPC: 3.115 cumulative IPC: 2.963 (Simulation time: 00 hr 16 min 00 sec)
Heartbeat CPU 0 instructions: 154500945 cycles: 50047573 heartbeat IPC: 3.121 cumulative IPC: 2.964 (Simulation time: 00 hr 16 min 03 sec)
Heartbeat CPU 0 instructions: 155000947 cycles: 50215658 heartbeat IPC: 2.975 cumulative IPC: 2.964 (Simulation time: 00 hr 16 min 06 sec)
Heartbeat CPU 0 instructions: 155500950 cycles: 50385879 heartbeat IPC: 2.937 cumulative IPC: 2.964 (Simulation time: 00 hr 16 min 10 sec)
Heartbeat CPU 0 instructions: 156000955 cycles: 50554487 heartbeat IPC: 2.965 cumulative IPC: 2.964 (Simulation time: 00 hr 16 min 13 sec)
Heartbeat CPU 0 instructions: 156500958 cycles: 50723343 heartbeat IPC: 2.961 cumulative IPC: 2.964 (Simulation time: 00 hr 16 min 16 sec)
Heartbeat CPU 0 instructions: 157000959 cycles: 50893524 heartbeat IPC: 2.938 cumulative IPC: 2.963 (Simulation time: 00 hr 16 min 19 sec)
Heartbeat CPU 0 instructions: 157500962 cycles: 51064162 heartbeat IPC: 2.93 cumulative IPC: 2.963 (Simulation time: 00 hr 16 min 22 sec)
Heartbeat CPU 0 instructions: 158000963 cycles: 51234488 heartbeat IPC: 2.936 cumulative IPC: 2.963 (Simulation time: 00 hr 16 min 25 sec)
Heartbeat CPU 0 instructions: 158500965 cycles: 51408099 heartbeat IPC: 2.88 cumulative IPC: 2.963 (Simulation time: 00 hr 16 min 28 sec)
Heartbeat CPU 0 instructions: 159000969 cycles: 51578375 heartbeat IPC: 2.936 cumulative IPC: 2.963 (Simulation time: 00 hr 16 min 31 sec)
Heartbeat CPU 0 instructions: 159500976 cycles: 51748825 heartbeat IPC: 2.933 cumulative IPC: 2.963 (Simulation time: 00 hr 16 min 34 sec)
Heartbeat CPU 0 instructions: 160000981 cycles: 51919096 heartbeat IPC: 2.937 cumulative IPC: 2.962 (Simulation time: 00 hr 16 min 37 sec)
Heartbeat CPU 0 instructions: 160500984 cycles: 52089546 heartbeat IPC: 2.933 cumulative IPC: 2.962 (Simulation time: 00 hr 16 min 40 sec)
Heartbeat CPU 0 instructions: 161000987 cycles: 52259388 heartbeat IPC: 2.944 cumulative IPC: 2.962 (Simulation time: 00 hr 16 min 44 sec)
Heartbeat CPU 0 instructions: 161500990 cycles: 52429504 heartbeat IPC: 2.939 cumulative IPC: 2.962 (Simulation time: 00 hr 16 min 47 sec)
Heartbeat CPU 0 instructions: 162000992 cycles: 52599591 heartbeat IPC: 2.94 cumulative IPC: 2.962 (Simulation time: 00 hr 16 min 50 sec)
Heartbeat CPU 0 instructions: 162500997 cycles: 52774262 heartbeat IPC: 2.863 cumulative IPC: 2.962 (Simulation time: 00 hr 16 min 53 sec)
Heartbeat CPU 0 instructions: 163001000 cycles: 52944776 heartbeat IPC: 2.932 cumulative IPC: 2.961 (Simulation time: 00 hr 16 min 56 sec)
Heartbeat CPU 0 instructions: 163501000 cycles: 53114586 heartbeat IPC: 2.944 cumulative IPC: 2.961 (Simulation time: 00 hr 16 min 59 sec)
Heartbeat CPU 0 instructions: 164001006 cycles: 53284313 heartbeat IPC: 2.946 cumulative IPC: 2.961 (Simulation time: 00 hr 17 min 02 sec)
Heartbeat CPU 0 instructions: 164501006 cycles: 53452708 heartbeat IPC: 2.969 cumulative IPC: 2.961 (Simulation time: 00 hr 17 min 05 sec)
Heartbeat CPU 0 instructions: 165001012 cycles: 53622644 heartbeat IPC: 2.942 cumulative IPC: 2.961 (Simulation time: 00 hr 17 min 08 sec)
Heartbeat CPU 0 instructions: 165501013 cycles: 53792304 heartbeat IPC: 2.947 cumulative IPC: 2.961 (Simulation time: 00 hr 17 min 11 sec)
Heartbeat CPU 0 instructions: 166001016 cycles: 53967255 heartbeat IPC: 2.858 cumulative IPC: 2.961 (Simulation time: 00 hr 17 min 15 sec)
Heartbeat CPU 0 instructions: 166501019 cycles: 54135965 heartbeat IPC: 2.964 cumulative IPC: 2.961 (Simulation time: 00 hr 17 min 18 sec)
Heartbeat CPU 0 instructions: 167001019 cycles: 54305614 heartbeat IPC: 2.947 cumulative IPC: 2.961 (Simulation time: 00 hr 17 min 21 sec)
Heartbeat CPU 0 instructions: 167501022 cycles: 54475091 heartbeat IPC: 2.95 cumulative IPC: 2.961 (Simulation time: 00 hr 17 min 24 sec)
Heartbeat CPU 0 instructions: 168001024 cycles: 54643378 heartbeat IPC: 2.971 cumulative IPC: 2.961 (Simulation time: 00 hr 17 min 27 sec)
Heartbeat CPU 0 instructions: 168501029 cycles: 54812229 heartbeat IPC: 2.961 cumulative IPC: 2.961 (Simulation time: 00 hr 17 min 30 sec)
Heartbeat CPU 0 instructions: 169001034 cycles: 54982283 heartbeat IPC: 2.94 cumulative IPC: 2.961 (Simulation time: 00 hr 17 min 33 sec)
Heartbeat CPU 0 instructions: 169501037 cycles: 55154421 heartbeat IPC: 2.905 cumulative IPC: 2.96 (Simulation time: 00 hr 17 min 36 sec)
Heartbeat CPU 0 instructions: 170001037 cycles: 55323515 heartbeat IPC: 2.957 cumulative IPC: 2.96 (Simulation time: 00 hr 17 min 39 sec)
Heartbeat CPU 0 instructions: 170501042 cycles: 55492691 heartbeat IPC: 2.956 cumulative IPC: 2.96 (Simulation time: 00 hr 17 min 42 sec)
Heartbeat CPU 0 instructions: 171001045 cycles: 55661053 heartbeat IPC: 2.97 cumulative IPC: 2.96 (Simulation time: 00 hr 17 min 45 sec)
Heartbeat CPU 0 instructions: 171501048 cycles: 55828455 heartbeat IPC: 2.987 cumulative IPC: 2.96 (Simulation time: 00 hr 17 min 48 sec)
Heartbeat CPU 0 instructions: 172001051 cycles: 55996099 heartbeat IPC: 2.983 cumulative IPC: 2.961 (Simulation time: 00 hr 17 min 52 sec)
Heartbeat CPU 0 instructions: 172501051 cycles: 56162174 heartbeat IPC: 3.011 cumulative IPC: 2.961 (Simulation time: 00 hr 17 min 55 sec)
Heartbeat CPU 0 instructions: 173001055 cycles: 56328620 heartbeat IPC: 3.004 cumulative IPC: 2.961 (Simulation time: 00 hr 17 min 58 sec)
Heartbeat CPU 0 instructions: 173501058 cycles: 56498997 heartbeat IPC: 2.935 cumulative IPC: 2.961 (Simulation time: 00 hr 18 min 01 sec)
Heartbeat CPU 0 instructions: 174001061 cycles: 56665237 heartbeat IPC: 3.008 cumulative IPC: 2.961 (Simulation time: 00 hr 18 min 04 sec)
Heartbeat CPU 0 instructions: 174501064 cycles: 56828930 heartbeat IPC: 3.055 cumulative IPC: 2.961 (Simulation time: 00 hr 18 min 07 sec)
Heartbeat CPU 0 instructions: 175001066 cycles: 56997996 heartbeat IPC: 2.957 cumulative IPC: 2.961 (Simulation time: 00 hr 18 min 10 sec)
Heartbeat CPU 0 instructions: 175501070 cycles: 57167853 heartbeat IPC: 2.944 cumulative IPC: 2.961 (Simulation time: 00 hr 18 min 13 sec)
Heartbeat CPU 0 instructions: 176001070 cycles: 57335857 heartbeat IPC: 2.976 cumulative IPC: 2.961 (Simulation time: 00 hr 18 min 16 sec)
Heartbeat CPU 0 instructions: 176501074 cycles: 57504979 heartbeat IPC: 2.956 cumulative IPC: 2.961 (Simulation time: 00 hr 18 min 19 sec)
Heartbeat CPU 0 instructions: 177001074 cycles: 57679828 heartbeat IPC: 2.86 cumulative IPC: 2.961 (Simulation time: 00 hr 18 min 22 sec)
Heartbeat CPU 0 instructions: 177501077 cycles: 57848274 heartbeat IPC: 2.968 cumulative IPC: 2.961 (Simulation time: 00 hr 18 min 25 sec)
Heartbeat CPU 0 instructions: 178001077 cycles: 58016483 heartbeat IPC: 2.972 cumulative IPC: 2.961 (Simulation time: 00 hr 18 min 28 sec)
Heartbeat CPU 0 instructions: 178501079 cycles: 58184917 heartbeat IPC: 2.969 cumulative IPC: 2.961 (Simulation time: 00 hr 18 min 31 sec)
Heartbeat CPU 0 instructions: 179001082 cycles: 58359258 heartbeat IPC: 2.868 cumulative IPC: 2.961 (Simulation time: 00 hr 18 min 34 sec)
Heartbeat CPU 0 instructions: 179501085 cycles: 58530427 heartbeat IPC: 2.921 cumulative IPC: 2.96 (Simulation time: 00 hr 18 min 38 sec)
Heartbeat CPU 0 instructions: 180001088 cycles: 58699172 heartbeat IPC: 2.963 cumulative IPC: 2.96 (Simulation time: 00 hr 18 min 41 sec)
Heartbeat CPU 0 instructions: 180501091 cycles: 58868893 heartbeat IPC: 2.946 cumulative IPC: 2.96 (Simulation time: 00 hr 18 min 44 sec)
Heartbeat CPU 0 instructions: 181001093 cycles: 59037102 heartbeat IPC: 2.973 cumulative IPC: 2.96 (Simulation time: 00 hr 18 min 47 sec)
Heartbeat CPU 0 instructions: 181501094 cycles: 59201270 heartbeat IPC: 3.046 cumulative IPC: 2.961 (Simulation time: 00 hr 18 min 50 sec)
Heartbeat CPU 0 instructions: 182001095 cycles: 59365291 heartbeat IPC: 3.048 cumulative IPC: 2.961 (Simulation time: 00 hr 18 min 53 sec)
Heartbeat CPU 0 instructions: 182501095 cycles: 59528846 heartbeat IPC: 3.057 cumulative IPC: 2.961 (Simulation time: 00 hr 18 min 56 sec)
Heartbeat CPU 0 instructions: 183001098 cycles: 59691826 heartbeat IPC: 3.068 cumulative IPC: 2.962 (Simulation time: 00 hr 18 min 59 sec)
Heartbeat CPU 0 instructions: 183501099 cycles: 59853562 heartbeat IPC: 3.091 cumulative IPC: 2.962 (Simulation time: 00 hr 19 min 01 sec)
Heartbeat CPU 0 instructions: 184001103 cycles: 60013026 heartbeat IPC: 3.136 cumulative IPC: 2.963 (Simulation time: 00 hr 19 min 04 sec)
Heartbeat CPU 0 instructions: 184501106 cycles: 60178110 heartbeat IPC: 3.029 cumulative IPC: 2.963 (Simulation time: 00 hr 19 min 07 sec)
Heartbeat CPU 0 instructions: 185001109 cycles: 60339003 heartbeat IPC: 3.108 cumulative IPC: 2.964 (Simulation time: 00 hr 19 min 10 sec)
Heartbeat CPU 0 instructions: 185501114 cycles: 60498972 heartbeat IPC: 3.126 cumulative IPC: 2.964 (Simulation time: 00 hr 19 min 13 sec)
Heartbeat CPU 0 instructions: 186001115 cycles: 60664498 heartbeat IPC: 3.021 cumulative IPC: 2.964 (Simulation time: 00 hr 19 min 16 sec)
Heartbeat CPU 0 instructions: 186501117 cycles: 60831201 heartbeat IPC: 2.999 cumulative IPC: 2.965 (Simulation time: 00 hr 19 min 19 sec)
Heartbeat CPU 0 instructions: 187001119 cycles: 61000981 heartbeat IPC: 2.945 cumulative IPC: 2.965 (Simulation time: 00 hr 19 min 22 sec)
Heartbeat CPU 0 instructions: 187501122 cycles: 61171235 heartbeat IPC: 2.937 cumulative IPC: 2.964 (Simulation time: 00 hr 19 min 25 sec)
Heartbeat CPU 0 instructions: 188001125 cycles: 61344746 heartbeat IPC: 2.882 cumulative IPC: 2.964 (Simulation time: 00 hr 19 min 28 sec)
Heartbeat CPU 0 instructions: 188501128 cycles: 61514618 heartbeat IPC: 2.943 cumulative IPC: 2.964 (Simulation time: 00 hr 19 min 31 sec)
Heartbeat CPU 0 instructions: 189001133 cycles: 61683458 heartbeat IPC: 2.961 cumulative IPC: 2.964 (Simulation time: 00 hr 19 min 34 sec)
Heartbeat CPU 0 instructions: 189501138 cycles: 61853590 heartbeat IPC: 2.939 cumulative IPC: 2.964 (Simulation time: 00 hr 19 min 37 sec)
Heartbeat CPU 0 instructions: 190001143 cycles: 62023168 heartbeat IPC: 2.949 cumulative IPC: 2.964 (Simulation time: 00 hr 19 min 41 sec)
Heartbeat CPU 0 instructions: 190501146 cycles: 62192266 heartbeat IPC: 2.957 cumulative IPC: 2.964 (Simulation time: 00 hr 19 min 44 sec)
Heartbeat CPU 0 instructions: 191001153 cycles: 62361955 heartbeat IPC: 2.947 cumulative IPC: 2.964 (Simulation time: 00 hr 19 min 47 sec)
Heartbeat CPU 0 instructions: 191501155 cycles: 62536208 heartbeat IPC: 2.869 cumulative IPC: 2.963 (Simulation time: 00 hr 19 min 50 sec)
Heartbeat CPU 0 instructions: 192001158 cycles: 62706725 heartbeat IPC: 2.932 cumulative IPC: 2.963 (Simulation time: 00 hr 19 min 53 sec)
Heartbeat CPU 0 instructions: 192501159 cycles: 62875605 heartbeat IPC: 2.961 cumulative IPC: 2.963 (Simulation time: 00 hr 19 min 56 sec)
Heartbeat CPU 0 instructions: 193001162 cycles: 63045474 heartbeat IPC: 2.943 cumulative IPC: 2.963 (Simulation time: 00 hr 19 min 59 sec)
Heartbeat CPU 0 instructions: 193501164 cycles: 63215773 heartbeat IPC: 2.936 cumulative IPC: 2.963 (Simulation time: 00 hr 20 min 02 sec)
Heartbeat CPU 0 instructions: 194001168 cycles: 63386007 heartbeat IPC: 2.937 cumulative IPC: 2.963 (Simulation time: 00 hr 20 min 05 sec)
Heartbeat CPU 0 instructions: 194501168 cycles: 63556337 heartbeat IPC: 2.935 cumulative IPC: 2.963 (Simulation time: 00 hr 20 min 08 sec)
Heartbeat CPU 0 instructions: 195001170 cycles: 63725857 heartbeat IPC: 2.95 cumulative IPC: 2.963 (Simulation time: 00 hr 20 min 11 sec)
Heartbeat CPU 0 instructions: 195501175 cycles: 63899456 heartbeat IPC: 2.88 cumulative IPC: 2.963 (Simulation time: 00 hr 20 min 14 sec)
Heartbeat CPU 0 instructions: 196001178 cycles: 64068820 heartbeat IPC: 2.952 cumulative IPC: 2.963 (Simulation time: 00 hr 20 min 17 sec)
Heartbeat CPU 0 instructions: 196501178 cycles: 64237294 heartbeat IPC: 2.968 cumulative IPC: 2.963 (Simulation time: 00 hr 20 min 20 sec)
Heartbeat CPU 0 instructions: 197001184 cycles: 64407582 heartbeat IPC: 2.936 cumulative IPC: 2.963 (Simulation time: 00 hr 20 min 23 sec)
Heartbeat CPU 0 instructions: 197501184 cycles: 64576799 heartbeat IPC: 2.955 cumulative IPC: 2.962 (Simulation time: 00 hr 20 min 26 sec)
Heartbeat CPU 0 instructions: 198001187 cycles: 64747293 heartbeat IPC: 2.933 cumulative IPC: 2.962 (Simulation time: 00 hr 20 min 29 sec)
Heartbeat CPU 0 instructions: 198501187 cycles: 64916870 heartbeat IPC: 2.949 cumulative IPC: 2.962 (Simulation time: 00 hr 20 min 33 sec)
Heartbeat CPU 0 instructions: 199001189 cycles: 65091622 heartbeat IPC: 2.861 cumulative IPC: 2.962 (Simulation time: 00 hr 20 min 36 sec)
Heartbeat CPU 0 instructions: 199501194 cycles: 65260031 heartbeat IPC: 2.969 cumulative IPC: 2.962 (Simulation time: 00 hr 20 min 39 sec)
Heartbeat CPU 0 instructions: 200001194 cycles: 65429645 heartbeat IPC: 2.948 cumulative IPC: 2.962 (Simulation time: 00 hr 20 min 42 sec)
Heartbeat CPU 0 instructions: 200501196 cycles: 65598379 heartbeat IPC: 2.963 cumulative IPC: 2.962 (Simulation time: 00 hr 20 min 45 sec)
Heartbeat CPU 0 instructions: 201001199 cycles: 65764584 heartbeat IPC: 3.008 cumulative IPC: 2.962 (Simulation time: 00 hr 20 min 48 sec)
Heartbeat CPU 0 instructions: 201501202 cycles: 65933888 heartbeat IPC: 2.953 cumulative IPC: 2.962 (Simulation time: 00 hr 20 min 51 sec)
Heartbeat CPU 0 instructions: 202001205 cycles: 66103531 heartbeat IPC: 2.947 cumulative IPC: 2.962 (Simulation time: 00 hr 20 min 54 sec)
Heartbeat CPU 0 instructions: 202501210 cycles: 66273817 heartbeat IPC: 2.936 cumulative IPC: 2.962 (Simulation time: 00 hr 20 min 57 sec)
Heartbeat CPU 0 instructions: 203001211 cycles: 66443730 heartbeat IPC: 2.943 cumulative IPC: 2.962 (Simulation time: 00 hr 21 min 00 sec)
Heartbeat CPU 0 instructions: 203501211 cycles: 66610066 heartbeat IPC: 3.006 cumulative IPC: 2.962 (Simulation time: 00 hr 21 min 03 sec)
Heartbeat CPU 0 instructions: 204001214 cycles: 66775768 heartbeat IPC: 3.017 cumulative IPC: 2.962 (Simulation time: 00 hr 21 min 06 sec)
Heartbeat CPU 0 instructions: 204501220 cycles: 66942116 heartbeat IPC: 3.006 cumulative IPC: 2.962 (Simulation time: 00 hr 21 min 09 sec)
Heartbeat CPU 0 instructions: 205001221 cycles: 67107092 heartbeat IPC: 3.031 cumulative IPC: 2.963 (Simulation time: 00 hr 21 min 12 sec)
Heartbeat CPU 0 instructions: 205501224 cycles: 67271455 heartbeat IPC: 3.042 cumulative IPC: 2.963 (Simulation time: 00 hr 21 min 15 sec)
Heartbeat CPU 0 instructions: 206001228 cycles: 67439820 heartbeat IPC: 2.97 cumulative IPC: 2.963 (Simulation time: 00 hr 21 min 18 sec)
Heartbeat CPU 0 instructions: 206501233 cycles: 67613129 heartbeat IPC: 2.885 cumulative IPC: 2.963 (Simulation time: 00 hr 21 min 21 sec)
Heartbeat CPU 0 instructions: 207001234 cycles: 67781615 heartbeat IPC: 2.968 cumulative IPC: 2.963 (Simulation time: 00 hr 21 min 24 sec)
Heartbeat CPU 0 instructions: 207501237 cycles: 67950852 heartbeat IPC: 2.954 cumulative IPC: 2.963 (Simulation time: 00 hr 21 min 27 sec)
Heartbeat CPU 0 instructions: 208001240 cycles: 68120616 heartbeat IPC: 2.945 cumulative IPC: 2.963 (Simulation time: 00 hr 21 min 30 sec)
Heartbeat CPU 0 instructions: 208501243 cycles: 68289212 heartbeat IPC: 2.966 cumulative IPC: 2.963 (Simulation time: 00 hr 21 min 33 sec)
Heartbeat CPU 0 instructions: 209001244 cycles: 68457627 heartbeat IPC: 2.969 cumulative IPC: 2.963 (Simulation time: 00 hr 21 min 36 sec)
Heartbeat CPU 0 instructions: 209501247 cycles: 68626782 heartbeat IPC: 2.956 cumulative IPC: 2.963 (Simulation time: 00 hr 21 min 39 sec)
Heartbeat CPU 0 instructions: 210001248 cycles: 68799494 heartbeat IPC: 2.895 cumulative IPC: 2.962 (Simulation time: 00 hr 21 min 42 sec)
Heartbeat CPU 0 instructions: 210501255 cycles: 68973585 heartbeat IPC: 2.872 cumulative IPC: 2.962 (Simulation time: 00 hr 21 min 45 sec)
Heartbeat CPU 0 instructions: 211001256 cycles: 69140587 heartbeat IPC: 2.994 cumulative IPC: 2.962 (Simulation time: 00 hr 21 min 48 sec)
Heartbeat CPU 0 instructions: 211501257 cycles: 69308449 heartbeat IPC: 2.979 cumulative IPC: 2.962 (Simulation time: 00 hr 21 min 51 sec)
Heartbeat CPU 0 instructions: 212001260 cycles: 69474618 heartbeat IPC: 3.009 cumulative IPC: 2.962 (Simulation time: 00 hr 21 min 54 sec)
Heartbeat CPU 0 instructions: 212501263 cycles: 69640061 heartbeat IPC: 3.022 cumulative IPC: 2.962 (Simulation time: 00 hr 21 min 57 sec)
Heartbeat CPU 0 instructions: 213001266 cycles: 69803328 heartbeat IPC: 3.062 cumulative IPC: 2.963 (Simulation time: 00 hr 22 min 00 sec)
Heartbeat CPU 0 instructions: 213501272 cycles: 69970569 heartbeat IPC: 2.99 cumulative IPC: 2.963 (Simulation time: 00 hr 22 min 03 sec)
Heartbeat CPU 0 instructions: 214001275 cycles: 70133767 heartbeat IPC: 3.064 cumulative IPC: 2.963 (Simulation time: 00 hr 22 min 06 sec)
Heartbeat CPU 0 instructions: 214501278 cycles: 70297260 heartbeat IPC: 3.058 cumulative IPC: 2.963 (Simulation time: 00 hr 22 min 09 sec)
Heartbeat CPU 0 instructions: 215001279 cycles: 70458001 heartbeat IPC: 3.111 cumulative IPC: 2.964 (Simulation time: 00 hr 22 min 12 sec)
Heartbeat CPU 0 instructions: 215501282 cycles: 70618788 heartbeat IPC: 3.11 cumulative IPC: 2.964 (Simulation time: 00 hr 22 min 15 sec)
Heartbeat CPU 0 instructions: 216001285 cycles: 70777851 heartbeat IPC: 3.143 cumulative IPC: 2.965 (Simulation time: 00 hr 22 min 18 sec)
Heartbeat CPU 0 instructions: 216501286 cycles: 70939157 heartbeat IPC: 3.1 cumulative IPC: 2.965 (Simulation time: 00 hr 22 min 21 sec)
Heartbeat CPU 0 instructions: 217001288 cycles: 71098601 heartbeat IPC: 3.136 cumulative IPC: 2.966 (Simulation time: 00 hr 22 min 24 sec)
Heartbeat CPU 0 instructions: 217501292 cycles: 71270181 heartbeat IPC: 2.914 cumulative IPC: 2.966 (Simulation time: 00 hr 22 min 27 sec)
Heartbeat CPU 0 instructions: 218001299 cycles: 71440461 heartbeat IPC: 2.936 cumulative IPC: 2.965 (Simulation time: 00 hr 22 min 30 sec)
Heartbeat CPU 0 instructions: 218501305 cycles: 71610426 heartbeat IPC: 2.942 cumulative IPC: 2.965 (Simulation time: 00 hr 22 min 33 sec)
Heartbeat CPU 0 instructions: 219001311 cycles: 71779863 heartbeat IPC: 2.951 cumulative IPC: 2.965 (Simulation time: 00 hr 22 min 36 sec)
Heartbeat CPU 0 instructions: 219501316 cycles: 71948478 heartbeat IPC: 2.965 cumulative IPC: 2.965 (Simulation time: 00 hr 22 min 39 sec)
Heartbeat CPU 0 instructions: 220001321 cycles: 72117156 heartbeat IPC: 2.964 cumulative IPC: 2.965 (Simulation time: 00 hr 22 min 42 sec)
Heartbeat CPU 0 instructions: 220501326 cycles: 72287219 heartbeat IPC: 2.94 cumulative IPC: 2.965 (Simulation time: 00 hr 22 min 45 sec)
Heartbeat CPU 0 instructions: 221001332 cycles: 72461626 heartbeat IPC: 2.867 cumulative IPC: 2.965 (Simulation time: 00 hr 22 min 48 sec)
Heartbeat CPU 0 instructions: 221501333 cycles: 72631576 heartbeat IPC: 2.942 cumulative IPC: 2.965 (Simulation time: 00 hr 22 min 52 sec)
Heartbeat CPU 0 instructions: 222001333 cycles: 72800724 heartbeat IPC: 2.956 cumulative IPC: 2.965 (Simulation time: 00 hr 22 min 55 sec)
Heartbeat CPU 0 instructions: 222501337 cycles: 72970307 heartbeat IPC: 2.948 cumulative IPC: 2.965 (Simulation time: 00 hr 22 min 58 sec)
Heartbeat CPU 0 instructions: 223001340 cycles: 73140473 heartbeat IPC: 2.938 cumulative IPC: 2.965 (Simulation time: 00 hr 23 min 01 sec)
Heartbeat CPU 0 instructions: 223501343 cycles: 73310370 heartbeat IPC: 2.943 cumulative IPC: 2.965 (Simulation time: 00 hr 23 min 04 sec)
Heartbeat CPU 0 instructions: 224001346 cycles: 73479594 heartbeat IPC: 2.955 cumulative IPC: 2.965 (Simulation time: 00 hr 23 min 07 sec)
Heartbeat CPU 0 instructions: 224501348 cycles: 73653012 heartbeat IPC: 2.883 cumulative IPC: 2.964 (Simulation time: 00 hr 23 min 10 sec)
Heartbeat CPU 0 instructions: 225001348 cycles: 73823391 heartbeat IPC: 2.935 cumulative IPC: 2.964 (Simulation time: 00 hr 23 min 13 sec)
Heartbeat CPU 0 instructions: 225501352 cycles: 73992504 heartbeat IPC: 2.957 cumulative IPC: 2.964 (Simulation time: 00 hr 23 min 16 sec)
Heartbeat CPU 0 instructions: 226001352 cycles: 74161891 heartbeat IPC: 2.952 cumulative IPC: 2.964 (Simulation time: 00 hr 23 min 19 sec)
Heartbeat CPU 0 instructions: 226501355 cycles: 74331330 heartbeat IPC: 2.951 cumulative IPC: 2.964 (Simulation time: 00 hr 23 min 22 sec)
Heartbeat CPU 0 instructions: 227001356 cycles: 74501163 heartbeat IPC: 2.944 cumulative IPC: 2.964 (Simulation time: 00 hr 23 min 25 sec)
Heartbeat CPU 0 instructions: 227501363 cycles: 74670768 heartbeat IPC: 2.948 cumulative IPC: 2.964 (Simulation time: 00 hr 23 min 28 sec)
Heartbeat CPU 0 instructions: 228001363 cycles: 74841631 heartbeat IPC: 2.926 cumulative IPC: 2.964 (Simulation time: 00 hr 23 min 31 sec)
Heartbeat CPU 0 instructions: 228501366 cycles: 75014021 heartbeat IPC: 2.9 cumulative IPC: 2.964 (Simulation time: 00 hr 23 min 34 sec)
Heartbeat CPU 0 instructions: 229001367 cycles: 75184365 heartbeat IPC: 2.935 cumulative IPC: 2.964 (Simulation time: 00 hr 23 min 38 sec)
Heartbeat CPU 0 instructions: 229501368 cycles: 75353530 heartbeat IPC: 2.956 cumulative IPC: 2.964 (Simulation time: 00 hr 23 min 41 sec)
Heartbeat CPU 0 instructions: 230001375 cycles: 75522307 heartbeat IPC: 2.963 cumulative IPC: 2.964 (Simulation time: 00 hr 23 min 44 sec)
Heartbeat CPU 0 instructions: 230501382 cycles: 75690798 heartbeat IPC: 2.968 cumulative IPC: 2.964 (Simulation time: 00 hr 23 min 47 sec)
Heartbeat CPU 0 instructions: 231001385 cycles: 75860324 heartbeat IPC: 2.949 cumulative IPC: 2.964 (Simulation time: 00 hr 23 min 50 sec)
Heartbeat CPU 0 instructions: 231501388 cycles: 76028775 heartbeat IPC: 2.968 cumulative IPC: 2.964 (Simulation time: 00 hr 23 min 53 sec)
Heartbeat CPU 0 instructions: 232001395 cycles: 76200682 heartbeat IPC: 2.909 cumulative IPC: 2.964 (Simulation time: 00 hr 23 min 56 sec)
Heartbeat CPU 0 instructions: 232501402 cycles: 76370196 heartbeat IPC: 2.95 cumulative IPC: 2.964 (Simulation time: 00 hr 23 min 59 sec)
Heartbeat CPU 0 instructions: 233001402 cycles: 76537660 heartbeat IPC: 2.986 cumulative IPC: 2.964 (Simulation time: 00 hr 24 min 02 sec)
Heartbeat CPU 0 instructions: 233501406 cycles: 76704991 heartbeat IPC: 2.988 cumulative IPC: 2.964 (Simulation time: 00 hr 24 min 05 sec)
Heartbeat CPU 0 instructions: 234001408 cycles: 76873040 heartbeat IPC: 2.975 cumulative IPC: 2.964 (Simulation time: 00 hr 24 min 08 sec)
Heartbeat CPU 0 instructions: 234501412 cycles: 77039744 heartbeat IPC: 2.999 cumulative IPC: 2.964 (Simulation time: 00 hr 24 min 11 sec)
Heartbeat CPU 0 instructions: 235001417 cycles: 77205612 heartbeat IPC: 3.014 cumulative IPC: 2.964 (Simulation time: 00 hr 24 min 14 sec)
Heartbeat CPU 0 instructions: 235501423 cycles: 77376881 heartbeat IPC: 2.919 cumulative IPC: 2.964 (Simulation time: 00 hr 24 min 17 sec)
Heartbeat CPU 0 instructions: 236001424 cycles: 77543639 heartbeat IPC: 2.998 cumulative IPC: 2.964 (Simulation time: 00 hr 24 min 20 sec)
Heartbeat CPU 0 instructions: 236501429 cycles: 77706732 heartbeat IPC: 3.066 cumulative IPC: 2.964 (Simulation time: 00 hr 24 min 23 sec)
Heartbeat CPU 0 instructions: 237001433 cycles: 77872129 heartbeat IPC: 3.023 cumulative IPC: 2.964 (Simulation time: 00 hr 24 min 26 sec)
Heartbeat CPU 0 instructions: 237501439 cycles: 78040598 heartbeat IPC: 2.968 cumulative IPC: 2.964 (Simulation time: 00 hr 24 min 29 sec)
Heartbeat CPU 0 instructions: 238001445 cycles: 78209567 heartbeat IPC: 2.959 cumulative IPC: 2.964 (Simulation time: 00 hr 24 min 32 sec)
Heartbeat CPU 0 instructions: 238501451 cycles: 78378414 heartbeat IPC: 2.961 cumulative IPC: 2.964 (Simulation time: 00 hr 24 min 35 sec)
Heartbeat CPU 0 instructions: 239001453 cycles: 78548206 heartbeat IPC: 2.945 cumulative IPC: 2.964 (Simulation time: 00 hr 24 min 38 sec)
Heartbeat CPU 0 instructions: 239501456 cycles: 78720515 heartbeat IPC: 2.902 cumulative IPC: 2.964 (Simulation time: 00 hr 24 min 41 sec)
Heartbeat CPU 0 instructions: 240001459 cycles: 78889807 heartbeat IPC: 2.953 cumulative IPC: 2.964 (Simulation time: 00 hr 24 min 44 sec)
Heartbeat CPU 0 instructions: 240501463 cycles: 79058096 heartbeat IPC: 2.971 cumulative IPC: 2.964 (Simulation time: 00 hr 24 min 47 sec)
Heartbeat CPU 0 instructions: 241001470 cycles: 79226011 heartbeat IPC: 2.978 cumulative IPC: 2.964 (Simulation time: 00 hr 24 min 50 sec)
Heartbeat CPU 0 instructions: 241501477 cycles: 79401480 heartbeat IPC: 2.85 cumulative IPC: 2.964 (Simulation time: 00 hr 24 min 54 sec)
Heartbeat CPU 0 instructions: 242001478 cycles: 79569480 heartbeat IPC: 2.976 cumulative IPC: 2.964 (Simulation time: 00 hr 24 min 57 sec)
Heartbeat CPU 0 instructions: 242501485 cycles: 79737298 heartbeat IPC: 2.979 cumulative IPC: 2.964 (Simulation time: 00 hr 25 min 00 sec)
Heartbeat CPU 0 instructions: 243001487 cycles: 79906597 heartbeat IPC: 2.953 cumulative IPC: 2.964 (Simulation time: 00 hr 25 min 03 sec)
Heartbeat CPU 0 instructions: 243501493 cycles: 80072885 heartbeat IPC: 3.007 cumulative IPC: 2.964 (Simulation time: 00 hr 25 min 06 sec)
Heartbeat CPU 0 instructions: 244001493 cycles: 80237099 heartbeat IPC: 3.045 cumulative IPC: 2.964 (Simulation time: 00 hr 25 min 09 sec)
Heartbeat CPU 0 instructions: 244501496 cycles: 80400844 heartbeat IPC: 3.054 cumulative IPC: 2.964 (Simulation time: 00 hr 25 min 12 sec)
Heartbeat CPU 0 instructions: 245001497 cycles: 80563873 heartbeat IPC: 3.067 cumulative IPC: 2.965 (Simulation time: 00 hr 25 min 15 sec)
Heartbeat CPU 0 instructions: 245501503 cycles: 80727143 heartbeat IPC: 3.062 cumulative IPC: 2.965 (Simulation time: 00 hr 25 min 18 sec)
Heartbeat CPU 0 instructions: 246001506 cycles: 80891006 heartbeat IPC: 3.051 cumulative IPC: 2.965 (Simulation time: 00 hr 25 min 21 sec)
Heartbeat CPU 0 instructions: 246501508 cycles: 81054790 heartbeat IPC: 3.053 cumulative IPC: 2.965 (Simulation time: 00 hr 25 min 23 sec)
Heartbeat CPU 0 instructions: 247001509 cycles: 81215792 heartbeat IPC: 3.106 cumulative IPC: 2.966 (Simulation time: 00 hr 25 min 26 sec)
Heartbeat CPU 0 instructions: 247501512 cycles: 81377039 heartbeat IPC: 3.101 cumulative IPC: 2.966 (Simulation time: 00 hr 25 min 29 sec)
Heartbeat CPU 0 instructions: 248001513 cycles: 81538333 heartbeat IPC: 3.1 cumulative IPC: 2.966 (Simulation time: 00 hr 25 min 32 sec)
Heartbeat CPU 0 instructions: 248501514 cycles: 81704248 heartbeat IPC: 3.014 cumulative IPC: 2.966 (Simulation time: 00 hr 25 min 35 sec)
Heartbeat CPU 0 instructions: 249001519 cycles: 81874300 heartbeat IPC: 2.94 cumulative IPC: 2.966 (Simulation time: 00 hr 25 min 38 sec)
Heartbeat CPU 0 instructions: 249501519 cycles: 82043648 heartbeat IPC: 2.953 cumulative IPC: 2.966 (Simulation time: 00 hr 25 min 41 sec)
Simulation finished CPU 0 instructions: 200000006 cycles: 67425915 cumulative IPC: 2.966 (Simulation time: 00 hr 25 min 44 sec)
Simulation complete CPU 0 instructions: 200000006 cycles: 67425915 cumulative IPC: 2.966 (Simulation time: 00 hr 25 min 44 sec)

ChampSim completed all CPUs

=== Simulation ===
CPU 0 runs /local-ssd/ben/dpc4-traces/ai-ml/whisper_trace_1.champsimtrace.gz

Region of Interest Statistics

CPU 0 cumulative IPC: 2.966 instructions: 200000006 cycles: 67425915
CPU 0 Branch Prediction Accuracy: 96.01% MPKI: 2.804 Average ROB Occupancy at Mispredict: 235.7
Branch type MPKI
BRANCH_DIRECT_JUMP: 0
BRANCH_INDIRECT: 0
BRANCH_CONDITIONAL: 2.804
BRANCH_DIRECT_CALL: 0
BRANCH_INDIRECT_CALL: 0
BRANCH_RETURN: 0

cpu0->cpu0_STLB TOTAL        ACCESS:      26418 HIT:       5181 MISS:      21237 MSHR_MERGE:          0
cpu0->cpu0_STLB LOAD         ACCESS:      26418 HIT:       5181 MISS:      21237 MSHR_MERGE:          0
cpu0->cpu0_STLB RFO          ACCESS:          0 HIT:          0 MISS:          0 MSHR_MERGE:          0
cpu0->cpu0_STLB PREFETCH     ACCESS:          0 HIT:          0 MISS:          0 MSHR_MERGE:          0
cpu0->cpu0_STLB WRITE        ACCESS:          0 HIT:          0 MISS:          0 MSHR_MERGE:          0
cpu0->cpu0_STLB TRANSLATION  ACCESS:          0 HIT:          0 MISS:          0 MSHR_MERGE:          0
cpu0->cpu0_STLB PREFETCH REQUESTED:          0 ISSUED:          0 USEFUL:          0 USELESS:          0
cpu0->cpu0_STLB AVERAGE MISS LATENCY: 52.68 cycles
cpu0->cpu0_L2C TOTAL        ACCESS:   18669996 HIT:   13160530 MISS:    5509466 MSHR_MERGE:    4154097
cpu0->cpu0_L2C LOAD         ACCESS:    4106193 HIT:    3068170 MISS:    1038023 MSHR_MERGE:     633471
cpu0->cpu0_L2C RFO          ACCESS:      33240 HIT:        365 MISS:      32875 MSHR_MERGE:          0
cpu0->cpu0_L2C PREFETCH     ACCESS:   14489546 HIT:   10053987 MISS:    4435559 MSHR_MERGE:    3520626
cpu0->cpu0_L2C WRITE        ACCESS:      35956 HIT:      35923 MISS:         33 MSHR_MERGE:          0
cpu0->cpu0_L2C TRANSLATION  ACCESS:       5061 HIT:       2085 MISS:       2976 MSHR_MERGE:          0
cpu0->cpu0_L2C PREFETCH REQUESTED:   21308575 ISSUED:   13558711 USEFUL:     740217 USELESS:      39642
cpu0->cpu0_L2C AVERAGE MISS LATENCY: 131.2 cycles
cpu0->cpu0_L1I TOTAL        ACCESS:   21303827 HIT:   21303827 MISS:          0 MSHR_MERGE:          0
cpu0->cpu0_L1I LOAD         ACCESS:   21303827 HIT:   21303827 MISS:          0 MSHR_MERGE:          0
cpu0->cpu0_L1I RFO          ACCESS:          0 HIT:          0 MISS:          0 MSHR_MERGE:          0
cpu0->cpu0_L1I PREFETCH     ACCESS:          0 HIT:          0 MISS:          0 MSHR_MERGE:          0
cpu0->cpu0_L1I WRITE        ACCESS:          0 HIT:          0 MISS:          0 MSHR_MERGE:          0
cpu0->cpu0_L1I TRANSLATION  ACCESS:          0 HIT:          0 MISS:          0 MSHR_MERGE:          0
cpu0->cpu0_L1I PREFETCH REQUESTED:          0 ISSUED:          0 USEFUL:          0 USELESS:          0
cpu0->cpu0_L1I AVERAGE MISS LATENCY: - cycles
cpu0->cpu0_L1D TOTAL        ACCESS:   68597533 HIT:   62641777 MISS:    5955756 MSHR_MERGE:     880392
cpu0->cpu0_L1D LOAD         ACCESS:   51786411 HIT:   47265406 MISS:    4521005 MSHR_MERGE:     414808
cpu0->cpu0_L1D RFO          ACCESS:          0 HIT:          0 MISS:          0 MSHR_MERGE:          0
cpu0->cpu0_L1D PREFETCH     ACCESS:   14297051 HIT:   12933554 MISS:    1363497 MSHR_MERGE:     432661
cpu0->cpu0_L1D WRITE        ACCESS:    2471651 HIT:    2405501 MISS:      66150 MSHR_MERGE:      32880
cpu0->cpu0_L1D TRANSLATION  ACCESS:      42420 HIT:      37316 MISS:       5104 MSHR_MERGE:         43
cpu0->cpu0_L1D PREFETCH REQUESTED:   64489427 ISSUED:   14297043 USEFUL:     835316 USELESS:      95504
cpu0->cpu0_L1D AVERAGE MISS LATENCY: 44.21 cycles
cpu0->cpu0_ITLB TOTAL        ACCESS:   15458591 HIT:   15458591 MISS:          0 MSHR_MERGE:          0
cpu0->cpu0_ITLB LOAD         ACCESS:   15458591 HIT:   15458591 MISS:          0 MSHR_MERGE:          0
cpu0->cpu0_ITLB RFO          ACCESS:          0 HIT:          0 MISS:          0 MSHR_MERGE:          0
cpu0->cpu0_ITLB PREFETCH     ACCESS:          0 HIT:          0 MISS:          0 MSHR_MERGE:          0
cpu0->cpu0_ITLB WRITE        ACCESS:          0 HIT:          0 MISS:          0 MSHR_MERGE:          0
cpu0->cpu0_ITLB TRANSLATION  ACCESS:          0 HIT:          0 MISS:          0 MSHR_MERGE:          0
cpu0->cpu0_ITLB PREFETCH REQUESTED:          0 ISSUED:          0 USEFUL:          0 USELESS:          0
cpu0->cpu0_ITLB AVERAGE MISS LATENCY: - cycles
cpu0->cpu0_DTLB TOTAL        ACCESS:   56160608 HIT:   56003480 MISS:     157128 MSHR_MERGE:     130710
cpu0->cpu0_DTLB LOAD         ACCESS:   56160608 HIT:   56003480 MISS:     157128 MSHR_MERGE:     130710
cpu0->cpu0_DTLB RFO          ACCESS:          0 HIT:          0 MISS:          0 MSHR_MERGE:          0
cpu0->cpu0_DTLB PREFETCH     ACCESS:          0 HIT:          0 MISS:          0 MSHR_MERGE:          0
cpu0->cpu0_DTLB WRITE        ACCESS:          0 HIT:          0 MISS:          0 MSHR_MERGE:          0
cpu0->cpu0_DTLB TRANSLATION  ACCESS:          0 HIT:          0 MISS:          0 MSHR_MERGE:          0
cpu0->cpu0_DTLB PREFETCH REQUESTED:          0 ISSUED:          0 USEFUL:          0 USELESS:          0
cpu0->cpu0_DTLB AVERAGE MISS LATENCY: 48.15 cycles
cpu0->LLC TOTAL        ACCESS:    2665878 HIT:     424857 MISS:    2241021 MSHR_MERGE:    1042925
cpu0->LLC LOAD         ACCESS:     404552 HIT:     116707 MISS:     287845 MSHR_MERGE:     184147
cpu0->LLC RFO          ACCESS:      32875 HIT:          1 MISS:      32874 MSHR_MERGE:          0
cpu0->LLC PREFETCH     ACCESS:    2192482 HIT:     302711 MISS:    1889771 MSHR_MERGE:     858778
cpu0->LLC WRITE        ACCESS:      32993 HIT:       5275 MISS:      27718 MSHR_MERGE:          0
cpu0->LLC TRANSLATION  ACCESS:       2976 HIT:        163 MISS:       2813 MSHR_MERGE:          0
cpu0->LLC PREFETCH REQUESTED:    1281195 ISSUED:    1277549 USEFUL:     249217 USELESS:     638789
cpu0->LLC AVERAGE MISS LATENCY: 150.3 cycles

DRAM Statistics

Channel 0 RQ ROW_BUFFER_HIT:     478300
  ROW_BUFFER_MISS:     692077
  AVG DBUS CONGESTED CYCLE: 4.437
Channel 0 WQ ROW_BUFFER_HIT:       3850
  ROW_BUFFER_MISS:      26722
  FULL:          0
Channel 0 REFRESHES ISSUED:       5618
