[VMEM] WARNING: physical memory size is smaller than virtual memory size.

*** ChampSim Multicore Out-of-Order Simulator ***
Warmup Instructions: 50000000
Simulation Instructions: 200000000
Number of CPUs: 1
Page size: 4096
Core 0: /local-ssd/ben/dpc4-traces/ai-ml/biogpt.cpp-ggml-model-tocilizumab.3.champsimtrace.gz
Off-chip DRAM Size: 64 GiB Channels: 1 Width: 64-bit Data Rate: 4807 MT/s
Heartbeat CPU 0 instructions: 500002 cycles: 466850 heartbeat IPC: 1.071 cumulative IPC: 1.071 (Simulation time: 00 hr 00 min 07 sec)
Heartbeat CPU 0 instructions: 1000005 cycles: 985646 heartbeat IPC: 0.9638 cumulative IPC: 1.015 (Simulation time: 00 hr 00 min 16 sec)
Heartbeat CPU 0 instructions: 1500010 cycles: 1495346 heartbeat IPC: 0.981 cumulative IPC: 1.003 (Simulation time: 00 hr 00 min 26 sec)
Heartbeat CPU 0 instructions: 2000016 cycles: 1956124 heartbeat IPC: 1.085 cumulative IPC: 1.022 (Simulation time: 00 hr 00 min 34 sec)
Heartbeat CPU 0 instructions: 2500016 cycles: 2383321 heartbeat IPC: 1.17 cumulative IPC: 1.049 (Simulation time: 00 hr 00 min 42 sec)
Heartbeat CPU 0 instructions: 3000018 cycles: 2652307 heartbeat IPC: 1.859 cumulative IPC: 1.131 (Simulation time: 00 hr 00 min 47 sec)
Heartbeat CPU 0 instructions: 3500021 cycles: 3040038 heartbeat IPC: 1.29 cumulative IPC: 1.151 (Simulation time: 00 hr 00 min 54 sec)
Heartbeat CPU 0 instructions: 4000027 cycles: 3364058 heartbeat IPC: 1.543 cumulative IPC: 1.189 (Simulation time: 00 hr 01 min 00 sec)
Heartbeat CPU 0 instructions: 4500027 cycles: 3776205 heartbeat IPC: 1.213 cumulative IPC: 1.192 (Simulation time: 00 hr 01 min 08 sec)
Heartbeat CPU 0 instructions: 5000032 cycles: 4202249 heartbeat IPC: 1.174 cumulative IPC: 1.19 (Simulation time: 00 hr 01 min 16 sec)
Heartbeat CPU 0 instructions: 5500032 cycles: 4628067 heartbeat IPC: 1.174 cumulative IPC: 1.188 (Simulation time: 00 hr 01 min 24 sec)
Heartbeat CPU 0 instructions: 6000032 cycles: 5038925 heartbeat IPC: 1.217 cumulative IPC: 1.191 (Simulation time: 00 hr 01 min 32 sec)
Heartbeat CPU 0 instructions: 6500034 cycles: 5548198 heartbeat IPC: 0.9818 cumulative IPC: 1.172 (Simulation time: 00 hr 01 min 42 sec)
Heartbeat CPU 0 instructions: 7000041 cycles: 6055763 heartbeat IPC: 0.9851 cumulative IPC: 1.156 (Simulation time: 00 hr 01 min 51 sec)
Heartbeat CPU 0 instructions: 7500041 cycles: 6568041 heartbeat IPC: 0.976 cumulative IPC: 1.142 (Simulation time: 00 hr 02 min 01 sec)
Heartbeat CPU 0 instructions: 8000048 cycles: 6991380 heartbeat IPC: 1.181 cumulative IPC: 1.144 (Simulation time: 00 hr 02 min 09 sec)
Heartbeat CPU 0 instructions: 8500054 cycles: 7399346 heartbeat IPC: 1.226 cumulative IPC: 1.149 (Simulation time: 00 hr 02 min 16 sec)
Heartbeat CPU 0 instructions: 9000060 cycles: 7657160 heartbeat IPC: 1.939 cumulative IPC: 1.175 (Simulation time: 00 hr 02 min 22 sec)
Heartbeat CPU 0 instructions: 9500065 cycles: 7943408 heartbeat IPC: 1.747 cumulative IPC: 1.196 (Simulation time: 00 hr 02 min 27 sec)
Heartbeat CPU 0 instructions: 10000071 cycles: 8354186 heartbeat IPC: 1.217 cumulative IPC: 1.197 (Simulation time: 00 hr 02 min 35 sec)
Heartbeat CPU 0 instructions: 10500074 cycles: 8779611 heartbeat IPC: 1.175 cumulative IPC: 1.196 (Simulation time: 00 hr 02 min 43 sec)
Heartbeat CPU 0 instructions: 11000074 cycles: 9204771 heartbeat IPC: 1.176 cumulative IPC: 1.195 (Simulation time: 00 hr 02 min 51 sec)
Heartbeat CPU 0 instructions: 11500078 cycles: 9630923 heartbeat IPC: 1.173 cumulative IPC: 1.194 (Simulation time: 00 hr 02 min 59 sec)
Heartbeat CPU 0 instructions: 12000080 cycles: 10085316 heartbeat IPC: 1.1 cumulative IPC: 1.19 (Simulation time: 00 hr 03 min 08 sec)
Heartbeat CPU 0 instructions: 12500081 cycles: 10597805 heartbeat IPC: 0.9756 cumulative IPC: 1.179 (Simulation time: 00 hr 03 min 17 sec)
Heartbeat CPU 0 instructions: 13000081 cycles: 11110462 heartbeat IPC: 0.9753 cumulative IPC: 1.17 (Simulation time: 00 hr 03 min 27 sec)
Heartbeat CPU 0 instructions: 13500081 cycles: 11580853 heartbeat IPC: 1.063 cumulative IPC: 1.166 (Simulation time: 00 hr 03 min 36 sec)
Heartbeat CPU 0 instructions: 14000082 cycles: 12005064 heartbeat IPC: 1.179 cumulative IPC: 1.166 (Simulation time: 00 hr 03 min 44 sec)
Heartbeat CPU 0 instructions: 14500089 cycles: 12282625 heartbeat IPC: 1.801 cumulative IPC: 1.181 (Simulation time: 00 hr 03 min 50 sec)
Heartbeat CPU 0 instructions: 15000095 cycles: 12670768 heartbeat IPC: 1.288 cumulative IPC: 1.184 (Simulation time: 00 hr 03 min 57 sec)
Heartbeat CPU 0 instructions: 15500100 cycles: 12956388 heartbeat IPC: 1.751 cumulative IPC: 1.196 (Simulation time: 00 hr 04 min 03 sec)
Heartbeat CPU 0 instructions: 16000100 cycles: 13367916 heartbeat IPC: 1.215 cumulative IPC: 1.197 (Simulation time: 00 hr 04 min 10 sec)
Heartbeat CPU 0 instructions: 16500104 cycles: 13793459 heartbeat IPC: 1.175 cumulative IPC: 1.196 (Simulation time: 00 hr 04 min 18 sec)
Heartbeat CPU 0 instructions: 17000105 cycles: 14217314 heartbeat IPC: 1.18 cumulative IPC: 1.196 (Simulation time: 00 hr 04 min 27 sec)
Heartbeat CPU 0 instructions: 17500108 cycles: 14619352 heartbeat IPC: 1.244 cumulative IPC: 1.197 (Simulation time: 00 hr 04 min 34 sec)
Heartbeat CPU 0 instructions: 18000111 cycles: 15130732 heartbeat IPC: 0.9778 cumulative IPC: 1.19 (Simulation time: 00 hr 04 min 44 sec)
Heartbeat CPU 0 instructions: 18500113 cycles: 15648096 heartbeat IPC: 0.9664 cumulative IPC: 1.182 (Simulation time: 00 hr 04 min 54 sec)
Heartbeat CPU 0 instructions: 19000115 cycles: 16161121 heartbeat IPC: 0.9746 cumulative IPC: 1.176 (Simulation time: 00 hr 05 min 03 sec)
Heartbeat CPU 0 instructions: 19500115 cycles: 16595470 heartbeat IPC: 1.151 cumulative IPC: 1.175 (Simulation time: 00 hr 05 min 12 sec)
Heartbeat CPU 0 instructions: 20000121 cycles: 17018947 heartbeat IPC: 1.181 cumulative IPC: 1.175 (Simulation time: 00 hr 05 min 20 sec)
Heartbeat CPU 0 instructions: 20500121 cycles: 17259807 heartbeat IPC: 2.076 cumulative IPC: 1.188 (Simulation time: 00 hr 05 min 25 sec)
Heartbeat CPU 0 instructions: 21000127 cycles: 17548680 heartbeat IPC: 1.731 cumulative IPC: 1.197 (Simulation time: 00 hr 05 min 30 sec)
Heartbeat CPU 0 instructions: 21500130 cycles: 17957617 heartbeat IPC: 1.223 cumulative IPC: 1.197 (Simulation time: 00 hr 05 min 38 sec)
Heartbeat CPU 0 instructions: 22000134 cycles: 18384427 heartbeat IPC: 1.171 cumulative IPC: 1.197 (Simulation time: 00 hr 05 min 46 sec)
Heartbeat CPU 0 instructions: 22500135 cycles: 18811244 heartbeat IPC: 1.171 cumulative IPC: 1.196 (Simulation time: 00 hr 05 min 55 sec)
Heartbeat CPU 0 instructions: 23000139 cycles: 19237434 heartbeat IPC: 1.173 cumulative IPC: 1.196 (Simulation time: 00 hr 06 min 03 sec)
Heartbeat CPU 0 instructions: 23500144 cycles: 19675155 heartbeat IPC: 1.142 cumulative IPC: 1.194 (Simulation time: 00 hr 06 min 11 sec)
Heartbeat CPU 0 instructions: 24000145 cycles: 20186389 heartbeat IPC: 0.978 cumulative IPC: 1.189 (Simulation time: 00 hr 06 min 21 sec)
Heartbeat CPU 0 instructions: 24500149 cycles: 20697585 heartbeat IPC: 0.9781 cumulative IPC: 1.184 (Simulation time: 00 hr 06 min 30 sec)
Heartbeat CPU 0 instructions: 25000153 cycles: 21178947 heartbeat IPC: 1.039 cumulative IPC: 1.18 (Simulation time: 00 hr 06 min 39 sec)
Heartbeat CPU 0 instructions: 25500153 cycles: 21603154 heartbeat IPC: 1.179 cumulative IPC: 1.18 (Simulation time: 00 hr 06 min 47 sec)
Heartbeat CPU 0 instructions: 26000157 cycles: 21920402 heartbeat IPC: 1.576 cumulative IPC: 1.186 (Simulation time: 00 hr 06 min 54 sec)
Heartbeat CPU 0 instructions: 26500161 cycles: 22269360 heartbeat IPC: 1.433 cumulative IPC: 1.19 (Simulation time: 00 hr 07 min 01 sec)
Heartbeat CPU 0 instructions: 27000168 cycles: 22555052 heartbeat IPC: 1.75 cumulative IPC: 1.197 (Simulation time: 00 hr 07 min 06 sec)
Heartbeat CPU 0 instructions: 27500168 cycles: 22966380 heartbeat IPC: 1.216 cumulative IPC: 1.197 (Simulation time: 00 hr 07 min 14 sec)
Heartbeat CPU 0 instructions: 28000173 cycles: 23389933 heartbeat IPC: 1.181 cumulative IPC: 1.197 (Simulation time: 00 hr 07 min 22 sec)
Heartbeat CPU 0 instructions: 28500177 cycles: 23814720 heartbeat IPC: 1.177 cumulative IPC: 1.197 (Simulation time: 00 hr 07 min 31 sec)
Heartbeat CPU 0 instructions: 29000177 cycles: 24239287 heartbeat IPC: 1.178 cumulative IPC: 1.196 (Simulation time: 00 hr 07 min 39 sec)
Heartbeat CPU 0 instructions: 29500177 cycles: 24714059 heartbeat IPC: 1.053 cumulative IPC: 1.194 (Simulation time: 00 hr 07 min 48 sec)
Heartbeat CPU 0 instructions: 30000180 cycles: 25225983 heartbeat IPC: 0.9767 cumulative IPC: 1.189 (Simulation time: 00 hr 07 min 58 sec)
Heartbeat CPU 0 instructions: 30500182 cycles: 25741902 heartbeat IPC: 0.9691 cumulative IPC: 1.185 (Simulation time: 00 hr 08 min 08 sec)
Heartbeat CPU 0 instructions: 31000185 cycles: 26186586 heartbeat IPC: 1.124 cumulative IPC: 1.184 (Simulation time: 00 hr 08 min 16 sec)
Heartbeat CPU 0 instructions: 31500189 cycles: 26609165 heartbeat IPC: 1.183 cumulative IPC: 1.184 (Simulation time: 00 hr 08 min 24 sec)
Heartbeat CPU 0 instructions: 32000189 cycles: 26849747 heartbeat IPC: 2.078 cumulative IPC: 1.192 (Simulation time: 00 hr 08 min 29 sec)
Heartbeat CPU 0 instructions: 32500193 cycles: 27181192 heartbeat IPC: 1.509 cumulative IPC: 1.196 (Simulation time: 00 hr 08 min 36 sec)
Heartbeat CPU 0 instructions: 33000195 cycles: 27560185 heartbeat IPC: 1.319 cumulative IPC: 1.197 (Simulation time: 00 hr 08 min 43 sec)
Heartbeat CPU 0 instructions: 33500195 cycles: 27973222 heartbeat IPC: 1.211 cumulative IPC: 1.198 (Simulation time: 00 hr 08 min 51 sec)
Heartbeat CPU 0 instructions: 34000195 cycles: 28398227 heartbeat IPC: 1.176 cumulative IPC: 1.197 (Simulation time: 00 hr 08 min 59 sec)
Heartbeat CPU 0 instructions: 34500195 cycles: 28824753 heartbeat IPC: 1.172 cumulative IPC: 1.197 (Simulation time: 00 hr 09 min 08 sec)
Heartbeat CPU 0 instructions: 35000196 cycles: 29251718 heartbeat IPC: 1.171 cumulative IPC: 1.197 (Simulation time: 00 hr 09 min 16 sec)
Heartbeat CPU 0 instructions: 35500202 cycles: 29765427 heartbeat IPC: 0.9733 cumulative IPC: 1.193 (Simulation time: 00 hr 09 min 26 sec)
Heartbeat CPU 0 instructions: 36000202 cycles: 30277346 heartbeat IPC: 0.9767 cumulative IPC: 1.189 (Simulation time: 00 hr 09 min 35 sec)
Heartbeat CPU 0 instructions: 36500202 cycles: 30775954 heartbeat IPC: 1.003 cumulative IPC: 1.186 (Simulation time: 00 hr 09 min 45 sec)
Heartbeat CPU 0 instructions: 37000203 cycles: 31198915 heartbeat IPC: 1.182 cumulative IPC: 1.186 (Simulation time: 00 hr 09 min 53 sec)
Heartbeat CPU 0 instructions: 37500207 cycles: 31556686 heartbeat IPC: 1.398 cumulative IPC: 1.188 (Simulation time: 00 hr 10 min 00 sec)
Heartbeat CPU 0 instructions: 38000212 cycles: 31865657 heartbeat IPC: 1.618 cumulative IPC: 1.193 (Simulation time: 00 hr 10 min 06 sec)
Heartbeat CPU 0 instructions: 38500217 cycles: 32152138 heartbeat IPC: 1.745 cumulative IPC: 1.197 (Simulation time: 00 hr 10 min 12 sec)
Heartbeat CPU 0 instructions: 39000217 cycles: 32565687 heartbeat IPC: 1.209 cumulative IPC: 1.198 (Simulation time: 00 hr 10 min 20 sec)
Heartbeat CPU 0 instructions: 39500217 cycles: 32990092 heartbeat IPC: 1.178 cumulative IPC: 1.197 (Simulation time: 00 hr 10 min 28 sec)
Heartbeat CPU 0 instructions: 40000222 cycles: 33414936 heartbeat IPC: 1.177 cumulative IPC: 1.197 (Simulation time: 00 hr 10 min 36 sec)
Heartbeat CPU 0 instructions: 40500226 cycles: 33838577 heartbeat IPC: 1.18 cumulative IPC: 1.197 (Simulation time: 00 hr 10 min 44 sec)
Heartbeat CPU 0 instructions: 41000227 cycles: 34304852 heartbeat IPC: 1.072 cumulative IPC: 1.195 (Simulation time: 00 hr 10 min 53 sec)
Heartbeat CPU 0 instructions: 41500232 cycles: 34815359 heartbeat IPC: 0.9794 cumulative IPC: 1.192 (Simulation time: 00 hr 11 min 03 sec)
Heartbeat CPU 0 instructions: 42000235 cycles: 35327720 heartbeat IPC: 0.9759 cumulative IPC: 1.189 (Simulation time: 00 hr 11 min 13 sec)
Heartbeat CPU 0 instructions: 42500240 cycles: 35781905 heartbeat IPC: 1.101 cumulative IPC: 1.188 (Simulation time: 00 hr 11 min 21 sec)
Heartbeat CPU 0 instructions: 43000242 cycles: 36205204 heartbeat IPC: 1.181 cumulative IPC: 1.188 (Simulation time: 00 hr 11 min 29 sec)
Heartbeat CPU 0 instructions: 43500242 cycles: 36445551 heartbeat IPC: 2.08 cumulative IPC: 1.194 (Simulation time: 00 hr 11 min 34 sec)
Heartbeat CPU 0 instructions: 44000245 cycles: 36818348 heartbeat IPC: 1.341 cumulative IPC: 1.195 (Simulation time: 00 hr 11 min 42 sec)
Heartbeat CPU 0 instructions: 44500251 cycles: 37155781 heartbeat IPC: 1.482 cumulative IPC: 1.198 (Simulation time: 00 hr 11 min 48 sec)
Heartbeat CPU 0 instructions: 45000255 cycles: 37568753 heartbeat IPC: 1.211 cumulative IPC: 1.198 (Simulation time: 00 hr 11 min 56 sec)
Heartbeat CPU 0 instructions: 45500256 cycles: 37993605 heartbeat IPC: 1.177 cumulative IPC: 1.198 (Simulation time: 00 hr 12 min 04 sec)
Heartbeat CPU 0 instructions: 46000260 cycles: 38419376 heartbeat IPC: 1.174 cumulative IPC: 1.197 (Simulation time: 00 hr 12 min 12 sec)
Heartbeat CPU 0 instructions: 46500264 cycles: 38828567 heartbeat IPC: 1.222 cumulative IPC: 1.198 (Simulation time: 00 hr 12 min 20 sec)
Heartbeat CPU 0 instructions: 47000270 cycles: 39290717 heartbeat IPC: 1.082 cumulative IPC: 1.196 (Simulation time: 00 hr 12 min 29 sec)
Heartbeat CPU 0 instructions: 47500277 cycles: 39751523 heartbeat IPC: 1.085 cumulative IPC: 1.195 (Simulation time: 00 hr 12 min 38 sec)
Heartbeat CPU 0 instructions: 48000281 cycles: 40203317 heartbeat IPC: 1.107 cumulative IPC: 1.194 (Simulation time: 00 hr 12 min 47 sec)
Heartbeat CPU 0 instructions: 48500286 cycles: 40617728 heartbeat IPC: 1.207 cumulative IPC: 1.194 (Simulation time: 00 hr 12 min 55 sec)
Heartbeat CPU 0 instructions: 49000293 cycles: 41012550 heartbeat IPC: 1.266 cumulative IPC: 1.195 (Simulation time: 00 hr 13 min 03 sec)
Heartbeat CPU 0 instructions: 49500298 cycles: 41280706 heartbeat IPC: 1.865 cumulative IPC: 1.199 (Simulation time: 00 hr 13 min 08 sec)
Warmup halting CPU 0 at instruction 50000001 cycle 41566300 for remainder of phase
Warmup finished CPU 0 instructions: 50000001 cycles: 41566300 cumulative IPC: 1.203 (Simulation time: 00 hr 13 min 14 sec)
Warmup complete CPU 0 instructions: 50000001 cycles: 41566300 cumulative IPC: 1.203 (Simulation time: 00 hr 13 min 14 sec)
Heartbeat CPU 0 instructions: 50000299 cycles: 41566650 heartbeat IPC: 1.749 cumulative IPC: 0.8514 (Simulation time: 00 hr 13 min 14 sec)
Heartbeat CPU 0 instructions: 50500299 cycles: 42530246 heartbeat IPC: 0.5189 cumulative IPC: 0.519 (Simulation time: 00 hr 13 min 28 sec)
Heartbeat CPU 0 instructions: 51000300 cycles: 43528149 heartbeat IPC: 0.5011 cumulative IPC: 0.5099 (Simulation time: 00 hr 13 min 42 sec)
Heartbeat CPU 0 instructions: 51500302 cycles: 44522777 heartbeat IPC: 0.5027 cumulative IPC: 0.5075 (Simulation time: 00 hr 13 min 55 sec)
Heartbeat CPU 0 instructions: 52000304 cycles: 45515557 heartbeat IPC: 0.5036 cumulative IPC: 0.5065 (Simulation time: 00 hr 14 min 08 sec)
Heartbeat CPU 0 instructions: 52500305 cycles: 46524988 heartbeat IPC: 0.4953 cumulative IPC: 0.5042 (Simulation time: 00 hr 14 min 22 sec)
Heartbeat CPU 0 instructions: 53000305 cycles: 47610789 heartbeat IPC: 0.4605 cumulative IPC: 0.4964 (Simulation time: 00 hr 14 min 37 sec)
Heartbeat CPU 0 instructions: 53500311 cycles: 48697217 heartbeat IPC: 0.4602 cumulative IPC: 0.4909 (Simulation time: 00 hr 14 min 52 sec)
Heartbeat CPU 0 instructions: 54000317 cycles: 49728605 heartbeat IPC: 0.4848 cumulative IPC: 0.4901 (Simulation time: 00 hr 15 min 07 sec)
Heartbeat CPU 0 instructions: 54500322 cycles: 50724227 heartbeat IPC: 0.5022 cumulative IPC: 0.4914 (Simulation time: 00 hr 15 min 21 sec)
Heartbeat CPU 0 instructions: 55000327 cycles: 51323074 heartbeat IPC: 0.8349 cumulative IPC: 0.5125 (Simulation time: 00 hr 15 min 30 sec)
Heartbeat CPU 0 instructions: 55500332 cycles: 52230752 heartbeat IPC: 0.5509 cumulative IPC: 0.5158 (Simulation time: 00 hr 15 min 42 sec)
Heartbeat CPU 0 instructions: 56000338 cycles: 52927946 heartbeat IPC: 0.7172 cumulative IPC: 0.5281 (Simulation time: 00 hr 15 min 52 sec)
Heartbeat CPU 0 instructions: 56500340 cycles: 53891206 heartbeat IPC: 0.5191 cumulative IPC: 0.5274 (Simulation time: 00 hr 16 min 05 sec)
Heartbeat CPU 0 instructions: 57000340 cycles: 54884335 heartbeat IPC: 0.5035 cumulative IPC: 0.5256 (Simulation time: 00 hr 16 min 18 sec)
Heartbeat CPU 0 instructions: 57500342 cycles: 55877191 heartbeat IPC: 0.5036 cumulative IPC: 0.5241 (Simulation time: 00 hr 16 min 32 sec)
Heartbeat CPU 0 instructions: 58000349 cycles: 56823641 heartbeat IPC: 0.5283 cumulative IPC: 0.5244 (Simulation time: 00 hr 16 min 45 sec)
Heartbeat CPU 0 instructions: 58500353 cycles: 57909170 heartbeat IPC: 0.4606 cumulative IPC: 0.5201 (Simulation time: 00 hr 17 min 01 sec)
Heartbeat CPU 0 instructions: 59000355 cycles: 58992496 heartbeat IPC: 0.4615 cumulative IPC: 0.5165 (Simulation time: 00 hr 17 min 17 sec)
Heartbeat CPU 0 instructions: 59500356 cycles: 60077210 heartbeat IPC: 0.461 cumulative IPC: 0.5132 (Simulation time: 00 hr 17 min 33 sec)
Heartbeat CPU 0 instructions: 60000356 cycles: 61058566 heartbeat IPC: 0.5095 cumulative IPC: 0.513 (Simulation time: 00 hr 17 min 46 sec)
Heartbeat CPU 0 instructions: 60500357 cycles: 62051312 heartbeat IPC: 0.5037 cumulative IPC: 0.5126 (Simulation time: 00 hr 18 min 00 sec)
Heartbeat CPU 0 instructions: 61000359 cycles: 62578708 heartbeat IPC: 0.9481 cumulative IPC: 0.5235 (Simulation time: 00 hr 18 min 08 sec)
Heartbeat CPU 0 instructions: 61500360 cycles: 63242685 heartbeat IPC: 0.753 cumulative IPC: 0.5305 (Simulation time: 00 hr 18 min 17 sec)
Heartbeat CPU 0 instructions: 62000360 cycles: 64203350 heartbeat IPC: 0.5205 cumulative IPC: 0.5301 (Simulation time: 00 hr 18 min 30 sec)
Heartbeat CPU 0 instructions: 62500365 cycles: 65196649 heartbeat IPC: 0.5034 cumulative IPC: 0.529 (Simulation time: 00 hr 18 min 43 sec)
Heartbeat CPU 0 instructions: 63000371 cycles: 66189493 heartbeat IPC: 0.5036 cumulative IPC: 0.528 (Simulation time: 00 hr 18 min 57 sec)
Heartbeat CPU 0 instructions: 63500373 cycles: 67181757 heartbeat IPC: 0.5039 cumulative IPC: 0.527 (Simulation time: 00 hr 19 min 11 sec)
Heartbeat CPU 0 instructions: 64000373 cycles: 68165606 heartbeat IPC: 0.5082 cumulative IPC: 0.5263 (Simulation time: 00 hr 19 min 25 sec)
Heartbeat CPU 0 instructions: 64500379 cycles: 69250072 heartbeat IPC: 0.4611 cumulative IPC: 0.5238 (Simulation time: 00 hr 19 min 41 sec)
Heartbeat CPU 0 instructions: 65000380 cycles: 70335607 heartbeat IPC: 0.4606 cumulative IPC: 0.5214 (Simulation time: 00 hr 19 min 57 sec)
Heartbeat CPU 0 instructions: 65500383 cycles: 71368512 heartbeat IPC: 0.4841 cumulative IPC: 0.5201 (Simulation time: 00 hr 20 min 11 sec)
Heartbeat CPU 0 instructions: 66000383 cycles: 72362084 heartbeat IPC: 0.5032 cumulative IPC: 0.5196 (Simulation time: 00 hr 20 min 25 sec)
Heartbeat CPU 0 instructions: 66500387 cycles: 73056728 heartbeat IPC: 0.7198 cumulative IPC: 0.524 (Simulation time: 00 hr 20 min 35 sec)
Heartbeat CPU 0 instructions: 67000387 cycles: 73883811 heartbeat IPC: 0.6045 cumulative IPC: 0.526 (Simulation time: 00 hr 20 min 46 sec)
Heartbeat CPU 0 instructions: 67500394 cycles: 74552588 heartbeat IPC: 0.7476 cumulative IPC: 0.5305 (Simulation time: 00 hr 20 min 56 sec)
Heartbeat CPU 0 instructions: 68000396 cycles: 75514058 heartbeat IPC: 0.52 cumulative IPC: 0.5302 (Simulation time: 00 hr 21 min 09 sec)
Heartbeat CPU 0 instructions: 68500403 cycles: 76507080 heartbeat IPC: 0.5035 cumulative IPC: 0.5295 (Simulation time: 00 hr 21 min 22 sec)
Heartbeat CPU 0 instructions: 69000403 cycles: 77498879 heartbeat IPC: 0.5041 cumulative IPC: 0.5288 (Simulation time: 00 hr 21 min 36 sec)
Heartbeat CPU 0 instructions: 69500405 cycles: 78491113 heartbeat IPC: 0.5039 cumulative IPC: 0.5281 (Simulation time: 00 hr 21 min 50 sec)
Heartbeat CPU 0 instructions: 70000412 cycles: 79516506 heartbeat IPC: 0.4876 cumulative IPC: 0.527 (Simulation time: 00 hr 22 min 05 sec)
Heartbeat CPU 0 instructions: 70500415 cycles: 80608730 heartbeat IPC: 0.4578 cumulative IPC: 0.5251 (Simulation time: 00 hr 22 min 21 sec)
Heartbeat CPU 0 instructions: 71000416 cycles: 81700549 heartbeat IPC: 0.458 cumulative IPC: 0.5233 (Simulation time: 00 hr 22 min 37 sec)
Heartbeat CPU 0 instructions: 71500419 cycles: 82696041 heartbeat IPC: 0.5023 cumulative IPC: 0.5227 (Simulation time: 00 hr 22 min 51 sec)
Heartbeat CPU 0 instructions: 72000420 cycles: 83689665 heartbeat IPC: 0.5032 cumulative IPC: 0.5223 (Simulation time: 00 hr 23 min 05 sec)
Heartbeat CPU 0 instructions: 72500423 cycles: 84217868 heartbeat IPC: 0.9466 cumulative IPC: 0.5275 (Simulation time: 00 hr 23 min 13 sec)
Heartbeat CPU 0 instructions: 73000428 cycles: 84971669 heartbeat IPC: 0.6633 cumulative IPC: 0.5299 (Simulation time: 00 hr 23 min 24 sec)
Heartbeat CPU 0 instructions: 73500432 cycles: 85871983 heartbeat IPC: 0.5554 cumulative IPC: 0.5304 (Simulation time: 00 hr 23 min 35 sec)
Heartbeat CPU 0 instructions: 74000433 cycles: 86842893 heartbeat IPC: 0.515 cumulative IPC: 0.5301 (Simulation time: 00 hr 23 min 48 sec)
Heartbeat CPU 0 instructions: 74500439 cycles: 87836536 heartbeat IPC: 0.5032 cumulative IPC: 0.5295 (Simulation time: 00 hr 24 min 02 sec)
Heartbeat CPU 0 instructions: 75000441 cycles: 88828822 heartbeat IPC: 0.5039 cumulative IPC: 0.529 (Simulation time: 00 hr 24 min 15 sec)
Heartbeat CPU 0 instructions: 75500442 cycles: 89796150 heartbeat IPC: 0.5169 cumulative IPC: 0.5287 (Simulation time: 00 hr 24 min 29 sec)
Heartbeat CPU 0 instructions: 76000448 cycles: 90886756 heartbeat IPC: 0.4585 cumulative IPC: 0.5272 (Simulation time: 00 hr 24 min 44 sec)
Heartbeat CPU 0 instructions: 76500448 cycles: 91979154 heartbeat IPC: 0.4577 cumulative IPC: 0.5257 (Simulation time: 00 hr 25 min 00 sec)
Heartbeat CPU 0 instructions: 77000454 cycles: 93031156 heartbeat IPC: 0.4753 cumulative IPC: 0.5246 (Simulation time: 00 hr 25 min 14 sec)
Heartbeat CPU 0 instructions: 77500459 cycles: 94025140 heartbeat IPC: 0.503 cumulative IPC: 0.5242 (Simulation time: 00 hr 25 min 28 sec)
Heartbeat CPU 0 instructions: 78000464 cycles: 94821890 heartbeat IPC: 0.6276 cumulative IPC: 0.5258 (Simulation time: 00 hr 25 min 39 sec)
Heartbeat CPU 0 instructions: 78500466 cycles: 95545760 heartbeat IPC: 0.6907 cumulative IPC: 0.528 (Simulation time: 00 hr 25 min 48 sec)
Heartbeat CPU 0 instructions: 79000468 cycles: 96216095 heartbeat IPC: 0.7459 cumulative IPC: 0.5307 (Simulation time: 00 hr 25 min 57 sec)
Heartbeat CPU 0 instructions: 79500470 cycles: 97176575 heartbeat IPC: 0.5206 cumulative IPC: 0.5305 (Simulation time: 00 hr 26 min 10 sec)
Heartbeat CPU 0 instructions: 80000471 cycles: 98169048 heartbeat IPC: 0.5038 cumulative IPC: 0.53 (Simulation time: 00 hr 26 min 24 sec)
Heartbeat CPU 0 instructions: 80500473 cycles: 99161050 heartbeat IPC: 0.504 cumulative IPC: 0.5296 (Simulation time: 00 hr 26 min 37 sec)
Heartbeat CPU 0 instructions: 81000479 cycles: 100153447 heartbeat IPC: 0.5038 cumulative IPC: 0.5291 (Simulation time: 00 hr 26 min 51 sec)
Heartbeat CPU 0 instructions: 81500485 cycles: 101158824 heartbeat IPC: 0.4973 cumulative IPC: 0.5286 (Simulation time: 00 hr 27 min 05 sec)
Heartbeat CPU 0 instructions: 82000485 cycles: 102241125 heartbeat IPC: 0.462 cumulative IPC: 0.5274 (Simulation time: 00 hr 27 min 20 sec)
Heartbeat CPU 0 instructions: 82500490 cycles: 103323204 heartbeat IPC: 0.4621 cumulative IPC: 0.5263 (Simulation time: 00 hr 27 min 35 sec)
Heartbeat CPU 0 instructions: 83000493 cycles: 104327167 heartbeat IPC: 0.498 cumulative IPC: 0.5258 (Simulation time: 00 hr 27 min 49 sec)
Heartbeat CPU 0 instructions: 83500495 cycles: 105318865 heartbeat IPC: 0.5042 cumulative IPC: 0.5255 (Simulation time: 00 hr 28 min 03 sec)
Heartbeat CPU 0 instructions: 84000496 cycles: 106310865 heartbeat IPC: 0.504 cumulative IPC: 0.5251 (Simulation time: 00 hr 28 min 16 sec)
Heartbeat CPU 0 instructions: 84500498 cycles: 107304073 heartbeat IPC: 0.5034 cumulative IPC: 0.5248 (Simulation time: 00 hr 28 min 30 sec)
Heartbeat CPU 0 instructions: 85000504 cycles: 108297163 heartbeat IPC: 0.5035 cumulative IPC: 0.5245 (Simulation time: 00 hr 28 min 43 sec)
Heartbeat CPU 0 instructions: 85500507 cycles: 109288487 heartbeat IPC: 0.5044 cumulative IPC: 0.5242 (Simulation time: 00 hr 28 min 57 sec)
Heartbeat CPU 0 instructions: 86000513 cycles: 110281812 heartbeat IPC: 0.5034 cumulative IPC: 0.5239 (Simulation time: 00 hr 29 min 10 sec)
Heartbeat CPU 0 instructions: 86500517 cycles: 111274801 heartbeat IPC: 0.5035 cumulative IPC: 0.5236 (Simulation time: 00 hr 29 min 24 sec)
Heartbeat CPU 0 instructions: 87000520 cycles: 112265995 heartbeat IPC: 0.5044 cumulative IPC: 0.5233 (Simulation time: 00 hr 29 min 37 sec)
Heartbeat CPU 0 instructions: 87500520 cycles: 113259939 heartbeat IPC: 0.503 cumulative IPC: 0.5231 (Simulation time: 00 hr 29 min 51 sec)
Heartbeat CPU 0 instructions: 88000524 cycles: 114254125 heartbeat IPC: 0.5029 cumulative IPC: 0.5228 (Simulation time: 00 hr 30 min 04 sec)
Heartbeat CPU 0 instructions: 88500530 cycles: 115246926 heartbeat IPC: 0.5036 cumulative IPC: 0.5225 (Simulation time: 00 hr 30 min 18 sec)
Heartbeat CPU 0 instructions: 89000531 cycles: 116240857 heartbeat IPC: 0.5031 cumulative IPC: 0.5223 (Simulation time: 00 hr 30 min 31 sec)
Heartbeat CPU 0 instructions: 89500531 cycles: 117233075 heartbeat IPC: 0.5039 cumulative IPC: 0.522 (Simulation time: 00 hr 30 min 45 sec)
Heartbeat CPU 0 instructions: 90000536 cycles: 118225896 heartbeat IPC: 0.5036 cumulative IPC: 0.5218 (Simulation time: 00 hr 30 min 58 sec)
Heartbeat CPU 0 instructions: 90500541 cycles: 119219201 heartbeat IPC: 0.5034 cumulative IPC: 0.5216 (Simulation time: 00 hr 31 min 12 sec)
Heartbeat CPU 0 instructions: 91000542 cycles: 120211569 heartbeat IPC: 0.5038 cumulative IPC: 0.5213 (Simulation time: 00 hr 31 min 25 sec)
Heartbeat CPU 0 instructions: 91500549 cycles: 121204377 heartbeat IPC: 0.5036 cumulative IPC: 0.5211 (Simulation time: 00 hr 31 min 39 sec)
Heartbeat CPU 0 instructions: 92000551 cycles: 122198412 heartbeat IPC: 0.503 cumulative IPC: 0.5209 (Simulation time: 00 hr 31 min 52 sec)
Heartbeat CPU 0 instructions: 92500553 cycles: 123190949 heartbeat IPC: 0.5038 cumulative IPC: 0.5207 (Simulation time: 00 hr 32 min 06 sec)
Heartbeat CPU 0 instructions: 93000554 cycles: 124181963 heartbeat IPC: 0.5045 cumulative IPC: 0.5205 (Simulation time: 00 hr 32 min 19 sec)
Heartbeat CPU 0 instructions: 93500560 cycles: 125175935 heartbeat IPC: 0.503 cumulative IPC: 0.5203 (Simulation time: 00 hr 32 min 33 sec)
Heartbeat CPU 0 instructions: 94000562 cycles: 126168577 heartbeat IPC: 0.5037 cumulative IPC: 0.5201 (Simulation time: 00 hr 32 min 46 sec)
Heartbeat CPU 0 instructions: 94500564 cycles: 127162160 heartbeat IPC: 0.5032 cumulative IPC: 0.5199 (Simulation time: 00 hr 33 min 00 sec)
Heartbeat CPU 0 instructions: 95000565 cycles: 128153475 heartbeat IPC: 0.5044 cumulative IPC: 0.5197 (Simulation time: 00 hr 33 min 13 sec)
Heartbeat CPU 0 instructions: 95500571 cycles: 129147122 heartbeat IPC: 0.5032 cumulative IPC: 0.5195 (Simulation time: 00 hr 33 min 27 sec)
Heartbeat CPU 0 instructions: 96000572 cycles: 130139396 heartbeat IPC: 0.5039 cumulative IPC: 0.5194 (Simulation time: 00 hr 33 min 40 sec)
Heartbeat CPU 0 instructions: 96500575 cycles: 131131229 heartbeat IPC: 0.5041 cumulative IPC: 0.5192 (Simulation time: 00 hr 33 min 53 sec)
Heartbeat CPU 0 instructions: 97000576 cycles: 132124280 heartbeat IPC: 0.5035 cumulative IPC: 0.519 (Simulation time: 00 hr 34 min 07 sec)
Heartbeat CPU 0 instructions: 97500583 cycles: 133117916 heartbeat IPC: 0.5032 cumulative IPC: 0.5188 (Simulation time: 00 hr 34 min 20 sec)
Heartbeat CPU 0 instructions: 98000585 cycles: 134111077 heartbeat IPC: 0.5034 cumulative IPC: 0.5187 (Simulation time: 00 hr 34 min 34 sec)
Heartbeat CPU 0 instructions: 98500585 cycles: 135102528 heartbeat IPC: 0.5043 cumulative IPC: 0.5185 (Simulation time: 00 hr 34 min 47 sec)
Heartbeat CPU 0 instructions: 99000588 cycles: 136095642 heartbeat IPC: 0.5035 cumulative IPC: 0.5184 (Simulation time: 00 hr 35 min 01 sec)
Heartbeat CPU 0 instructions: 99500594 cycles: 137087931 heartbeat IPC: 0.5039 cumulative IPC: 0.5182 (Simulation time: 00 hr 35 min 14 sec)
Heartbeat CPU 0 instructions: 100000596 cycles: 138079252 heartbeat IPC: 0.5044 cumulative IPC: 0.5181 (Simulation time: 00 hr 35 min 28 sec)
Heartbeat CPU 0 instructions: 100500603 cycles: 139072489 heartbeat IPC: 0.5034 cumulative IPC: 0.5179 (Simulation time: 00 hr 35 min 41 sec)
Heartbeat CPU 0 instructions: 101000607 cycles: 140064758 heartbeat IPC: 0.5039 cumulative IPC: 0.5178 (Simulation time: 00 hr 35 min 54 sec)
Heartbeat CPU 0 instructions: 101500609 cycles: 141282648 heartbeat IPC: 0.4105 cumulative IPC: 0.5165 (Simulation time: 00 hr 36 min 07 sec)
Heartbeat CPU 0 instructions: 102000609 cycles: 141623601 heartbeat IPC: 1.466 cumulative IPC: 0.5197 (Simulation time: 00 hr 36 min 12 sec)
Heartbeat CPU 0 instructions: 102500609 cycles: 142050941 heartbeat IPC: 1.17 cumulative IPC: 0.5225 (Simulation time: 00 hr 36 min 16 sec)
Heartbeat CPU 0 instructions: 103000615 cycles: 142366993 heartbeat IPC: 1.582 cumulative IPC: 0.5258 (Simulation time: 00 hr 36 min 20 sec)
Heartbeat CPU 0 instructions: 103500616 cycles: 142633605 heartbeat IPC: 1.875 cumulative IPC: 0.5294 (Simulation time: 00 hr 36 min 24 sec)
Heartbeat CPU 0 instructions: 104000616 cycles: 143161866 heartbeat IPC: 0.9465 cumulative IPC: 0.5315 (Simulation time: 00 hr 36 min 29 sec)
Heartbeat CPU 0 instructions: 104500616 cycles: 143647333 heartbeat IPC: 1.03 cumulative IPC: 0.5339 (Simulation time: 00 hr 36 min 34 sec)
Heartbeat CPU 0 instructions: 105000616 cycles: 143887367 heartbeat IPC: 2.083 cumulative IPC: 0.5375 (Simulation time: 00 hr 36 min 37 sec)
Heartbeat CPU 0 instructions: 105500621 cycles: 144114026 heartbeat IPC: 2.206 cumulative IPC: 0.5412 (Simulation time: 00 hr 36 min 41 sec)
Heartbeat CPU 0 instructions: 106000623 cycles: 144336640 heartbeat IPC: 2.246 cumulative IPC: 0.5449 (Simulation time: 00 hr 36 min 44 sec)
Heartbeat CPU 0 instructions: 106500623 cycles: 144828641 heartbeat IPC: 1.016 cumulative IPC: 0.5472 (Simulation time: 00 hr 36 min 49 sec)
Heartbeat CPU 0 instructions: 107000624 cycles: 145311503 heartbeat IPC: 1.035 cumulative IPC: 0.5494 (Simulation time: 00 hr 36 min 53 sec)
Heartbeat CPU 0 instructions: 107500625 cycles: 146498954 heartbeat IPC: 0.4211 cumulative IPC: 0.548 (Simulation time: 00 hr 37 min 08 sec)
Heartbeat CPU 0 instructions: 108000629 cycles: 147547144 heartbeat IPC: 0.477 cumulative IPC: 0.5473 (Simulation time: 00 hr 37 min 23 sec)
Heartbeat CPU 0 instructions: 108500631 cycles: 148064129 heartbeat IPC: 0.9671 cumulative IPC: 0.5493 (Simulation time: 00 hr 37 min 30 sec)
Heartbeat CPU 0 instructions: 109000637 cycles: 148986814 heartbeat IPC: 0.5419 cumulative IPC: 0.5492 (Simulation time: 00 hr 37 min 43 sec)
Heartbeat CPU 0 instructions: 109500637 cycles: 149754827 heartbeat IPC: 0.651 cumulative IPC: 0.55 (Simulation time: 00 hr 37 min 53 sec)
Heartbeat CPU 0 instructions: 110000637 cycles: 150713295 heartbeat IPC: 0.5217 cumulative IPC: 0.5497 (Simulation time: 00 hr 38 min 07 sec)
Heartbeat CPU 0 instructions: 110500644 cycles: 151700937 heartbeat IPC: 0.5063 cumulative IPC: 0.5493 (Simulation time: 00 hr 38 min 21 sec)
Heartbeat CPU 0 instructions: 111000646 cycles: 152692559 heartbeat IPC: 0.5042 cumulative IPC: 0.5489 (Simulation time: 00 hr 38 min 35 sec)
Heartbeat CPU 0 instructions: 111500647 cycles: 153644134 heartbeat IPC: 0.5254 cumulative IPC: 0.5487 (Simulation time: 00 hr 38 min 49 sec)
Heartbeat CPU 0 instructions: 112000647 cycles: 154725576 heartbeat IPC: 0.4623 cumulative IPC: 0.5479 (Simulation time: 00 hr 39 min 04 sec)
Heartbeat CPU 0 instructions: 112500651 cycles: 155808815 heartbeat IPC: 0.4616 cumulative IPC: 0.5471 (Simulation time: 00 hr 39 min 19 sec)
Heartbeat CPU 0 instructions: 113000651 cycles: 156891575 heartbeat IPC: 0.4618 cumulative IPC: 0.5463 (Simulation time: 00 hr 39 min 34 sec)
Heartbeat CPU 0 instructions: 113500651 cycles: 157863279 heartbeat IPC: 0.5146 cumulative IPC: 0.546 (Simulation time: 00 hr 39 min 48 sec)
Heartbeat CPU 0 instructions: 114000652 cycles: 158814868 heartbeat IPC: 0.5254 cumulative IPC: 0.5459 (Simulation time: 00 hr 40 min 01 sec)
Heartbeat CPU 0 instructions: 114500655 cycles: 159372231 heartbeat IPC: 0.8971 cumulative IPC: 0.5475 (Simulation time: 00 hr 40 min 09 sec)
Heartbeat CPU 0 instructions: 115000656 cycles: 160063653 heartbeat IPC: 0.7231 cumulative IPC: 0.5485 (Simulation time: 00 hr 40 min 18 sec)
Heartbeat CPU 0 instructions: 115500657 cycles: 161022965 heartbeat IPC: 0.5212 cumulative IPC: 0.5483 (Simulation time: 00 hr 40 min 32 sec)
Heartbeat CPU 0 instructions: 116000657 cycles: 162009284 heartbeat IPC: 0.5069 cumulative IPC: 0.548 (Simulation time: 00 hr 40 min 45 sec)
Heartbeat CPU 0 instructions: 116500657 cycles: 163003226 heartbeat IPC: 0.503 cumulative IPC: 0.5476 (Simulation time: 00 hr 40 min 59 sec)
Heartbeat CPU 0 instructions: 117000660 cycles: 163995061 heartbeat IPC: 0.5041 cumulative IPC: 0.5473 (Simulation time: 00 hr 41 min 13 sec)
Heartbeat CPU 0 instructions: 117500663 cycles: 164905836 heartbeat IPC: 0.549 cumulative IPC: 0.5473 (Simulation time: 00 hr 41 min 25 sec)
Heartbeat CPU 0 instructions: 118000667 cycles: 165988058 heartbeat IPC: 0.462 cumulative IPC: 0.5465 (Simulation time: 00 hr 41 min 40 sec)
Heartbeat CPU 0 instructions: 118500669 cycles: 167071847 heartbeat IPC: 0.4613 cumulative IPC: 0.5458 (Simulation time: 00 hr 41 min 55 sec)
Heartbeat CPU 0 instructions: 119000672 cycles: 168092115 heartbeat IPC: 0.4901 cumulative IPC: 0.5453 (Simulation time: 00 hr 42 min 09 sec)
Heartbeat CPU 0 instructions: 119500672 cycles: 169086856 heartbeat IPC: 0.5026 cumulative IPC: 0.545 (Simulation time: 00 hr 42 min 23 sec)
Heartbeat CPU 0 instructions: 120000675 cycles: 169682885 heartbeat IPC: 0.8389 cumulative IPC: 0.5464 (Simulation time: 00 hr 42 min 32 sec)
Heartbeat CPU 0 instructions: 120500675 cycles: 170592294 heartbeat IPC: 0.5498 cumulative IPC: 0.5464 (Simulation time: 00 hr 42 min 44 sec)
Heartbeat CPU 0 instructions: 121000676 cycles: 171288530 heartbeat IPC: 0.7181 cumulative IPC: 0.5473 (Simulation time: 00 hr 42 min 53 sec)
Heartbeat CPU 0 instructions: 121500682 cycles: 172249281 heartbeat IPC: 0.5204 cumulative IPC: 0.5471 (Simulation time: 00 hr 43 min 07 sec)
Heartbeat CPU 0 instructions: 122000684 cycles: 173241284 heartbeat IPC: 0.504 cumulative IPC: 0.5468 (Simulation time: 00 hr 43 min 21 sec)
Heartbeat CPU 0 instructions: 122500685 cycles: 174235967 heartbeat IPC: 0.5027 cumulative IPC: 0.5465 (Simulation time: 00 hr 43 min 35 sec)
Heartbeat CPU 0 instructions: 123000689 cycles: 175174902 heartbeat IPC: 0.5325 cumulative IPC: 0.5464 (Simulation time: 00 hr 43 min 48 sec)
Heartbeat CPU 0 instructions: 123500695 cycles: 176258503 heartbeat IPC: 0.4614 cumulative IPC: 0.5457 (Simulation time: 00 hr 44 min 03 sec)
Heartbeat CPU 0 instructions: 124000695 cycles: 177342045 heartbeat IPC: 0.4614 cumulative IPC: 0.545 (Simulation time: 00 hr 44 min 18 sec)
Heartbeat CPU 0 instructions: 124500695 cycles: 178424887 heartbeat IPC: 0.4617 cumulative IPC: 0.5444 (Simulation time: 00 hr 44 min 33 sec)
Heartbeat CPU 0 instructions: 125000697 cycles: 179407958 heartbeat IPC: 0.5086 cumulative IPC: 0.5441 (Simulation time: 00 hr 44 min 46 sec)
Heartbeat CPU 0 instructions: 125500702 cycles: 180402352 heartbeat IPC: 0.5028 cumulative IPC: 0.5438 (Simulation time: 00 hr 45 min 00 sec)
Heartbeat CPU 0 instructions: 126000705 cycles: 180915992 heartbeat IPC: 0.9735 cumulative IPC: 0.5454 (Simulation time: 00 hr 45 min 08 sec)
Heartbeat CPU 0 instructions: 126500705 cycles: 181610425 heartbeat IPC: 0.72 cumulative IPC: 0.5463 (Simulation time: 00 hr 45 min 17 sec)
Heartbeat CPU 0 instructions: 127000705 cycles: 182569250 heartbeat IPC: 0.5215 cumulative IPC: 0.5461 (Simulation time: 00 hr 45 min 30 sec)
Heartbeat CPU 0 instructions: 127500706 cycles: 183562138 heartbeat IPC: 0.5036 cumulative IPC: 0.5458 (Simulation time: 00 hr 45 min 44 sec)
Heartbeat CPU 0 instructions: 128000708 cycles: 184554771 heartbeat IPC: 0.5037 cumulative IPC: 0.5455 (Simulation time: 00 hr 45 min 59 sec)
Heartbeat CPU 0 instructions: 128500708 cycles: 185548673 heartbeat IPC: 0.5031 cumulative IPC: 0.5452 (Simulation time: 00 hr 46 min 12 sec)
Heartbeat CPU 0 instructions: 129000711 cycles: 186525837 heartbeat IPC: 0.5117 cumulative IPC: 0.545 (Simulation time: 00 hr 46 min 26 sec)
Heartbeat CPU 0 instructions: 129500711 cycles: 187610224 heartbeat IPC: 0.4611 cumulative IPC: 0.5444 (Simulation time: 00 hr 46 min 41 sec)
Heartbeat CPU 0 instructions: 130000711 cycles: 188694975 heartbeat IPC: 0.4609 cumulative IPC: 0.5437 (Simulation time: 00 hr 46 min 56 sec)
Heartbeat CPU 0 instructions: 130500712 cycles: 189725698 heartbeat IPC: 0.4851 cumulative IPC: 0.5433 (Simulation time: 00 hr 47 min 10 sec)
Heartbeat CPU 0 instructions: 131000718 cycles: 190720897 heartbeat IPC: 0.5024 cumulative IPC: 0.5431 (Simulation time: 00 hr 47 min 24 sec)
Heartbeat CPU 0 instructions: 131500723 cycles: 191400354 heartbeat IPC: 0.7359 cumulative IPC: 0.5439 (Simulation time: 00 hr 47 min 34 sec)
Heartbeat CPU 0 instructions: 132000724 cycles: 192231299 heartbeat IPC: 0.6017 cumulative IPC: 0.5443 (Simulation time: 00 hr 47 min 46 sec)
Heartbeat CPU 0 instructions: 132500727 cycles: 192921172 heartbeat IPC: 0.7248 cumulative IPC: 0.5451 (Simulation time: 00 hr 47 min 55 sec)
Heartbeat CPU 0 instructions: 133000733 cycles: 193882404 heartbeat IPC: 0.5202 cumulative IPC: 0.5449 (Simulation time: 00 hr 48 min 08 sec)
Heartbeat CPU 0 instructions: 133500735 cycles: 194876359 heartbeat IPC: 0.503 cumulative IPC: 0.5447 (Simulation time: 00 hr 48 min 22 sec)
Heartbeat CPU 0 instructions: 134000735 cycles: 195870356 heartbeat IPC: 0.503 cumulative IPC: 0.5444 (Simulation time: 00 hr 48 min 36 sec)
Heartbeat CPU 0 instructions: 134500740 cycles: 196850924 heartbeat IPC: 0.5099 cumulative IPC: 0.5442 (Simulation time: 00 hr 48 min 50 sec)
Heartbeat CPU 0 instructions: 135000741 cycles: 197884906 heartbeat IPC: 0.4836 cumulative IPC: 0.5438 (Simulation time: 00 hr 49 min 04 sec)
Heartbeat CPU 0 instructions: 135500741 cycles: 198966998 heartbeat IPC: 0.4621 cumulative IPC: 0.5432 (Simulation time: 00 hr 49 min 19 sec)
Heartbeat CPU 0 instructions: 136000743 cycles: 200049993 heartbeat IPC: 0.4617 cumulative IPC: 0.5426 (Simulation time: 00 hr 49 min 34 sec)
Heartbeat CPU 0 instructions: 136500744 cycles: 201041156 heartbeat IPC: 0.5045 cumulative IPC: 0.5424 (Simulation time: 00 hr 49 min 48 sec)
Heartbeat CPU 0 instructions: 137000750 cycles: 202034471 heartbeat IPC: 0.5034 cumulative IPC: 0.5422 (Simulation time: 00 hr 50 min 02 sec)
Heartbeat CPU 0 instructions: 137500757 cycles: 202551467 heartbeat IPC: 0.9671 cumulative IPC: 0.5435 (Simulation time: 00 hr 50 min 10 sec)
Heartbeat CPU 0 instructions: 138000760 cycles: 203286981 heartbeat IPC: 0.6798 cumulative IPC: 0.5442 (Simulation time: 00 hr 50 min 20 sec)
Heartbeat CPU 0 instructions: 138500760 cycles: 204200190 heartbeat IPC: 0.5475 cumulative IPC: 0.5442 (Simulation time: 00 hr 50 min 32 sec)
Heartbeat CPU 0 instructions: 139000766 cycles: 205193583 heartbeat IPC: 0.5033 cumulative IPC: 0.5439 (Simulation time: 00 hr 50 min 46 sec)
Heartbeat CPU 0 instructions: 139500770 cycles: 206184949 heartbeat IPC: 0.5044 cumulative IPC: 0.5437 (Simulation time: 00 hr 51 min 00 sec)
Heartbeat CPU 0 instructions: 140000771 cycles: 207178596 heartbeat IPC: 0.5032 cumulative IPC: 0.5434 (Simulation time: 00 hr 51 min 14 sec)
Heartbeat CPU 0 instructions: 140500777 cycles: 208146500 heartbeat IPC: 0.5166 cumulative IPC: 0.5433 (Simulation time: 00 hr 51 min 28 sec)
Heartbeat CPU 0 instructions: 141000779 cycles: 209228469 heartbeat IPC: 0.4621 cumulative IPC: 0.5428 (Simulation time: 00 hr 51 min 43 sec)
Heartbeat CPU 0 instructions: 141500781 cycles: 210310790 heartbeat IPC: 0.462 cumulative IPC: 0.5422 (Simulation time: 00 hr 51 min 57 sec)
Heartbeat CPU 0 instructions: 142000783 cycles: 211351497 heartbeat IPC: 0.4804 cumulative IPC: 0.5419 (Simulation time: 00 hr 52 min 12 sec)
Heartbeat CPU 0 instructions: 142500783 cycles: 212346914 heartbeat IPC: 0.5023 cumulative IPC: 0.5416 (Simulation time: 00 hr 52 min 25 sec)
Heartbeat CPU 0 instructions: 143000789 cycles: 213104816 heartbeat IPC: 0.6597 cumulative IPC: 0.5422 (Simulation time: 00 hr 52 min 36 sec)
Heartbeat CPU 0 instructions: 143500796 cycles: 213855922 heartbeat IPC: 0.6657 cumulative IPC: 0.5427 (Simulation time: 00 hr 52 min 46 sec)
Heartbeat CPU 0 instructions: 144000797 cycles: 214547906 heartbeat IPC: 0.7226 cumulative IPC: 0.5434 (Simulation time: 00 hr 52 min 56 sec)
Heartbeat CPU 0 instructions: 144500799 cycles: 215508767 heartbeat IPC: 0.5204 cumulative IPC: 0.5433 (Simulation time: 00 hr 53 min 09 sec)
Heartbeat CPU 0 instructions: 145000806 cycles: 216502435 heartbeat IPC: 0.5032 cumulative IPC: 0.5431 (Simulation time: 00 hr 53 min 23 sec)
Heartbeat CPU 0 instructions: 145500806 cycles: 217497193 heartbeat IPC: 0.5026 cumulative IPC: 0.5428 (Simulation time: 00 hr 53 min 37 sec)
Heartbeat CPU 0 instructions: 146000806 cycles: 218490528 heartbeat IPC: 0.5034 cumulative IPC: 0.5426 (Simulation time: 00 hr 53 min 50 sec)
Heartbeat CPU 0 instructions: 146500809 cycles: 219500895 heartbeat IPC: 0.4949 cumulative IPC: 0.5423 (Simulation time: 00 hr 54 min 04 sec)
Heartbeat CPU 0 instructions: 147000809 cycles: 220584632 heartbeat IPC: 0.4614 cumulative IPC: 0.5418 (Simulation time: 00 hr 54 min 18 sec)
Heartbeat CPU 0 instructions: 147500810 cycles: 221667533 heartbeat IPC: 0.4617 cumulative IPC: 0.5414 (Simulation time: 00 hr 54 min 33 sec)
Heartbeat CPU 0 instructions: 148000810 cycles: 222667578 heartbeat IPC: 0.5 cumulative IPC: 0.5411 (Simulation time: 00 hr 54 min 47 sec)
Heartbeat CPU 0 instructions: 148500814 cycles: 223662615 heartbeat IPC: 0.5025 cumulative IPC: 0.5409 (Simulation time: 00 hr 55 min 00 sec)
Heartbeat CPU 0 instructions: 149000821 cycles: 224177993 heartbeat IPC: 0.9702 cumulative IPC: 0.5421 (Simulation time: 00 hr 55 min 07 sec)
Heartbeat CPU 0 instructions: 149500826 cycles: 224995069 heartbeat IPC: 0.6119 cumulative IPC: 0.5424 (Simulation time: 00 hr 55 min 18 sec)
Heartbeat CPU 0 instructions: 150000833 cycles: 225857978 heartbeat IPC: 0.5794 cumulative IPC: 0.5426 (Simulation time: 00 hr 55 min 29 sec)
Heartbeat CPU 0 instructions: 150500833 cycles: 226818335 heartbeat IPC: 0.5206 cumulative IPC: 0.5425 (Simulation time: 00 hr 55 min 42 sec)
Heartbeat CPU 0 instructions: 151000838 cycles: 227813525 heartbeat IPC: 0.5024 cumulative IPC: 0.5423 (Simulation time: 00 hr 55 min 56 sec)
Heartbeat CPU 0 instructions: 151500843 cycles: 228805790 heartbeat IPC: 0.5039 cumulative IPC: 0.5421 (Simulation time: 00 hr 56 min 10 sec)
Heartbeat CPU 0 instructions: 152000847 cycles: 229764975 heartbeat IPC: 0.5213 cumulative IPC: 0.542 (Simulation time: 00 hr 56 min 24 sec)
Heartbeat CPU 0 instructions: 152500847 cycles: 230849847 heartbeat IPC: 0.4609 cumulative IPC: 0.5415 (Simulation time: 00 hr 56 min 39 sec)
Heartbeat CPU 0 instructions: 153000853 cycles: 231932059 heartbeat IPC: 0.462 cumulative IPC: 0.5411 (Simulation time: 00 hr 56 min 54 sec)
Heartbeat CPU 0 instructions: 153500860 cycles: 232984165 heartbeat IPC: 0.4752 cumulative IPC: 0.5407 (Simulation time: 00 hr 57 min 08 sec)
Heartbeat CPU 0 instructions: 154000867 cycles: 233979034 heartbeat IPC: 0.5026 cumulative IPC: 0.5405 (Simulation time: 00 hr 57 min 23 sec)
Heartbeat CPU 0 instructions: 154500869 cycles: 234819728 heartbeat IPC: 0.5947 cumulative IPC: 0.5407 (Simulation time: 00 hr 57 min 35 sec)
Heartbeat CPU 0 instructions: 155000871 cycles: 235488398 heartbeat IPC: 0.7478 cumulative IPC: 0.5415 (Simulation time: 00 hr 57 min 44 sec)
Heartbeat CPU 0 instructions: 155500872 cycles: 236177483 heartbeat IPC: 0.7256 cumulative IPC: 0.5421 (Simulation time: 00 hr 57 min 54 sec)
Heartbeat CPU 0 instructions: 156000872 cycles: 237139599 heartbeat IPC: 0.5197 cumulative IPC: 0.542 (Simulation time: 00 hr 58 min 07 sec)
Heartbeat CPU 0 instructions: 156500872 cycles: 238133426 heartbeat IPC: 0.5031 cumulative IPC: 0.5418 (Simulation time: 00 hr 58 min 20 sec)
Heartbeat CPU 0 instructions: 157000879 cycles: 239126551 heartbeat IPC: 0.5035 cumulative IPC: 0.5416 (Simulation time: 00 hr 58 min 34 sec)
Heartbeat CPU 0 instructions: 157500879 cycles: 240122007 heartbeat IPC: 0.5023 cumulative IPC: 0.5414 (Simulation time: 00 hr 58 min 48 sec)
Heartbeat CPU 0 instructions: 158000879 cycles: 241123793 heartbeat IPC: 0.4991 cumulative IPC: 0.5412 (Simulation time: 00 hr 59 min 02 sec)
Heartbeat CPU 0 instructions: 158500879 cycles: 242206646 heartbeat IPC: 0.4617 cumulative IPC: 0.5408 (Simulation time: 00 hr 59 min 17 sec)
Heartbeat CPU 0 instructions: 159000880 cycles: 243289133 heartbeat IPC: 0.4619 cumulative IPC: 0.5403 (Simulation time: 00 hr 59 min 32 sec)
Heartbeat CPU 0 instructions: 159500881 cycles: 244301179 heartbeat IPC: 0.494 cumulative IPC: 0.5401 (Simulation time: 00 hr 59 min 46 sec)
Heartbeat CPU 0 instructions: 160000881 cycles: 245298012 heartbeat IPC: 0.5016 cumulative IPC: 0.5399 (Simulation time: 01 hr 00 min 00 sec)
Heartbeat CPU 0 instructions: 160500884 cycles: 245813116 heartbeat IPC: 0.9707 cumulative IPC: 0.541 (Simulation time: 01 hr 00 min 07 sec)
Heartbeat CPU 0 instructions: 161000884 cycles: 246714831 heartbeat IPC: 0.5545 cumulative IPC: 0.5411 (Simulation time: 01 hr 00 min 19 sec)
Heartbeat CPU 0 instructions: 161500885 cycles: 247493174 heartbeat IPC: 0.6424 cumulative IPC: 0.5415 (Simulation time: 01 hr 00 min 30 sec)
Heartbeat CPU 0 instructions: 162000885 cycles: 248454929 heartbeat IPC: 0.5199 cumulative IPC: 0.5414 (Simulation time: 01 hr 00 min 43 sec)
Heartbeat CPU 0 instructions: 162500892 cycles: 249448255 heartbeat IPC: 0.5034 cumulative IPC: 0.5412 (Simulation time: 01 hr 00 min 56 sec)
Heartbeat CPU 0 instructions: 163000894 cycles: 250445279 heartbeat IPC: 0.5015 cumulative IPC: 0.541 (Simulation time: 01 hr 01 min 10 sec)
Heartbeat CPU 0 instructions: 163500895 cycles: 251297501 heartbeat IPC: 0.5867 cumulative IPC: 0.5412 (Simulation time: 01 hr 01 min 23 sec)
Heartbeat CPU 0 instructions: 164000897 cycles: 252122812 heartbeat IPC: 0.6058 cumulative IPC: 0.5414 (Simulation time: 01 hr 01 min 36 sec)
Heartbeat CPU 0 instructions: 164500897 cycles: 252950982 heartbeat IPC: 0.6037 cumulative IPC: 0.5417 (Simulation time: 01 hr 01 min 50 sec)
Heartbeat CPU 0 instructions: 165000898 cycles: 253776621 heartbeat IPC: 0.6056 cumulative IPC: 0.5419 (Simulation time: 01 hr 02 min 03 sec)
Heartbeat CPU 0 instructions: 165500898 cycles: 254528053 heartbeat IPC: 0.6654 cumulative IPC: 0.5424 (Simulation time: 01 hr 02 min 15 sec)
Heartbeat CPU 0 instructions: 166000905 cycles: 255244283 heartbeat IPC: 0.6981 cumulative IPC: 0.5429 (Simulation time: 01 hr 02 min 26 sec)
Heartbeat CPU 0 instructions: 166500907 cycles: 255727846 heartbeat IPC: 1.034 cumulative IPC: 0.544 (Simulation time: 01 hr 02 min 34 sec)
Heartbeat CPU 0 instructions: 167000910 cycles: 256293250 heartbeat IPC: 0.8843 cumulative IPC: 0.5449 (Simulation time: 01 hr 02 min 42 sec)
Heartbeat CPU 0 instructions: 167500917 cycles: 257031270 heartbeat IPC: 0.6775 cumulative IPC: 0.5453 (Simulation time: 01 hr 02 min 53 sec)
Heartbeat CPU 0 instructions: 168000919 cycles: 257800598 heartbeat IPC: 0.6499 cumulative IPC: 0.5457 (Simulation time: 01 hr 03 min 04 sec)
Heartbeat CPU 0 instructions: 168500919 cycles: 258568676 heartbeat IPC: 0.651 cumulative IPC: 0.5461 (Simulation time: 01 hr 03 min 16 sec)
Heartbeat CPU 0 instructions: 169000920 cycles: 259333902 heartbeat IPC: 0.6534 cumulative IPC: 0.5465 (Simulation time: 01 hr 03 min 27 sec)
Heartbeat CPU 0 instructions: 169500921 cycles: 260100065 heartbeat IPC: 0.6526 cumulative IPC: 0.5468 (Simulation time: 01 hr 03 min 39 sec)
Heartbeat CPU 0 instructions: 170000925 cycles: 260927045 heartbeat IPC: 0.6046 cumulative IPC: 0.547 (Simulation time: 01 hr 03 min 53 sec)
Heartbeat CPU 0 instructions: 170500926 cycles: 261756136 heartbeat IPC: 0.6031 cumulative IPC: 0.5473 (Simulation time: 01 hr 04 min 06 sec)
Heartbeat CPU 0 instructions: 171000930 cycles: 262537005 heartbeat IPC: 0.6403 cumulative IPC: 0.5476 (Simulation time: 01 hr 04 min 18 sec)
Heartbeat CPU 0 instructions: 171500931 cycles: 263299747 heartbeat IPC: 0.6555 cumulative IPC: 0.548 (Simulation time: 01 hr 04 min 30 sec)
Heartbeat CPU 0 instructions: 172000934 cycles: 263761996 heartbeat IPC: 1.082 cumulative IPC: 0.5491 (Simulation time: 01 hr 04 min 37 sec)
Heartbeat CPU 0 instructions: 172500935 cycles: 264481801 heartbeat IPC: 0.6946 cumulative IPC: 0.5495 (Simulation time: 01 hr 04 min 47 sec)
Heartbeat CPU 0 instructions: 173000938 cycles: 265056739 heartbeat IPC: 0.8697 cumulative IPC: 0.5504 (Simulation time: 01 hr 04 min 56 sec)
Heartbeat CPU 0 instructions: 173500942 cycles: 265793181 heartbeat IPC: 0.6789 cumulative IPC: 0.5508 (Simulation time: 01 hr 05 min 06 sec)
Heartbeat CPU 0 instructions: 174000944 cycles: 266555914 heartbeat IPC: 0.6555 cumulative IPC: 0.5511 (Simulation time: 01 hr 05 min 18 sec)
Heartbeat CPU 0 instructions: 174500951 cycles: 267315011 heartbeat IPC: 0.6587 cumulative IPC: 0.5515 (Simulation time: 01 hr 05 min 29 sec)
Heartbeat CPU 0 instructions: 175000951 cycles: 268045165 heartbeat IPC: 0.6848 cumulative IPC: 0.5519 (Simulation time: 01 hr 05 min 40 sec)
Heartbeat CPU 0 instructions: 175500951 cycles: 268871188 heartbeat IPC: 0.6053 cumulative IPC: 0.5521 (Simulation time: 01 hr 05 min 54 sec)
Heartbeat CPU 0 instructions: 176000953 cycles: 269698790 heartbeat IPC: 0.6042 cumulative IPC: 0.5523 (Simulation time: 01 hr 06 min 07 sec)
Heartbeat CPU 0 instructions: 176500954 cycles: 270526563 heartbeat IPC: 0.604 cumulative IPC: 0.5525 (Simulation time: 01 hr 06 min 21 sec)
Heartbeat CPU 0 instructions: 177000957 cycles: 271279239 heartbeat IPC: 0.6643 cumulative IPC: 0.5529 (Simulation time: 01 hr 06 min 32 sec)
Heartbeat CPU 0 instructions: 177500961 cycles: 272045603 heartbeat IPC: 0.6524 cumulative IPC: 0.5532 (Simulation time: 01 hr 06 min 44 sec)
Heartbeat CPU 0 instructions: 178000964 cycles: 272472634 heartbeat IPC: 1.171 cumulative IPC: 0.5543 (Simulation time: 01 hr 06 min 50 sec)
Heartbeat CPU 0 instructions: 178500966 cycles: 273040035 heartbeat IPC: 0.8812 cumulative IPC: 0.5551 (Simulation time: 01 hr 06 min 59 sec)
Heartbeat CPU 0 instructions: 179000967 cycles: 273784974 heartbeat IPC: 0.6712 cumulative IPC: 0.5555 (Simulation time: 01 hr 07 min 10 sec)
Heartbeat CPU 0 instructions: 179500967 cycles: 274553279 heartbeat IPC: 0.6508 cumulative IPC: 0.5558 (Simulation time: 01 hr 07 min 21 sec)
Heartbeat CPU 0 instructions: 180000970 cycles: 275320087 heartbeat IPC: 0.6521 cumulative IPC: 0.5561 (Simulation time: 01 hr 07 min 33 sec)
Heartbeat CPU 0 instructions: 180500970 cycles: 276085301 heartbeat IPC: 0.6534 cumulative IPC: 0.5565 (Simulation time: 01 hr 07 min 44 sec)
Heartbeat CPU 0 instructions: 181000971 cycles: 276849418 heartbeat IPC: 0.6544 cumulative IPC: 0.5568 (Simulation time: 01 hr 07 min 56 sec)
Heartbeat CPU 0 instructions: 181500971 cycles: 277677676 heartbeat IPC: 0.6037 cumulative IPC: 0.5569 (Simulation time: 01 hr 08 min 10 sec)
Heartbeat CPU 0 instructions: 182000978 cycles: 278504299 heartbeat IPC: 0.6049 cumulative IPC: 0.5571 (Simulation time: 01 hr 08 min 24 sec)
Heartbeat CPU 0 instructions: 182500980 cycles: 279293040 heartbeat IPC: 0.6339 cumulative IPC: 0.5574 (Simulation time: 01 hr 08 min 36 sec)
Heartbeat CPU 0 instructions: 183000980 cycles: 280057998 heartbeat IPC: 0.6536 cumulative IPC: 0.5577 (Simulation time: 01 hr 08 min 48 sec)
Heartbeat CPU 0 instructions: 183500980 cycles: 280575860 heartbeat IPC: 0.9655 cumulative IPC: 0.5586 (Simulation time: 01 hr 08 min 56 sec)
Heartbeat CPU 0 instructions: 184000984 cycles: 281258977 heartbeat IPC: 0.7319 cumulative IPC: 0.5591 (Simulation time: 01 hr 09 min 06 sec)
Heartbeat CPU 0 instructions: 184500984 cycles: 281818634 heartbeat IPC: 0.8934 cumulative IPC: 0.5598 (Simulation time: 01 hr 09 min 14 sec)
Heartbeat CPU 0 instructions: 185000985 cycles: 282560731 heartbeat IPC: 0.6738 cumulative IPC: 0.5602 (Simulation time: 01 hr 09 min 25 sec)
Heartbeat CPU 0 instructions: 185500985 cycles: 283330040 heartbeat IPC: 0.6499 cumulative IPC: 0.5605 (Simulation time: 01 hr 09 min 37 sec)
Heartbeat CPU 0 instructions: 186000991 cycles: 284092393 heartbeat IPC: 0.6559 cumulative IPC: 0.5608 (Simulation time: 01 hr 09 min 48 sec)
Heartbeat CPU 0 instructions: 186500996 cycles: 284828779 heartbeat IPC: 0.679 cumulative IPC: 0.5611 (Simulation time: 01 hr 09 min 59 sec)
Heartbeat CPU 0 instructions: 187000997 cycles: 285647223 heartbeat IPC: 0.6109 cumulative IPC: 0.5613 (Simulation time: 01 hr 10 min 13 sec)
Heartbeat CPU 0 instructions: 187500997 cycles: 286475513 heartbeat IPC: 0.6037 cumulative IPC: 0.5614 (Simulation time: 01 hr 10 min 27 sec)
Heartbeat CPU 0 instructions: 188001002 cycles: 287303210 heartbeat IPC: 0.6041 cumulative IPC: 0.5616 (Simulation time: 01 hr 10 min 41 sec)
Heartbeat CPU 0 instructions: 188501002 cycles: 288061513 heartbeat IPC: 0.6594 cumulative IPC: 0.5619 (Simulation time: 01 hr 10 min 52 sec)
Heartbeat CPU 0 instructions: 189001002 cycles: 288828794 heartbeat IPC: 0.6517 cumulative IPC: 0.5622 (Simulation time: 01 hr 11 min 04 sec)
Heartbeat CPU 0 instructions: 189501007 cycles: 289269458 heartbeat IPC: 1.135 cumulative IPC: 0.5632 (Simulation time: 01 hr 11 min 11 sec)
Heartbeat CPU 0 instructions: 190001013 cycles: 289833473 heartbeat IPC: 0.8865 cumulative IPC: 0.5639 (Simulation time: 01 hr 11 min 20 sec)
Heartbeat CPU 0 instructions: 190501016 cycles: 290570735 heartbeat IPC: 0.6782 cumulative IPC: 0.5643 (Simulation time: 01 hr 11 min 30 sec)
Heartbeat CPU 0 instructions: 191001016 cycles: 291335819 heartbeat IPC: 0.6535 cumulative IPC: 0.5645 (Simulation time: 01 hr 11 min 42 sec)
Heartbeat CPU 0 instructions: 191501020 cycles: 292100530 heartbeat IPC: 0.6538 cumulative IPC: 0.5648 (Simulation time: 01 hr 11 min 53 sec)
Heartbeat CPU 0 instructions: 192001021 cycles: 292861872 heartbeat IPC: 0.6567 cumulative IPC: 0.5651 (Simulation time: 01 hr 12 min 05 sec)
Heartbeat CPU 0 instructions: 192501025 cycles: 293616209 heartbeat IPC: 0.6628 cumulative IPC: 0.5654 (Simulation time: 01 hr 12 min 17 sec)
Heartbeat CPU 0 instructions: 193001025 cycles: 294443883 heartbeat IPC: 0.6041 cumulative IPC: 0.5655 (Simulation time: 01 hr 12 min 30 sec)
Heartbeat CPU 0 instructions: 193501030 cycles: 295270482 heartbeat IPC: 0.6049 cumulative IPC: 0.5656 (Simulation time: 01 hr 12 min 43 sec)
Heartbeat CPU 0 instructions: 194001031 cycles: 296065918 heartbeat IPC: 0.6286 cumulative IPC: 0.5658 (Simulation time: 01 hr 12 min 55 sec)
Heartbeat CPU 0 instructions: 194501031 cycles: 296825868 heartbeat IPC: 0.6579 cumulative IPC: 0.5661 (Simulation time: 01 hr 13 min 06 sec)
Heartbeat CPU 0 instructions: 195001032 cycles: 297401641 heartbeat IPC: 0.8684 cumulative IPC: 0.5668 (Simulation time: 01 hr 13 min 15 sec)
Heartbeat CPU 0 instructions: 195501034 cycles: 298023951 heartbeat IPC: 0.8035 cumulative IPC: 0.5673 (Simulation time: 01 hr 13 min 24 sec)
Heartbeat CPU 0 instructions: 196001035 cycles: 298584371 heartbeat IPC: 0.8922 cumulative IPC: 0.5681 (Simulation time: 01 hr 13 min 33 sec)
Heartbeat CPU 0 instructions: 196501035 cycles: 299322810 heartbeat IPC: 0.6771 cumulative IPC: 0.5684 (Simulation time: 01 hr 13 min 43 sec)
Heartbeat CPU 0 instructions: 197001036 cycles: 300089640 heartbeat IPC: 0.652 cumulative IPC: 0.5686 (Simulation time: 01 hr 13 min 54 sec)
Heartbeat CPU 0 instructions: 197501042 cycles: 300852530 heartbeat IPC: 0.6554 cumulative IPC: 0.5689 (Simulation time: 01 hr 14 min 06 sec)
Heartbeat CPU 0 instructions: 198001042 cycles: 301613350 heartbeat IPC: 0.6572 cumulative IPC: 0.5691 (Simulation time: 01 hr 14 min 17 sec)
Heartbeat CPU 0 instructions: 198501045 cycles: 302395624 heartbeat IPC: 0.6392 cumulative IPC: 0.5693 (Simulation time: 01 hr 14 min 29 sec)
Heartbeat CPU 0 instructions: 199001045 cycles: 303223193 heartbeat IPC: 0.6042 cumulative IPC: 0.5695 (Simulation time: 01 hr 14 min 42 sec)
Heartbeat CPU 0 instructions: 199501046 cycles: 304048946 heartbeat IPC: 0.6055 cumulative IPC: 0.5696 (Simulation time: 01 hr 14 min 55 sec)
Heartbeat CPU 0 instructions: 200001046 cycles: 304815259 heartbeat IPC: 0.6525 cumulative IPC: 0.5698 (Simulation time: 01 hr 15 min 07 sec)
Heartbeat CPU 0 instructions: 200501048 cycles: 305577037 heartbeat IPC: 0.6564 cumulative IPC: 0.5701 (Simulation time: 01 hr 15 min 19 sec)
Heartbeat CPU 0 instructions: 201001049 cycles: 306005635 heartbeat IPC: 1.167 cumulative IPC: 0.571 (Simulation time: 01 hr 15 min 25 sec)
Heartbeat CPU 0 instructions: 201501049 cycles: 306630998 heartbeat IPC: 0.7995 cumulative IPC: 0.5716 (Simulation time: 01 hr 15 min 34 sec)
Heartbeat CPU 0 instructions: 202001053 cycles: 307327865 heartbeat IPC: 0.7175 cumulative IPC: 0.5719 (Simulation time: 01 hr 15 min 44 sec)
Heartbeat CPU 0 instructions: 202501055 cycles: 308071560 heartbeat IPC: 0.6723 cumulative IPC: 0.5722 (Simulation time: 01 hr 15 min 55 sec)
Heartbeat CPU 0 instructions: 203001055 cycles: 308838214 heartbeat IPC: 0.6522 cumulative IPC: 0.5725 (Simulation time: 01 hr 16 min 07 sec)
Heartbeat CPU 0 instructions: 203501057 cycles: 309601061 heartbeat IPC: 0.6554 cumulative IPC: 0.5727 (Simulation time: 01 hr 16 min 18 sec)
Heartbeat CPU 0 instructions: 204001059 cycles: 310349432 heartbeat IPC: 0.6681 cumulative IPC: 0.573 (Simulation time: 01 hr 16 min 30 sec)
Heartbeat CPU 0 instructions: 204501063 cycles: 311175408 heartbeat IPC: 0.6053 cumulative IPC: 0.5731 (Simulation time: 01 hr 16 min 43 sec)
Heartbeat CPU 0 instructions: 205001064 cycles: 312001904 heartbeat IPC: 0.605 cumulative IPC: 0.5732 (Simulation time: 01 hr 16 min 56 sec)
Heartbeat CPU 0 instructions: 205501066 cycles: 312802757 heartbeat IPC: 0.6243 cumulative IPC: 0.5733 (Simulation time: 01 hr 17 min 08 sec)
Heartbeat CPU 0 instructions: 206001069 cycles: 313562679 heartbeat IPC: 0.658 cumulative IPC: 0.5735 (Simulation time: 01 hr 17 min 19 sec)
Heartbeat CPU 0 instructions: 206501072 cycles: 314199562 heartbeat IPC: 0.7851 cumulative IPC: 0.574 (Simulation time: 01 hr 17 min 29 sec)
Heartbeat CPU 0 instructions: 207001075 cycles: 314761742 heartbeat IPC: 0.8894 cumulative IPC: 0.5747 (Simulation time: 01 hr 17 min 37 sec)
Heartbeat CPU 0 instructions: 207501076 cycles: 315329989 heartbeat IPC: 0.8799 cumulative IPC: 0.5753 (Simulation time: 01 hr 17 min 45 sec)
Heartbeat CPU 0 instructions: 208001079 cycles: 316071406 heartbeat IPC: 0.6744 cumulative IPC: 0.5756 (Simulation time: 01 hr 17 min 56 sec)
Heartbeat CPU 0 instructions: 208501080 cycles: 316839317 heartbeat IPC: 0.6511 cumulative IPC: 0.5758 (Simulation time: 01 hr 18 min 07 sec)
Heartbeat CPU 0 instructions: 209001083 cycles: 317603258 heartbeat IPC: 0.6545 cumulative IPC: 0.576 (Simulation time: 01 hr 18 min 18 sec)
Heartbeat CPU 0 instructions: 209501083 cycles: 318367585 heartbeat IPC: 0.6542 cumulative IPC: 0.5762 (Simulation time: 01 hr 18 min 29 sec)
Heartbeat CPU 0 instructions: 210001083 cycles: 319143218 heartbeat IPC: 0.6446 cumulative IPC: 0.5764 (Simulation time: 01 hr 18 min 41 sec)
Heartbeat CPU 0 instructions: 210501083 cycles: 319970399 heartbeat IPC: 0.6045 cumulative IPC: 0.5765 (Simulation time: 01 hr 18 min 54 sec)
Heartbeat CPU 0 instructions: 211001088 cycles: 320795827 heartbeat IPC: 0.6058 cumulative IPC: 0.5766 (Simulation time: 01 hr 19 min 07 sec)
Heartbeat CPU 0 instructions: 211501093 cycles: 321567265 heartbeat IPC: 0.6481 cumulative IPC: 0.5768 (Simulation time: 01 hr 19 min 18 sec)
Heartbeat CPU 0 instructions: 212001099 cycles: 322327539 heartbeat IPC: 0.6577 cumulative IPC: 0.577 (Simulation time: 01 hr 19 min 30 sec)
Heartbeat CPU 0 instructions: 212501100 cycles: 322756701 heartbeat IPC: 1.165 cumulative IPC: 0.5779 (Simulation time: 01 hr 19 min 36 sec)
Heartbeat CPU 0 instructions: 213001105 cycles: 323451680 heartbeat IPC: 0.7195 cumulative IPC: 0.5783 (Simulation time: 01 hr 19 min 46 sec)
Heartbeat CPU 0 instructions: 213501107 cycles: 324085302 heartbeat IPC: 0.7891 cumulative IPC: 0.5787 (Simulation time: 01 hr 19 min 55 sec)
Heartbeat CPU 0 instructions: 214001107 cycles: 324827305 heartbeat IPC: 0.6739 cumulative IPC: 0.579 (Simulation time: 01 hr 20 min 05 sec)
Heartbeat CPU 0 instructions: 214501108 cycles: 325592596 heartbeat IPC: 0.6533 cumulative IPC: 0.5792 (Simulation time: 01 hr 20 min 16 sec)
Heartbeat CPU 0 instructions: 215001111 cycles: 326354168 heartbeat IPC: 0.6565 cumulative IPC: 0.5794 (Simulation time: 01 hr 20 min 27 sec)
Heartbeat CPU 0 instructions: 215501111 cycles: 327090628 heartbeat IPC: 0.6789 cumulative IPC: 0.5796 (Simulation time: 01 hr 20 min 38 sec)
Heartbeat CPU 0 instructions: 216001117 cycles: 327916983 heartbeat IPC: 0.6051 cumulative IPC: 0.5797 (Simulation time: 01 hr 20 min 51 sec)
Heartbeat CPU 0 instructions: 216501118 cycles: 328742911 heartbeat IPC: 0.6054 cumulative IPC: 0.5798 (Simulation time: 01 hr 21 min 03 sec)
Heartbeat CPU 0 instructions: 217001118 cycles: 329569603 heartbeat IPC: 0.6048 cumulative IPC: 0.5799 (Simulation time: 01 hr 21 min 15 sec)
Heartbeat CPU 0 instructions: 217501122 cycles: 330311318 heartbeat IPC: 0.6741 cumulative IPC: 0.5801 (Simulation time: 01 hr 21 min 25 sec)
Heartbeat CPU 0 instructions: 218001124 cycles: 331000356 heartbeat IPC: 0.7257 cumulative IPC: 0.5804 (Simulation time: 01 hr 21 min 35 sec)
Heartbeat CPU 0 instructions: 218501126 cycles: 331499098 heartbeat IPC: 1.003 cumulative IPC: 0.5812 (Simulation time: 01 hr 21 min 42 sec)
Heartbeat CPU 0 instructions: 219001128 cycles: 332062890 heartbeat IPC: 0.8869 cumulative IPC: 0.5818 (Simulation time: 01 hr 21 min 50 sec)
Heartbeat CPU 0 instructions: 219501129 cycles: 332800034 heartbeat IPC: 0.6783 cumulative IPC: 0.582 (Simulation time: 01 hr 22 min 00 sec)
Heartbeat CPU 0 instructions: 220001133 cycles: 333567043 heartbeat IPC: 0.6519 cumulative IPC: 0.5822 (Simulation time: 01 hr 22 min 11 sec)
Heartbeat CPU 0 instructions: 220501133 cycles: 334329175 heartbeat IPC: 0.6561 cumulative IPC: 0.5824 (Simulation time: 01 hr 22 min 22 sec)
Heartbeat CPU 0 instructions: 221001133 cycles: 335092878 heartbeat IPC: 0.6547 cumulative IPC: 0.5826 (Simulation time: 01 hr 22 min 33 sec)
Heartbeat CPU 0 instructions: 221501133 cycles: 335862058 heartbeat IPC: 0.65 cumulative IPC: 0.5828 (Simulation time: 01 hr 22 min 44 sec)
Heartbeat CPU 0 instructions: 222001135 cycles: 336689061 heartbeat IPC: 0.6046 cumulative IPC: 0.5828 (Simulation time: 01 hr 22 min 56 sec)
Heartbeat CPU 0 instructions: 222501136 cycles: 337515545 heartbeat IPC: 0.605 cumulative IPC: 0.5829 (Simulation time: 01 hr 23 min 08 sec)
Heartbeat CPU 0 instructions: 223001142 cycles: 338293195 heartbeat IPC: 0.643 cumulative IPC: 0.583 (Simulation time: 01 hr 23 min 19 sec)
Heartbeat CPU 0 instructions: 223501143 cycles: 339052324 heartbeat IPC: 0.6587 cumulative IPC: 0.5832 (Simulation time: 01 hr 23 min 30 sec)
Heartbeat CPU 0 instructions: 224001143 cycles: 339491292 heartbeat IPC: 1.139 cumulative IPC: 0.584 (Simulation time: 01 hr 23 min 36 sec)
Heartbeat CPU 0 instructions: 224501150 cycles: 340217173 heartbeat IPC: 0.6888 cumulative IPC: 0.5843 (Simulation time: 01 hr 23 min 46 sec)
Heartbeat CPU 0 instructions: 225001150 cycles: 340796545 heartbeat IPC: 0.863 cumulative IPC: 0.5848 (Simulation time: 01 hr 23 min 54 sec)
Heartbeat CPU 0 instructions: 225501156 cycles: 341535396 heartbeat IPC: 0.6767 cumulative IPC: 0.5851 (Simulation time: 01 hr 24 min 04 sec)
Heartbeat CPU 0 instructions: 226001156 cycles: 342300962 heartbeat IPC: 0.6531 cumulative IPC: 0.5852 (Simulation time: 01 hr 24 min 14 sec)
Heartbeat CPU 0 instructions: 226501163 cycles: 343060548 heartbeat IPC: 0.6583 cumulative IPC: 0.5854 (Simulation time: 01 hr 24 min 25 sec)
Heartbeat CPU 0 instructions: 227001165 cycles: 343790926 heartbeat IPC: 0.6846 cumulative IPC: 0.5857 (Simulation time: 01 hr 24 min 36 sec)
Heartbeat CPU 0 instructions: 227501167 cycles: 344616513 heartbeat IPC: 0.6056 cumulative IPC: 0.5857 (Simulation time: 01 hr 24 min 48 sec)
Heartbeat CPU 0 instructions: 228001174 cycles: 345440932 heartbeat IPC: 0.6065 cumulative IPC: 0.5858 (Simulation time: 01 hr 25 min 00 sec)
Heartbeat CPU 0 instructions: 228501180 cycles: 346264723 heartbeat IPC: 0.607 cumulative IPC: 0.5858 (Simulation time: 01 hr 25 min 12 sec)
Heartbeat CPU 0 instructions: 229001183 cycles: 347013129 heartbeat IPC: 0.6681 cumulative IPC: 0.586 (Simulation time: 01 hr 25 min 22 sec)
Heartbeat CPU 0 instructions: 229501188 cycles: 347762551 heartbeat IPC: 0.6672 cumulative IPC: 0.5862 (Simulation time: 01 hr 25 min 33 sec)
Heartbeat CPU 0 instructions: 230001193 cycles: 348204095 heartbeat IPC: 1.132 cumulative IPC: 0.587 (Simulation time: 01 hr 25 min 39 sec)
Heartbeat CPU 0 instructions: 230501194 cycles: 348761516 heartbeat IPC: 0.897 cumulative IPC: 0.5876 (Simulation time: 01 hr 25 min 47 sec)
Heartbeat CPU 0 instructions: 231001195 cycles: 349500514 heartbeat IPC: 0.6766 cumulative IPC: 0.5878 (Simulation time: 01 hr 25 min 56 sec)
Heartbeat CPU 0 instructions: 231501195 cycles: 350263306 heartbeat IPC: 0.6555 cumulative IPC: 0.588 (Simulation time: 01 hr 26 min 07 sec)
Heartbeat CPU 0 instructions: 232001196 cycles: 351025530 heartbeat IPC: 0.656 cumulative IPC: 0.5881 (Simulation time: 01 hr 26 min 17 sec)
Heartbeat CPU 0 instructions: 232501196 cycles: 351783325 heartbeat IPC: 0.6598 cumulative IPC: 0.5883 (Simulation time: 01 hr 26 min 28 sec)
Heartbeat CPU 0 instructions: 233001201 cycles: 352542530 heartbeat IPC: 0.6586 cumulative IPC: 0.5885 (Simulation time: 01 hr 26 min 39 sec)
Heartbeat CPU 0 instructions: 233501203 cycles: 353368677 heartbeat IPC: 0.6052 cumulative IPC: 0.5885 (Simulation time: 01 hr 26 min 51 sec)
Heartbeat CPU 0 instructions: 234001204 cycles: 354194262 heartbeat IPC: 0.6056 cumulative IPC: 0.5886 (Simulation time: 01 hr 27 min 03 sec)
Heartbeat CPU 0 instructions: 234501206 cycles: 354978373 heartbeat IPC: 0.6377 cumulative IPC: 0.5887 (Simulation time: 01 hr 27 min 14 sec)
Heartbeat CPU 0 instructions: 235001212 cycles: 355740519 heartbeat IPC: 0.6561 cumulative IPC: 0.5888 (Simulation time: 01 hr 27 min 25 sec)
Heartbeat CPU 0 instructions: 235501213 cycles: 356234022 heartbeat IPC: 1.013 cumulative IPC: 0.5895 (Simulation time: 01 hr 27 min 32 sec)
Heartbeat CPU 0 instructions: 236001220 cycles: 356933438 heartbeat IPC: 0.7149 cumulative IPC: 0.5898 (Simulation time: 01 hr 27 min 41 sec)
Heartbeat CPU 0 instructions: 236501222 cycles: 357493861 heartbeat IPC: 0.8922 cumulative IPC: 0.5903 (Simulation time: 01 hr 27 min 49 sec)
Heartbeat CPU 0 instructions: 237001229 cycles: 358230964 heartbeat IPC: 0.6783 cumulative IPC: 0.5905 (Simulation time: 01 hr 27 min 58 sec)
Heartbeat CPU 0 instructions: 237501231 cycles: 358996451 heartbeat IPC: 0.6532 cumulative IPC: 0.5907 (Simulation time: 01 hr 28 min 08 sec)
Heartbeat CPU 0 instructions: 238001231 cycles: 359758349 heartbeat IPC: 0.6563 cumulative IPC: 0.5908 (Simulation time: 01 hr 28 min 19 sec)
Heartbeat CPU 0 instructions: 238501233 cycles: 360485732 heartbeat IPC: 0.6874 cumulative IPC: 0.5911 (Simulation time: 01 hr 28 min 29 sec)
Heartbeat CPU 0 instructions: 239001235 cycles: 361312345 heartbeat IPC: 0.6049 cumulative IPC: 0.5911 (Simulation time: 01 hr 28 min 41 sec)
Heartbeat CPU 0 instructions: 239501237 cycles: 362138255 heartbeat IPC: 0.6054 cumulative IPC: 0.5911 (Simulation time: 01 hr 28 min 53 sec)
Heartbeat CPU 0 instructions: 240001238 cycles: 362961468 heartbeat IPC: 0.6074 cumulative IPC: 0.5912 (Simulation time: 01 hr 29 min 04 sec)
Heartbeat CPU 0 instructions: 240501238 cycles: 363715376 heartbeat IPC: 0.6632 cumulative IPC: 0.5913 (Simulation time: 01 hr 29 min 14 sec)
Heartbeat CPU 0 instructions: 241001245 cycles: 364475338 heartbeat IPC: 0.6579 cumulative IPC: 0.5915 (Simulation time: 01 hr 29 min 25 sec)
Heartbeat CPU 0 instructions: 241501246 cycles: 364904896 heartbeat IPC: 1.164 cumulative IPC: 0.5923 (Simulation time: 01 hr 29 min 30 sec)
Heartbeat CPU 0 instructions: 242001250 cycles: 365467216 heartbeat IPC: 0.8892 cumulative IPC: 0.5928 (Simulation time: 01 hr 29 min 38 sec)
Heartbeat CPU 0 instructions: 242501251 cycles: 366206484 heartbeat IPC: 0.6763 cumulative IPC: 0.593 (Simulation time: 01 hr 29 min 47 sec)
Heartbeat CPU 0 instructions: 243001251 cycles: 366969982 heartbeat IPC: 0.6549 cumulative IPC: 0.5931 (Simulation time: 01 hr 29 min 57 sec)
Heartbeat CPU 0 instructions: 243501252 cycles: 367732381 heartbeat IPC: 0.6558 cumulative IPC: 0.5933 (Simulation time: 01 hr 30 min 07 sec)
Heartbeat CPU 0 instructions: 244001252 cycles: 368492698 heartbeat IPC: 0.6576 cumulative IPC: 0.5934 (Simulation time: 01 hr 30 min 17 sec)
Heartbeat CPU 0 instructions: 244501257 cycles: 369246794 heartbeat IPC: 0.6631 cumulative IPC: 0.5936 (Simulation time: 01 hr 30 min 28 sec)
Heartbeat CPU 0 instructions: 245001264 cycles: 370072319 heartbeat IPC: 0.6057 cumulative IPC: 0.5936 (Simulation time: 01 hr 30 min 39 sec)
Heartbeat CPU 0 instructions: 245501265 cycles: 370898104 heartbeat IPC: 0.6055 cumulative IPC: 0.5936 (Simulation time: 01 hr 30 min 51 sec)
Heartbeat CPU 0 instructions: 246001266 cycles: 371686403 heartbeat IPC: 0.6343 cumulative IPC: 0.5937 (Simulation time: 01 hr 31 min 02 sec)
Heartbeat CPU 0 instructions: 246501270 cycles: 372443273 heartbeat IPC: 0.6606 cumulative IPC: 0.5939 (Simulation time: 01 hr 31 min 12 sec)
Heartbeat CPU 0 instructions: 247001272 cycles: 373202637 heartbeat IPC: 0.6584 cumulative IPC: 0.594 (Simulation time: 01 hr 31 min 23 sec)
Heartbeat CPU 0 instructions: 247501275 cycles: 373961789 heartbeat IPC: 0.6586 cumulative IPC: 0.5942 (Simulation time: 01 hr 31 min 33 sec)
Heartbeat CPU 0 instructions: 248001275 cycles: 374722547 heartbeat IPC: 0.6572 cumulative IPC: 0.5943 (Simulation time: 01 hr 31 min 43 sec)
Heartbeat CPU 0 instructions: 248501276 cycles: 375483710 heartbeat IPC: 0.6569 cumulative IPC: 0.5945 (Simulation time: 01 hr 31 min 54 sec)
Heartbeat CPU 0 instructions: 249001283 cycles: 376244769 heartbeat IPC: 0.657 cumulative IPC: 0.5946 (Simulation time: 01 hr 32 min 04 sec)
Heartbeat CPU 0 instructions: 249501284 cycles: 377004301 heartbeat IPC: 0.6583 cumulative IPC: 0.5947 (Simulation time: 01 hr 32 min 14 sec)
Simulation finished CPU 0 instructions: 200000005 cycles: 336197250 cumulative IPC: 0.5949 (Simulation time: 01 hr 32 min 25 sec)
Simulation complete CPU 0 instructions: 200000005 cycles: 336197250 cumulative IPC: 0.5949 (Simulation time: 01 hr 32 min 25 sec)

ChampSim completed all CPUs

=== Simulation ===
CPU 0 runs /local-ssd/ben/dpc4-traces/ai-ml/biogpt.cpp-ggml-model-tocilizumab.3.champsimtrace.gz

Region of Interest Statistics

CPU 0 cumulative IPC: 0.5949 instructions: 200000005 cycles: 336197250
CPU 0 Branch Prediction Accuracy: 97.81% MPKI: 2.078 Average ROB Occupancy at Mispredict: 362.2
Branch type MPKI
BRANCH_DIRECT_JUMP: 0.00233
BRANCH_INDIRECT: 0.006125
BRANCH_CONDITIONAL: 2.057
BRANCH_DIRECT_CALL: 0.00287
BRANCH_INDIRECT_CALL: 0.00153
BRANCH_RETURN: 0.007845

cpu0->cpu0_STLB TOTAL        ACCESS:     457497 HIT:      29900 MISS:     427597 MSHR_MERGE:          0
cpu0->cpu0_STLB LOAD         ACCESS:     457497 HIT:      29900 MISS:     427597 MSHR_MERGE:          0
cpu0->cpu0_STLB RFO          ACCESS:          0 HIT:          0 MISS:          0 MSHR_MERGE:          0
cpu0->cpu0_STLB PREFETCH     ACCESS:          0 HIT:          0 MISS:          0 MSHR_MERGE:          0
cpu0->cpu0_STLB WRITE        ACCESS:          0 HIT:          0 MISS:          0 MSHR_MERGE:          0
cpu0->cpu0_STLB TRANSLATION  ACCESS:          0 HIT:          0 MISS:          0 MSHR_MERGE:          0
cpu0->cpu0_STLB PREFETCH REQUESTED:          0 ISSUED:          0 USEFUL:          0 USELESS:          0
cpu0->cpu0_STLB AVERAGE MISS LATENCY: 156.4 cycles
cpu0->cpu0_L2C TOTAL        ACCESS:  104903409 HIT:    4857243 MISS:  100046166 MSHR_MERGE:   72655420
cpu0->cpu0_L2C LOAD         ACCESS:   25051628 HIT:    1880674 MISS:   23170954 MSHR_MERGE:   18456653
cpu0->cpu0_L2C RFO          ACCESS:     205935 HIT:      46584 MISS:     159351 MSHR_MERGE:        168
cpu0->cpu0_L2C PREFETCH     ACCESS:   79276043 HIT:    2623505 MISS:   76652538 MSHR_MERGE:   54198599
cpu0->cpu0_L2C WRITE        ACCESS:     312886 HIT:     305540 MISS:       7346 MSHR_MERGE:          0
cpu0->cpu0_L2C TRANSLATION  ACCESS:      56917 HIT:        940 MISS:      55977 MSHR_MERGE:          0
cpu0->cpu0_L2C PREFETCH REQUESTED:   89838659 ISSUED:   75226382 USEFUL:   18916093 USELESS:    1496005
cpu0->cpu0_L2C AVERAGE MISS LATENCY: 139 cycles
cpu0->cpu0_L1I TOTAL        ACCESS:   30787975 HIT:   30786112 MISS:       1863 MSHR_MERGE:        228
cpu0->cpu0_L1I LOAD         ACCESS:   30787975 HIT:   30786112 MISS:       1863 MSHR_MERGE:        228
cpu0->cpu0_L1I RFO          ACCESS:          0 HIT:          0 MISS:          0 MSHR_MERGE:          0
cpu0->cpu0_L1I PREFETCH     ACCESS:          0 HIT:          0 MISS:          0 MSHR_MERGE:          0
cpu0->cpu0_L1I WRITE        ACCESS:          0 HIT:          0 MISS:          0 MSHR_MERGE:          0
cpu0->cpu0_L1I TRANSLATION  ACCESS:          0 HIT:          0 MISS:          0 MSHR_MERGE:          0
cpu0->cpu0_L1I PREFETCH REQUESTED:          0 ISSUED:          0 USEFUL:          0 USELESS:          0
cpu0->cpu0_L1I AVERAGE MISS LATENCY: 237.2 cycles
cpu0->cpu0_L1D TOTAL        ACCESS:   91462746 HIT:   44023529 MISS:   47439217 MSHR_MERGE:   18076673
cpu0->cpu0_L1D LOAD         ACCESS:   61918835 HIT:   30313770 MISS:   31605065 MSHR_MERGE:    6555069
cpu0->cpu0_L1D RFO          ACCESS:          0 HIT:          0 MISS:          0 MSHR_MERGE:          0
cpu0->cpu0_L1D PREFETCH     ACCESS:   23402436 HIT:   10545538 MISS:   12856898 MSHR_MERGE:    8807230
cpu0->cpu0_L1D WRITE        ACCESS:    5287244 HIT:    2368120 MISS:    2919124 MSHR_MERGE:    2713161
cpu0->cpu0_L1D TRANSLATION  ACCESS:     854231 HIT:     796101 MISS:      58130 MSHR_MERGE:       1213
cpu0->cpu0_L1D PREFETCH REQUESTED:  383783875 ISSUED:   23402434 USEFUL:    3629676 USELESS:     419996
cpu0->cpu0_L1D AVERAGE MISS LATENCY: 142.8 cycles
cpu0->cpu0_ITLB TOTAL        ACCESS:   20327642 HIT:   20327361 MISS:        281 MSHR_MERGE:         92
cpu0->cpu0_ITLB LOAD         ACCESS:   20327642 HIT:   20327361 MISS:        281 MSHR_MERGE:         92
cpu0->cpu0_ITLB RFO          ACCESS:          0 HIT:          0 MISS:          0 MSHR_MERGE:          0
cpu0->cpu0_ITLB PREFETCH     ACCESS:          0 HIT:          0 MISS:          0 MSHR_MERGE:          0
cpu0->cpu0_ITLB WRITE        ACCESS:          0 HIT:          0 MISS:          0 MSHR_MERGE:          0
cpu0->cpu0_ITLB TRANSLATION  ACCESS:          0 HIT:          0 MISS:          0 MSHR_MERGE:          0
cpu0->cpu0_ITLB PREFETCH REQUESTED:          0 ISSUED:          0 USEFUL:          0 USELESS:          0
cpu0->cpu0_ITLB AVERAGE MISS LATENCY: 222.7 cycles
cpu0->cpu0_DTLB TOTAL        ACCESS:   83508067 HIT:   79008021 MISS:    4500046 MSHR_MERGE:    4042738
cpu0->cpu0_DTLB LOAD         ACCESS:   83508067 HIT:   79008021 MISS:    4500046 MSHR_MERGE:    4042738
cpu0->cpu0_DTLB RFO          ACCESS:          0 HIT:          0 MISS:          0 MSHR_MERGE:          0
cpu0->cpu0_DTLB PREFETCH     ACCESS:          0 HIT:          0 MISS:          0 MSHR_MERGE:          0
cpu0->cpu0_DTLB WRITE        ACCESS:          0 HIT:          0 MISS:          0 MSHR_MERGE:          0
cpu0->cpu0_DTLB TRANSLATION  ACCESS:          0 HIT:          0 MISS:          0 MSHR_MERGE:          0
cpu0->cpu0_DTLB PREFETCH REQUESTED:          0 ISSUED:          0 USEFUL:          0 USELESS:          0
cpu0->cpu0_DTLB AVERAGE MISS LATENCY: 152.1 cycles
cpu0->LLC TOTAL        ACCESS:   53843090 HIT:    1110568 MISS:   52732522 MSHR_MERGE:   25531246
cpu0->LLC LOAD         ACCESS:    4714301 HIT:     183854 MISS:    4530447 MSHR_MERGE:    1425720
cpu0->LLC RFO          ACCESS:     159183 HIT:      97614 MISS:      61569 MSHR_MERGE:        123
cpu0->LLC PREFETCH     ACCESS:   48719024 HIT:     683911 MISS:   48035113 MSHR_MERGE:   24105403
cpu0->LLC WRITE        ACCESS:     194605 HIT:     144974 MISS:      49631 MSHR_MERGE:          0
cpu0->LLC TRANSLATION  ACCESS:      55977 HIT:        215 MISS:      55762 MSHR_MERGE:          0
cpu0->LLC PREFETCH REQUESTED:   26754104 ISSUED:   26265085 USEFUL:    1800396 USELESS:   16373388
cpu0->LLC AVERAGE MISS LATENCY: 228.7 cycles

DRAM Statistics

Channel 0 RQ ROW_BUFFER_HIT:   13026617
  ROW_BUFFER_MISS:   14124348
  AVG DBUS CONGESTED CYCLE: 4.064
Channel 0 WQ ROW_BUFFER_HIT:       3084
  ROW_BUFFER_MISS:      70815
  FULL:       2065
Channel 0 REFRESHES ISSUED:      28015
