[VMEM] WARNING: physical memory size is smaller than virtual memory size.

*** ChampSim Multicore Out-of-Order Simulator ***
Warmup Instructions: 50000000
Simulation Instructions: 200000000
Number of CPUs: 1
Page size: 4096
Core 0: /local-ssd/ben/dpc4-traces/ai-ml/biogpt.cpp-ggml-model-tocilizumab.1.champsimtrace.gz
Off-chip DRAM Size: 64 GiB Channels: 1 Width: 64-bit Data Rate: 4807 MT/s
Heartbeat CPU 0 instructions: 500002 cycles: 429549 heartbeat IPC: 1.164 cumulative IPC: 1.164 (Simulation time: 00 hr 00 min 07 sec)
Heartbeat CPU 0 instructions: 1000007 cycles: 857984 heartbeat IPC: 1.167 cumulative IPC: 1.166 (Simulation time: 00 hr 00 min 14 sec)
Heartbeat CPU 0 instructions: 1500009 cycles: 1324057 heartbeat IPC: 1.073 cumulative IPC: 1.133 (Simulation time: 00 hr 00 min 23 sec)
Heartbeat CPU 0 instructions: 2000012 cycles: 1835089 heartbeat IPC: 0.9784 cumulative IPC: 1.09 (Simulation time: 00 hr 00 min 32 sec)
Heartbeat CPU 0 instructions: 2500018 cycles: 2343877 heartbeat IPC: 0.9827 cumulative IPC: 1.067 (Simulation time: 00 hr 00 min 41 sec)
Heartbeat CPU 0 instructions: 3000025 cycles: 2808361 heartbeat IPC: 1.076 cumulative IPC: 1.068 (Simulation time: 00 hr 00 min 50 sec)
Heartbeat CPU 0 instructions: 3500025 cycles: 3234455 heartbeat IPC: 1.173 cumulative IPC: 1.082 (Simulation time: 00 hr 00 min 58 sec)
Heartbeat CPU 0 instructions: 4000026 cycles: 3520755 heartbeat IPC: 1.746 cumulative IPC: 1.136 (Simulation time: 00 hr 01 min 03 sec)
Heartbeat CPU 0 instructions: 4500032 cycles: 3894167 heartbeat IPC: 1.339 cumulative IPC: 1.156 (Simulation time: 00 hr 01 min 10 sec)
Heartbeat CPU 0 instructions: 5000038 cycles: 4253480 heartbeat IPC: 1.392 cumulative IPC: 1.176 (Simulation time: 00 hr 01 min 17 sec)
Heartbeat CPU 0 instructions: 5500040 cycles: 4665523 heartbeat IPC: 1.213 cumulative IPC: 1.179 (Simulation time: 00 hr 01 min 25 sec)
Heartbeat CPU 0 instructions: 6000042 cycles: 5089953 heartbeat IPC: 1.178 cumulative IPC: 1.179 (Simulation time: 00 hr 01 min 33 sec)
Heartbeat CPU 0 instructions: 6500043 cycles: 5514567 heartbeat IPC: 1.178 cumulative IPC: 1.179 (Simulation time: 00 hr 01 min 41 sec)
Heartbeat CPU 0 instructions: 7000045 cycles: 5933528 heartbeat IPC: 1.193 cumulative IPC: 1.18 (Simulation time: 00 hr 01 min 49 sec)
Heartbeat CPU 0 instructions: 7500045 cycles: 6445853 heartbeat IPC: 0.9759 cumulative IPC: 1.164 (Simulation time: 00 hr 01 min 58 sec)
Heartbeat CPU 0 instructions: 8000049 cycles: 6955482 heartbeat IPC: 0.9811 cumulative IPC: 1.15 (Simulation time: 00 hr 02 min 08 sec)
Heartbeat CPU 0 instructions: 8500051 cycles: 7469379 heartbeat IPC: 0.973 cumulative IPC: 1.138 (Simulation time: 00 hr 02 min 18 sec)
Heartbeat CPU 0 instructions: 9000051 cycles: 7881311 heartbeat IPC: 1.214 cumulative IPC: 1.142 (Simulation time: 00 hr 02 min 26 sec)
Heartbeat CPU 0 instructions: 9500052 cycles: 8261768 heartbeat IPC: 1.314 cumulative IPC: 1.15 (Simulation time: 00 hr 02 min 33 sec)
Heartbeat CPU 0 instructions: 10000058 cycles: 8587266 heartbeat IPC: 1.536 cumulative IPC: 1.165 (Simulation time: 00 hr 02 min 39 sec)
Heartbeat CPU 0 instructions: 10500059 cycles: 8893613 heartbeat IPC: 1.632 cumulative IPC: 1.181 (Simulation time: 00 hr 02 min 45 sec)
Heartbeat CPU 0 instructions: 11000061 cycles: 9305920 heartbeat IPC: 1.213 cumulative IPC: 1.182 (Simulation time: 00 hr 02 min 52 sec)
Heartbeat CPU 0 instructions: 11500064 cycles: 9735211 heartbeat IPC: 1.165 cumulative IPC: 1.181 (Simulation time: 00 hr 03 min 01 sec)
Heartbeat CPU 0 instructions: 12000066 cycles: 10163523 heartbeat IPC: 1.167 cumulative IPC: 1.181 (Simulation time: 00 hr 03 min 09 sec)
Heartbeat CPU 0 instructions: 12500068 cycles: 10591741 heartbeat IPC: 1.168 cumulative IPC: 1.18 (Simulation time: 00 hr 03 min 17 sec)
Heartbeat CPU 0 instructions: 13000071 cycles: 11062879 heartbeat IPC: 1.061 cumulative IPC: 1.175 (Simulation time: 00 hr 03 min 26 sec)
Heartbeat CPU 0 instructions: 13500075 cycles: 11571692 heartbeat IPC: 0.9827 cumulative IPC: 1.167 (Simulation time: 00 hr 03 min 36 sec)
Heartbeat CPU 0 instructions: 14000078 cycles: 12078411 heartbeat IPC: 0.9867 cumulative IPC: 1.159 (Simulation time: 00 hr 03 min 45 sec)
Heartbeat CPU 0 instructions: 14500078 cycles: 12527662 heartbeat IPC: 1.113 cumulative IPC: 1.157 (Simulation time: 00 hr 03 min 54 sec)
Heartbeat CPU 0 instructions: 15000079 cycles: 12955036 heartbeat IPC: 1.17 cumulative IPC: 1.158 (Simulation time: 00 hr 04 min 02 sec)
Heartbeat CPU 0 instructions: 15500079 cycles: 13382187 heartbeat IPC: 1.171 cumulative IPC: 1.158 (Simulation time: 00 hr 04 min 10 sec)
Heartbeat CPU 0 instructions: 16000079 cycles: 13810393 heartbeat IPC: 1.168 cumulative IPC: 1.159 (Simulation time: 00 hr 04 min 19 sec)
Heartbeat CPU 0 instructions: 16500080 cycles: 14238582 heartbeat IPC: 1.168 cumulative IPC: 1.159 (Simulation time: 00 hr 04 min 27 sec)
Heartbeat CPU 0 instructions: 17000080 cycles: 14665186 heartbeat IPC: 1.172 cumulative IPC: 1.159 (Simulation time: 00 hr 04 min 35 sec)
Heartbeat CPU 0 instructions: 17500080 cycles: 15093200 heartbeat IPC: 1.168 cumulative IPC: 1.159 (Simulation time: 00 hr 04 min 43 sec)
Heartbeat CPU 0 instructions: 18000081 cycles: 15521462 heartbeat IPC: 1.168 cumulative IPC: 1.16 (Simulation time: 00 hr 04 min 52 sec)
Heartbeat CPU 0 instructions: 18500081 cycles: 15949130 heartbeat IPC: 1.169 cumulative IPC: 1.16 (Simulation time: 00 hr 05 min 00 sec)
Heartbeat CPU 0 instructions: 19000081 cycles: 16377358 heartbeat IPC: 1.168 cumulative IPC: 1.16 (Simulation time: 00 hr 05 min 08 sec)
Heartbeat CPU 0 instructions: 19500088 cycles: 16804895 heartbeat IPC: 1.17 cumulative IPC: 1.16 (Simulation time: 00 hr 05 min 16 sec)
Heartbeat CPU 0 instructions: 20000090 cycles: 17232264 heartbeat IPC: 1.17 cumulative IPC: 1.161 (Simulation time: 00 hr 05 min 25 sec)
Heartbeat CPU 0 instructions: 20500090 cycles: 17659984 heartbeat IPC: 1.169 cumulative IPC: 1.161 (Simulation time: 00 hr 05 min 33 sec)
Heartbeat CPU 0 instructions: 21000095 cycles: 18086515 heartbeat IPC: 1.172 cumulative IPC: 1.161 (Simulation time: 00 hr 05 min 41 sec)
Heartbeat CPU 0 instructions: 21500099 cycles: 18514691 heartbeat IPC: 1.168 cumulative IPC: 1.161 (Simulation time: 00 hr 05 min 50 sec)
Heartbeat CPU 0 instructions: 22000103 cycles: 18942019 heartbeat IPC: 1.17 cumulative IPC: 1.161 (Simulation time: 00 hr 05 min 58 sec)
Heartbeat CPU 0 instructions: 22500104 cycles: 19370682 heartbeat IPC: 1.166 cumulative IPC: 1.162 (Simulation time: 00 hr 06 min 06 sec)
Heartbeat CPU 0 instructions: 23000108 cycles: 19798911 heartbeat IPC: 1.168 cumulative IPC: 1.162 (Simulation time: 00 hr 06 min 14 sec)
Heartbeat CPU 0 instructions: 23500110 cycles: 20226409 heartbeat IPC: 1.17 cumulative IPC: 1.162 (Simulation time: 00 hr 06 min 22 sec)
Heartbeat CPU 0 instructions: 24000113 cycles: 20654102 heartbeat IPC: 1.169 cumulative IPC: 1.162 (Simulation time: 00 hr 06 min 30 sec)
Heartbeat CPU 0 instructions: 24500113 cycles: 21081227 heartbeat IPC: 1.171 cumulative IPC: 1.162 (Simulation time: 00 hr 06 min 39 sec)
Heartbeat CPU 0 instructions: 25000117 cycles: 21509214 heartbeat IPC: 1.168 cumulative IPC: 1.162 (Simulation time: 00 hr 06 min 47 sec)
Heartbeat CPU 0 instructions: 25500122 cycles: 21937033 heartbeat IPC: 1.169 cumulative IPC: 1.162 (Simulation time: 00 hr 06 min 55 sec)
Heartbeat CPU 0 instructions: 26000122 cycles: 22363743 heartbeat IPC: 1.172 cumulative IPC: 1.163 (Simulation time: 00 hr 07 min 03 sec)
Heartbeat CPU 0 instructions: 26500126 cycles: 22791274 heartbeat IPC: 1.17 cumulative IPC: 1.163 (Simulation time: 00 hr 07 min 11 sec)
Heartbeat CPU 0 instructions: 27000131 cycles: 23219454 heartbeat IPC: 1.168 cumulative IPC: 1.163 (Simulation time: 00 hr 07 min 19 sec)
Heartbeat CPU 0 instructions: 27500133 cycles: 23646820 heartbeat IPC: 1.17 cumulative IPC: 1.163 (Simulation time: 00 hr 07 min 28 sec)
Heartbeat CPU 0 instructions: 28000139 cycles: 24075685 heartbeat IPC: 1.166 cumulative IPC: 1.163 (Simulation time: 00 hr 07 min 36 sec)
Heartbeat CPU 0 instructions: 28500140 cycles: 24503715 heartbeat IPC: 1.168 cumulative IPC: 1.163 (Simulation time: 00 hr 07 min 44 sec)
Heartbeat CPU 0 instructions: 29000140 cycles: 24931445 heartbeat IPC: 1.169 cumulative IPC: 1.163 (Simulation time: 00 hr 07 min 52 sec)
Heartbeat CPU 0 instructions: 29500144 cycles: 25358557 heartbeat IPC: 1.171 cumulative IPC: 1.163 (Simulation time: 00 hr 08 min 00 sec)
Heartbeat CPU 0 instructions: 30000145 cycles: 25785213 heartbeat IPC: 1.172 cumulative IPC: 1.163 (Simulation time: 00 hr 08 min 09 sec)
Heartbeat CPU 0 instructions: 30500149 cycles: 26212029 heartbeat IPC: 1.171 cumulative IPC: 1.164 (Simulation time: 00 hr 08 min 17 sec)
Heartbeat CPU 0 instructions: 31000153 cycles: 26639046 heartbeat IPC: 1.171 cumulative IPC: 1.164 (Simulation time: 00 hr 08 min 26 sec)
Heartbeat CPU 0 instructions: 31500156 cycles: 27065756 heartbeat IPC: 1.172 cumulative IPC: 1.164 (Simulation time: 00 hr 08 min 34 sec)
Heartbeat CPU 0 instructions: 32000158 cycles: 27493801 heartbeat IPC: 1.168 cumulative IPC: 1.164 (Simulation time: 00 hr 08 min 42 sec)
Heartbeat CPU 0 instructions: 32500158 cycles: 27921735 heartbeat IPC: 1.168 cumulative IPC: 1.164 (Simulation time: 00 hr 08 min 51 sec)
Heartbeat CPU 0 instructions: 33000161 cycles: 28387455 heartbeat IPC: 1.074 cumulative IPC: 1.162 (Simulation time: 00 hr 08 min 56 sec)
Heartbeat CPU 0 instructions: 33500166 cycles: 28513184 heartbeat IPC: 3.977 cumulative IPC: 1.175 (Simulation time: 00 hr 08 min 58 sec)
Heartbeat CPU 0 instructions: 34000172 cycles: 28628999 heartbeat IPC: 4.317 cumulative IPC: 1.188 (Simulation time: 00 hr 09 min 00 sec)
Heartbeat CPU 0 instructions: 34500179 cycles: 28737261 heartbeat IPC: 4.618 cumulative IPC: 1.201 (Simulation time: 00 hr 09 min 03 sec)
Heartbeat CPU 0 instructions: 35000179 cycles: 28846812 heartbeat IPC: 4.564 cumulative IPC: 1.213 (Simulation time: 00 hr 09 min 05 sec)
Heartbeat CPU 0 instructions: 35500179 cycles: 29331707 heartbeat IPC: 1.031 cumulative IPC: 1.21 (Simulation time: 00 hr 09 min 10 sec)
Heartbeat CPU 0 instructions: 36000184 cycles: 29620688 heartbeat IPC: 1.73 cumulative IPC: 1.215 (Simulation time: 00 hr 09 min 13 sec)
Heartbeat CPU 0 instructions: 36500189 cycles: 29739569 heartbeat IPC: 4.206 cumulative IPC: 1.227 (Simulation time: 00 hr 09 min 16 sec)
Heartbeat CPU 0 instructions: 37000194 cycles: 29860615 heartbeat IPC: 4.131 cumulative IPC: 1.239 (Simulation time: 00 hr 09 min 18 sec)
Heartbeat CPU 0 instructions: 37500195 cycles: 29977889 heartbeat IPC: 4.264 cumulative IPC: 1.251 (Simulation time: 00 hr 09 min 21 sec)
Heartbeat CPU 0 instructions: 38000195 cycles: 30467994 heartbeat IPC: 1.02 cumulative IPC: 1.247 (Simulation time: 00 hr 09 min 25 sec)
Heartbeat CPU 0 instructions: 38500198 cycles: 30624678 heartbeat IPC: 3.191 cumulative IPC: 1.257 (Simulation time: 00 hr 09 min 28 sec)
Heartbeat CPU 0 instructions: 39000198 cycles: 30991943 heartbeat IPC: 1.361 cumulative IPC: 1.258 (Simulation time: 00 hr 09 min 34 sec)
Heartbeat CPU 0 instructions: 39500200 cycles: 31416501 heartbeat IPC: 1.178 cumulative IPC: 1.257 (Simulation time: 00 hr 09 min 42 sec)
Heartbeat CPU 0 instructions: 40000201 cycles: 31669269 heartbeat IPC: 1.978 cumulative IPC: 1.263 (Simulation time: 00 hr 09 min 47 sec)
Heartbeat CPU 0 instructions: 40500206 cycles: 32005570 heartbeat IPC: 1.487 cumulative IPC: 1.265 (Simulation time: 00 hr 09 min 53 sec)
Heartbeat CPU 0 instructions: 41000211 cycles: 32393668 heartbeat IPC: 1.288 cumulative IPC: 1.266 (Simulation time: 00 hr 10 min 01 sec)
Heartbeat CPU 0 instructions: 41500218 cycles: 32806376 heartbeat IPC: 1.212 cumulative IPC: 1.265 (Simulation time: 00 hr 10 min 09 sec)
Heartbeat CPU 0 instructions: 42000222 cycles: 33230906 heartbeat IPC: 1.178 cumulative IPC: 1.264 (Simulation time: 00 hr 10 min 18 sec)
Heartbeat CPU 0 instructions: 42500227 cycles: 33655429 heartbeat IPC: 1.178 cumulative IPC: 1.263 (Simulation time: 00 hr 10 min 26 sec)
Heartbeat CPU 0 instructions: 43000230 cycles: 34088102 heartbeat IPC: 1.156 cumulative IPC: 1.261 (Simulation time: 00 hr 10 min 35 sec)
Heartbeat CPU 0 instructions: 43500235 cycles: 34603157 heartbeat IPC: 0.9708 cumulative IPC: 1.257 (Simulation time: 00 hr 10 min 45 sec)
Heartbeat CPU 0 instructions: 44000237 cycles: 35115841 heartbeat IPC: 0.9753 cumulative IPC: 1.253 (Simulation time: 00 hr 10 min 54 sec)
Heartbeat CPU 0 instructions: 44500241 cycles: 35610218 heartbeat IPC: 1.011 cumulative IPC: 1.25 (Simulation time: 00 hr 11 min 03 sec)
Heartbeat CPU 0 instructions: 45000242 cycles: 36034616 heartbeat IPC: 1.178 cumulative IPC: 1.249 (Simulation time: 00 hr 11 min 11 sec)
Heartbeat CPU 0 instructions: 45500248 cycles: 36380241 heartbeat IPC: 1.447 cumulative IPC: 1.251 (Simulation time: 00 hr 11 min 18 sec)
Heartbeat CPU 0 instructions: 46000255 cycles: 36712474 heartbeat IPC: 1.505 cumulative IPC: 1.253 (Simulation time: 00 hr 11 min 24 sec)
Heartbeat CPU 0 instructions: 46500256 cycles: 37014503 heartbeat IPC: 1.655 cumulative IPC: 1.256 (Simulation time: 00 hr 11 min 30 sec)
Heartbeat CPU 0 instructions: 47000260 cycles: 37426157 heartbeat IPC: 1.215 cumulative IPC: 1.256 (Simulation time: 00 hr 11 min 38 sec)
Heartbeat CPU 0 instructions: 47500264 cycles: 37851899 heartbeat IPC: 1.174 cumulative IPC: 1.255 (Simulation time: 00 hr 11 min 46 sec)
Heartbeat CPU 0 instructions: 48000267 cycles: 38277052 heartbeat IPC: 1.176 cumulative IPC: 1.254 (Simulation time: 00 hr 11 min 54 sec)
Heartbeat CPU 0 instructions: 48500269 cycles: 38702685 heartbeat IPC: 1.175 cumulative IPC: 1.253 (Simulation time: 00 hr 12 min 02 sec)
Heartbeat CPU 0 instructions: 49000276 cycles: 39179047 heartbeat IPC: 1.05 cumulative IPC: 1.251 (Simulation time: 00 hr 12 min 12 sec)
Heartbeat CPU 0 instructions: 49500278 cycles: 39690793 heartbeat IPC: 0.9771 cumulative IPC: 1.247 (Simulation time: 00 hr 12 min 21 sec)
Warmup halting CPU 0 at instruction 50000003 cycle 40203584 for remainder of phase
Warmup finished CPU 0 instructions: 50000003 cycles: 40203584 cumulative IPC: 1.244 (Simulation time: 00 hr 12 min 31 sec)
Warmup complete CPU 0 instructions: 50000003 cycles: 40203584 cumulative IPC: 1.244 (Simulation time: 00 hr 12 min 31 sec)
Heartbeat CPU 0 instructions: 50000279 cycles: 40203655 heartbeat IPC: 0.9749 cumulative IPC: 3.887 (Simulation time: 00 hr 12 min 31 sec)
Heartbeat CPU 0 instructions: 50500283 cycles: 41203056 heartbeat IPC: 0.5003 cumulative IPC: 0.5005 (Simulation time: 00 hr 12 min 45 sec)
Heartbeat CPU 0 instructions: 51000283 cycles: 42199982 heartbeat IPC: 0.5015 cumulative IPC: 0.501 (Simulation time: 00 hr 12 min 59 sec)
Heartbeat CPU 0 instructions: 51500286 cycles: 42788786 heartbeat IPC: 0.8492 cumulative IPC: 0.5803 (Simulation time: 00 hr 13 min 08 sec)
Heartbeat CPU 0 instructions: 52000288 cycles: 43512028 heartbeat IPC: 0.6913 cumulative IPC: 0.6046 (Simulation time: 00 hr 13 min 18 sec)
Heartbeat CPU 0 instructions: 52500290 cycles: 44462568 heartbeat IPC: 0.526 cumulative IPC: 0.5871 (Simulation time: 00 hr 13 min 31 sec)
Heartbeat CPU 0 instructions: 53000293 cycles: 45446573 heartbeat IPC: 0.5081 cumulative IPC: 0.5722 (Simulation time: 00 hr 13 min 45 sec)
Heartbeat CPU 0 instructions: 53500294 cycles: 46439420 heartbeat IPC: 0.5036 cumulative IPC: 0.5613 (Simulation time: 00 hr 14 min 00 sec)
Heartbeat CPU 0 instructions: 54000295 cycles: 47432878 heartbeat IPC: 0.5033 cumulative IPC: 0.5533 (Simulation time: 00 hr 14 min 14 sec)
Heartbeat CPU 0 instructions: 54500296 cycles: 48428820 heartbeat IPC: 0.502 cumulative IPC: 0.5471 (Simulation time: 00 hr 14 min 28 sec)
Heartbeat CPU 0 instructions: 55000296 cycles: 49514208 heartbeat IPC: 0.4607 cumulative IPC: 0.5371 (Simulation time: 00 hr 14 min 43 sec)
Heartbeat CPU 0 instructions: 55500297 cycles: 50601119 heartbeat IPC: 0.46 cumulative IPC: 0.529 (Simulation time: 00 hr 14 min 58 sec)
Heartbeat CPU 0 instructions: 56000297 cycles: 51643745 heartbeat IPC: 0.4796 cumulative IPC: 0.5245 (Simulation time: 00 hr 15 min 13 sec)
Heartbeat CPU 0 instructions: 56500301 cycles: 52641453 heartbeat IPC: 0.5012 cumulative IPC: 0.5226 (Simulation time: 00 hr 15 min 27 sec)
Heartbeat CPU 0 instructions: 57000301 cycles: 53377983 heartbeat IPC: 0.6789 cumulative IPC: 0.5314 (Simulation time: 00 hr 15 min 38 sec)
Heartbeat CPU 0 instructions: 57500306 cycles: 54215264 heartbeat IPC: 0.5972 cumulative IPC: 0.5353 (Simulation time: 00 hr 15 min 50 sec)
Heartbeat CPU 0 instructions: 58000307 cycles: 54932890 heartbeat IPC: 0.6967 cumulative IPC: 0.5432 (Simulation time: 00 hr 16 min 00 sec)
Heartbeat CPU 0 instructions: 58500311 cycles: 55895435 heartbeat IPC: 0.5195 cumulative IPC: 0.5417 (Simulation time: 00 hr 16 min 13 sec)
Heartbeat CPU 0 instructions: 59000311 cycles: 56889441 heartbeat IPC: 0.503 cumulative IPC: 0.5394 (Simulation time: 00 hr 16 min 27 sec)
Heartbeat CPU 0 instructions: 59500312 cycles: 57881611 heartbeat IPC: 0.5039 cumulative IPC: 0.5374 (Simulation time: 00 hr 16 min 42 sec)
Heartbeat CPU 0 instructions: 60000315 cycles: 58846738 heartbeat IPC: 0.5181 cumulative IPC: 0.5364 (Simulation time: 00 hr 16 min 56 sec)
Heartbeat CPU 0 instructions: 60500320 cycles: 59914015 heartbeat IPC: 0.4685 cumulative IPC: 0.5327 (Simulation time: 00 hr 17 min 11 sec)
Heartbeat CPU 0 instructions: 61000325 cycles: 61002662 heartbeat IPC: 0.4593 cumulative IPC: 0.5289 (Simulation time: 00 hr 17 min 26 sec)
Heartbeat CPU 0 instructions: 61500327 cycles: 62087222 heartbeat IPC: 0.461 cumulative IPC: 0.5255 (Simulation time: 00 hr 17 min 42 sec)
Heartbeat CPU 0 instructions: 62000330 cycles: 63073278 heartbeat IPC: 0.5071 cumulative IPC: 0.5247 (Simulation time: 00 hr 17 min 55 sec)
Heartbeat CPU 0 instructions: 62500334 cycles: 64067003 heartbeat IPC: 0.5032 cumulative IPC: 0.5238 (Simulation time: 00 hr 18 min 09 sec)
Heartbeat CPU 0 instructions: 63000340 cycles: 64639928 heartbeat IPC: 0.8727 cumulative IPC: 0.532 (Simulation time: 00 hr 18 min 17 sec)
Heartbeat CPU 0 instructions: 63500347 cycles: 65354399 heartbeat IPC: 0.6998 cumulative IPC: 0.5368 (Simulation time: 00 hr 18 min 28 sec)
Heartbeat CPU 0 instructions: 64000349 cycles: 66313572 heartbeat IPC: 0.5213 cumulative IPC: 0.5362 (Simulation time: 00 hr 18 min 41 sec)
Heartbeat CPU 0 instructions: 64500355 cycles: 67305912 heartbeat IPC: 0.5039 cumulative IPC: 0.535 (Simulation time: 00 hr 18 min 54 sec)
Heartbeat CPU 0 instructions: 65000358 cycles: 68299112 heartbeat IPC: 0.5034 cumulative IPC: 0.5339 (Simulation time: 00 hr 19 min 08 sec)
Heartbeat CPU 0 instructions: 65500358 cycles: 69291207 heartbeat IPC: 0.504 cumulative IPC: 0.5329 (Simulation time: 00 hr 19 min 22 sec)
Heartbeat CPU 0 instructions: 66000360 cycles: 70278733 heartbeat IPC: 0.5063 cumulative IPC: 0.532 (Simulation time: 00 hr 19 min 35 sec)
Heartbeat CPU 0 instructions: 66500360 cycles: 71367579 heartbeat IPC: 0.4592 cumulative IPC: 0.5295 (Simulation time: 00 hr 19 min 51 sec)
Heartbeat CPU 0 instructions: 67000365 cycles: 72454284 heartbeat IPC: 0.4601 cumulative IPC: 0.5271 (Simulation time: 00 hr 20 min 06 sec)
Heartbeat CPU 0 instructions: 67500372 cycles: 73487658 heartbeat IPC: 0.4839 cumulative IPC: 0.5258 (Simulation time: 00 hr 20 min 21 sec)
Heartbeat CPU 0 instructions: 68000377 cycles: 74482821 heartbeat IPC: 0.5024 cumulative IPC: 0.5251 (Simulation time: 00 hr 20 min 35 sec)
Heartbeat CPU 0 instructions: 68500379 cycles: 75138300 heartbeat IPC: 0.7628 cumulative IPC: 0.5296 (Simulation time: 00 hr 20 min 45 sec)
Heartbeat CPU 0 instructions: 69000380 cycles: 76048444 heartbeat IPC: 0.5494 cumulative IPC: 0.5301 (Simulation time: 00 hr 20 min 57 sec)
Heartbeat CPU 0 instructions: 69500380 cycles: 76763984 heartbeat IPC: 0.6988 cumulative IPC: 0.5334 (Simulation time: 00 hr 21 min 07 sec)
Heartbeat CPU 0 instructions: 70000382 cycles: 77725539 heartbeat IPC: 0.52 cumulative IPC: 0.533 (Simulation time: 00 hr 21 min 20 sec)
Heartbeat CPU 0 instructions: 70500388 cycles: 78719422 heartbeat IPC: 0.5031 cumulative IPC: 0.5323 (Simulation time: 00 hr 21 min 35 sec)
Heartbeat CPU 0 instructions: 71000393 cycles: 79711882 heartbeat IPC: 0.5038 cumulative IPC: 0.5315 (Simulation time: 00 hr 21 min 49 sec)
Heartbeat CPU 0 instructions: 71500394 cycles: 80652202 heartbeat IPC: 0.5317 cumulative IPC: 0.5315 (Simulation time: 00 hr 22 min 02 sec)
Heartbeat CPU 0 instructions: 72000396 cycles: 81736490 heartbeat IPC: 0.4611 cumulative IPC: 0.5297 (Simulation time: 00 hr 22 min 18 sec)
Heartbeat CPU 0 instructions: 72500397 cycles: 82821551 heartbeat IPC: 0.4608 cumulative IPC: 0.528 (Simulation time: 00 hr 22 min 34 sec)
Heartbeat CPU 0 instructions: 73000397 cycles: 83904370 heartbeat IPC: 0.4618 cumulative IPC: 0.5263 (Simulation time: 00 hr 22 min 50 sec)
Heartbeat CPU 0 instructions: 73500402 cycles: 84883462 heartbeat IPC: 0.5107 cumulative IPC: 0.526 (Simulation time: 00 hr 23 min 04 sec)
Heartbeat CPU 0 instructions: 74000404 cycles: 85875526 heartbeat IPC: 0.504 cumulative IPC: 0.5255 (Simulation time: 00 hr 23 min 18 sec)
Heartbeat CPU 0 instructions: 74500407 cycles: 86453188 heartbeat IPC: 0.8656 cumulative IPC: 0.5297 (Simulation time: 00 hr 23 min 26 sec)
Heartbeat CPU 0 instructions: 75000414 cycles: 87158195 heartbeat IPC: 0.7092 cumulative IPC: 0.5324 (Simulation time: 00 hr 23 min 36 sec)
Heartbeat CPU 0 instructions: 75500416 cycles: 88118958 heartbeat IPC: 0.5204 cumulative IPC: 0.5322 (Simulation time: 00 hr 23 min 49 sec)
Heartbeat CPU 0 instructions: 76000422 cycles: 89112062 heartbeat IPC: 0.5035 cumulative IPC: 0.5316 (Simulation time: 00 hr 24 min 03 sec)
Heartbeat CPU 0 instructions: 76500423 cycles: 90104091 heartbeat IPC: 0.504 cumulative IPC: 0.5311 (Simulation time: 00 hr 24 min 17 sec)
Heartbeat CPU 0 instructions: 77000430 cycles: 91096518 heartbeat IPC: 0.5038 cumulative IPC: 0.5305 (Simulation time: 00 hr 24 min 31 sec)
Heartbeat CPU 0 instructions: 77500432 cycles: 92086985 heartbeat IPC: 0.5048 cumulative IPC: 0.53 (Simulation time: 00 hr 24 min 46 sec)
Heartbeat CPU 0 instructions: 78000435 cycles: 93170324 heartbeat IPC: 0.4615 cumulative IPC: 0.5286 (Simulation time: 00 hr 25 min 02 sec)
Heartbeat CPU 0 instructions: 78500435 cycles: 94253113 heartbeat IPC: 0.4618 cumulative IPC: 0.5273 (Simulation time: 00 hr 25 min 18 sec)
Heartbeat CPU 0 instructions: 79000436 cycles: 95276162 heartbeat IPC: 0.4887 cumulative IPC: 0.5266 (Simulation time: 00 hr 25 min 33 sec)
Heartbeat CPU 0 instructions: 79500443 cycles: 96267850 heartbeat IPC: 0.5042 cumulative IPC: 0.5262 (Simulation time: 00 hr 25 min 47 sec)
Heartbeat CPU 0 instructions: 80000445 cycles: 96845934 heartbeat IPC: 0.8649 cumulative IPC: 0.5296 (Simulation time: 00 hr 25 min 55 sec)
Heartbeat CPU 0 instructions: 80500448 cycles: 97771137 heartbeat IPC: 0.5404 cumulative IPC: 0.5298 (Simulation time: 00 hr 26 min 08 sec)
Heartbeat CPU 0 instructions: 81000450 cycles: 98538243 heartbeat IPC: 0.6518 cumulative IPC: 0.5314 (Simulation time: 00 hr 26 min 18 sec)
Heartbeat CPU 0 instructions: 81500451 cycles: 99499733 heartbeat IPC: 0.52 cumulative IPC: 0.5312 (Simulation time: 00 hr 26 min 32 sec)
Heartbeat CPU 0 instructions: 82000455 cycles: 100491854 heartbeat IPC: 0.504 cumulative IPC: 0.5308 (Simulation time: 00 hr 26 min 46 sec)
Heartbeat CPU 0 instructions: 82500455 cycles: 101486088 heartbeat IPC: 0.5029 cumulative IPC: 0.5303 (Simulation time: 00 hr 27 min 00 sec)
Heartbeat CPU 0 instructions: 83000456 cycles: 102432488 heartbeat IPC: 0.5283 cumulative IPC: 0.5303 (Simulation time: 00 hr 27 min 13 sec)
Heartbeat CPU 0 instructions: 83500461 cycles: 103516614 heartbeat IPC: 0.4612 cumulative IPC: 0.5291 (Simulation time: 00 hr 27 min 28 sec)
Heartbeat CPU 0 instructions: 84000461 cycles: 104600168 heartbeat IPC: 0.4614 cumulative IPC: 0.528 (Simulation time: 00 hr 27 min 43 sec)
Heartbeat CPU 0 instructions: 84500462 cycles: 105682494 heartbeat IPC: 0.462 cumulative IPC: 0.5269 (Simulation time: 00 hr 27 min 58 sec)
Heartbeat CPU 0 instructions: 85000464 cycles: 106653616 heartbeat IPC: 0.5149 cumulative IPC: 0.5267 (Simulation time: 00 hr 28 min 12 sec)
Heartbeat CPU 0 instructions: 85500466 cycles: 107596254 heartbeat IPC: 0.5304 cumulative IPC: 0.5268 (Simulation time: 00 hr 28 min 25 sec)
Heartbeat CPU 0 instructions: 86000468 cycles: 108221935 heartbeat IPC: 0.7991 cumulative IPC: 0.5293 (Simulation time: 00 hr 28 min 34 sec)
Heartbeat CPU 0 instructions: 86500469 cycles: 108930583 heartbeat IPC: 0.7056 cumulative IPC: 0.5311 (Simulation time: 00 hr 28 min 44 sec)
Heartbeat CPU 0 instructions: 87000471 cycles: 109893058 heartbeat IPC: 0.5195 cumulative IPC: 0.5309 (Simulation time: 00 hr 28 min 57 sec)
Heartbeat CPU 0 instructions: 87500477 cycles: 110885432 heartbeat IPC: 0.5038 cumulative IPC: 0.5306 (Simulation time: 00 hr 29 min 11 sec)
Heartbeat CPU 0 instructions: 88000477 cycles: 111878257 heartbeat IPC: 0.5036 cumulative IPC: 0.5302 (Simulation time: 00 hr 29 min 25 sec)
Heartbeat CPU 0 instructions: 88500478 cycles: 112872250 heartbeat IPC: 0.503 cumulative IPC: 0.5298 (Simulation time: 00 hr 29 min 39 sec)
Heartbeat CPU 0 instructions: 89000481 cycles: 113871732 heartbeat IPC: 0.5003 cumulative IPC: 0.5294 (Simulation time: 00 hr 29 min 54 sec)
Heartbeat CPU 0 instructions: 89500481 cycles: 114954274 heartbeat IPC: 0.4619 cumulative IPC: 0.5284 (Simulation time: 00 hr 30 min 10 sec)
Heartbeat CPU 0 instructions: 90000482 cycles: 116037454 heartbeat IPC: 0.4616 cumulative IPC: 0.5275 (Simulation time: 00 hr 30 min 26 sec)
Heartbeat CPU 0 instructions: 90500482 cycles: 117046766 heartbeat IPC: 0.4954 cumulative IPC: 0.5271 (Simulation time: 00 hr 30 min 41 sec)
Heartbeat CPU 0 instructions: 91000484 cycles: 118041084 heartbeat IPC: 0.5029 cumulative IPC: 0.5267 (Simulation time: 00 hr 30 min 55 sec)
Heartbeat CPU 0 instructions: 91500488 cycles: 118612690 heartbeat IPC: 0.8747 cumulative IPC: 0.5293 (Simulation time: 00 hr 31 min 03 sec)
Heartbeat CPU 0 instructions: 92000491 cycles: 119480055 heartbeat IPC: 0.5765 cumulative IPC: 0.5298 (Simulation time: 00 hr 31 min 15 sec)
Heartbeat CPU 0 instructions: 92500493 cycles: 120316323 heartbeat IPC: 0.5979 cumulative IPC: 0.5305 (Simulation time: 00 hr 31 min 26 sec)
Heartbeat CPU 0 instructions: 93000499 cycles: 121277386 heartbeat IPC: 0.5203 cumulative IPC: 0.5304 (Simulation time: 00 hr 31 min 40 sec)
Heartbeat CPU 0 instructions: 93500502 cycles: 122269874 heartbeat IPC: 0.5038 cumulative IPC: 0.5301 (Simulation time: 00 hr 31 min 54 sec)
Heartbeat CPU 0 instructions: 94000508 cycles: 123263686 heartbeat IPC: 0.5031 cumulative IPC: 0.5297 (Simulation time: 00 hr 32 min 08 sec)
Heartbeat CPU 0 instructions: 94500509 cycles: 124222052 heartbeat IPC: 0.5217 cumulative IPC: 0.5297 (Simulation time: 00 hr 32 min 22 sec)
Heartbeat CPU 0 instructions: 95000509 cycles: 125304660 heartbeat IPC: 0.4618 cumulative IPC: 0.5288 (Simulation time: 00 hr 32 min 38 sec)
Heartbeat CPU 0 instructions: 95500509 cycles: 126387933 heartbeat IPC: 0.4616 cumulative IPC: 0.5279 (Simulation time: 00 hr 32 min 53 sec)
Heartbeat CPU 0 instructions: 96000510 cycles: 127464850 heartbeat IPC: 0.4643 cumulative IPC: 0.5272 (Simulation time: 00 hr 33 min 08 sec)
Heartbeat CPU 0 instructions: 96500510 cycles: 128433774 heartbeat IPC: 0.516 cumulative IPC: 0.527 (Simulation time: 00 hr 33 min 21 sec)
Heartbeat CPU 0 instructions: 97000512 cycles: 129297803 heartbeat IPC: 0.5787 cumulative IPC: 0.5275 (Simulation time: 00 hr 33 min 33 sec)
Heartbeat CPU 0 instructions: 97500518 cycles: 129999118 heartbeat IPC: 0.713 cumulative IPC: 0.529 (Simulation time: 00 hr 33 min 43 sec)
Heartbeat CPU 0 instructions: 98000523 cycles: 130708928 heartbeat IPC: 0.7044 cumulative IPC: 0.5304 (Simulation time: 00 hr 33 min 52 sec)
Heartbeat CPU 0 instructions: 98500528 cycles: 131671290 heartbeat IPC: 0.5196 cumulative IPC: 0.5302 (Simulation time: 00 hr 34 min 05 sec)
Heartbeat CPU 0 instructions: 99000532 cycles: 132663248 heartbeat IPC: 0.5041 cumulative IPC: 0.53 (Simulation time: 00 hr 34 min 19 sec)
Heartbeat CPU 0 instructions: 99500534 cycles: 133657083 heartbeat IPC: 0.5031 cumulative IPC: 0.5297 (Simulation time: 00 hr 34 min 33 sec)
Heartbeat CPU 0 instructions: 100000541 cycles: 134648629 heartbeat IPC: 0.5043 cumulative IPC: 0.5294 (Simulation time: 00 hr 34 min 47 sec)
Heartbeat CPU 0 instructions: 100500547 cycles: 135659429 heartbeat IPC: 0.4947 cumulative IPC: 0.529 (Simulation time: 00 hr 35 min 01 sec)
Heartbeat CPU 0 instructions: 101000549 cycles: 136741989 heartbeat IPC: 0.4619 cumulative IPC: 0.5283 (Simulation time: 00 hr 35 min 16 sec)
Heartbeat CPU 0 instructions: 101500551 cycles: 137825199 heartbeat IPC: 0.4616 cumulative IPC: 0.5276 (Simulation time: 00 hr 35 min 32 sec)
Heartbeat CPU 0 instructions: 102000555 cycles: 138829744 heartbeat IPC: 0.4977 cumulative IPC: 0.5272 (Simulation time: 00 hr 35 min 46 sec)
Heartbeat CPU 0 instructions: 102500556 cycles: 139823525 heartbeat IPC: 0.5031 cumulative IPC: 0.527 (Simulation time: 00 hr 36 min 00 sec)
Heartbeat CPU 0 instructions: 103000559 cycles: 140395883 heartbeat IPC: 0.8736 cumulative IPC: 0.529 (Simulation time: 00 hr 36 min 08 sec)
Heartbeat CPU 0 instructions: 103500563 cycles: 141180258 heartbeat IPC: 0.6375 cumulative IPC: 0.5298 (Simulation time: 00 hr 36 min 19 sec)
Heartbeat CPU 0 instructions: 104000563 cycles: 142080167 heartbeat IPC: 0.5556 cumulative IPC: 0.5301 (Simulation time: 00 hr 36 min 31 sec)
Heartbeat CPU 0 instructions: 104500566 cycles: 143056208 heartbeat IPC: 0.5123 cumulative IPC: 0.5299 (Simulation time: 00 hr 36 min 45 sec)
Heartbeat CPU 0 instructions: 105000568 cycles: 144049106 heartbeat IPC: 0.5036 cumulative IPC: 0.5296 (Simulation time: 00 hr 36 min 59 sec)
Heartbeat CPU 0 instructions: 105500575 cycles: 145040549 heartbeat IPC: 0.5043 cumulative IPC: 0.5294 (Simulation time: 00 hr 37 min 13 sec)
Heartbeat CPU 0 instructions: 106000577 cycles: 146007445 heartbeat IPC: 0.5171 cumulative IPC: 0.5293 (Simulation time: 00 hr 37 min 28 sec)
Heartbeat CPU 0 instructions: 106500577 cycles: 147090018 heartbeat IPC: 0.4619 cumulative IPC: 0.5286 (Simulation time: 00 hr 37 min 44 sec)
Heartbeat CPU 0 instructions: 107000581 cycles: 148172987 heartbeat IPC: 0.4617 cumulative IPC: 0.5279 (Simulation time: 00 hr 38 min 00 sec)
Heartbeat CPU 0 instructions: 107500581 cycles: 149217497 heartbeat IPC: 0.4787 cumulative IPC: 0.5275 (Simulation time: 00 hr 38 min 16 sec)
Heartbeat CPU 0 instructions: 108000585 cycles: 150211959 heartbeat IPC: 0.5028 cumulative IPC: 0.5272 (Simulation time: 00 hr 38 min 30 sec)
Heartbeat CPU 0 instructions: 108500590 cycles: 151001868 heartbeat IPC: 0.633 cumulative IPC: 0.528 (Simulation time: 00 hr 38 min 41 sec)
Heartbeat CPU 0 instructions: 109000592 cycles: 151780373 heartbeat IPC: 0.6423 cumulative IPC: 0.5288 (Simulation time: 00 hr 38 min 52 sec)
Heartbeat CPU 0 instructions: 109500594 cycles: 152488004 heartbeat IPC: 0.7066 cumulative IPC: 0.5299 (Simulation time: 00 hr 39 min 02 sec)
Heartbeat CPU 0 instructions: 110000601 cycles: 153448686 heartbeat IPC: 0.5205 cumulative IPC: 0.5298 (Simulation time: 00 hr 39 min 15 sec)
Heartbeat CPU 0 instructions: 110500603 cycles: 154441370 heartbeat IPC: 0.5037 cumulative IPC: 0.5296 (Simulation time: 00 hr 39 min 29 sec)
Heartbeat CPU 0 instructions: 111000609 cycles: 155435435 heartbeat IPC: 0.503 cumulative IPC: 0.5294 (Simulation time: 00 hr 39 min 43 sec)
Heartbeat CPU 0 instructions: 111500611 cycles: 156427118 heartbeat IPC: 0.5042 cumulative IPC: 0.5292 (Simulation time: 00 hr 39 min 58 sec)
Heartbeat CPU 0 instructions: 112000613 cycles: 157441891 heartbeat IPC: 0.4927 cumulative IPC: 0.5288 (Simulation time: 00 hr 40 min 13 sec)
Heartbeat CPU 0 instructions: 112500613 cycles: 158525821 heartbeat IPC: 0.4613 cumulative IPC: 0.5282 (Simulation time: 00 hr 40 min 29 sec)
Heartbeat CPU 0 instructions: 113000619 cycles: 159608513 heartbeat IPC: 0.4618 cumulative IPC: 0.5276 (Simulation time: 00 hr 40 min 45 sec)
Heartbeat CPU 0 instructions: 113500623 cycles: 160602970 heartbeat IPC: 0.5028 cumulative IPC: 0.5274 (Simulation time: 00 hr 41 min 00 sec)
Heartbeat CPU 0 instructions: 114000629 cycles: 161597217 heartbeat IPC: 0.5029 cumulative IPC: 0.5272 (Simulation time: 00 hr 41 min 14 sec)
Heartbeat CPU 0 instructions: 114500630 cycles: 162174429 heartbeat IPC: 0.8662 cumulative IPC: 0.5288 (Simulation time: 00 hr 41 min 22 sec)
Heartbeat CPU 0 instructions: 115000632 cycles: 162886467 heartbeat IPC: 0.7022 cumulative IPC: 0.5298 (Simulation time: 00 hr 41 min 32 sec)
Heartbeat CPU 0 instructions: 115500633 cycles: 163848799 heartbeat IPC: 0.5196 cumulative IPC: 0.5297 (Simulation time: 00 hr 41 min 45 sec)
Heartbeat CPU 0 instructions: 116000638 cycles: 164840566 heartbeat IPC: 0.5042 cumulative IPC: 0.5295 (Simulation time: 00 hr 41 min 59 sec)
Heartbeat CPU 0 instructions: 116500643 cycles: 165834401 heartbeat IPC: 0.5031 cumulative IPC: 0.5293 (Simulation time: 00 hr 42 min 13 sec)
Heartbeat CPU 0 instructions: 117000646 cycles: 166827441 heartbeat IPC: 0.5035 cumulative IPC: 0.5291 (Simulation time: 00 hr 42 min 27 sec)
Heartbeat CPU 0 instructions: 117500647 cycles: 167803531 heartbeat IPC: 0.5122 cumulative IPC: 0.529 (Simulation time: 00 hr 42 min 42 sec)
Heartbeat CPU 0 instructions: 118000647 cycles: 168888175 heartbeat IPC: 0.461 cumulative IPC: 0.5284 (Simulation time: 00 hr 42 min 58 sec)
Heartbeat CPU 0 instructions: 118500649 cycles: 169970913 heartbeat IPC: 0.4618 cumulative IPC: 0.5279 (Simulation time: 00 hr 43 min 14 sec)
Heartbeat CPU 0 instructions: 119000656 cycles: 171004502 heartbeat IPC: 0.4838 cumulative IPC: 0.5275 (Simulation time: 00 hr 43 min 29 sec)
Heartbeat CPU 0 instructions: 119500656 cycles: 171998918 heartbeat IPC: 0.5028 cumulative IPC: 0.5273 (Simulation time: 00 hr 43 min 43 sec)
Heartbeat CPU 0 instructions: 120000656 cycles: 172715631 heartbeat IPC: 0.6976 cumulative IPC: 0.5283 (Simulation time: 00 hr 43 min 53 sec)
Heartbeat CPU 0 instructions: 120500659 cycles: 173561898 heartbeat IPC: 0.5908 cumulative IPC: 0.5287 (Simulation time: 00 hr 44 min 04 sec)
Heartbeat CPU 0 instructions: 121000661 cycles: 174270819 heartbeat IPC: 0.7053 cumulative IPC: 0.5296 (Simulation time: 00 hr 44 min 14 sec)
Heartbeat CPU 0 instructions: 121500661 cycles: 175231784 heartbeat IPC: 0.5203 cumulative IPC: 0.5295 (Simulation time: 00 hr 44 min 27 sec)
Heartbeat CPU 0 instructions: 122000665 cycles: 176225312 heartbeat IPC: 0.5033 cumulative IPC: 0.5293 (Simulation time: 00 hr 44 min 41 sec)
Heartbeat CPU 0 instructions: 122500668 cycles: 177218262 heartbeat IPC: 0.5036 cumulative IPC: 0.5291 (Simulation time: 00 hr 44 min 55 sec)
Heartbeat CPU 0 instructions: 123000674 cycles: 178157641 heartbeat IPC: 0.5323 cumulative IPC: 0.5292 (Simulation time: 00 hr 45 min 08 sec)
Heartbeat CPU 0 instructions: 123500677 cycles: 179232932 heartbeat IPC: 0.465 cumulative IPC: 0.5287 (Simulation time: 00 hr 45 min 23 sec)
Heartbeat CPU 0 instructions: 124000677 cycles: 180315928 heartbeat IPC: 0.4617 cumulative IPC: 0.5282 (Simulation time: 00 hr 45 min 39 sec)
Heartbeat CPU 0 instructions: 124500678 cycles: 181397921 heartbeat IPC: 0.4621 cumulative IPC: 0.5276 (Simulation time: 00 hr 45 min 54 sec)
Heartbeat CPU 0 instructions: 125000680 cycles: 182384569 heartbeat IPC: 0.5068 cumulative IPC: 0.5275 (Simulation time: 00 hr 46 min 08 sec)
Heartbeat CPU 0 instructions: 125500684 cycles: 183377057 heartbeat IPC: 0.5038 cumulative IPC: 0.5273 (Simulation time: 00 hr 46 min 22 sec)
Heartbeat CPU 0 instructions: 126000685 cycles: 183952615 heartbeat IPC: 0.8687 cumulative IPC: 0.5287 (Simulation time: 00 hr 46 min 30 sec)
Heartbeat CPU 0 instructions: 126500687 cycles: 184657857 heartbeat IPC: 0.709 cumulative IPC: 0.5296 (Simulation time: 00 hr 46 min 39 sec)
Heartbeat CPU 0 instructions: 127000687 cycles: 185618981 heartbeat IPC: 0.5202 cumulative IPC: 0.5295 (Simulation time: 00 hr 46 min 52 sec)
Heartbeat CPU 0 instructions: 127500694 cycles: 186611297 heartbeat IPC: 0.5039 cumulative IPC: 0.5293 (Simulation time: 00 hr 47 min 06 sec)
Heartbeat CPU 0 instructions: 128000698 cycles: 187604561 heartbeat IPC: 0.5034 cumulative IPC: 0.5292 (Simulation time: 00 hr 47 min 20 sec)
Heartbeat CPU 0 instructions: 128500700 cycles: 188596855 heartbeat IPC: 0.5039 cumulative IPC: 0.529 (Simulation time: 00 hr 47 min 33 sec)
Heartbeat CPU 0 instructions: 129000705 cycles: 189577639 heartbeat IPC: 0.5098 cumulative IPC: 0.5289 (Simulation time: 00 hr 47 min 47 sec)
Heartbeat CPU 0 instructions: 129500705 cycles: 190660782 heartbeat IPC: 0.4616 cumulative IPC: 0.5284 (Simulation time: 00 hr 48 min 03 sec)
Heartbeat CPU 0 instructions: 130000707 cycles: 191742350 heartbeat IPC: 0.4623 cumulative IPC: 0.5279 (Simulation time: 00 hr 48 min 18 sec)
Heartbeat CPU 0 instructions: 130500713 cycles: 192770474 heartbeat IPC: 0.4863 cumulative IPC: 0.5276 (Simulation time: 00 hr 48 min 33 sec)
Heartbeat CPU 0 instructions: 131000718 cycles: 193764042 heartbeat IPC: 0.5032 cumulative IPC: 0.5275 (Simulation time: 00 hr 48 min 47 sec)
Heartbeat CPU 0 instructions: 131500722 cycles: 194405948 heartbeat IPC: 0.7789 cumulative IPC: 0.5285 (Simulation time: 00 hr 48 min 57 sec)
Heartbeat CPU 0 instructions: 132000729 cycles: 195319353 heartbeat IPC: 0.5474 cumulative IPC: 0.5286 (Simulation time: 00 hr 49 min 09 sec)
Heartbeat CPU 0 instructions: 132500732 cycles: 196036284 heartbeat IPC: 0.6974 cumulative IPC: 0.5294 (Simulation time: 00 hr 49 min 19 sec)
Heartbeat CPU 0 instructions: 133000732 cycles: 196996444 heartbeat IPC: 0.5207 cumulative IPC: 0.5294 (Simulation time: 00 hr 49 min 32 sec)
Heartbeat CPU 0 instructions: 133500736 cycles: 197988266 heartbeat IPC: 0.5041 cumulative IPC: 0.5292 (Simulation time: 00 hr 49 min 45 sec)
Heartbeat CPU 0 instructions: 134000743 cycles: 198981229 heartbeat IPC: 0.5036 cumulative IPC: 0.529 (Simulation time: 00 hr 49 min 59 sec)
Heartbeat CPU 0 instructions: 134500745 cycles: 199922328 heartbeat IPC: 0.5313 cumulative IPC: 0.5291 (Simulation time: 00 hr 50 min 12 sec)
Heartbeat CPU 0 instructions: 135000747 cycles: 201006310 heartbeat IPC: 0.4613 cumulative IPC: 0.5286 (Simulation time: 00 hr 50 min 28 sec)
Heartbeat CPU 0 instructions: 135500747 cycles: 202089617 heartbeat IPC: 0.4615 cumulative IPC: 0.5282 (Simulation time: 00 hr 50 min 43 sec)
Heartbeat CPU 0 instructions: 136000750 cycles: 203171940 heartbeat IPC: 0.462 cumulative IPC: 0.5277 (Simulation time: 00 hr 50 min 58 sec)
Heartbeat CPU 0 instructions: 136500755 cycles: 204148850 heartbeat IPC: 0.5118 cumulative IPC: 0.5276 (Simulation time: 00 hr 51 min 12 sec)
Heartbeat CPU 0 instructions: 137000757 cycles: 205147483 heartbeat IPC: 0.5007 cumulative IPC: 0.5275 (Simulation time: 00 hr 51 min 26 sec)
Heartbeat CPU 0 instructions: 137500757 cycles: 205714632 heartbeat IPC: 0.8816 cumulative IPC: 0.5287 (Simulation time: 00 hr 51 min 34 sec)
Heartbeat CPU 0 instructions: 138000764 cycles: 206420643 heartbeat IPC: 0.7082 cumulative IPC: 0.5294 (Simulation time: 00 hr 51 min 44 sec)
Heartbeat CPU 0 instructions: 138500766 cycles: 207381775 heartbeat IPC: 0.5202 cumulative IPC: 0.5294 (Simulation time: 00 hr 51 min 58 sec)
Heartbeat CPU 0 instructions: 139000773 cycles: 208375730 heartbeat IPC: 0.503 cumulative IPC: 0.5292 (Simulation time: 00 hr 52 min 12 sec)
Heartbeat CPU 0 instructions: 139500774 cycles: 209369970 heartbeat IPC: 0.5029 cumulative IPC: 0.5291 (Simulation time: 00 hr 52 min 26 sec)
Heartbeat CPU 0 instructions: 140000775 cycles: 210361282 heartbeat IPC: 0.5044 cumulative IPC: 0.5289 (Simulation time: 00 hr 52 min 41 sec)
Heartbeat CPU 0 instructions: 140500775 cycles: 211351034 heartbeat IPC: 0.5052 cumulative IPC: 0.5288 (Simulation time: 00 hr 52 min 55 sec)
Heartbeat CPU 0 instructions: 141000775 cycles: 212433702 heartbeat IPC: 0.4618 cumulative IPC: 0.5284 (Simulation time: 00 hr 53 min 11 sec)
Heartbeat CPU 0 instructions: 141500778 cycles: 213516627 heartbeat IPC: 0.4617 cumulative IPC: 0.528 (Simulation time: 00 hr 53 min 26 sec)
Heartbeat CPU 0 instructions: 142000779 cycles: 214536902 heartbeat IPC: 0.4901 cumulative IPC: 0.5277 (Simulation time: 00 hr 53 min 41 sec)
Heartbeat CPU 0 instructions: 142500785 cycles: 215531091 heartbeat IPC: 0.5029 cumulative IPC: 0.5276 (Simulation time: 00 hr 53 min 55 sec)
Heartbeat CPU 0 instructions: 143000790 cycles: 216102878 heartbeat IPC: 0.8745 cumulative IPC: 0.5287 (Simulation time: 00 hr 54 min 03 sec)
Heartbeat CPU 0 instructions: 143500791 cycles: 217025757 heartbeat IPC: 0.5418 cumulative IPC: 0.5288 (Simulation time: 00 hr 54 min 16 sec)
Heartbeat CPU 0 instructions: 144000791 cycles: 217800258 heartbeat IPC: 0.6456 cumulative IPC: 0.5293 (Simulation time: 00 hr 54 min 27 sec)
Heartbeat CPU 0 instructions: 144500795 cycles: 218761627 heartbeat IPC: 0.5201 cumulative IPC: 0.5292 (Simulation time: 00 hr 54 min 40 sec)
Heartbeat CPU 0 instructions: 145000795 cycles: 219754430 heartbeat IPC: 0.5036 cumulative IPC: 0.5291 (Simulation time: 00 hr 54 min 53 sec)
Heartbeat CPU 0 instructions: 145500797 cycles: 220748321 heartbeat IPC: 0.5031 cumulative IPC: 0.529 (Simulation time: 00 hr 55 min 07 sec)
Heartbeat CPU 0 instructions: 146000801 cycles: 221697259 heartbeat IPC: 0.5269 cumulative IPC: 0.5289 (Simulation time: 00 hr 55 min 20 sec)
Heartbeat CPU 0 instructions: 146500803 cycles: 222780393 heartbeat IPC: 0.4616 cumulative IPC: 0.5285 (Simulation time: 00 hr 55 min 36 sec)
Heartbeat CPU 0 instructions: 147000804 cycles: 223863898 heartbeat IPC: 0.4615 cumulative IPC: 0.5282 (Simulation time: 00 hr 55 min 52 sec)
Heartbeat CPU 0 instructions: 147500806 cycles: 224946063 heartbeat IPC: 0.462 cumulative IPC: 0.5278 (Simulation time: 00 hr 56 min 07 sec)
Heartbeat CPU 0 instructions: 148000808 cycles: 225916053 heartbeat IPC: 0.5155 cumulative IPC: 0.5277 (Simulation time: 00 hr 56 min 21 sec)
Heartbeat CPU 0 instructions: 148500813 cycles: 226841560 heartbeat IPC: 0.5402 cumulative IPC: 0.5278 (Simulation time: 00 hr 56 min 34 sec)
Heartbeat CPU 0 instructions: 149000816 cycles: 227483111 heartbeat IPC: 0.7794 cumulative IPC: 0.5286 (Simulation time: 00 hr 56 min 43 sec)
Heartbeat CPU 0 instructions: 149500819 cycles: 228191456 heartbeat IPC: 0.7059 cumulative IPC: 0.5293 (Simulation time: 00 hr 56 min 53 sec)
Heartbeat CPU 0 instructions: 150000821 cycles: 229152804 heartbeat IPC: 0.5201 cumulative IPC: 0.5292 (Simulation time: 00 hr 57 min 06 sec)
Heartbeat CPU 0 instructions: 150500827 cycles: 230146831 heartbeat IPC: 0.503 cumulative IPC: 0.5291 (Simulation time: 00 hr 57 min 20 sec)
Heartbeat CPU 0 instructions: 151000828 cycles: 231140214 heartbeat IPC: 0.5033 cumulative IPC: 0.529 (Simulation time: 00 hr 57 min 33 sec)
Heartbeat CPU 0 instructions: 151500830 cycles: 232132100 heartbeat IPC: 0.5041 cumulative IPC: 0.5288 (Simulation time: 00 hr 57 min 47 sec)
Heartbeat CPU 0 instructions: 152000831 cycles: 233131551 heartbeat IPC: 0.5003 cumulative IPC: 0.5287 (Simulation time: 00 hr 58 min 01 sec)
Heartbeat CPU 0 instructions: 152500832 cycles: 234215163 heartbeat IPC: 0.4614 cumulative IPC: 0.5283 (Simulation time: 00 hr 58 min 17 sec)
Heartbeat CPU 0 instructions: 153000832 cycles: 235298174 heartbeat IPC: 0.4617 cumulative IPC: 0.528 (Simulation time: 00 hr 58 min 33 sec)
Heartbeat CPU 0 instructions: 153500832 cycles: 236306778 heartbeat IPC: 0.4957 cumulative IPC: 0.5278 (Simulation time: 00 hr 58 min 48 sec)
Heartbeat CPU 0 instructions: 154000833 cycles: 237300352 heartbeat IPC: 0.5032 cumulative IPC: 0.5277 (Simulation time: 00 hr 59 min 02 sec)
Heartbeat CPU 0 instructions: 154500835 cycles: 237877979 heartbeat IPC: 0.8656 cumulative IPC: 0.5287 (Simulation time: 00 hr 59 min 11 sec)
Heartbeat CPU 0 instructions: 155000842 cycles: 238728943 heartbeat IPC: 0.5876 cumulative IPC: 0.5289 (Simulation time: 00 hr 59 min 22 sec)
Heartbeat CPU 0 instructions: 155500843 cycles: 239577636 heartbeat IPC: 0.5891 cumulative IPC: 0.5292 (Simulation time: 00 hr 59 min 34 sec)
Heartbeat CPU 0 instructions: 156000850 cycles: 240539245 heartbeat IPC: 0.52 cumulative IPC: 0.5291 (Simulation time: 00 hr 59 min 47 sec)
Heartbeat CPU 0 instructions: 156500850 cycles: 241532487 heartbeat IPC: 0.5034 cumulative IPC: 0.529 (Simulation time: 01 hr 00 min 02 sec)
Heartbeat CPU 0 instructions: 157000856 cycles: 242525524 heartbeat IPC: 0.5035 cumulative IPC: 0.5289 (Simulation time: 01 hr 00 min 16 sec)
Heartbeat CPU 0 instructions: 157500857 cycles: 243481683 heartbeat IPC: 0.5229 cumulative IPC: 0.5288 (Simulation time: 01 hr 00 min 30 sec)
Heartbeat CPU 0 instructions: 158000863 cycles: 244565973 heartbeat IPC: 0.4611 cumulative IPC: 0.5285 (Simulation time: 01 hr 00 min 47 sec)
Heartbeat CPU 0 instructions: 158500866 cycles: 245649274 heartbeat IPC: 0.4616 cumulative IPC: 0.5281 (Simulation time: 01 hr 01 min 03 sec)
Heartbeat CPU 0 instructions: 159000867 cycles: 246708975 heartbeat IPC: 0.4718 cumulative IPC: 0.5278 (Simulation time: 01 hr 01 min 19 sec)
Heartbeat CPU 0 instructions: 159500870 cycles: 247694000 heartbeat IPC: 0.5076 cumulative IPC: 0.5277 (Simulation time: 01 hr 01 min 33 sec)
Heartbeat CPU 0 instructions: 160000870 cycles: 248543035 heartbeat IPC: 0.5889 cumulative IPC: 0.528 (Simulation time: 01 hr 01 min 46 sec)
Heartbeat CPU 0 instructions: 160500871 cycles: 249258172 heartbeat IPC: 0.6992 cumulative IPC: 0.5286 (Simulation time: 01 hr 01 min 56 sec)
Heartbeat CPU 0 instructions: 161000874 cycles: 249967808 heartbeat IPC: 0.7046 cumulative IPC: 0.5292 (Simulation time: 01 hr 02 min 06 sec)
Heartbeat CPU 0 instructions: 161500876 cycles: 250929287 heartbeat IPC: 0.52 cumulative IPC: 0.5291 (Simulation time: 01 hr 02 min 19 sec)
Heartbeat CPU 0 instructions: 162000876 cycles: 251884145 heartbeat IPC: 0.5236 cumulative IPC: 0.5291 (Simulation time: 01 hr 02 min 34 sec)
Heartbeat CPU 0 instructions: 162500880 cycles: 252646089 heartbeat IPC: 0.6562 cumulative IPC: 0.5296 (Simulation time: 01 hr 02 min 46 sec)
Heartbeat CPU 0 instructions: 163000886 cycles: 253399609 heartbeat IPC: 0.6636 cumulative IPC: 0.53 (Simulation time: 01 hr 02 min 58 sec)
Heartbeat CPU 0 instructions: 163500889 cycles: 254173829 heartbeat IPC: 0.6458 cumulative IPC: 0.5305 (Simulation time: 01 hr 03 min 10 sec)
Heartbeat CPU 0 instructions: 164000892 cycles: 254997305 heartbeat IPC: 0.6072 cumulative IPC: 0.5307 (Simulation time: 01 hr 03 min 24 sec)
Heartbeat CPU 0 instructions: 164500892 cycles: 255818956 heartbeat IPC: 0.6085 cumulative IPC: 0.531 (Simulation time: 01 hr 03 min 38 sec)
Heartbeat CPU 0 instructions: 165000892 cycles: 256585301 heartbeat IPC: 0.6524 cumulative IPC: 0.5315 (Simulation time: 01 hr 03 min 51 sec)
Heartbeat CPU 0 instructions: 165500895 cycles: 257349924 heartbeat IPC: 0.6539 cumulative IPC: 0.5319 (Simulation time: 01 hr 04 min 03 sec)
Heartbeat CPU 0 instructions: 166000895 cycles: 257817961 heartbeat IPC: 1.068 cumulative IPC: 0.5331 (Simulation time: 01 hr 04 min 10 sec)
Heartbeat CPU 0 instructions: 166500901 cycles: 258428782 heartbeat IPC: 0.8186 cumulative IPC: 0.5339 (Simulation time: 01 hr 04 min 19 sec)
Heartbeat CPU 0 instructions: 167000903 cycles: 259122667 heartbeat IPC: 0.7206 cumulative IPC: 0.5344 (Simulation time: 01 hr 04 min 29 sec)
Heartbeat CPU 0 instructions: 167500904 cycles: 259879604 heartbeat IPC: 0.6606 cumulative IPC: 0.5349 (Simulation time: 01 hr 04 min 40 sec)
Heartbeat CPU 0 instructions: 168000907 cycles: 260638387 heartbeat IPC: 0.659 cumulative IPC: 0.5353 (Simulation time: 01 hr 04 min 52 sec)
Heartbeat CPU 0 instructions: 168500913 cycles: 261394089 heartbeat IPC: 0.6616 cumulative IPC: 0.5357 (Simulation time: 01 hr 05 min 03 sec)
Heartbeat CPU 0 instructions: 169000917 cycles: 262138058 heartbeat IPC: 0.6721 cumulative IPC: 0.5362 (Simulation time: 01 hr 05 min 15 sec)
Heartbeat CPU 0 instructions: 169500920 cycles: 262960271 heartbeat IPC: 0.6081 cumulative IPC: 0.5365 (Simulation time: 01 hr 05 min 28 sec)
Heartbeat CPU 0 instructions: 170000920 cycles: 263783435 heartbeat IPC: 0.6074 cumulative IPC: 0.5367 (Simulation time: 01 hr 05 min 42 sec)
Heartbeat CPU 0 instructions: 170500927 cycles: 264578550 heartbeat IPC: 0.6288 cumulative IPC: 0.5371 (Simulation time: 01 hr 05 min 55 sec)
Heartbeat CPU 0 instructions: 171000927 cycles: 265339883 heartbeat IPC: 0.6567 cumulative IPC: 0.5375 (Simulation time: 01 hr 06 min 07 sec)
Heartbeat CPU 0 instructions: 171500929 cycles: 265946611 heartbeat IPC: 0.8241 cumulative IPC: 0.5382 (Simulation time: 01 hr 06 min 17 sec)
Heartbeat CPU 0 instructions: 172000931 cycles: 266567195 heartbeat IPC: 0.8057 cumulative IPC: 0.539 (Simulation time: 01 hr 06 min 26 sec)
Heartbeat CPU 0 instructions: 172500936 cycles: 267133268 heartbeat IPC: 0.8833 cumulative IPC: 0.5398 (Simulation time: 01 hr 06 min 34 sec)
Heartbeat CPU 0 instructions: 173000936 cycles: 267873471 heartbeat IPC: 0.6755 cumulative IPC: 0.5403 (Simulation time: 01 hr 06 min 46 sec)
Heartbeat CPU 0 instructions: 173500936 cycles: 268635183 heartbeat IPC: 0.6564 cumulative IPC: 0.5406 (Simulation time: 01 hr 06 min 57 sec)
Heartbeat CPU 0 instructions: 174000943 cycles: 269391371 heartbeat IPC: 0.6612 cumulative IPC: 0.541 (Simulation time: 01 hr 07 min 09 sec)
Heartbeat CPU 0 instructions: 174500948 cycles: 270147319 heartbeat IPC: 0.6614 cumulative IPC: 0.5414 (Simulation time: 01 hr 07 min 20 sec)
Heartbeat CPU 0 instructions: 175000948 cycles: 270926864 heartbeat IPC: 0.6414 cumulative IPC: 0.5418 (Simulation time: 01 hr 07 min 33 sec)
Heartbeat CPU 0 instructions: 175500949 cycles: 271748915 heartbeat IPC: 0.6082 cumulative IPC: 0.542 (Simulation time: 01 hr 07 min 47 sec)
Heartbeat CPU 0 instructions: 176000949 cycles: 272570182 heartbeat IPC: 0.6088 cumulative IPC: 0.5423 (Simulation time: 01 hr 08 min 00 sec)
Heartbeat CPU 0 instructions: 176500951 cycles: 273326865 heartbeat IPC: 0.6608 cumulative IPC: 0.5426 (Simulation time: 01 hr 08 min 12 sec)
Heartbeat CPU 0 instructions: 177000957 cycles: 274081936 heartbeat IPC: 0.6622 cumulative IPC: 0.543 (Simulation time: 01 hr 08 min 24 sec)
Heartbeat CPU 0 instructions: 177500960 cycles: 274837110 heartbeat IPC: 0.6621 cumulative IPC: 0.5434 (Simulation time: 01 hr 08 min 35 sec)
Heartbeat CPU 0 instructions: 178000960 cycles: 275594882 heartbeat IPC: 0.6598 cumulative IPC: 0.5438 (Simulation time: 01 hr 08 min 47 sec)
Heartbeat CPU 0 instructions: 178500962 cycles: 276352713 heartbeat IPC: 0.6598 cumulative IPC: 0.5442 (Simulation time: 01 hr 08 min 59 sec)
Heartbeat CPU 0 instructions: 179000969 cycles: 277109772 heartbeat IPC: 0.6605 cumulative IPC: 0.5445 (Simulation time: 01 hr 09 min 10 sec)
Heartbeat CPU 0 instructions: 179500971 cycles: 277867312 heartbeat IPC: 0.66 cumulative IPC: 0.5449 (Simulation time: 01 hr 09 min 22 sec)
Heartbeat CPU 0 instructions: 180000977 cycles: 278624501 heartbeat IPC: 0.6603 cumulative IPC: 0.5453 (Simulation time: 01 hr 09 min 34 sec)
Heartbeat CPU 0 instructions: 180500982 cycles: 279380851 heartbeat IPC: 0.6611 cumulative IPC: 0.5456 (Simulation time: 01 hr 09 min 45 sec)
Heartbeat CPU 0 instructions: 181000984 cycles: 280136527 heartbeat IPC: 0.6617 cumulative IPC: 0.546 (Simulation time: 01 hr 09 min 57 sec)
Heartbeat CPU 0 instructions: 181500984 cycles: 280892813 heartbeat IPC: 0.6611 cumulative IPC: 0.5464 (Simulation time: 01 hr 10 min 08 sec)
Heartbeat CPU 0 instructions: 182000991 cycles: 281650855 heartbeat IPC: 0.6596 cumulative IPC: 0.5467 (Simulation time: 01 hr 10 min 20 sec)
Heartbeat CPU 0 instructions: 182500993 cycles: 282408133 heartbeat IPC: 0.6603 cumulative IPC: 0.5471 (Simulation time: 01 hr 10 min 32 sec)
Heartbeat CPU 0 instructions: 183000995 cycles: 283164516 heartbeat IPC: 0.661 cumulative IPC: 0.5474 (Simulation time: 01 hr 10 min 43 sec)
Heartbeat CPU 0 instructions: 183501001 cycles: 283920638 heartbeat IPC: 0.6613 cumulative IPC: 0.5478 (Simulation time: 01 hr 10 min 55 sec)
Heartbeat CPU 0 instructions: 184001004 cycles: 284677847 heartbeat IPC: 0.6603 cumulative IPC: 0.5481 (Simulation time: 01 hr 11 min 07 sec)
Heartbeat CPU 0 instructions: 184501004 cycles: 285434548 heartbeat IPC: 0.6608 cumulative IPC: 0.5485 (Simulation time: 01 hr 11 min 18 sec)
Heartbeat CPU 0 instructions: 185001004 cycles: 286189943 heartbeat IPC: 0.6619 cumulative IPC: 0.5488 (Simulation time: 01 hr 11 min 30 sec)
Heartbeat CPU 0 instructions: 185501005 cycles: 286945924 heartbeat IPC: 0.6614 cumulative IPC: 0.5492 (Simulation time: 01 hr 11 min 41 sec)
Heartbeat CPU 0 instructions: 186001011 cycles: 287701689 heartbeat IPC: 0.6616 cumulative IPC: 0.5495 (Simulation time: 01 hr 11 min 53 sec)
Heartbeat CPU 0 instructions: 186501017 cycles: 288457950 heartbeat IPC: 0.6612 cumulative IPC: 0.5498 (Simulation time: 01 hr 12 min 05 sec)
Heartbeat CPU 0 instructions: 187001018 cycles: 289215110 heartbeat IPC: 0.6604 cumulative IPC: 0.5502 (Simulation time: 01 hr 12 min 16 sec)
Heartbeat CPU 0 instructions: 187501024 cycles: 289970089 heartbeat IPC: 0.6623 cumulative IPC: 0.5505 (Simulation time: 01 hr 12 min 28 sec)
Heartbeat CPU 0 instructions: 188001024 cycles: 290728170 heartbeat IPC: 0.6596 cumulative IPC: 0.5508 (Simulation time: 01 hr 12 min 39 sec)
Heartbeat CPU 0 instructions: 188501028 cycles: 291484012 heartbeat IPC: 0.6615 cumulative IPC: 0.5512 (Simulation time: 01 hr 12 min 51 sec)
Heartbeat CPU 0 instructions: 189001029 cycles: 292240501 heartbeat IPC: 0.6609 cumulative IPC: 0.5515 (Simulation time: 01 hr 13 min 02 sec)
Heartbeat CPU 0 instructions: 189501035 cycles: 292996910 heartbeat IPC: 0.661 cumulative IPC: 0.5518 (Simulation time: 01 hr 13 min 14 sec)
Heartbeat CPU 0 instructions: 190001036 cycles: 293753156 heartbeat IPC: 0.6612 cumulative IPC: 0.5522 (Simulation time: 01 hr 13 min 25 sec)
Heartbeat CPU 0 instructions: 190501038 cycles: 294510769 heartbeat IPC: 0.66 cumulative IPC: 0.5525 (Simulation time: 01 hr 13 min 37 sec)
Heartbeat CPU 0 instructions: 191001040 cycles: 295269905 heartbeat IPC: 0.6586 cumulative IPC: 0.5528 (Simulation time: 01 hr 13 min 48 sec)
Heartbeat CPU 0 instructions: 191501047 cycles: 296027147 heartbeat IPC: 0.6603 cumulative IPC: 0.5531 (Simulation time: 01 hr 14 min 00 sec)
Heartbeat CPU 0 instructions: 192001047 cycles: 296783723 heartbeat IPC: 0.6609 cumulative IPC: 0.5534 (Simulation time: 01 hr 14 min 11 sec)
Heartbeat CPU 0 instructions: 192501049 cycles: 297540837 heartbeat IPC: 0.6604 cumulative IPC: 0.5538 (Simulation time: 01 hr 14 min 23 sec)
Heartbeat CPU 0 instructions: 193001052 cycles: 298298806 heartbeat IPC: 0.6597 cumulative IPC: 0.5541 (Simulation time: 01 hr 14 min 34 sec)
Heartbeat CPU 0 instructions: 193501058 cycles: 299054414 heartbeat IPC: 0.6617 cumulative IPC: 0.5544 (Simulation time: 01 hr 14 min 46 sec)
Heartbeat CPU 0 instructions: 194001060 cycles: 299811392 heartbeat IPC: 0.6605 cumulative IPC: 0.5547 (Simulation time: 01 hr 14 min 57 sec)
Heartbeat CPU 0 instructions: 194501060 cycles: 300578744 heartbeat IPC: 0.6516 cumulative IPC: 0.555 (Simulation time: 01 hr 15 min 09 sec)
Heartbeat CPU 0 instructions: 195001066 cycles: 301669661 heartbeat IPC: 0.4583 cumulative IPC: 0.5546 (Simulation time: 01 hr 15 min 19 sec)
Heartbeat CPU 0 instructions: 195501068 cycles: 301977248 heartbeat IPC: 1.626 cumulative IPC: 0.5558 (Simulation time: 01 hr 15 min 24 sec)
Heartbeat CPU 0 instructions: 196001068 cycles: 302314986 heartbeat IPC: 1.48 cumulative IPC: 0.557 (Simulation time: 01 hr 15 min 28 sec)
Heartbeat CPU 0 instructions: 196501071 cycles: 302617327 heartbeat IPC: 1.654 cumulative IPC: 0.5583 (Simulation time: 01 hr 15 min 32 sec)
Heartbeat CPU 0 instructions: 197001073 cycles: 302886958 heartbeat IPC: 1.854 cumulative IPC: 0.5596 (Simulation time: 01 hr 15 min 36 sec)
Heartbeat CPU 0 instructions: 197501073 cycles: 303405023 heartbeat IPC: 0.9651 cumulative IPC: 0.5604 (Simulation time: 01 hr 15 min 41 sec)
Heartbeat CPU 0 instructions: 198001074 cycles: 303794617 heartbeat IPC: 1.283 cumulative IPC: 0.5615 (Simulation time: 01 hr 15 min 45 sec)
Heartbeat CPU 0 instructions: 198501074 cycles: 304030818 heartbeat IPC: 2.117 cumulative IPC: 0.5629 (Simulation time: 01 hr 15 min 48 sec)
Heartbeat CPU 0 instructions: 199001074 cycles: 304254783 heartbeat IPC: 2.232 cumulative IPC: 0.5643 (Simulation time: 01 hr 15 min 51 sec)
Heartbeat CPU 0 instructions: 199501075 cycles: 304479388 heartbeat IPC: 2.226 cumulative IPC: 0.5657 (Simulation time: 01 hr 15 min 54 sec)
Heartbeat CPU 0 instructions: 200001075 cycles: 304980829 heartbeat IPC: 0.9971 cumulative IPC: 0.5665 (Simulation time: 01 hr 15 min 59 sec)
Heartbeat CPU 0 instructions: 200501081 cycles: 305436508 heartbeat IPC: 1.097 cumulative IPC: 0.5674 (Simulation time: 01 hr 16 min 04 sec)
Heartbeat CPU 0 instructions: 201001087 cycles: 306802729 heartbeat IPC: 0.366 cumulative IPC: 0.5664 (Simulation time: 01 hr 16 min 21 sec)
Heartbeat CPU 0 instructions: 201501087 cycles: 307732950 heartbeat IPC: 0.5375 cumulative IPC: 0.5663 (Simulation time: 01 hr 16 min 34 sec)
Heartbeat CPU 0 instructions: 202001091 cycles: 308226665 heartbeat IPC: 1.013 cumulative IPC: 0.5671 (Simulation time: 01 hr 16 min 42 sec)
Heartbeat CPU 0 instructions: 202501093 cycles: 308937232 heartbeat IPC: 0.7037 cumulative IPC: 0.5675 (Simulation time: 01 hr 16 min 52 sec)
Heartbeat CPU 0 instructions: 203001096 cycles: 309704129 heartbeat IPC: 0.652 cumulative IPC: 0.5677 (Simulation time: 01 hr 17 min 03 sec)
Heartbeat CPU 0 instructions: 203501099 cycles: 310495152 heartbeat IPC: 0.6321 cumulative IPC: 0.5679 (Simulation time: 01 hr 17 min 15 sec)
Heartbeat CPU 0 instructions: 204001100 cycles: 311287745 heartbeat IPC: 0.6308 cumulative IPC: 0.5681 (Simulation time: 01 hr 17 min 27 sec)
Heartbeat CPU 0 instructions: 204501104 cycles: 312063785 heartbeat IPC: 0.6443 cumulative IPC: 0.5683 (Simulation time: 01 hr 17 min 40 sec)
Heartbeat CPU 0 instructions: 205001104 cycles: 312844978 heartbeat IPC: 0.64 cumulative IPC: 0.5685 (Simulation time: 01 hr 17 min 52 sec)
Heartbeat CPU 0 instructions: 205501104 cycles: 313678947 heartbeat IPC: 0.5995 cumulative IPC: 0.5686 (Simulation time: 01 hr 18 min 06 sec)
Heartbeat CPU 0 instructions: 206001106 cycles: 314509586 heartbeat IPC: 0.6019 cumulative IPC: 0.5687 (Simulation time: 01 hr 18 min 20 sec)
Heartbeat CPU 0 instructions: 206501113 cycles: 315313516 heartbeat IPC: 0.622 cumulative IPC: 0.5689 (Simulation time: 01 hr 18 min 33 sec)
Heartbeat CPU 0 instructions: 207001120 cycles: 316086071 heartbeat IPC: 0.6472 cumulative IPC: 0.5691 (Simulation time: 01 hr 18 min 44 sec)
Heartbeat CPU 0 instructions: 207501123 cycles: 316714450 heartbeat IPC: 0.7957 cumulative IPC: 0.5696 (Simulation time: 01 hr 18 min 54 sec)
Heartbeat CPU 0 instructions: 208001128 cycles: 317362710 heartbeat IPC: 0.7713 cumulative IPC: 0.5701 (Simulation time: 01 hr 19 min 03 sec)
Heartbeat CPU 0 instructions: 208501132 cycles: 317961887 heartbeat IPC: 0.8345 cumulative IPC: 0.5706 (Simulation time: 01 hr 19 min 12 sec)
Heartbeat CPU 0 instructions: 209001132 cycles: 318707078 heartbeat IPC: 0.671 cumulative IPC: 0.5709 (Simulation time: 01 hr 19 min 23 sec)
Heartbeat CPU 0 instructions: 209501138 cycles: 319479368 heartbeat IPC: 0.6474 cumulative IPC: 0.5711 (Simulation time: 01 hr 19 min 34 sec)
Heartbeat CPU 0 instructions: 210001141 cycles: 320248696 heartbeat IPC: 0.6499 cumulative IPC: 0.5713 (Simulation time: 01 hr 19 min 46 sec)
Heartbeat CPU 0 instructions: 210501141 cycles: 321021803 heartbeat IPC: 0.6467 cumulative IPC: 0.5715 (Simulation time: 01 hr 19 min 58 sec)
Heartbeat CPU 0 instructions: 211001142 cycles: 321818286 heartbeat IPC: 0.6278 cumulative IPC: 0.5717 (Simulation time: 01 hr 20 min 11 sec)
Heartbeat CPU 0 instructions: 211501142 cycles: 322648386 heartbeat IPC: 0.6023 cumulative IPC: 0.5718 (Simulation time: 01 hr 20 min 24 sec)
Heartbeat CPU 0 instructions: 212001143 cycles: 323477033 heartbeat IPC: 0.6034 cumulative IPC: 0.5719 (Simulation time: 01 hr 20 min 38 sec)
Heartbeat CPU 0 instructions: 212501143 cycles: 324242898 heartbeat IPC: 0.6529 cumulative IPC: 0.5721 (Simulation time: 01 hr 20 min 49 sec)
Heartbeat CPU 0 instructions: 213001147 cycles: 325010129 heartbeat IPC: 0.6517 cumulative IPC: 0.5723 (Simulation time: 01 hr 21 min 01 sec)
Heartbeat CPU 0 instructions: 213501153 cycles: 325481607 heartbeat IPC: 1.061 cumulative IPC: 0.5731 (Simulation time: 01 hr 21 min 08 sec)
Heartbeat CPU 0 instructions: 214001157 cycles: 326075292 heartbeat IPC: 0.8422 cumulative IPC: 0.5737 (Simulation time: 01 hr 21 min 16 sec)
Heartbeat CPU 0 instructions: 214501163 cycles: 326807483 heartbeat IPC: 0.6829 cumulative IPC: 0.574 (Simulation time: 01 hr 21 min 26 sec)
Heartbeat CPU 0 instructions: 215001163 cycles: 327570027 heartbeat IPC: 0.6557 cumulative IPC: 0.5742 (Simulation time: 01 hr 21 min 37 sec)
Heartbeat CPU 0 instructions: 215501163 cycles: 328335236 heartbeat IPC: 0.6534 cumulative IPC: 0.5744 (Simulation time: 01 hr 21 min 49 sec)
Heartbeat CPU 0 instructions: 216001164 cycles: 329099014 heartbeat IPC: 0.6546 cumulative IPC: 0.5746 (Simulation time: 01 hr 22 min 00 sec)
Heartbeat CPU 0 instructions: 216501171 cycles: 329849942 heartbeat IPC: 0.6659 cumulative IPC: 0.5748 (Simulation time: 01 hr 22 min 12 sec)
Heartbeat CPU 0 instructions: 217001173 cycles: 330678528 heartbeat IPC: 0.6034 cumulative IPC: 0.5749 (Simulation time: 01 hr 22 min 25 sec)
Heartbeat CPU 0 instructions: 217501177 cycles: 331506731 heartbeat IPC: 0.6037 cumulative IPC: 0.575 (Simulation time: 01 hr 22 min 38 sec)
Heartbeat CPU 0 instructions: 218001178 cycles: 332302784 heartbeat IPC: 0.6281 cumulative IPC: 0.5752 (Simulation time: 01 hr 22 min 50 sec)
Heartbeat CPU 0 instructions: 218501180 cycles: 333061268 heartbeat IPC: 0.6592 cumulative IPC: 0.5754 (Simulation time: 01 hr 23 min 01 sec)
Heartbeat CPU 0 instructions: 219001181 cycles: 333651963 heartbeat IPC: 0.8465 cumulative IPC: 0.5759 (Simulation time: 01 hr 23 min 10 sec)
Heartbeat CPU 0 instructions: 219501184 cycles: 334294876 heartbeat IPC: 0.7777 cumulative IPC: 0.5764 (Simulation time: 01 hr 23 min 18 sec)
Heartbeat CPU 0 instructions: 220001184 cycles: 334873630 heartbeat IPC: 0.8639 cumulative IPC: 0.5769 (Simulation time: 01 hr 23 min 26 sec)
Heartbeat CPU 0 instructions: 220501184 cycles: 335612150 heartbeat IPC: 0.677 cumulative IPC: 0.5772 (Simulation time: 01 hr 23 min 36 sec)
Heartbeat CPU 0 instructions: 221001188 cycles: 336378369 heartbeat IPC: 0.6526 cumulative IPC: 0.5774 (Simulation time: 01 hr 23 min 47 sec)
Heartbeat CPU 0 instructions: 221501191 cycles: 337141860 heartbeat IPC: 0.6549 cumulative IPC: 0.5776 (Simulation time: 01 hr 23 min 58 sec)
Heartbeat CPU 0 instructions: 222001193 cycles: 337900159 heartbeat IPC: 0.6594 cumulative IPC: 0.5778 (Simulation time: 01 hr 24 min 09 sec)
Heartbeat CPU 0 instructions: 222501193 cycles: 338689388 heartbeat IPC: 0.6335 cumulative IPC: 0.5779 (Simulation time: 01 hr 24 min 21 sec)
Heartbeat CPU 0 instructions: 223001193 cycles: 339517673 heartbeat IPC: 0.6037 cumulative IPC: 0.578 (Simulation time: 01 hr 24 min 34 sec)
Heartbeat CPU 0 instructions: 223501194 cycles: 340345567 heartbeat IPC: 0.6039 cumulative IPC: 0.5781 (Simulation time: 01 hr 24 min 47 sec)
Heartbeat CPU 0 instructions: 224001195 cycles: 341106392 heartbeat IPC: 0.6572 cumulative IPC: 0.5783 (Simulation time: 01 hr 24 min 58 sec)
Heartbeat CPU 0 instructions: 224501198 cycles: 341869953 heartbeat IPC: 0.6548 cumulative IPC: 0.5785 (Simulation time: 01 hr 25 min 09 sec)
Heartbeat CPU 0 instructions: 225001204 cycles: 342335132 heartbeat IPC: 1.075 cumulative IPC: 0.5792 (Simulation time: 01 hr 25 min 16 sec)
Heartbeat CPU 0 instructions: 225501211 cycles: 342911705 heartbeat IPC: 0.8672 cumulative IPC: 0.5798 (Simulation time: 01 hr 25 min 24 sec)
Heartbeat CPU 0 instructions: 226001215 cycles: 343655368 heartbeat IPC: 0.6724 cumulative IPC: 0.58 (Simulation time: 01 hr 25 min 34 sec)
Heartbeat CPU 0 instructions: 226501217 cycles: 344417480 heartbeat IPC: 0.6561 cumulative IPC: 0.5802 (Simulation time: 01 hr 25 min 45 sec)
Heartbeat CPU 0 instructions: 227001220 cycles: 345180612 heartbeat IPC: 0.6552 cumulative IPC: 0.5804 (Simulation time: 01 hr 25 min 56 sec)
Heartbeat CPU 0 instructions: 227501220 cycles: 345940719 heartbeat IPC: 0.6578 cumulative IPC: 0.5806 (Simulation time: 01 hr 26 min 07 sec)
Heartbeat CPU 0 instructions: 228001227 cycles: 346697179 heartbeat IPC: 0.661 cumulative IPC: 0.5808 (Simulation time: 01 hr 26 min 18 sec)
Heartbeat CPU 0 instructions: 228501230 cycles: 347525490 heartbeat IPC: 0.6036 cumulative IPC: 0.5808 (Simulation time: 01 hr 26 min 31 sec)
Heartbeat CPU 0 instructions: 229001236 cycles: 348352705 heartbeat IPC: 0.6044 cumulative IPC: 0.5809 (Simulation time: 01 hr 26 min 44 sec)
Heartbeat CPU 0 instructions: 229501240 cycles: 349147225 heartbeat IPC: 0.6293 cumulative IPC: 0.581 (Simulation time: 01 hr 26 min 56 sec)
Heartbeat CPU 0 instructions: 230001240 cycles: 349908866 heartbeat IPC: 0.6565 cumulative IPC: 0.5812 (Simulation time: 01 hr 27 min 06 sec)
Heartbeat CPU 0 instructions: 230501245 cycles: 350464899 heartbeat IPC: 0.8992 cumulative IPC: 0.5818 (Simulation time: 01 hr 27 min 15 sec)
Heartbeat CPU 0 instructions: 231001252 cycles: 351138461 heartbeat IPC: 0.7423 cumulative IPC: 0.5821 (Simulation time: 01 hr 27 min 24 sec)
Heartbeat CPU 0 instructions: 231501252 cycles: 351703601 heartbeat IPC: 0.8847 cumulative IPC: 0.5827 (Simulation time: 01 hr 27 min 31 sec)
Heartbeat CPU 0 instructions: 232001254 cycles: 352442679 heartbeat IPC: 0.6765 cumulative IPC: 0.5829 (Simulation time: 01 hr 27 min 41 sec)
Heartbeat CPU 0 instructions: 232501257 cycles: 353206579 heartbeat IPC: 0.6545 cumulative IPC: 0.5831 (Simulation time: 01 hr 27 min 52 sec)
Heartbeat CPU 0 instructions: 233001257 cycles: 353966205 heartbeat IPC: 0.6582 cumulative IPC: 0.5832 (Simulation time: 01 hr 28 min 03 sec)
Heartbeat CPU 0 instructions: 233501263 cycles: 354693988 heartbeat IPC: 0.687 cumulative IPC: 0.5835 (Simulation time: 01 hr 28 min 14 sec)
Heartbeat CPU 0 instructions: 234001264 cycles: 355516538 heartbeat IPC: 0.6079 cumulative IPC: 0.5836 (Simulation time: 01 hr 28 min 27 sec)
Heartbeat CPU 0 instructions: 234501264 cycles: 356345120 heartbeat IPC: 0.6034 cumulative IPC: 0.5836 (Simulation time: 01 hr 28 min 40 sec)
Heartbeat CPU 0 instructions: 235001265 cycles: 357171729 heartbeat IPC: 0.6049 cumulative IPC: 0.5837 (Simulation time: 01 hr 28 min 52 sec)
Heartbeat CPU 0 instructions: 235501269 cycles: 357929588 heartbeat IPC: 0.6598 cumulative IPC: 0.5838 (Simulation time: 01 hr 29 min 04 sec)
Heartbeat CPU 0 instructions: 236001275 cycles: 358692352 heartbeat IPC: 0.6555 cumulative IPC: 0.584 (Simulation time: 01 hr 29 min 15 sec)
Heartbeat CPU 0 instructions: 236501281 cycles: 359156811 heartbeat IPC: 1.077 cumulative IPC: 0.5847 (Simulation time: 01 hr 29 min 21 sec)
Heartbeat CPU 0 instructions: 237001283 cycles: 359731721 heartbeat IPC: 0.8697 cumulative IPC: 0.5852 (Simulation time: 01 hr 29 min 29 sec)
Heartbeat CPU 0 instructions: 237501283 cycles: 360471190 heartbeat IPC: 0.6762 cumulative IPC: 0.5855 (Simulation time: 01 hr 29 min 39 sec)
Heartbeat CPU 0 instructions: 238001283 cycles: 361233692 heartbeat IPC: 0.6557 cumulative IPC: 0.5856 (Simulation time: 01 hr 29 min 49 sec)
Heartbeat CPU 0 instructions: 238501290 cycles: 361995387 heartbeat IPC: 0.6564 cumulative IPC: 0.5858 (Simulation time: 01 hr 30 min 00 sec)
Heartbeat CPU 0 instructions: 239001291 cycles: 362755419 heartbeat IPC: 0.6579 cumulative IPC: 0.586 (Simulation time: 01 hr 30 min 11 sec)
Heartbeat CPU 0 instructions: 239501298 cycles: 363511927 heartbeat IPC: 0.6609 cumulative IPC: 0.5861 (Simulation time: 01 hr 30 min 22 sec)
Heartbeat CPU 0 instructions: 240001299 cycles: 364338581 heartbeat IPC: 0.6048 cumulative IPC: 0.5862 (Simulation time: 01 hr 30 min 34 sec)
Heartbeat CPU 0 instructions: 240501303 cycles: 365166120 heartbeat IPC: 0.6042 cumulative IPC: 0.5862 (Simulation time: 01 hr 30 min 47 sec)
Heartbeat CPU 0 instructions: 241001305 cycles: 365955942 heartbeat IPC: 0.6331 cumulative IPC: 0.5863 (Simulation time: 01 hr 30 min 58 sec)
Heartbeat CPU 0 instructions: 241501312 cycles: 366715779 heartbeat IPC: 0.658 cumulative IPC: 0.5865 (Simulation time: 01 hr 31 min 09 sec)
Heartbeat CPU 0 instructions: 242001312 cycles: 367241625 heartbeat IPC: 0.9508 cumulative IPC: 0.5871 (Simulation time: 01 hr 31 min 16 sec)
Heartbeat CPU 0 instructions: 242501312 cycles: 367945363 heartbeat IPC: 0.7105 cumulative IPC: 0.5874 (Simulation time: 01 hr 31 min 25 sec)
Heartbeat CPU 0 instructions: 243001314 cycles: 368513063 heartbeat IPC: 0.8808 cumulative IPC: 0.5879 (Simulation time: 01 hr 31 min 33 sec)
Heartbeat CPU 0 instructions: 243501314 cycles: 369251390 heartbeat IPC: 0.6772 cumulative IPC: 0.5881 (Simulation time: 01 hr 31 min 42 sec)
Heartbeat CPU 0 instructions: 244001320 cycles: 370016582 heartbeat IPC: 0.6534 cumulative IPC: 0.5882 (Simulation time: 01 hr 31 min 53 sec)
Heartbeat CPU 0 instructions: 244501323 cycles: 370777904 heartbeat IPC: 0.6568 cumulative IPC: 0.5884 (Simulation time: 01 hr 32 min 03 sec)
Heartbeat CPU 0 instructions: 245001325 cycles: 371502773 heartbeat IPC: 0.6898 cumulative IPC: 0.5886 (Simulation time: 01 hr 32 min 13 sec)
Heartbeat CPU 0 instructions: 245501325 cycles: 372329378 heartbeat IPC: 0.6049 cumulative IPC: 0.5886 (Simulation time: 01 hr 32 min 25 sec)
Heartbeat CPU 0 instructions: 246001327 cycles: 373156351 heartbeat IPC: 0.6046 cumulative IPC: 0.5887 (Simulation time: 01 hr 32 min 38 sec)
Heartbeat CPU 0 instructions: 246501327 cycles: 373982182 heartbeat IPC: 0.6055 cumulative IPC: 0.5887 (Simulation time: 01 hr 32 min 50 sec)
Heartbeat CPU 0 instructions: 247001331 cycles: 374734236 heartbeat IPC: 0.6649 cumulative IPC: 0.5889 (Simulation time: 01 hr 33 min 01 sec)
Heartbeat CPU 0 instructions: 247501337 cycles: 375496918 heartbeat IPC: 0.6556 cumulative IPC: 0.589 (Simulation time: 01 hr 33 min 12 sec)
Heartbeat CPU 0 instructions: 248001337 cycles: 375959297 heartbeat IPC: 1.081 cumulative IPC: 0.5897 (Simulation time: 01 hr 33 min 18 sec)
Heartbeat CPU 0 instructions: 248501337 cycles: 376535297 heartbeat IPC: 0.8681 cumulative IPC: 0.5902 (Simulation time: 01 hr 33 min 25 sec)
Heartbeat CPU 0 instructions: 249001337 cycles: 377273661 heartbeat IPC: 0.6772 cumulative IPC: 0.5904 (Simulation time: 01 hr 33 min 34 sec)
Heartbeat CPU 0 instructions: 249501343 cycles: 378035970 heartbeat IPC: 0.6559 cumulative IPC: 0.5905 (Simulation time: 01 hr 33 min 44 sec)
Simulation finished CPU 0 instructions: 200000001 cycles: 338592656 cumulative IPC: 0.5907 (Simulation time: 01 hr 33 min 54 sec)
Simulation complete CPU 0 instructions: 200000001 cycles: 338592656 cumulative IPC: 0.5907 (Simulation time: 01 hr 33 min 54 sec)

ChampSim completed all CPUs

=== Simulation ===
CPU 0 runs /local-ssd/ben/dpc4-traces/ai-ml/biogpt.cpp-ggml-model-tocilizumab.1.champsimtrace.gz

Region of Interest Statistics

CPU 0 cumulative IPC: 0.5907 instructions: 200000001 cycles: 338592656
CPU 0 Branch Prediction Accuracy: 97.8% MPKI: 2.083 Average ROB Occupancy at Mispredict: 365.3
Branch type MPKI
BRANCH_DIRECT_JUMP: 8e-05
BRANCH_INDIRECT: 0.00608
BRANCH_CONDITIONAL: 2.071
BRANCH_DIRECT_CALL: 0
BRANCH_INDIRECT_CALL: 0.001105
BRANCH_RETURN: 0.005355

cpu0->cpu0_STLB TOTAL        ACCESS:     457281 HIT:      28828 MISS:     428453 MSHR_MERGE:          0
cpu0->cpu0_STLB LOAD         ACCESS:     457281 HIT:      28828 MISS:     428453 MSHR_MERGE:          0
cpu0->cpu0_STLB RFO          ACCESS:          0 HIT:          0 MISS:          0 MSHR_MERGE:          0
cpu0->cpu0_STLB PREFETCH     ACCESS:          0 HIT:          0 MISS:          0 MSHR_MERGE:          0
cpu0->cpu0_STLB WRITE        ACCESS:          0 HIT:          0 MISS:          0 MSHR_MERGE:          0
cpu0->cpu0_STLB TRANSLATION  ACCESS:          0 HIT:          0 MISS:          0 MSHR_MERGE:          0
cpu0->cpu0_STLB PREFETCH REQUESTED:          0 ISSUED:          0 USEFUL:          0 USELESS:          0
cpu0->cpu0_STLB AVERAGE MISS LATENCY: 160.2 cycles
cpu0->cpu0_L2C TOTAL        ACCESS:   98151804 HIT:    4766043 MISS:   93385761 MSHR_MERGE:   65949156
cpu0->cpu0_L2C LOAD         ACCESS:   25045833 HIT:    1815456 MISS:   23230377 MSHR_MERGE:   18806552
cpu0->cpu0_L2C RFO          ACCESS:     201476 HIT:      46523 MISS:     154953 MSHR_MERGE:         89
cpu0->cpu0_L2C PREFETCH     ACCESS:   72513296 HIT:    2576703 MISS:   69936593 MSHR_MERGE:   47142515
cpu0->cpu0_L2C WRITE        ACCESS:     334091 HIT:     326463 MISS:       7628 MSHR_MERGE:          0
cpu0->cpu0_L2C TRANSLATION  ACCESS:      57108 HIT:        898 MISS:      56210 MSHR_MERGE:          0
cpu0->cpu0_L2C PREFETCH REQUESTED:   83440820 ISSUED:   68490912 USEFUL:   19256446 USELESS:    1513951
cpu0->cpu0_L2C AVERAGE MISS LATENCY: 139.1 cycles
cpu0->cpu0_L1I TOTAL        ACCESS:   30577058 HIT:   30575176 MISS:       1882 MSHR_MERGE:        525
cpu0->cpu0_L1I LOAD         ACCESS:   30577058 HIT:   30575176 MISS:       1882 MSHR_MERGE:        525
cpu0->cpu0_L1I RFO          ACCESS:          0 HIT:          0 MISS:          0 MSHR_MERGE:          0
cpu0->cpu0_L1I PREFETCH     ACCESS:          0 HIT:          0 MISS:          0 MSHR_MERGE:          0
cpu0->cpu0_L1I WRITE        ACCESS:          0 HIT:          0 MISS:          0 MSHR_MERGE:          0
cpu0->cpu0_L1I TRANSLATION  ACCESS:          0 HIT:          0 MISS:          0 MSHR_MERGE:          0
cpu0->cpu0_L1I PREFETCH REQUESTED:          0 ISSUED:          0 USEFUL:          0 USELESS:          0
cpu0->cpu0_L1I AVERAGE MISS LATENCY: 251.5 cycles
cpu0->cpu0_L1D TOTAL        ACCESS:   89475662 HIT:   44475082 MISS:   45000580 MSHR_MERGE:   15675124
cpu0->cpu0_L1D LOAD         ACCESS:   60015035 HIT:   30471916 MISS:   29543119 MSHR_MERGE:    4498639
cpu0->cpu0_L1D RFO          ACCESS:          0 HIT:          0 MISS:          0 MSHR_MERGE:          0
cpu0->cpu0_L1D PREFETCH     ACCESS:   23371960 HIT:   10753979 MISS:   12617981 MSHR_MERGE:    8595601
cpu0->cpu0_L1D WRITE        ACCESS:    5232575 HIT:    2451243 MISS:    2781332 MSHR_MERGE:    2579844
cpu0->cpu0_L1D TRANSLATION  ACCESS:     856092 HIT:     797944 MISS:      58148 MSHR_MERGE:       1040
cpu0->cpu0_L1D PREFETCH REQUESTED:  383385682 ISSUED:   23371962 USEFUL:    3618965 USELESS:     403419
cpu0->cpu0_L1D AVERAGE MISS LATENCY: 144.8 cycles
cpu0->cpu0_ITLB TOTAL        ACCESS:   20291837 HIT:   20291404 MISS:        433 MSHR_MERGE:        206
cpu0->cpu0_ITLB LOAD         ACCESS:   20291837 HIT:   20291404 MISS:        433 MSHR_MERGE:        206
cpu0->cpu0_ITLB RFO          ACCESS:          0 HIT:          0 MISS:          0 MSHR_MERGE:          0
cpu0->cpu0_ITLB PREFETCH     ACCESS:          0 HIT:          0 MISS:          0 MSHR_MERGE:          0
cpu0->cpu0_ITLB WRITE        ACCESS:          0 HIT:          0 MISS:          0 MSHR_MERGE:          0
cpu0->cpu0_ITLB TRANSLATION  ACCESS:          0 HIT:          0 MISS:          0 MSHR_MERGE:          0
cpu0->cpu0_ITLB PREFETCH REQUESTED:          0 ISSUED:          0 USEFUL:          0 USELESS:          0
cpu0->cpu0_ITLB AVERAGE MISS LATENCY: 73.21 cycles
cpu0->cpu0_DTLB TOTAL        ACCESS:   82044110 HIT:   77538248 MISS:    4505862 MSHR_MERGE:    4048808
cpu0->cpu0_DTLB LOAD         ACCESS:   82044110 HIT:   77538248 MISS:    4505862 MSHR_MERGE:    4048808
cpu0->cpu0_DTLB RFO          ACCESS:          0 HIT:          0 MISS:          0 MSHR_MERGE:          0
cpu0->cpu0_DTLB PREFETCH     ACCESS:          0 HIT:          0 MISS:          0 MSHR_MERGE:          0
cpu0->cpu0_DTLB WRITE        ACCESS:          0 HIT:          0 MISS:          0 MSHR_MERGE:          0
cpu0->cpu0_DTLB TRANSLATION  ACCESS:          0 HIT:          0 MISS:          0 MSHR_MERGE:          0
cpu0->cpu0_DTLB PREFETCH REQUESTED:          0 ISSUED:          0 USEFUL:          0 USELESS:          0
cpu0->cpu0_DTLB AVERAGE MISS LATENCY: 156 cycles
cpu0->LLC TOTAL        ACCESS:   53943213 HIT:    1083729 MISS:   52859484 MSHR_MERGE:   25598180
cpu0->LLC LOAD         ACCESS:    4423824 HIT:     183768 MISS:    4240056 MSHR_MERGE:    1026329
cpu0->LLC RFO          ACCESS:     154864 HIT:      92080 MISS:      62784 MSHR_MERGE:         95
cpu0->LLC PREFETCH     ACCESS:   49115987 HIT:     665261 MISS:   48450726 MSHR_MERGE:   24571756
cpu0->LLC WRITE        ACCESS:     192328 HIT:     142165 MISS:      50163 MSHR_MERGE:          0
cpu0->LLC TRANSLATION  ACCESS:      56210 HIT:        455 MISS:      55755 MSHR_MERGE:          0
cpu0->LLC PREFETCH REQUESTED:   26838531 ISSUED:   26321906 USEFUL:    1385969 USELESS:   15260184
cpu0->LLC AVERAGE MISS LATENCY: 242.5 cycles

DRAM Statistics

Channel 0 RQ ROW_BUFFER_HIT:   13075184
  ROW_BUFFER_MISS:   14135450
  AVG DBUS CONGESTED CYCLE: 4.08
Channel 0 WQ ROW_BUFFER_HIT:       2626
  ROW_BUFFER_MISS:      70710
  FULL:       1518
Channel 0 REFRESHES ISSUED:      28214
