[VMEM] WARNING: physical memory size is smaller than virtual memory size.

*** ChampSim Multicore Out-of-Order Simulator ***
Warmup Instructions: 50000000
Simulation Instructions: 200000000
Number of CPUs: 1
Page size: 4096
Core 0: /local-ssd/ben/dpc4-traces/Graph/Ligra/ligra_PageRankDelta.com-lj.ungraph.gcc_6.3.0_O3.drop_17000M.length_250M.champsimtrace.xz
Off-chip DRAM Size: 64 GiB Channels: 1 Width: 64-bit Data Rate: 4807 MT/s
Heartbeat CPU 0 instructions: 500003 cycles: 201194 heartbeat IPC: 2.485 cumulative IPC: 2.485 (Simulation time: 00 hr 00 min 02 sec)
Heartbeat CPU 0 instructions: 1000004 cycles: 401246 heartbeat IPC: 2.499 cumulative IPC: 2.492 (Simulation time: 00 hr 00 min 05 sec)
Heartbeat CPU 0 instructions: 1500010 cycles: 581404 heartbeat IPC: 2.775 cumulative IPC: 2.58 (Simulation time: 00 hr 00 min 07 sec)
Heartbeat CPU 0 instructions: 2000015 cycles: 775751 heartbeat IPC: 2.573 cumulative IPC: 2.578 (Simulation time: 00 hr 00 min 09 sec)
Heartbeat CPU 0 instructions: 2500015 cycles: 971282 heartbeat IPC: 2.557 cumulative IPC: 2.574 (Simulation time: 00 hr 00 min 11 sec)
Heartbeat CPU 0 instructions: 3000018 cycles: 1165798 heartbeat IPC: 2.57 cumulative IPC: 2.573 (Simulation time: 00 hr 00 min 13 sec)
Heartbeat CPU 0 instructions: 3500018 cycles: 1353800 heartbeat IPC: 2.66 cumulative IPC: 2.585 (Simulation time: 00 hr 00 min 16 sec)
Heartbeat CPU 0 instructions: 4000018 cycles: 1535828 heartbeat IPC: 2.747 cumulative IPC: 2.604 (Simulation time: 00 hr 00 min 18 sec)
Heartbeat CPU 0 instructions: 4500019 cycles: 1717285 heartbeat IPC: 2.755 cumulative IPC: 2.62 (Simulation time: 00 hr 00 min 21 sec)
Heartbeat CPU 0 instructions: 5000024 cycles: 1914375 heartbeat IPC: 2.537 cumulative IPC: 2.612 (Simulation time: 00 hr 00 min 24 sec)
Heartbeat CPU 0 instructions: 5500030 cycles: 2105888 heartbeat IPC: 2.611 cumulative IPC: 2.612 (Simulation time: 00 hr 00 min 26 sec)
Heartbeat CPU 0 instructions: 6000036 cycles: 2300774 heartbeat IPC: 2.566 cumulative IPC: 2.608 (Simulation time: 00 hr 00 min 29 sec)
Heartbeat CPU 0 instructions: 6500039 cycles: 2495978 heartbeat IPC: 2.561 cumulative IPC: 2.604 (Simulation time: 00 hr 00 min 32 sec)
Heartbeat CPU 0 instructions: 7000043 cycles: 2693222 heartbeat IPC: 2.535 cumulative IPC: 2.599 (Simulation time: 00 hr 00 min 34 sec)
Heartbeat CPU 0 instructions: 7500049 cycles: 2887640 heartbeat IPC: 2.572 cumulative IPC: 2.597 (Simulation time: 00 hr 00 min 37 sec)
Heartbeat CPU 0 instructions: 8000049 cycles: 3084141 heartbeat IPC: 2.545 cumulative IPC: 2.594 (Simulation time: 00 hr 00 min 40 sec)
Heartbeat CPU 0 instructions: 8500049 cycles: 3278047 heartbeat IPC: 2.579 cumulative IPC: 2.593 (Simulation time: 00 hr 00 min 42 sec)
Heartbeat CPU 0 instructions: 9000050 cycles: 3464535 heartbeat IPC: 2.681 cumulative IPC: 2.598 (Simulation time: 00 hr 00 min 45 sec)
Heartbeat CPU 0 instructions: 9500052 cycles: 3635470 heartbeat IPC: 2.925 cumulative IPC: 2.613 (Simulation time: 00 hr 00 min 48 sec)
Heartbeat CPU 0 instructions: 10000058 cycles: 3815665 heartbeat IPC: 2.775 cumulative IPC: 2.621 (Simulation time: 00 hr 00 min 50 sec)
Heartbeat CPU 0 instructions: 10500062 cycles: 3986961 heartbeat IPC: 2.919 cumulative IPC: 2.634 (Simulation time: 00 hr 00 min 53 sec)
Heartbeat CPU 0 instructions: 11000062 cycles: 4125028 heartbeat IPC: 3.621 cumulative IPC: 2.667 (Simulation time: 00 hr 00 min 55 sec)
Heartbeat CPU 0 instructions: 11500069 cycles: 4256665 heartbeat IPC: 3.798 cumulative IPC: 2.702 (Simulation time: 00 hr 00 min 57 sec)
Heartbeat CPU 0 instructions: 12000069 cycles: 4383210 heartbeat IPC: 3.951 cumulative IPC: 2.738 (Simulation time: 00 hr 00 min 59 sec)
Heartbeat CPU 0 instructions: 12500076 cycles: 4504709 heartbeat IPC: 4.115 cumulative IPC: 2.775 (Simulation time: 00 hr 01 min 02 sec)
Heartbeat CPU 0 instructions: 13000083 cycles: 4623173 heartbeat IPC: 4.221 cumulative IPC: 2.812 (Simulation time: 00 hr 01 min 04 sec)
Heartbeat CPU 0 instructions: 13500086 cycles: 4737484 heartbeat IPC: 4.374 cumulative IPC: 2.85 (Simulation time: 00 hr 01 min 06 sec)
Heartbeat CPU 0 instructions: 14000086 cycles: 4876567 heartbeat IPC: 3.595 cumulative IPC: 2.871 (Simulation time: 00 hr 01 min 09 sec)
Heartbeat CPU 0 instructions: 14500088 cycles: 5006732 heartbeat IPC: 3.841 cumulative IPC: 2.896 (Simulation time: 00 hr 01 min 11 sec)
Heartbeat CPU 0 instructions: 15000092 cycles: 5135728 heartbeat IPC: 3.876 cumulative IPC: 2.921 (Simulation time: 00 hr 01 min 14 sec)
Heartbeat CPU 0 instructions: 15500099 cycles: 5273894 heartbeat IPC: 3.619 cumulative IPC: 2.939 (Simulation time: 00 hr 01 min 16 sec)
Heartbeat CPU 0 instructions: 16000099 cycles: 5395356 heartbeat IPC: 4.117 cumulative IPC: 2.966 (Simulation time: 00 hr 01 min 19 sec)
Heartbeat CPU 0 instructions: 16500100 cycles: 5516252 heartbeat IPC: 4.136 cumulative IPC: 2.991 (Simulation time: 00 hr 01 min 22 sec)
Heartbeat CPU 0 instructions: 17000101 cycles: 5642780 heartbeat IPC: 3.952 cumulative IPC: 3.013 (Simulation time: 00 hr 01 min 24 sec)
Heartbeat CPU 0 instructions: 17500103 cycles: 5764007 heartbeat IPC: 4.125 cumulative IPC: 3.036 (Simulation time: 00 hr 01 min 27 sec)
Heartbeat CPU 0 instructions: 18000104 cycles: 5888704 heartbeat IPC: 4.01 cumulative IPC: 3.057 (Simulation time: 00 hr 01 min 29 sec)
Heartbeat CPU 0 instructions: 18500107 cycles: 6015541 heartbeat IPC: 3.942 cumulative IPC: 3.075 (Simulation time: 00 hr 01 min 32 sec)
Heartbeat CPU 0 instructions: 19000109 cycles: 6136336 heartbeat IPC: 4.139 cumulative IPC: 3.096 (Simulation time: 00 hr 01 min 34 sec)
Heartbeat CPU 0 instructions: 19500109 cycles: 6257417 heartbeat IPC: 4.129 cumulative IPC: 3.116 (Simulation time: 00 hr 01 min 37 sec)
Heartbeat CPU 0 instructions: 20000111 cycles: 6378760 heartbeat IPC: 4.121 cumulative IPC: 3.135 (Simulation time: 00 hr 01 min 39 sec)
Heartbeat CPU 0 instructions: 20500118 cycles: 6499800 heartbeat IPC: 4.131 cumulative IPC: 3.154 (Simulation time: 00 hr 01 min 42 sec)
Heartbeat CPU 0 instructions: 21000125 cycles: 6621028 heartbeat IPC: 4.125 cumulative IPC: 3.172 (Simulation time: 00 hr 01 min 45 sec)
Heartbeat CPU 0 instructions: 21500132 cycles: 6742111 heartbeat IPC: 4.129 cumulative IPC: 3.189 (Simulation time: 00 hr 01 min 47 sec)
Heartbeat CPU 0 instructions: 22000139 cycles: 6862936 heartbeat IPC: 4.138 cumulative IPC: 3.206 (Simulation time: 00 hr 01 min 50 sec)
Heartbeat CPU 0 instructions: 22500141 cycles: 6984069 heartbeat IPC: 4.128 cumulative IPC: 3.222 (Simulation time: 00 hr 01 min 52 sec)
Heartbeat CPU 0 instructions: 23000148 cycles: 7105305 heartbeat IPC: 4.124 cumulative IPC: 3.237 (Simulation time: 00 hr 01 min 55 sec)
Heartbeat CPU 0 instructions: 23500152 cycles: 7226317 heartbeat IPC: 4.132 cumulative IPC: 3.252 (Simulation time: 00 hr 01 min 57 sec)
Heartbeat CPU 0 instructions: 24000153 cycles: 7347533 heartbeat IPC: 4.125 cumulative IPC: 3.266 (Simulation time: 00 hr 02 min 00 sec)
Heartbeat CPU 0 instructions: 24500153 cycles: 7471225 heartbeat IPC: 4.042 cumulative IPC: 3.279 (Simulation time: 00 hr 02 min 02 sec)
Heartbeat CPU 0 instructions: 25000160 cycles: 7598040 heartbeat IPC: 3.943 cumulative IPC: 3.29 (Simulation time: 00 hr 02 min 05 sec)
Heartbeat CPU 0 instructions: 25500165 cycles: 7721239 heartbeat IPC: 4.059 cumulative IPC: 3.303 (Simulation time: 00 hr 02 min 08 sec)
Heartbeat CPU 0 instructions: 26000167 cycles: 7850330 heartbeat IPC: 3.873 cumulative IPC: 3.312 (Simulation time: 00 hr 02 min 10 sec)
Heartbeat CPU 0 instructions: 26500173 cycles: 7980684 heartbeat IPC: 3.836 cumulative IPC: 3.321 (Simulation time: 00 hr 02 min 13 sec)
Heartbeat CPU 0 instructions: 27000175 cycles: 8112624 heartbeat IPC: 3.79 cumulative IPC: 3.328 (Simulation time: 00 hr 02 min 15 sec)
Heartbeat CPU 0 instructions: 27500180 cycles: 8234463 heartbeat IPC: 4.104 cumulative IPC: 3.34 (Simulation time: 00 hr 02 min 18 sec)
Heartbeat CPU 0 instructions: 28000181 cycles: 8414237 heartbeat IPC: 2.781 cumulative IPC: 3.328 (Simulation time: 00 hr 02 min 21 sec)
Heartbeat CPU 0 instructions: 28500185 cycles: 8616582 heartbeat IPC: 2.471 cumulative IPC: 3.308 (Simulation time: 00 hr 02 min 23 sec)
Heartbeat CPU 0 instructions: 29000189 cycles: 8820080 heartbeat IPC: 2.457 cumulative IPC: 3.288 (Simulation time: 00 hr 02 min 26 sec)
Heartbeat CPU 0 instructions: 29500195 cycles: 9023801 heartbeat IPC: 2.454 cumulative IPC: 3.269 (Simulation time: 00 hr 02 min 29 sec)
Heartbeat CPU 0 instructions: 30000197 cycles: 9229576 heartbeat IPC: 2.43 cumulative IPC: 3.25 (Simulation time: 00 hr 02 min 32 sec)
Heartbeat CPU 0 instructions: 30500202 cycles: 9417980 heartbeat IPC: 2.654 cumulative IPC: 3.239 (Simulation time: 00 hr 02 min 34 sec)
Heartbeat CPU 0 instructions: 31000202 cycles: 9619944 heartbeat IPC: 2.476 cumulative IPC: 3.222 (Simulation time: 00 hr 02 min 37 sec)
Heartbeat CPU 0 instructions: 31500206 cycles: 9822493 heartbeat IPC: 2.469 cumulative IPC: 3.207 (Simulation time: 00 hr 02 min 40 sec)
Heartbeat CPU 0 instructions: 32000210 cycles: 10025728 heartbeat IPC: 2.46 cumulative IPC: 3.192 (Simulation time: 00 hr 02 min 43 sec)
Heartbeat CPU 0 instructions: 32500210 cycles: 10230436 heartbeat IPC: 2.443 cumulative IPC: 3.177 (Simulation time: 00 hr 02 min 45 sec)
Heartbeat CPU 0 instructions: 33000213 cycles: 10434566 heartbeat IPC: 2.449 cumulative IPC: 3.163 (Simulation time: 00 hr 02 min 48 sec)
Heartbeat CPU 0 instructions: 33500214 cycles: 10636239 heartbeat IPC: 2.479 cumulative IPC: 3.15 (Simulation time: 00 hr 02 min 51 sec)
Heartbeat CPU 0 instructions: 34000215 cycles: 10838084 heartbeat IPC: 2.477 cumulative IPC: 3.137 (Simulation time: 00 hr 02 min 54 sec)
Heartbeat CPU 0 instructions: 34500222 cycles: 11040978 heartbeat IPC: 2.464 cumulative IPC: 3.125 (Simulation time: 00 hr 02 min 56 sec)
Heartbeat CPU 0 instructions: 35000227 cycles: 11245914 heartbeat IPC: 2.44 cumulative IPC: 3.112 (Simulation time: 00 hr 02 min 59 sec)
Heartbeat CPU 0 instructions: 35500230 cycles: 11451006 heartbeat IPC: 2.438 cumulative IPC: 3.1 (Simulation time: 00 hr 03 min 02 sec)
Heartbeat CPU 0 instructions: 36000234 cycles: 11653537 heartbeat IPC: 2.469 cumulative IPC: 3.089 (Simulation time: 00 hr 03 min 05 sec)
Heartbeat CPU 0 instructions: 36500238 cycles: 11854627 heartbeat IPC: 2.486 cumulative IPC: 3.079 (Simulation time: 00 hr 03 min 07 sec)
Heartbeat CPU 0 instructions: 37000239 cycles: 12056048 heartbeat IPC: 2.482 cumulative IPC: 3.069 (Simulation time: 00 hr 03 min 10 sec)
Heartbeat CPU 0 instructions: 37500239 cycles: 12260976 heartbeat IPC: 2.44 cumulative IPC: 3.059 (Simulation time: 00 hr 03 min 13 sec)
Heartbeat CPU 0 instructions: 38000242 cycles: 12459231 heartbeat IPC: 2.522 cumulative IPC: 3.05 (Simulation time: 00 hr 03 min 16 sec)
Heartbeat CPU 0 instructions: 38500244 cycles: 12620773 heartbeat IPC: 3.095 cumulative IPC: 3.051 (Simulation time: 00 hr 03 min 18 sec)
Heartbeat CPU 0 instructions: 39000249 cycles: 12761659 heartbeat IPC: 3.549 cumulative IPC: 3.056 (Simulation time: 00 hr 03 min 20 sec)
Heartbeat CPU 0 instructions: 39500250 cycles: 12902675 heartbeat IPC: 3.546 cumulative IPC: 3.061 (Simulation time: 00 hr 03 min 23 sec)
Heartbeat CPU 0 instructions: 40000256 cycles: 13043285 heartbeat IPC: 3.556 cumulative IPC: 3.067 (Simulation time: 00 hr 03 min 25 sec)
Heartbeat CPU 0 instructions: 40500262 cycles: 13192129 heartbeat IPC: 3.359 cumulative IPC: 3.07 (Simulation time: 00 hr 03 min 28 sec)
Heartbeat CPU 0 instructions: 41000266 cycles: 13317816 heartbeat IPC: 3.978 cumulative IPC: 3.079 (Simulation time: 00 hr 03 min 30 sec)
Heartbeat CPU 0 instructions: 41500268 cycles: 13459046 heartbeat IPC: 3.54 cumulative IPC: 3.083 (Simulation time: 00 hr 03 min 33 sec)
Heartbeat CPU 0 instructions: 42000271 cycles: 13585157 heartbeat IPC: 3.965 cumulative IPC: 3.092 (Simulation time: 00 hr 03 min 35 sec)
Heartbeat CPU 0 instructions: 42500278 cycles: 13710861 heartbeat IPC: 3.978 cumulative IPC: 3.1 (Simulation time: 00 hr 03 min 38 sec)
Heartbeat CPU 0 instructions: 43000281 cycles: 13836505 heartbeat IPC: 3.98 cumulative IPC: 3.108 (Simulation time: 00 hr 03 min 40 sec)
Heartbeat CPU 0 instructions: 43500284 cycles: 13962177 heartbeat IPC: 3.979 cumulative IPC: 3.116 (Simulation time: 00 hr 03 min 43 sec)
Heartbeat CPU 0 instructions: 44000291 cycles: 14088349 heartbeat IPC: 3.963 cumulative IPC: 3.123 (Simulation time: 00 hr 03 min 46 sec)
Heartbeat CPU 0 instructions: 44500295 cycles: 14215585 heartbeat IPC: 3.93 cumulative IPC: 3.13 (Simulation time: 00 hr 03 min 48 sec)
Heartbeat CPU 0 instructions: 45000300 cycles: 14341429 heartbeat IPC: 3.973 cumulative IPC: 3.138 (Simulation time: 00 hr 03 min 51 sec)
Heartbeat CPU 0 instructions: 45500306 cycles: 14467290 heartbeat IPC: 3.973 cumulative IPC: 3.145 (Simulation time: 00 hr 03 min 53 sec)
Heartbeat CPU 0 instructions: 46000312 cycles: 14592963 heartbeat IPC: 3.979 cumulative IPC: 3.152 (Simulation time: 00 hr 03 min 56 sec)
Heartbeat CPU 0 instructions: 46500315 cycles: 14718952 heartbeat IPC: 3.969 cumulative IPC: 3.159 (Simulation time: 00 hr 03 min 58 sec)
Heartbeat CPU 0 instructions: 47000320 cycles: 14845459 heartbeat IPC: 3.952 cumulative IPC: 3.166 (Simulation time: 00 hr 04 min 01 sec)
Heartbeat CPU 0 instructions: 47500320 cycles: 14971829 heartbeat IPC: 3.957 cumulative IPC: 3.173 (Simulation time: 00 hr 04 min 04 sec)
Heartbeat CPU 0 instructions: 48000326 cycles: 15113075 heartbeat IPC: 3.54 cumulative IPC: 3.176 (Simulation time: 00 hr 04 min 06 sec)
Heartbeat CPU 0 instructions: 48500333 cycles: 15239171 heartbeat IPC: 3.965 cumulative IPC: 3.183 (Simulation time: 00 hr 04 min 09 sec)
Heartbeat CPU 0 instructions: 49000339 cycles: 15395592 heartbeat IPC: 3.197 cumulative IPC: 3.183 (Simulation time: 00 hr 04 min 11 sec)
Heartbeat CPU 0 instructions: 49500343 cycles: 15537044 heartbeat IPC: 3.535 cumulative IPC: 3.186 (Simulation time: 00 hr 04 min 14 sec)
Warmup halting CPU 0 at instruction 50000004 cycle 15663246 for remainder of phase
Warmup finished CPU 0 instructions: 50000004 cycles: 15663246 cumulative IPC: 3.192 (Simulation time: 00 hr 04 min 16 sec)
Warmup complete CPU 0 instructions: 50000004 cycles: 15663246 cumulative IPC: 3.192 (Simulation time: 00 hr 04 min 16 sec)
Heartbeat CPU 0 instructions: 50000348 cycles: 15663294 heartbeat IPC: 3.96 cumulative IPC: 7.167 (Simulation time: 00 hr 04 min 16 sec)
Heartbeat CPU 0 instructions: 50500350 cycles: 15885371 heartbeat IPC: 2.251 cumulative IPC: 2.253 (Simulation time: 00 hr 04 min 20 sec)
Heartbeat CPU 0 instructions: 51000352 cycles: 16568581 heartbeat IPC: 0.7318 cumulative IPC: 1.105 (Simulation time: 00 hr 04 min 29 sec)
Heartbeat CPU 0 instructions: 51500358 cycles: 17386224 heartbeat IPC: 0.6115 cumulative IPC: 0.8708 (Simulation time: 00 hr 04 min 41 sec)
Heartbeat CPU 0 instructions: 52000363 cycles: 18274357 heartbeat IPC: 0.563 cumulative IPC: 0.7661 (Simulation time: 00 hr 04 min 52 sec)
Heartbeat CPU 0 instructions: 52500364 cycles: 19048170 heartbeat IPC: 0.6462 cumulative IPC: 0.7387 (Simulation time: 00 hr 05 min 03 sec)
Heartbeat CPU 0 instructions: 53000364 cycles: 19277378 heartbeat IPC: 2.181 cumulative IPC: 0.8302 (Simulation time: 00 hr 05 min 06 sec)
Heartbeat CPU 0 instructions: 53500369 cycles: 19503157 heartbeat IPC: 2.215 cumulative IPC: 0.9116 (Simulation time: 00 hr 05 min 10 sec)
Heartbeat CPU 0 instructions: 54000373 cycles: 19726755 heartbeat IPC: 2.236 cumulative IPC: 0.9845 (Simulation time: 00 hr 05 min 14 sec)
Heartbeat CPU 0 instructions: 54500378 cycles: 19959514 heartbeat IPC: 2.148 cumulative IPC: 1.048 (Simulation time: 00 hr 05 min 18 sec)
Heartbeat CPU 0 instructions: 55000378 cycles: 20195614 heartbeat IPC: 2.118 cumulative IPC: 1.103 (Simulation time: 00 hr 05 min 21 sec)
Heartbeat CPU 0 instructions: 55500381 cycles: 20432732 heartbeat IPC: 2.109 cumulative IPC: 1.153 (Simulation time: 00 hr 05 min 25 sec)
Heartbeat CPU 0 instructions: 56000385 cycles: 20663790 heartbeat IPC: 2.164 cumulative IPC: 1.2 (Simulation time: 00 hr 05 min 29 sec)
Heartbeat CPU 0 instructions: 56500385 cycles: 20902548 heartbeat IPC: 2.094 cumulative IPC: 1.241 (Simulation time: 00 hr 05 min 33 sec)
Heartbeat CPU 0 instructions: 57000387 cycles: 21139592 heartbeat IPC: 2.109 cumulative IPC: 1.278 (Simulation time: 00 hr 05 min 37 sec)
Heartbeat CPU 0 instructions: 57500391 cycles: 21382418 heartbeat IPC: 2.059 cumulative IPC: 1.311 (Simulation time: 00 hr 05 min 41 sec)
Heartbeat CPU 0 instructions: 58000397 cycles: 21615217 heartbeat IPC: 2.148 cumulative IPC: 1.344 (Simulation time: 00 hr 05 min 45 sec)
Heartbeat CPU 0 instructions: 58500401 cycles: 21846961 heartbeat IPC: 2.158 cumulative IPC: 1.375 (Simulation time: 00 hr 05 min 48 sec)
Heartbeat CPU 0 instructions: 59000404 cycles: 22076503 heartbeat IPC: 2.178 cumulative IPC: 1.403 (Simulation time: 00 hr 05 min 52 sec)
Heartbeat CPU 0 instructions: 59500404 cycles: 22318205 heartbeat IPC: 2.069 cumulative IPC: 1.428 (Simulation time: 00 hr 05 min 56 sec)
Heartbeat CPU 0 instructions: 60000409 cycles: 22551019 heartbeat IPC: 2.148 cumulative IPC: 1.452 (Simulation time: 00 hr 06 min 00 sec)
Heartbeat CPU 0 instructions: 60500413 cycles: 22789419 heartbeat IPC: 2.097 cumulative IPC: 1.473 (Simulation time: 00 hr 06 min 04 sec)
Heartbeat CPU 0 instructions: 61000413 cycles: 23028649 heartbeat IPC: 2.09 cumulative IPC: 1.494 (Simulation time: 00 hr 06 min 08 sec)
Heartbeat CPU 0 instructions: 61500418 cycles: 23503132 heartbeat IPC: 1.054 cumulative IPC: 1.467 (Simulation time: 00 hr 06 min 14 sec)
Heartbeat CPU 0 instructions: 62000425 cycles: 24260181 heartbeat IPC: 0.6605 cumulative IPC: 1.396 (Simulation time: 00 hr 06 min 25 sec)
Heartbeat CPU 0 instructions: 62500427 cycles: 25169387 heartbeat IPC: 0.5499 cumulative IPC: 1.315 (Simulation time: 00 hr 06 min 37 sec)
Heartbeat CPU 0 instructions: 63000431 cycles: 25697956 heartbeat IPC: 0.946 cumulative IPC: 1.296 (Simulation time: 00 hr 06 min 44 sec)
Heartbeat CPU 0 instructions: 63500437 cycles: 25903416 heartbeat IPC: 2.434 cumulative IPC: 1.318 (Simulation time: 00 hr 06 min 48 sec)
Heartbeat CPU 0 instructions: 64000441 cycles: 26112235 heartbeat IPC: 2.394 cumulative IPC: 1.34 (Simulation time: 00 hr 06 min 51 sec)
Heartbeat CPU 0 instructions: 64500444 cycles: 26321643 heartbeat IPC: 2.388 cumulative IPC: 1.36 (Simulation time: 00 hr 06 min 55 sec)
Heartbeat CPU 0 instructions: 65000447 cycles: 26540299 heartbeat IPC: 2.287 cumulative IPC: 1.379 (Simulation time: 00 hr 06 min 58 sec)
Heartbeat CPU 0 instructions: 65500453 cycles: 26755647 heartbeat IPC: 2.322 cumulative IPC: 1.397 (Simulation time: 00 hr 07 min 02 sec)
Heartbeat CPU 0 instructions: 66000453 cycles: 26965571 heartbeat IPC: 2.382 cumulative IPC: 1.416 (Simulation time: 00 hr 07 min 06 sec)
Heartbeat CPU 0 instructions: 66500460 cycles: 27175984 heartbeat IPC: 2.376 cumulative IPC: 1.433 (Simulation time: 00 hr 07 min 09 sec)
Heartbeat CPU 0 instructions: 67000464 cycles: 27394557 heartbeat IPC: 2.288 cumulative IPC: 1.449 (Simulation time: 00 hr 07 min 13 sec)
Heartbeat CPU 0 instructions: 67500465 cycles: 27613584 heartbeat IPC: 2.283 cumulative IPC: 1.464 (Simulation time: 00 hr 07 min 17 sec)
Heartbeat CPU 0 instructions: 68000465 cycles: 27828711 heartbeat IPC: 2.324 cumulative IPC: 1.48 (Simulation time: 00 hr 07 min 20 sec)
Heartbeat CPU 0 instructions: 68500469 cycles: 28040081 heartbeat IPC: 2.366 cumulative IPC: 1.495 (Simulation time: 00 hr 07 min 24 sec)
Heartbeat CPU 0 instructions: 69000470 cycles: 28243259 heartbeat IPC: 2.461 cumulative IPC: 1.51 (Simulation time: 00 hr 07 min 27 sec)
Heartbeat CPU 0 instructions: 69500470 cycles: 28457567 heartbeat IPC: 2.333 cumulative IPC: 1.524 (Simulation time: 00 hr 07 min 31 sec)
Heartbeat CPU 0 instructions: 70000470 cycles: 28667803 heartbeat IPC: 2.378 cumulative IPC: 1.538 (Simulation time: 00 hr 07 min 34 sec)
Heartbeat CPU 0 instructions: 70500473 cycles: 28869879 heartbeat IPC: 2.474 cumulative IPC: 1.552 (Simulation time: 00 hr 07 min 38 sec)
Heartbeat CPU 0 instructions: 71000477 cycles: 29079351 heartbeat IPC: 2.387 cumulative IPC: 1.565 (Simulation time: 00 hr 07 min 41 sec)
Heartbeat CPU 0 instructions: 71500481 cycles: 29299552 heartbeat IPC: 2.271 cumulative IPC: 1.577 (Simulation time: 00 hr 07 min 45 sec)
Heartbeat CPU 0 instructions: 72000481 cycles: 29916022 heartbeat IPC: 0.8111 cumulative IPC: 1.544 (Simulation time: 00 hr 07 min 54 sec)
Heartbeat CPU 0 instructions: 72500481 cycles: 30682880 heartbeat IPC: 0.652 cumulative IPC: 1.498 (Simulation time: 00 hr 08 min 04 sec)
Heartbeat CPU 0 instructions: 73000485 cycles: 31555713 heartbeat IPC: 0.5729 cumulative IPC: 1.447 (Simulation time: 00 hr 08 min 16 sec)
Heartbeat CPU 0 instructions: 73500486 cycles: 31881578 heartbeat IPC: 1.534 cumulative IPC: 1.449 (Simulation time: 00 hr 08 min 21 sec)
Heartbeat CPU 0 instructions: 74000489 cycles: 32107739 heartbeat IPC: 2.211 cumulative IPC: 1.459 (Simulation time: 00 hr 08 min 24 sec)
Heartbeat CPU 0 instructions: 74500496 cycles: 32337586 heartbeat IPC: 2.175 cumulative IPC: 1.469 (Simulation time: 00 hr 08 min 28 sec)
Heartbeat CPU 0 instructions: 75000496 cycles: 32572746 heartbeat IPC: 2.126 cumulative IPC: 1.478 (Simulation time: 00 hr 08 min 32 sec)
Heartbeat CPU 0 instructions: 75500496 cycles: 32809890 heartbeat IPC: 2.108 cumulative IPC: 1.487 (Simulation time: 00 hr 08 min 36 sec)
Heartbeat CPU 0 instructions: 76000499 cycles: 33053396 heartbeat IPC: 2.053 cumulative IPC: 1.495 (Simulation time: 00 hr 08 min 40 sec)
Heartbeat CPU 0 instructions: 76500500 cycles: 33288116 heartbeat IPC: 2.13 cumulative IPC: 1.504 (Simulation time: 00 hr 08 min 44 sec)
Heartbeat CPU 0 instructions: 77000502 cycles: 33528092 heartbeat IPC: 2.084 cumulative IPC: 1.511 (Simulation time: 00 hr 08 min 48 sec)
Heartbeat CPU 0 instructions: 77500509 cycles: 33767641 heartbeat IPC: 2.087 cumulative IPC: 1.519 (Simulation time: 00 hr 08 min 52 sec)
Heartbeat CPU 0 instructions: 78000513 cycles: 34006989 heartbeat IPC: 2.089 cumulative IPC: 1.526 (Simulation time: 00 hr 08 min 55 sec)
Heartbeat CPU 0 instructions: 78500513 cycles: 34247325 heartbeat IPC: 2.08 cumulative IPC: 1.534 (Simulation time: 00 hr 08 min 59 sec)
Heartbeat CPU 0 instructions: 79000517 cycles: 34484727 heartbeat IPC: 2.106 cumulative IPC: 1.541 (Simulation time: 00 hr 09 min 03 sec)
Heartbeat CPU 0 instructions: 79500524 cycles: 34721780 heartbeat IPC: 2.109 cumulative IPC: 1.548 (Simulation time: 00 hr 09 min 07 sec)
Heartbeat CPU 0 instructions: 80000530 cycles: 34958360 heartbeat IPC: 2.113 cumulative IPC: 1.555 (Simulation time: 00 hr 09 min 11 sec)
Heartbeat CPU 0 instructions: 80500532 cycles: 35192069 heartbeat IPC: 2.139 cumulative IPC: 1.562 (Simulation time: 00 hr 09 min 15 sec)
Heartbeat CPU 0 instructions: 81000533 cycles: 35437374 heartbeat IPC: 2.038 cumulative IPC: 1.568 (Simulation time: 00 hr 09 min 19 sec)
Heartbeat CPU 0 instructions: 81500540 cycles: 35982504 heartbeat IPC: 0.9172 cumulative IPC: 1.55 (Simulation time: 00 hr 09 min 27 sec)
Heartbeat CPU 0 instructions: 82000545 cycles: 36793128 heartbeat IPC: 0.6168 cumulative IPC: 1.514 (Simulation time: 00 hr 09 min 37 sec)
Heartbeat CPU 0 instructions: 82500548 cycles: 37642378 heartbeat IPC: 0.5888 cumulative IPC: 1.479 (Simulation time: 00 hr 09 min 49 sec)
Heartbeat CPU 0 instructions: 83000555 cycles: 37842860 heartbeat IPC: 2.494 cumulative IPC: 1.488 (Simulation time: 00 hr 09 min 52 sec)
Heartbeat CPU 0 instructions: 83500556 cycles: 38049964 heartbeat IPC: 2.414 cumulative IPC: 1.496 (Simulation time: 00 hr 09 min 56 sec)
Heartbeat CPU 0 instructions: 84000559 cycles: 38263925 heartbeat IPC: 2.337 cumulative IPC: 1.504 (Simulation time: 00 hr 09 min 59 sec)
Heartbeat CPU 0 instructions: 84500565 cycles: 38468621 heartbeat IPC: 2.443 cumulative IPC: 1.513 (Simulation time: 00 hr 10 min 03 sec)
Heartbeat CPU 0 instructions: 85000570 cycles: 38671257 heartbeat IPC: 2.468 cumulative IPC: 1.521 (Simulation time: 00 hr 10 min 06 sec)
Heartbeat CPU 0 instructions: 85500577 cycles: 38880775 heartbeat IPC: 2.386 cumulative IPC: 1.529 (Simulation time: 00 hr 10 min 10 sec)
Heartbeat CPU 0 instructions: 86000578 cycles: 39088132 heartbeat IPC: 2.411 cumulative IPC: 1.537 (Simulation time: 00 hr 10 min 13 sec)
Heartbeat CPU 0 instructions: 86500579 cycles: 39296113 heartbeat IPC: 2.404 cumulative IPC: 1.544 (Simulation time: 00 hr 10 min 17 sec)
Heartbeat CPU 0 instructions: 87000580 cycles: 39503848 heartbeat IPC: 2.407 cumulative IPC: 1.552 (Simulation time: 00 hr 10 min 20 sec)
Heartbeat CPU 0 instructions: 87500584 cycles: 39705525 heartbeat IPC: 2.479 cumulative IPC: 1.56 (Simulation time: 00 hr 10 min 24 sec)
Heartbeat CPU 0 instructions: 88000591 cycles: 39909433 heartbeat IPC: 2.452 cumulative IPC: 1.567 (Simulation time: 00 hr 10 min 27 sec)
Heartbeat CPU 0 instructions: 88500592 cycles: 40116587 heartbeat IPC: 2.414 cumulative IPC: 1.574 (Simulation time: 00 hr 10 min 31 sec)
Heartbeat CPU 0 instructions: 89000595 cycles: 40316729 heartbeat IPC: 2.498 cumulative IPC: 1.582 (Simulation time: 00 hr 10 min 34 sec)
Heartbeat CPU 0 instructions: 89500599 cycles: 40526552 heartbeat IPC: 2.383 cumulative IPC: 1.589 (Simulation time: 00 hr 10 min 38 sec)
Heartbeat CPU 0 instructions: 90000606 cycles: 40732412 heartbeat IPC: 2.429 cumulative IPC: 1.596 (Simulation time: 00 hr 10 min 41 sec)
Heartbeat CPU 0 instructions: 90500609 cycles: 40939075 heartbeat IPC: 2.419 cumulative IPC: 1.602 (Simulation time: 00 hr 10 min 45 sec)
Heartbeat CPU 0 instructions: 91000614 cycles: 41586420 heartbeat IPC: 0.7724 cumulative IPC: 1.582 (Simulation time: 00 hr 10 min 54 sec)
Heartbeat CPU 0 instructions: 91500615 cycles: 42372371 heartbeat IPC: 0.6362 cumulative IPC: 1.554 (Simulation time: 00 hr 11 min 04 sec)
Heartbeat CPU 0 instructions: 92000618 cycles: 43040648 heartbeat IPC: 0.7482 cumulative IPC: 1.534 (Simulation time: 00 hr 11 min 13 sec)
Heartbeat CPU 0 instructions: 92500622 cycles: 43279065 heartbeat IPC: 2.097 cumulative IPC: 1.539 (Simulation time: 00 hr 11 min 17 sec)
Heartbeat CPU 0 instructions: 93000624 cycles: 43514077 heartbeat IPC: 2.128 cumulative IPC: 1.544 (Simulation time: 00 hr 11 min 21 sec)
Heartbeat CPU 0 instructions: 93500627 cycles: 43744113 heartbeat IPC: 2.174 cumulative IPC: 1.549 (Simulation time: 00 hr 11 min 25 sec)
Heartbeat CPU 0 instructions: 94000630 cycles: 43980428 heartbeat IPC: 2.116 cumulative IPC: 1.554 (Simulation time: 00 hr 11 min 29 sec)
Heartbeat CPU 0 instructions: 94500637 cycles: 44210940 heartbeat IPC: 2.169 cumulative IPC: 1.559 (Simulation time: 00 hr 11 min 32 sec)
Heartbeat CPU 0 instructions: 95000643 cycles: 44450384 heartbeat IPC: 2.088 cumulative IPC: 1.563 (Simulation time: 00 hr 11 min 36 sec)
Heartbeat CPU 0 instructions: 95500646 cycles: 44690844 heartbeat IPC: 2.079 cumulative IPC: 1.567 (Simulation time: 00 hr 11 min 40 sec)
Heartbeat CPU 0 instructions: 96000646 cycles: 44935429 heartbeat IPC: 2.044 cumulative IPC: 1.571 (Simulation time: 00 hr 11 min 44 sec)
Heartbeat CPU 0 instructions: 96500648 cycles: 45177934 heartbeat IPC: 2.062 cumulative IPC: 1.576 (Simulation time: 00 hr 11 min 48 sec)
Heartbeat CPU 0 instructions: 97000654 cycles: 45421939 heartbeat IPC: 2.049 cumulative IPC: 1.579 (Simulation time: 00 hr 11 min 52 sec)
Heartbeat CPU 0 instructions: 97500657 cycles: 45652683 heartbeat IPC: 2.167 cumulative IPC: 1.584 (Simulation time: 00 hr 11 min 56 sec)
Heartbeat CPU 0 instructions: 98000657 cycles: 45967999 heartbeat IPC: 1.586 cumulative IPC: 1.584 (Simulation time: 00 hr 12 min 01 sec)
Heartbeat CPU 0 instructions: 98500662 cycles: 46560030 heartbeat IPC: 0.8446 cumulative IPC: 1.57 (Simulation time: 00 hr 12 min 09 sec)
Heartbeat CPU 0 instructions: 99000667 cycles: 47127349 heartbeat IPC: 0.8813 cumulative IPC: 1.557 (Simulation time: 00 hr 12 min 17 sec)
Heartbeat CPU 0 instructions: 99500673 cycles: 47318997 heartbeat IPC: 2.609 cumulative IPC: 1.564 (Simulation time: 00 hr 12 min 20 sec)
Heartbeat CPU 0 instructions: 100000676 cycles: 47506271 heartbeat IPC: 2.67 cumulative IPC: 1.57 (Simulation time: 00 hr 12 min 23 sec)
Heartbeat CPU 0 instructions: 100500679 cycles: 47681522 heartbeat IPC: 2.853 cumulative IPC: 1.577 (Simulation time: 00 hr 12 min 27 sec)
Heartbeat CPU 0 instructions: 101000682 cycles: 47864181 heartbeat IPC: 2.737 cumulative IPC: 1.584 (Simulation time: 00 hr 12 min 30 sec)
Heartbeat CPU 0 instructions: 101500689 cycles: 48048157 heartbeat IPC: 2.718 cumulative IPC: 1.59 (Simulation time: 00 hr 12 min 33 sec)
Heartbeat CPU 0 instructions: 102000696 cycles: 48233844 heartbeat IPC: 2.693 cumulative IPC: 1.597 (Simulation time: 00 hr 12 min 36 sec)
Heartbeat CPU 0 instructions: 102500698 cycles: 48427474 heartbeat IPC: 2.582 cumulative IPC: 1.602 (Simulation time: 00 hr 12 min 40 sec)
Heartbeat CPU 0 instructions: 103000704 cycles: 48615140 heartbeat IPC: 2.664 cumulative IPC: 1.608 (Simulation time: 00 hr 12 min 43 sec)
Heartbeat CPU 0 instructions: 103500709 cycles: 48809797 heartbeat IPC: 2.569 cumulative IPC: 1.614 (Simulation time: 00 hr 12 min 46 sec)
Heartbeat CPU 0 instructions: 104000711 cycles: 49001391 heartbeat IPC: 2.61 cumulative IPC: 1.62 (Simulation time: 00 hr 12 min 50 sec)
Heartbeat CPU 0 instructions: 104500718 cycles: 49186085 heartbeat IPC: 2.707 cumulative IPC: 1.626 (Simulation time: 00 hr 12 min 53 sec)
Heartbeat CPU 0 instructions: 105000718 cycles: 49452796 heartbeat IPC: 1.875 cumulative IPC: 1.628 (Simulation time: 00 hr 12 min 57 sec)
Heartbeat CPU 0 instructions: 105500718 cycles: 49948903 heartbeat IPC: 1.008 cumulative IPC: 1.619 (Simulation time: 00 hr 13 min 04 sec)
Heartbeat CPU 0 instructions: 106000723 cycles: 50459779 heartbeat IPC: 0.9787 cumulative IPC: 1.609 (Simulation time: 00 hr 13 min 11 sec)
Heartbeat CPU 0 instructions: 106500723 cycles: 50693281 heartbeat IPC: 2.141 cumulative IPC: 1.613 (Simulation time: 00 hr 13 min 15 sec)
Heartbeat CPU 0 instructions: 107000725 cycles: 50929361 heartbeat IPC: 2.118 cumulative IPC: 1.616 (Simulation time: 00 hr 13 min 19 sec)
Heartbeat CPU 0 instructions: 107500732 cycles: 51153890 heartbeat IPC: 2.227 cumulative IPC: 1.62 (Simulation time: 00 hr 13 min 22 sec)
Heartbeat CPU 0 instructions: 108000735 cycles: 51376966 heartbeat IPC: 2.241 cumulative IPC: 1.624 (Simulation time: 00 hr 13 min 26 sec)
Heartbeat CPU 0 instructions: 108500738 cycles: 51608651 heartbeat IPC: 2.158 cumulative IPC: 1.627 (Simulation time: 00 hr 13 min 30 sec)
Heartbeat CPU 0 instructions: 109000745 cycles: 51852399 heartbeat IPC: 2.051 cumulative IPC: 1.63 (Simulation time: 00 hr 13 min 34 sec)
Heartbeat CPU 0 instructions: 109500747 cycles: 52103346 heartbeat IPC: 1.992 cumulative IPC: 1.633 (Simulation time: 00 hr 13 min 38 sec)
Heartbeat CPU 0 instructions: 110000752 cycles: 52338453 heartbeat IPC: 2.127 cumulative IPC: 1.636 (Simulation time: 00 hr 13 min 42 sec)
Heartbeat CPU 0 instructions: 110500755 cycles: 52751800 heartbeat IPC: 1.21 cumulative IPC: 1.631 (Simulation time: 00 hr 13 min 48 sec)
Heartbeat CPU 0 instructions: 111000756 cycles: 52999672 heartbeat IPC: 2.017 cumulative IPC: 1.634 (Simulation time: 00 hr 13 min 52 sec)
Heartbeat CPU 0 instructions: 111500760 cycles: 53126239 heartbeat IPC: 3.951 cumulative IPC: 1.642 (Simulation time: 00 hr 13 min 54 sec)
Heartbeat CPU 0 instructions: 112000767 cycles: 53250465 heartbeat IPC: 4.025 cumulative IPC: 1.65 (Simulation time: 00 hr 13 min 57 sec)
Heartbeat CPU 0 instructions: 112500773 cycles: 53378927 heartbeat IPC: 3.892 cumulative IPC: 1.657 (Simulation time: 00 hr 13 min 59 sec)
Heartbeat CPU 0 instructions: 113000776 cycles: 53502284 heartbeat IPC: 4.053 cumulative IPC: 1.665 (Simulation time: 00 hr 14 min 02 sec)
Heartbeat CPU 0 instructions: 113500779 cycles: 53648748 heartbeat IPC: 3.414 cumulative IPC: 1.672 (Simulation time: 00 hr 14 min 04 sec)
Heartbeat CPU 0 instructions: 114000782 cycles: 53793478 heartbeat IPC: 3.455 cumulative IPC: 1.678 (Simulation time: 00 hr 14 min 07 sec)
Heartbeat CPU 0 instructions: 114500789 cycles: 53927795 heartbeat IPC: 3.723 cumulative IPC: 1.686 (Simulation time: 00 hr 14 min 09 sec)
Heartbeat CPU 0 instructions: 115000789 cycles: 54109701 heartbeat IPC: 2.749 cumulative IPC: 1.691 (Simulation time: 00 hr 14 min 12 sec)
Heartbeat CPU 0 instructions: 115500791 cycles: 54379071 heartbeat IPC: 1.856 cumulative IPC: 1.692 (Simulation time: 00 hr 14 min 17 sec)
Heartbeat CPU 0 instructions: 116000793 cycles: 54614783 heartbeat IPC: 2.121 cumulative IPC: 1.694 (Simulation time: 00 hr 14 min 20 sec)
Heartbeat CPU 0 instructions: 116500795 cycles: 54845727 heartbeat IPC: 2.165 cumulative IPC: 1.697 (Simulation time: 00 hr 14 min 24 sec)
Heartbeat CPU 0 instructions: 117000800 cycles: 55070580 heartbeat IPC: 2.224 cumulative IPC: 1.7 (Simulation time: 00 hr 14 min 28 sec)
Heartbeat CPU 0 instructions: 117500804 cycles: 55299034 heartbeat IPC: 2.189 cumulative IPC: 1.703 (Simulation time: 00 hr 14 min 32 sec)
Heartbeat CPU 0 instructions: 118000804 cycles: 55538093 heartbeat IPC: 2.092 cumulative IPC: 1.705 (Simulation time: 00 hr 14 min 35 sec)
Heartbeat CPU 0 instructions: 118500805 cycles: 55773574 heartbeat IPC: 2.123 cumulative IPC: 1.708 (Simulation time: 00 hr 14 min 39 sec)
Heartbeat CPU 0 instructions: 119000808 cycles: 56015343 heartbeat IPC: 2.068 cumulative IPC: 1.71 (Simulation time: 00 hr 14 min 43 sec)
Heartbeat CPU 0 instructions: 119500809 cycles: 56261510 heartbeat IPC: 2.031 cumulative IPC: 1.712 (Simulation time: 00 hr 14 min 47 sec)
Heartbeat CPU 0 instructions: 120000812 cycles: 56517363 heartbeat IPC: 1.954 cumulative IPC: 1.713 (Simulation time: 00 hr 14 min 51 sec)
Heartbeat CPU 0 instructions: 120500812 cycles: 56772124 heartbeat IPC: 1.963 cumulative IPC: 1.715 (Simulation time: 00 hr 14 min 56 sec)
Heartbeat CPU 0 instructions: 121000816 cycles: 57029152 heartbeat IPC: 1.945 cumulative IPC: 1.716 (Simulation time: 00 hr 15 min 00 sec)
Heartbeat CPU 0 instructions: 121500818 cycles: 57497501 heartbeat IPC: 1.068 cumulative IPC: 1.709 (Simulation time: 00 hr 15 min 07 sec)
Heartbeat CPU 0 instructions: 122000821 cycles: 58162088 heartbeat IPC: 0.7524 cumulative IPC: 1.694 (Simulation time: 00 hr 15 min 16 sec)
Heartbeat CPU 0 instructions: 122500823 cycles: 58392380 heartbeat IPC: 2.171 cumulative IPC: 1.697 (Simulation time: 00 hr 15 min 20 sec)
Heartbeat CPU 0 instructions: 123000824 cycles: 58570022 heartbeat IPC: 2.815 cumulative IPC: 1.701 (Simulation time: 00 hr 15 min 23 sec)
Heartbeat CPU 0 instructions: 123500826 cycles: 58740225 heartbeat IPC: 2.938 cumulative IPC: 1.706 (Simulation time: 00 hr 15 min 26 sec)
Heartbeat CPU 0 instructions: 124000828 cycles: 58907655 heartbeat IPC: 2.986 cumulative IPC: 1.711 (Simulation time: 00 hr 15 min 29 sec)
Heartbeat CPU 0 instructions: 124500835 cycles: 59075829 heartbeat IPC: 2.973 cumulative IPC: 1.716 (Simulation time: 00 hr 15 min 32 sec)
Heartbeat CPU 0 instructions: 125000839 cycles: 59257112 heartbeat IPC: 2.758 cumulative IPC: 1.72 (Simulation time: 00 hr 15 min 35 sec)
Heartbeat CPU 0 instructions: 125500845 cycles: 59435735 heartbeat IPC: 2.799 cumulative IPC: 1.725 (Simulation time: 00 hr 15 min 38 sec)
Heartbeat CPU 0 instructions: 126000846 cycles: 59601340 heartbeat IPC: 3.019 cumulative IPC: 1.73 (Simulation time: 00 hr 15 min 41 sec)
Heartbeat CPU 0 instructions: 126500848 cycles: 59777556 heartbeat IPC: 2.837 cumulative IPC: 1.734 (Simulation time: 00 hr 15 min 44 sec)
Heartbeat CPU 0 instructions: 127000850 cycles: 59953917 heartbeat IPC: 2.835 cumulative IPC: 1.739 (Simulation time: 00 hr 15 min 47 sec)
Heartbeat CPU 0 instructions: 127500855 cycles: 60136802 heartbeat IPC: 2.734 cumulative IPC: 1.743 (Simulation time: 00 hr 15 min 50 sec)
Heartbeat CPU 0 instructions: 128000856 cycles: 60437688 heartbeat IPC: 1.662 cumulative IPC: 1.742 (Simulation time: 00 hr 15 min 55 sec)
Heartbeat CPU 0 instructions: 128500858 cycles: 60928351 heartbeat IPC: 1.019 cumulative IPC: 1.734 (Simulation time: 00 hr 16 min 02 sec)
Heartbeat CPU 0 instructions: 129000858 cycles: 61298722 heartbeat IPC: 1.35 cumulative IPC: 1.731 (Simulation time: 00 hr 16 min 07 sec)
Heartbeat CPU 0 instructions: 129500858 cycles: 61532790 heartbeat IPC: 2.136 cumulative IPC: 1.733 (Simulation time: 00 hr 16 min 11 sec)
Heartbeat CPU 0 instructions: 130000864 cycles: 61750767 heartbeat IPC: 2.294 cumulative IPC: 1.736 (Simulation time: 00 hr 16 min 14 sec)
Heartbeat CPU 0 instructions: 130500871 cycles: 61973986 heartbeat IPC: 2.24 cumulative IPC: 1.738 (Simulation time: 00 hr 16 min 18 sec)
Heartbeat CPU 0 instructions: 131000878 cycles: 62200295 heartbeat IPC: 2.209 cumulative IPC: 1.741 (Simulation time: 00 hr 16 min 22 sec)
Heartbeat CPU 0 instructions: 131500881 cycles: 62437183 heartbeat IPC: 2.111 cumulative IPC: 1.742 (Simulation time: 00 hr 16 min 26 sec)
Heartbeat CPU 0 instructions: 132000882 cycles: 62684329 heartbeat IPC: 2.023 cumulative IPC: 1.744 (Simulation time: 00 hr 16 min 30 sec)
Heartbeat CPU 0 instructions: 132500886 cycles: 62924158 heartbeat IPC: 2.085 cumulative IPC: 1.746 (Simulation time: 00 hr 16 min 34 sec)
Heartbeat CPU 0 instructions: 133000886 cycles: 63173689 heartbeat IPC: 2.004 cumulative IPC: 1.747 (Simulation time: 00 hr 16 min 38 sec)
Heartbeat CPU 0 instructions: 133500888 cycles: 63523034 heartbeat IPC: 1.431 cumulative IPC: 1.745 (Simulation time: 00 hr 16 min 43 sec)
Heartbeat CPU 0 instructions: 134000893 cycles: 64014642 heartbeat IPC: 1.017 cumulative IPC: 1.737 (Simulation time: 00 hr 16 min 50 sec)
Heartbeat CPU 0 instructions: 134500900 cycles: 64141720 heartbeat IPC: 3.935 cumulative IPC: 1.743 (Simulation time: 00 hr 16 min 53 sec)
Heartbeat CPU 0 instructions: 135000903 cycles: 64291519 heartbeat IPC: 3.338 cumulative IPC: 1.748 (Simulation time: 00 hr 16 min 55 sec)
Heartbeat CPU 0 instructions: 135500904 cycles: 64427894 heartbeat IPC: 3.666 cumulative IPC: 1.753 (Simulation time: 00 hr 16 min 58 sec)
Heartbeat CPU 0 instructions: 136000908 cycles: 64564058 heartbeat IPC: 3.672 cumulative IPC: 1.759 (Simulation time: 00 hr 17 min 01 sec)
Heartbeat CPU 0 instructions: 136500915 cycles: 64703973 heartbeat IPC: 3.574 cumulative IPC: 1.764 (Simulation time: 00 hr 17 min 03 sec)
Heartbeat CPU 0 instructions: 137000922 cycles: 64859528 heartbeat IPC: 3.214 cumulative IPC: 1.768 (Simulation time: 00 hr 17 min 06 sec)
Heartbeat CPU 0 instructions: 137500925 cycles: 65024492 heartbeat IPC: 3.031 cumulative IPC: 1.773 (Simulation time: 00 hr 17 min 09 sec)
Heartbeat CPU 0 instructions: 138000931 cycles: 65175418 heartbeat IPC: 3.313 cumulative IPC: 1.777 (Simulation time: 00 hr 17 min 12 sec)
Heartbeat CPU 0 instructions: 138500933 cycles: 65341664 heartbeat IPC: 3.008 cumulative IPC: 1.781 (Simulation time: 00 hr 17 min 15 sec)
Heartbeat CPU 0 instructions: 139000938 cycles: 65638984 heartbeat IPC: 1.682 cumulative IPC: 1.781 (Simulation time: 00 hr 17 min 19 sec)
Heartbeat CPU 0 instructions: 139500944 cycles: 65961867 heartbeat IPC: 1.549 cumulative IPC: 1.779 (Simulation time: 00 hr 17 min 24 sec)
Heartbeat CPU 0 instructions: 140000945 cycles: 66191653 heartbeat IPC: 2.176 cumulative IPC: 1.781 (Simulation time: 00 hr 17 min 28 sec)
Heartbeat CPU 0 instructions: 140500946 cycles: 66411025 heartbeat IPC: 2.279 cumulative IPC: 1.783 (Simulation time: 00 hr 17 min 31 sec)
Heartbeat CPU 0 instructions: 141000947 cycles: 66634439 heartbeat IPC: 2.238 cumulative IPC: 1.785 (Simulation time: 00 hr 17 min 35 sec)
Heartbeat CPU 0 instructions: 141500948 cycles: 66863359 heartbeat IPC: 2.184 cumulative IPC: 1.787 (Simulation time: 00 hr 17 min 38 sec)
Heartbeat CPU 0 instructions: 142000949 cycles: 67105323 heartbeat IPC: 2.066 cumulative IPC: 1.788 (Simulation time: 00 hr 17 min 42 sec)
Heartbeat CPU 0 instructions: 142500950 cycles: 67347289 heartbeat IPC: 2.066 cumulative IPC: 1.79 (Simulation time: 00 hr 17 min 46 sec)
Heartbeat CPU 0 instructions: 143000952 cycles: 67604897 heartbeat IPC: 1.941 cumulative IPC: 1.79 (Simulation time: 00 hr 17 min 50 sec)
Heartbeat CPU 0 instructions: 143500959 cycles: 67873206 heartbeat IPC: 1.864 cumulative IPC: 1.791 (Simulation time: 00 hr 17 min 55 sec)
Heartbeat CPU 0 instructions: 144000959 cycles: 67992770 heartbeat IPC: 4.182 cumulative IPC: 1.796 (Simulation time: 00 hr 17 min 57 sec)
Heartbeat CPU 0 instructions: 144500961 cycles: 68111054 heartbeat IPC: 4.227 cumulative IPC: 1.802 (Simulation time: 00 hr 17 min 59 sec)
Heartbeat CPU 0 instructions: 145000962 cycles: 68230382 heartbeat IPC: 4.19 cumulative IPC: 1.807 (Simulation time: 00 hr 18 min 02 sec)
Heartbeat CPU 0 instructions: 145500962 cycles: 68348742 heartbeat IPC: 4.224 cumulative IPC: 1.813 (Simulation time: 00 hr 18 min 04 sec)
Heartbeat CPU 0 instructions: 146000964 cycles: 68480725 heartbeat IPC: 3.788 cumulative IPC: 1.818 (Simulation time: 00 hr 18 min 07 sec)
Heartbeat CPU 0 instructions: 146500970 cycles: 68598466 heartbeat IPC: 4.247 cumulative IPC: 1.823 (Simulation time: 00 hr 18 min 09 sec)
Heartbeat CPU 0 instructions: 147000972 cycles: 68733421 heartbeat IPC: 3.705 cumulative IPC: 1.828 (Simulation time: 00 hr 18 min 11 sec)
Heartbeat CPU 0 instructions: 147500972 cycles: 68942273 heartbeat IPC: 2.394 cumulative IPC: 1.83 (Simulation time: 00 hr 18 min 15 sec)
Heartbeat CPU 0 instructions: 148000975 cycles: 69184364 heartbeat IPC: 2.065 cumulative IPC: 1.831 (Simulation time: 00 hr 18 min 19 sec)
Heartbeat CPU 0 instructions: 148500977 cycles: 69416280 heartbeat IPC: 2.156 cumulative IPC: 1.832 (Simulation time: 00 hr 18 min 22 sec)
Heartbeat CPU 0 instructions: 149000977 cycles: 69654857 heartbeat IPC: 2.096 cumulative IPC: 1.834 (Simulation time: 00 hr 18 min 26 sec)
Heartbeat CPU 0 instructions: 149500978 cycles: 69885242 heartbeat IPC: 2.17 cumulative IPC: 1.835 (Simulation time: 00 hr 18 min 30 sec)
Heartbeat CPU 0 instructions: 150000980 cycles: 70129450 heartbeat IPC: 2.047 cumulative IPC: 1.836 (Simulation time: 00 hr 18 min 34 sec)
Heartbeat CPU 0 instructions: 150500985 cycles: 70379280 heartbeat IPC: 2.001 cumulative IPC: 1.837 (Simulation time: 00 hr 18 min 38 sec)
Heartbeat CPU 0 instructions: 151000985 cycles: 70626405 heartbeat IPC: 2.023 cumulative IPC: 1.838 (Simulation time: 00 hr 18 min 42 sec)
Heartbeat CPU 0 instructions: 151500988 cycles: 70877132 heartbeat IPC: 1.994 cumulative IPC: 1.838 (Simulation time: 00 hr 18 min 46 sec)
Heartbeat CPU 0 instructions: 152000991 cycles: 71130556 heartbeat IPC: 1.973 cumulative IPC: 1.839 (Simulation time: 00 hr 18 min 50 sec)
Heartbeat CPU 0 instructions: 152500992 cycles: 71376798 heartbeat IPC: 2.031 cumulative IPC: 1.84 (Simulation time: 00 hr 18 min 54 sec)
Heartbeat CPU 0 instructions: 153000993 cycles: 71631911 heartbeat IPC: 1.96 cumulative IPC: 1.84 (Simulation time: 00 hr 18 min 58 sec)
Heartbeat CPU 0 instructions: 153500996 cycles: 71860830 heartbeat IPC: 2.184 cumulative IPC: 1.842 (Simulation time: 00 hr 19 min 02 sec)
Heartbeat CPU 0 instructions: 154001002 cycles: 72447328 heartbeat IPC: 0.8525 cumulative IPC: 1.832 (Simulation time: 00 hr 19 min 10 sec)
Heartbeat CPU 0 instructions: 154501009 cycles: 73186093 heartbeat IPC: 0.6768 cumulative IPC: 1.817 (Simulation time: 00 hr 19 min 21 sec)
Heartbeat CPU 0 instructions: 155001011 cycles: 73402841 heartbeat IPC: 2.307 cumulative IPC: 1.819 (Simulation time: 00 hr 19 min 24 sec)
Heartbeat CPU 0 instructions: 155501014 cycles: 73589999 heartbeat IPC: 2.672 cumulative IPC: 1.821 (Simulation time: 00 hr 19 min 27 sec)
Heartbeat CPU 0 instructions: 156001016 cycles: 73778930 heartbeat IPC: 2.646 cumulative IPC: 1.824 (Simulation time: 00 hr 19 min 31 sec)
Heartbeat CPU 0 instructions: 156501016 cycles: 73958584 heartbeat IPC: 2.783 cumulative IPC: 1.827 (Simulation time: 00 hr 19 min 34 sec)
Heartbeat CPU 0 instructions: 157001021 cycles: 74144580 heartbeat IPC: 2.688 cumulative IPC: 1.83 (Simulation time: 00 hr 19 min 37 sec)
Heartbeat CPU 0 instructions: 157501023 cycles: 74344768 heartbeat IPC: 2.498 cumulative IPC: 1.832 (Simulation time: 00 hr 19 min 40 sec)
Heartbeat CPU 0 instructions: 158001024 cycles: 74524771 heartbeat IPC: 2.778 cumulative IPC: 1.835 (Simulation time: 00 hr 19 min 44 sec)
Heartbeat CPU 0 instructions: 158501024 cycles: 74706617 heartbeat IPC: 2.75 cumulative IPC: 1.838 (Simulation time: 00 hr 19 min 47 sec)
Heartbeat CPU 0 instructions: 159001029 cycles: 74897530 heartbeat IPC: 2.619 cumulative IPC: 1.84 (Simulation time: 00 hr 19 min 50 sec)
Heartbeat CPU 0 instructions: 159501029 cycles: 75079056 heartbeat IPC: 2.754 cumulative IPC: 1.843 (Simulation time: 00 hr 19 min 53 sec)
Heartbeat CPU 0 instructions: 160001035 cycles: 75267309 heartbeat IPC: 2.656 cumulative IPC: 1.846 (Simulation time: 00 hr 19 min 57 sec)
Heartbeat CPU 0 instructions: 160501040 cycles: 75455053 heartbeat IPC: 2.663 cumulative IPC: 1.848 (Simulation time: 00 hr 20 min 00 sec)
Heartbeat CPU 0 instructions: 161001040 cycles: 75854511 heartbeat IPC: 1.252 cumulative IPC: 1.844 (Simulation time: 00 hr 20 min 05 sec)
Heartbeat CPU 0 instructions: 161501044 cycles: 76420843 heartbeat IPC: 0.8829 cumulative IPC: 1.835 (Simulation time: 00 hr 20 min 13 sec)
Heartbeat CPU 0 instructions: 162001045 cycles: 76824150 heartbeat IPC: 1.24 cumulative IPC: 1.831 (Simulation time: 00 hr 20 min 19 sec)
Heartbeat CPU 0 instructions: 162501046 cycles: 77057222 heartbeat IPC: 2.145 cumulative IPC: 1.832 (Simulation time: 00 hr 20 min 23 sec)
Heartbeat CPU 0 instructions: 163001049 cycles: 77290775 heartbeat IPC: 2.141 cumulative IPC: 1.834 (Simulation time: 00 hr 20 min 27 sec)
Heartbeat CPU 0 instructions: 163501053 cycles: 77510708 heartbeat IPC: 2.273 cumulative IPC: 1.835 (Simulation time: 00 hr 20 min 30 sec)
Heartbeat CPU 0 instructions: 164001054 cycles: 77738752 heartbeat IPC: 2.193 cumulative IPC: 1.836 (Simulation time: 00 hr 20 min 34 sec)
Heartbeat CPU 0 instructions: 164501055 cycles: 77971062 heartbeat IPC: 2.152 cumulative IPC: 1.838 (Simulation time: 00 hr 20 min 38 sec)
Heartbeat CPU 0 instructions: 165001056 cycles: 78215041 heartbeat IPC: 2.049 cumulative IPC: 1.838 (Simulation time: 00 hr 20 min 42 sec)
Heartbeat CPU 0 instructions: 165501060 cycles: 78464973 heartbeat IPC: 2.001 cumulative IPC: 1.839 (Simulation time: 00 hr 20 min 46 sec)
Heartbeat CPU 0 instructions: 166001063 cycles: 78713071 heartbeat IPC: 2.015 cumulative IPC: 1.84 (Simulation time: 00 hr 20 min 50 sec)
Heartbeat CPU 0 instructions: 166501064 cycles: 78954329 heartbeat IPC: 2.072 cumulative IPC: 1.841 (Simulation time: 00 hr 20 min 54 sec)
Heartbeat CPU 0 instructions: 167001065 cycles: 79194422 heartbeat IPC: 2.083 cumulative IPC: 1.842 (Simulation time: 00 hr 20 min 58 sec)
Heartbeat CPU 0 instructions: 167501065 cycles: 79441563 heartbeat IPC: 2.023 cumulative IPC: 1.842 (Simulation time: 00 hr 21 min 02 sec)
Heartbeat CPU 0 instructions: 168001067 cycles: 79683249 heartbeat IPC: 2.069 cumulative IPC: 1.843 (Simulation time: 00 hr 21 min 06 sec)
Heartbeat CPU 0 instructions: 168501072 cycles: 80066699 heartbeat IPC: 1.304 cumulative IPC: 1.84 (Simulation time: 00 hr 21 min 12 sec)
Heartbeat CPU 0 instructions: 169001077 cycles: 80760985 heartbeat IPC: 0.7202 cumulative IPC: 1.828 (Simulation time: 00 hr 21 min 21 sec)
Heartbeat CPU 0 instructions: 169501083 cycles: 81409794 heartbeat IPC: 0.7707 cumulative IPC: 1.818 (Simulation time: 00 hr 21 min 30 sec)
Heartbeat CPU 0 instructions: 170001083 cycles: 81596561 heartbeat IPC: 2.677 cumulative IPC: 1.82 (Simulation time: 00 hr 21 min 33 sec)
Heartbeat CPU 0 instructions: 170501087 cycles: 81781796 heartbeat IPC: 2.699 cumulative IPC: 1.823 (Simulation time: 00 hr 21 min 37 sec)
Heartbeat CPU 0 instructions: 171001088 cycles: 81968899 heartbeat IPC: 2.672 cumulative IPC: 1.825 (Simulation time: 00 hr 21 min 40 sec)
Heartbeat CPU 0 instructions: 171501091 cycles: 82155571 heartbeat IPC: 2.679 cumulative IPC: 1.827 (Simulation time: 00 hr 21 min 43 sec)
Heartbeat CPU 0 instructions: 172001097 cycles: 82351380 heartbeat IPC: 2.554 cumulative IPC: 1.829 (Simulation time: 00 hr 21 min 46 sec)
Heartbeat CPU 0 instructions: 172501100 cycles: 82546377 heartbeat IPC: 2.564 cumulative IPC: 1.832 (Simulation time: 00 hr 21 min 50 sec)
Heartbeat CPU 0 instructions: 173001105 cycles: 82736230 heartbeat IPC: 2.634 cumulative IPC: 1.834 (Simulation time: 00 hr 21 min 53 sec)
Heartbeat CPU 0 instructions: 173501106 cycles: 82925431 heartbeat IPC: 2.643 cumulative IPC: 1.836 (Simulation time: 00 hr 21 min 56 sec)
Heartbeat CPU 0 instructions: 174001107 cycles: 83116823 heartbeat IPC: 2.612 cumulative IPC: 1.838 (Simulation time: 00 hr 22 min 00 sec)
Heartbeat CPU 0 instructions: 174501108 cycles: 83305271 heartbeat IPC: 2.653 cumulative IPC: 1.841 (Simulation time: 00 hr 22 min 03 sec)
Heartbeat CPU 0 instructions: 175001109 cycles: 83489228 heartbeat IPC: 2.718 cumulative IPC: 1.843 (Simulation time: 00 hr 22 min 06 sec)
Heartbeat CPU 0 instructions: 175501113 cycles: 83683881 heartbeat IPC: 2.569 cumulative IPC: 1.845 (Simulation time: 00 hr 22 min 10 sec)
Heartbeat CPU 0 instructions: 176001115 cycles: 83867175 heartbeat IPC: 2.728 cumulative IPC: 1.847 (Simulation time: 00 hr 22 min 13 sec)
Heartbeat CPU 0 instructions: 176501118 cycles: 84372807 heartbeat IPC: 0.9889 cumulative IPC: 1.841 (Simulation time: 00 hr 22 min 20 sec)
Heartbeat CPU 0 instructions: 177001119 cycles: 85091726 heartbeat IPC: 0.6955 cumulative IPC: 1.829 (Simulation time: 00 hr 22 min 29 sec)
Heartbeat CPU 0 instructions: 177501125 cycles: 85420001 heartbeat IPC: 1.523 cumulative IPC: 1.828 (Simulation time: 00 hr 22 min 34 sec)
Heartbeat CPU 0 instructions: 178001132 cycles: 85649868 heartbeat IPC: 2.175 cumulative IPC: 1.829 (Simulation time: 00 hr 22 min 38 sec)
Heartbeat CPU 0 instructions: 178501138 cycles: 85880082 heartbeat IPC: 2.172 cumulative IPC: 1.83 (Simulation time: 00 hr 22 min 42 sec)
Heartbeat CPU 0 instructions: 179001140 cycles: 86111737 heartbeat IPC: 2.158 cumulative IPC: 1.831 (Simulation time: 00 hr 22 min 46 sec)
Heartbeat CPU 0 instructions: 179501145 cycles: 86343188 heartbeat IPC: 2.16 cumulative IPC: 1.832 (Simulation time: 00 hr 22 min 49 sec)
Heartbeat CPU 0 instructions: 180001147 cycles: 86581464 heartbeat IPC: 2.098 cumulative IPC: 1.833 (Simulation time: 00 hr 22 min 53 sec)
Heartbeat CPU 0 instructions: 180501152 cycles: 86820918 heartbeat IPC: 2.088 cumulative IPC: 1.834 (Simulation time: 00 hr 22 min 57 sec)
Heartbeat CPU 0 instructions: 181001152 cycles: 87061433 heartbeat IPC: 2.079 cumulative IPC: 1.835 (Simulation time: 00 hr 23 min 01 sec)
Heartbeat CPU 0 instructions: 181501152 cycles: 87307482 heartbeat IPC: 2.032 cumulative IPC: 1.835 (Simulation time: 00 hr 23 min 05 sec)
Heartbeat CPU 0 instructions: 182001159 cycles: 87564223 heartbeat IPC: 1.948 cumulative IPC: 1.836 (Simulation time: 00 hr 23 min 09 sec)
Heartbeat CPU 0 instructions: 182501162 cycles: 88053473 heartbeat IPC: 1.022 cumulative IPC: 1.83 (Simulation time: 00 hr 23 min 16 sec)
Heartbeat CPU 0 instructions: 183001167 cycles: 88432790 heartbeat IPC: 1.318 cumulative IPC: 1.828 (Simulation time: 00 hr 23 min 22 sec)
Heartbeat CPU 0 instructions: 183501173 cycles: 88587002 heartbeat IPC: 3.242 cumulative IPC: 1.831 (Simulation time: 00 hr 23 min 25 sec)
Heartbeat CPU 0 instructions: 184001180 cycles: 88747078 heartbeat IPC: 3.124 cumulative IPC: 1.834 (Simulation time: 00 hr 23 min 28 sec)
Heartbeat CPU 0 instructions: 184501187 cycles: 88891348 heartbeat IPC: 3.466 cumulative IPC: 1.837 (Simulation time: 00 hr 23 min 30 sec)
Heartbeat CPU 0 instructions: 185001191 cycles: 89042647 heartbeat IPC: 3.305 cumulative IPC: 1.84 (Simulation time: 00 hr 23 min 33 sec)
Heartbeat CPU 0 instructions: 185501197 cycles: 89202293 heartbeat IPC: 3.132 cumulative IPC: 1.843 (Simulation time: 00 hr 23 min 36 sec)
Heartbeat CPU 0 instructions: 186001203 cycles: 89353417 heartbeat IPC: 3.309 cumulative IPC: 1.846 (Simulation time: 00 hr 23 min 39 sec)
Heartbeat CPU 0 instructions: 186501210 cycles: 89517300 heartbeat IPC: 3.051 cumulative IPC: 1.848 (Simulation time: 00 hr 23 min 42 sec)
Heartbeat CPU 0 instructions: 187001215 cycles: 89662390 heartbeat IPC: 3.446 cumulative IPC: 1.851 (Simulation time: 00 hr 23 min 44 sec)
Heartbeat CPU 0 instructions: 187501216 cycles: 89824304 heartbeat IPC: 3.088 cumulative IPC: 1.854 (Simulation time: 00 hr 23 min 47 sec)
Heartbeat CPU 0 instructions: 188001220 cycles: 90118992 heartbeat IPC: 1.697 cumulative IPC: 1.853 (Simulation time: 00 hr 23 min 52 sec)
Heartbeat CPU 0 instructions: 188501225 cycles: 90500838 heartbeat IPC: 1.309 cumulative IPC: 1.851 (Simulation time: 00 hr 23 min 57 sec)
Heartbeat CPU 0 instructions: 189001231 cycles: 90740115 heartbeat IPC: 2.09 cumulative IPC: 1.851 (Simulation time: 00 hr 24 min 01 sec)
Heartbeat CPU 0 instructions: 189501238 cycles: 90958027 heartbeat IPC: 2.295 cumulative IPC: 1.853 (Simulation time: 00 hr 24 min 05 sec)
Heartbeat CPU 0 instructions: 190001241 cycles: 91189289 heartbeat IPC: 2.162 cumulative IPC: 1.854 (Simulation time: 00 hr 24 min 09 sec)
Heartbeat CPU 0 instructions: 190501247 cycles: 91416292 heartbeat IPC: 2.203 cumulative IPC: 1.855 (Simulation time: 00 hr 24 min 12 sec)
Heartbeat CPU 0 instructions: 191001247 cycles: 91647792 heartbeat IPC: 2.16 cumulative IPC: 1.856 (Simulation time: 00 hr 24 min 16 sec)
Heartbeat CPU 0 instructions: 191501253 cycles: 91888101 heartbeat IPC: 2.081 cumulative IPC: 1.856 (Simulation time: 00 hr 24 min 20 sec)
Heartbeat CPU 0 instructions: 192001260 cycles: 92125837 heartbeat IPC: 2.103 cumulative IPC: 1.857 (Simulation time: 00 hr 24 min 24 sec)
Heartbeat CPU 0 instructions: 192501263 cycles: 92371536 heartbeat IPC: 2.035 cumulative IPC: 1.858 (Simulation time: 00 hr 24 min 28 sec)
Heartbeat CPU 0 instructions: 193001269 cycles: 92620562 heartbeat IPC: 2.008 cumulative IPC: 1.858 (Simulation time: 00 hr 24 min 32 sec)
Heartbeat CPU 0 instructions: 193501269 cycles: 92885591 heartbeat IPC: 1.887 cumulative IPC: 1.858 (Simulation time: 00 hr 24 min 36 sec)
Heartbeat CPU 0 instructions: 194001269 cycles: 93410930 heartbeat IPC: 0.9518 cumulative IPC: 1.852 (Simulation time: 00 hr 24 min 44 sec)
Heartbeat CPU 0 instructions: 194501276 cycles: 93831316 heartbeat IPC: 1.189 cumulative IPC: 1.849 (Simulation time: 00 hr 24 min 50 sec)
Heartbeat CPU 0 instructions: 195001283 cycles: 93979487 heartbeat IPC: 3.375 cumulative IPC: 1.851 (Simulation time: 00 hr 24 min 53 sec)
Heartbeat CPU 0 instructions: 195501284 cycles: 94129694 heartbeat IPC: 3.329 cumulative IPC: 1.854 (Simulation time: 00 hr 24 min 55 sec)
Heartbeat CPU 0 instructions: 196001289 cycles: 94278437 heartbeat IPC: 3.362 cumulative IPC: 1.857 (Simulation time: 00 hr 24 min 58 sec)
Heartbeat CPU 0 instructions: 196501289 cycles: 94445545 heartbeat IPC: 2.992 cumulative IPC: 1.86 (Simulation time: 00 hr 25 min 01 sec)
Heartbeat CPU 0 instructions: 197001290 cycles: 94598847 heartbeat IPC: 3.262 cumulative IPC: 1.862 (Simulation time: 00 hr 25 min 04 sec)
Heartbeat CPU 0 instructions: 197501297 cycles: 94763582 heartbeat IPC: 3.035 cumulative IPC: 1.865 (Simulation time: 00 hr 25 min 07 sec)
Heartbeat CPU 0 instructions: 198001300 cycles: 94925423 heartbeat IPC: 3.089 cumulative IPC: 1.867 (Simulation time: 00 hr 25 min 10 sec)
Heartbeat CPU 0 instructions: 198501301 cycles: 95097484 heartbeat IPC: 2.906 cumulative IPC: 1.869 (Simulation time: 00 hr 25 min 13 sec)
Heartbeat CPU 0 instructions: 199001301 cycles: 95266589 heartbeat IPC: 2.957 cumulative IPC: 1.872 (Simulation time: 00 hr 25 min 16 sec)
Heartbeat CPU 0 instructions: 199501302 cycles: 95483143 heartbeat IPC: 2.309 cumulative IPC: 1.873 (Simulation time: 00 hr 25 min 19 sec)
Heartbeat CPU 0 instructions: 200001306 cycles: 95882046 heartbeat IPC: 1.253 cumulative IPC: 1.87 (Simulation time: 00 hr 25 min 25 sec)
Heartbeat CPU 0 instructions: 200501308 cycles: 96199844 heartbeat IPC: 1.573 cumulative IPC: 1.869 (Simulation time: 00 hr 25 min 30 sec)
Heartbeat CPU 0 instructions: 201001313 cycles: 96436784 heartbeat IPC: 2.11 cumulative IPC: 1.869 (Simulation time: 00 hr 25 min 34 sec)
Heartbeat CPU 0 instructions: 201501313 cycles: 96672162 heartbeat IPC: 2.124 cumulative IPC: 1.87 (Simulation time: 00 hr 25 min 38 sec)
Heartbeat CPU 0 instructions: 202001313 cycles: 96905926 heartbeat IPC: 2.139 cumulative IPC: 1.871 (Simulation time: 00 hr 25 min 41 sec)
Heartbeat CPU 0 instructions: 202501318 cycles: 97125190 heartbeat IPC: 2.28 cumulative IPC: 1.872 (Simulation time: 00 hr 25 min 45 sec)
Heartbeat CPU 0 instructions: 203001320 cycles: 97356512 heartbeat IPC: 2.161 cumulative IPC: 1.873 (Simulation time: 00 hr 25 min 49 sec)
Heartbeat CPU 0 instructions: 203501321 cycles: 97593966 heartbeat IPC: 2.106 cumulative IPC: 1.874 (Simulation time: 00 hr 25 min 53 sec)
Heartbeat CPU 0 instructions: 204001321 cycles: 97846354 heartbeat IPC: 1.981 cumulative IPC: 1.874 (Simulation time: 00 hr 25 min 57 sec)
Heartbeat CPU 0 instructions: 204501321 cycles: 98097316 heartbeat IPC: 1.992 cumulative IPC: 1.874 (Simulation time: 00 hr 26 min 01 sec)
Heartbeat CPU 0 instructions: 205001327 cycles: 98337174 heartbeat IPC: 2.085 cumulative IPC: 1.875 (Simulation time: 00 hr 26 min 05 sec)
Heartbeat CPU 0 instructions: 205501327 cycles: 98656991 heartbeat IPC: 1.563 cumulative IPC: 1.874 (Simulation time: 00 hr 26 min 10 sec)
Heartbeat CPU 0 instructions: 206001331 cycles: 99236120 heartbeat IPC: 0.8634 cumulative IPC: 1.867 (Simulation time: 00 hr 26 min 18 sec)
Heartbeat CPU 0 instructions: 206501331 cycles: 99557786 heartbeat IPC: 1.554 cumulative IPC: 1.865 (Simulation time: 00 hr 26 min 23 sec)
Heartbeat CPU 0 instructions: 207001333 cycles: 99718539 heartbeat IPC: 3.11 cumulative IPC: 1.868 (Simulation time: 00 hr 26 min 26 sec)
Heartbeat CPU 0 instructions: 207501339 cycles: 99887603 heartbeat IPC: 2.957 cumulative IPC: 1.87 (Simulation time: 00 hr 26 min 29 sec)
Heartbeat CPU 0 instructions: 208001344 cycles: 100054114 heartbeat IPC: 3.003 cumulative IPC: 1.872 (Simulation time: 00 hr 26 min 31 sec)
Heartbeat CPU 0 instructions: 208501346 cycles: 100213190 heartbeat IPC: 3.143 cumulative IPC: 1.875 (Simulation time: 00 hr 26 min 34 sec)
Heartbeat CPU 0 instructions: 209001346 cycles: 100362079 heartbeat IPC: 3.358 cumulative IPC: 1.877 (Simulation time: 00 hr 26 min 37 sec)
Heartbeat CPU 0 instructions: 209501349 cycles: 100532450 heartbeat IPC: 2.935 cumulative IPC: 1.879 (Simulation time: 00 hr 26 min 40 sec)
Heartbeat CPU 0 instructions: 210001354 cycles: 100701899 heartbeat IPC: 2.951 cumulative IPC: 1.882 (Simulation time: 00 hr 26 min 43 sec)
Heartbeat CPU 0 instructions: 210501354 cycles: 100862292 heartbeat IPC: 3.117 cumulative IPC: 1.884 (Simulation time: 00 hr 26 min 46 sec)
Heartbeat CPU 0 instructions: 211001358 cycles: 101020603 heartbeat IPC: 3.158 cumulative IPC: 1.886 (Simulation time: 00 hr 26 min 49 sec)
Heartbeat CPU 0 instructions: 211501362 cycles: 101257457 heartbeat IPC: 2.111 cumulative IPC: 1.887 (Simulation time: 00 hr 26 min 52 sec)
Heartbeat CPU 0 instructions: 212001368 cycles: 101649008 heartbeat IPC: 1.277 cumulative IPC: 1.884 (Simulation time: 00 hr 26 min 58 sec)
Heartbeat CPU 0 instructions: 212501373 cycles: 101988136 heartbeat IPC: 1.474 cumulative IPC: 1.882 (Simulation time: 00 hr 27 min 03 sec)
Heartbeat CPU 0 instructions: 213001373 cycles: 102219394 heartbeat IPC: 2.162 cumulative IPC: 1.883 (Simulation time: 00 hr 27 min 07 sec)
Heartbeat CPU 0 instructions: 213501373 cycles: 102444707 heartbeat IPC: 2.219 cumulative IPC: 1.884 (Simulation time: 00 hr 27 min 11 sec)
Heartbeat CPU 0 instructions: 214001377 cycles: 102666569 heartbeat IPC: 2.254 cumulative IPC: 1.885 (Simulation time: 00 hr 27 min 14 sec)
Heartbeat CPU 0 instructions: 214501382 cycles: 102890413 heartbeat IPC: 2.234 cumulative IPC: 1.886 (Simulation time: 00 hr 27 min 18 sec)
Heartbeat CPU 0 instructions: 215001383 cycles: 103128803 heartbeat IPC: 2.097 cumulative IPC: 1.886 (Simulation time: 00 hr 27 min 22 sec)
Heartbeat CPU 0 instructions: 215501388 cycles: 103377439 heartbeat IPC: 2.011 cumulative IPC: 1.887 (Simulation time: 00 hr 27 min 26 sec)
Heartbeat CPU 0 instructions: 216001394 cycles: 103631336 heartbeat IPC: 1.969 cumulative IPC: 1.887 (Simulation time: 00 hr 27 min 30 sec)
Heartbeat CPU 0 instructions: 216501398 cycles: 103872601 heartbeat IPC: 2.072 cumulative IPC: 1.888 (Simulation time: 00 hr 27 min 34 sec)
Heartbeat CPU 0 instructions: 217001400 cycles: 104120807 heartbeat IPC: 2.014 cumulative IPC: 1.888 (Simulation time: 00 hr 27 min 38 sec)
Heartbeat CPU 0 instructions: 217501405 cycles: 104523885 heartbeat IPC: 1.24 cumulative IPC: 1.885 (Simulation time: 00 hr 27 min 44 sec)
Heartbeat CPU 0 instructions: 218001406 cycles: 105121832 heartbeat IPC: 0.8362 cumulative IPC: 1.878 (Simulation time: 00 hr 27 min 52 sec)
Heartbeat CPU 0 instructions: 218501407 cycles: 105275380 heartbeat IPC: 3.256 cumulative IPC: 1.88 (Simulation time: 00 hr 27 min 55 sec)
Heartbeat CPU 0 instructions: 219001410 cycles: 105429156 heartbeat IPC: 3.252 cumulative IPC: 1.883 (Simulation time: 00 hr 27 min 58 sec)
Heartbeat CPU 0 instructions: 219501417 cycles: 105591530 heartbeat IPC: 3.079 cumulative IPC: 1.885 (Simulation time: 00 hr 28 min 01 sec)
Heartbeat CPU 0 instructions: 220001419 cycles: 105750306 heartbeat IPC: 3.149 cumulative IPC: 1.887 (Simulation time: 00 hr 28 min 04 sec)
Heartbeat CPU 0 instructions: 220501424 cycles: 105913805 heartbeat IPC: 3.058 cumulative IPC: 1.889 (Simulation time: 00 hr 28 min 07 sec)
Heartbeat CPU 0 instructions: 221001428 cycles: 106080426 heartbeat IPC: 3.001 cumulative IPC: 1.891 (Simulation time: 00 hr 28 min 10 sec)
Heartbeat CPU 0 instructions: 221501430 cycles: 106238774 heartbeat IPC: 3.158 cumulative IPC: 1.893 (Simulation time: 00 hr 28 min 12 sec)
Heartbeat CPU 0 instructions: 222001430 cycles: 106401399 heartbeat IPC: 3.075 cumulative IPC: 1.896 (Simulation time: 00 hr 28 min 15 sec)
Heartbeat CPU 0 instructions: 222501430 cycles: 106568458 heartbeat IPC: 2.993 cumulative IPC: 1.898 (Simulation time: 00 hr 28 min 18 sec)
Heartbeat CPU 0 instructions: 223001437 cycles: 106725428 heartbeat IPC: 3.185 cumulative IPC: 1.9 (Simulation time: 00 hr 28 min 21 sec)
Heartbeat CPU 0 instructions: 223501437 cycles: 107088301 heartbeat IPC: 1.378 cumulative IPC: 1.898 (Simulation time: 00 hr 28 min 26 sec)
Heartbeat CPU 0 instructions: 224001437 cycles: 107461446 heartbeat IPC: 1.34 cumulative IPC: 1.895 (Simulation time: 00 hr 28 min 32 sec)
Heartbeat CPU 0 instructions: 224501437 cycles: 107697565 heartbeat IPC: 2.118 cumulative IPC: 1.896 (Simulation time: 00 hr 28 min 36 sec)
Heartbeat CPU 0 instructions: 225001438 cycles: 107926803 heartbeat IPC: 2.181 cumulative IPC: 1.897 (Simulation time: 00 hr 28 min 39 sec)
Heartbeat CPU 0 instructions: 225501442 cycles: 108154351 heartbeat IPC: 2.197 cumulative IPC: 1.897 (Simulation time: 00 hr 28 min 43 sec)
Heartbeat CPU 0 instructions: 226001449 cycles: 108372952 heartbeat IPC: 2.287 cumulative IPC: 1.898 (Simulation time: 00 hr 28 min 47 sec)
Heartbeat CPU 0 instructions: 226501453 cycles: 108600286 heartbeat IPC: 2.199 cumulative IPC: 1.899 (Simulation time: 00 hr 28 min 50 sec)
Heartbeat CPU 0 instructions: 227001456 cycles: 108837341 heartbeat IPC: 2.109 cumulative IPC: 1.9 (Simulation time: 00 hr 28 min 54 sec)
Heartbeat CPU 0 instructions: 227501457 cycles: 109087101 heartbeat IPC: 2.002 cumulative IPC: 1.9 (Simulation time: 00 hr 28 min 58 sec)
Heartbeat CPU 0 instructions: 228001461 cycles: 109336608 heartbeat IPC: 2.004 cumulative IPC: 1.9 (Simulation time: 00 hr 29 min 03 sec)
Heartbeat CPU 0 instructions: 228501465 cycles: 109586215 heartbeat IPC: 2.003 cumulative IPC: 1.901 (Simulation time: 00 hr 29 min 07 sec)
Heartbeat CPU 0 instructions: 229001470 cycles: 109905767 heartbeat IPC: 1.565 cumulative IPC: 1.899 (Simulation time: 00 hr 29 min 12 sec)
Heartbeat CPU 0 instructions: 229501476 cycles: 110428535 heartbeat IPC: 0.9565 cumulative IPC: 1.894 (Simulation time: 00 hr 29 min 19 sec)
Heartbeat CPU 0 instructions: 230001482 cycles: 110766222 heartbeat IPC: 1.481 cumulative IPC: 1.893 (Simulation time: 00 hr 29 min 24 sec)
Heartbeat CPU 0 instructions: 230501489 cycles: 110928817 heartbeat IPC: 3.075 cumulative IPC: 1.895 (Simulation time: 00 hr 29 min 27 sec)
Heartbeat CPU 0 instructions: 231001492 cycles: 111079463 heartbeat IPC: 3.319 cumulative IPC: 1.897 (Simulation time: 00 hr 29 min 30 sec)
Heartbeat CPU 0 instructions: 231501494 cycles: 111232543 heartbeat IPC: 3.266 cumulative IPC: 1.899 (Simulation time: 00 hr 29 min 33 sec)
Heartbeat CPU 0 instructions: 232001497 cycles: 111402949 heartbeat IPC: 2.934 cumulative IPC: 1.901 (Simulation time: 00 hr 29 min 36 sec)
Heartbeat CPU 0 instructions: 232501499 cycles: 111574472 heartbeat IPC: 2.915 cumulative IPC: 1.903 (Simulation time: 00 hr 29 min 39 sec)
Heartbeat CPU 0 instructions: 233001499 cycles: 111732525 heartbeat IPC: 3.163 cumulative IPC: 1.905 (Simulation time: 00 hr 29 min 42 sec)
Heartbeat CPU 0 instructions: 233501499 cycles: 111889655 heartbeat IPC: 3.182 cumulative IPC: 1.907 (Simulation time: 00 hr 29 min 45 sec)
Heartbeat CPU 0 instructions: 234001502 cycles: 112050816 heartbeat IPC: 3.103 cumulative IPC: 1.909 (Simulation time: 00 hr 29 min 47 sec)
Heartbeat CPU 0 instructions: 234501506 cycles: 112216419 heartbeat IPC: 3.019 cumulative IPC: 1.911 (Simulation time: 00 hr 29 min 50 sec)
Heartbeat CPU 0 instructions: 235001507 cycles: 112490116 heartbeat IPC: 1.827 cumulative IPC: 1.911 (Simulation time: 00 hr 29 min 55 sec)
Heartbeat CPU 0 instructions: 235501508 cycles: 112913494 heartbeat IPC: 1.181 cumulative IPC: 1.907 (Simulation time: 00 hr 30 min 00 sec)
Heartbeat CPU 0 instructions: 236001513 cycles: 113166693 heartbeat IPC: 1.975 cumulative IPC: 1.908 (Simulation time: 00 hr 30 min 05 sec)
Heartbeat CPU 0 instructions: 236501513 cycles: 113396665 heartbeat IPC: 2.174 cumulative IPC: 1.908 (Simulation time: 00 hr 30 min 08 sec)
Heartbeat CPU 0 instructions: 237001514 cycles: 113618041 heartbeat IPC: 2.259 cumulative IPC: 1.909 (Simulation time: 00 hr 30 min 12 sec)
Heartbeat CPU 0 instructions: 237501519 cycles: 113833812 heartbeat IPC: 2.317 cumulative IPC: 1.91 (Simulation time: 00 hr 30 min 15 sec)
Heartbeat CPU 0 instructions: 238001526 cycles: 114066358 heartbeat IPC: 2.15 cumulative IPC: 1.911 (Simulation time: 00 hr 30 min 19 sec)
Heartbeat CPU 0 instructions: 238501530 cycles: 114310270 heartbeat IPC: 2.05 cumulative IPC: 1.911 (Simulation time: 00 hr 30 min 23 sec)
Heartbeat CPU 0 instructions: 239001535 cycles: 114549985 heartbeat IPC: 2.086 cumulative IPC: 1.911 (Simulation time: 00 hr 30 min 27 sec)
Heartbeat CPU 0 instructions: 239501540 cycles: 114791205 heartbeat IPC: 2.073 cumulative IPC: 1.912 (Simulation time: 00 hr 30 min 31 sec)
Heartbeat CPU 0 instructions: 240001546 cycles: 115044369 heartbeat IPC: 1.975 cumulative IPC: 1.912 (Simulation time: 00 hr 30 min 35 sec)
Heartbeat CPU 0 instructions: 240501552 cycles: 115298433 heartbeat IPC: 1.968 cumulative IPC: 1.912 (Simulation time: 00 hr 30 min 39 sec)
Heartbeat CPU 0 instructions: 241001553 cycles: 115552012 heartbeat IPC: 1.972 cumulative IPC: 1.912 (Simulation time: 00 hr 30 min 44 sec)
Heartbeat CPU 0 instructions: 241501558 cycles: 116006113 heartbeat IPC: 1.101 cumulative IPC: 1.908 (Simulation time: 00 hr 30 min 50 sec)
Heartbeat CPU 0 instructions: 242001559 cycles: 116668779 heartbeat IPC: 0.7545 cumulative IPC: 1.901 (Simulation time: 00 hr 30 min 59 sec)
Heartbeat CPU 0 instructions: 242501559 cycles: 116871743 heartbeat IPC: 2.463 cumulative IPC: 1.902 (Simulation time: 00 hr 31 min 03 sec)
Heartbeat CPU 0 instructions: 243001561 cycles: 117039498 heartbeat IPC: 2.981 cumulative IPC: 1.904 (Simulation time: 00 hr 31 min 06 sec)
Heartbeat CPU 0 instructions: 243501566 cycles: 117211100 heartbeat IPC: 2.914 cumulative IPC: 1.906 (Simulation time: 00 hr 31 min 09 sec)
Heartbeat CPU 0 instructions: 244001566 cycles: 117377166 heartbeat IPC: 3.011 cumulative IPC: 1.907 (Simulation time: 00 hr 31 min 12 sec)
Heartbeat CPU 0 instructions: 244501566 cycles: 117549685 heartbeat IPC: 2.898 cumulative IPC: 1.909 (Simulation time: 00 hr 31 min 15 sec)
Heartbeat CPU 0 instructions: 245001567 cycles: 117733876 heartbeat IPC: 2.715 cumulative IPC: 1.91 (Simulation time: 00 hr 31 min 18 sec)
Heartbeat CPU 0 instructions: 245501571 cycles: 117901322 heartbeat IPC: 2.986 cumulative IPC: 1.912 (Simulation time: 00 hr 31 min 21 sec)
Heartbeat CPU 0 instructions: 246001574 cycles: 118069405 heartbeat IPC: 2.975 cumulative IPC: 1.914 (Simulation time: 00 hr 31 min 24 sec)
Heartbeat CPU 0 instructions: 246501575 cycles: 118252965 heartbeat IPC: 2.724 cumulative IPC: 1.915 (Simulation time: 00 hr 31 min 27 sec)
Heartbeat CPU 0 instructions: 247001578 cycles: 118426077 heartbeat IPC: 2.888 cumulative IPC: 1.917 (Simulation time: 00 hr 31 min 30 sec)
Heartbeat CPU 0 instructions: 247501582 cycles: 118617345 heartbeat IPC: 2.614 cumulative IPC: 1.918 (Simulation time: 00 hr 31 min 34 sec)
Heartbeat CPU 0 instructions: 248001582 cycles: 118970445 heartbeat IPC: 1.416 cumulative IPC: 1.917 (Simulation time: 00 hr 31 min 39 sec)
Heartbeat CPU 0 instructions: 248501585 cycles: 119487373 heartbeat IPC: 0.9673 cumulative IPC: 1.912 (Simulation time: 00 hr 31 min 46 sec)
Heartbeat CPU 0 instructions: 249001589 cycles: 119762537 heartbeat IPC: 1.817 cumulative IPC: 1.912 (Simulation time: 00 hr 31 min 50 sec)
Heartbeat CPU 0 instructions: 249501595 cycles: 119989560 heartbeat IPC: 2.202 cumulative IPC: 1.912 (Simulation time: 00 hr 31 min 54 sec)
*** Reached end of trace: (0, "/local-ssd/ben/dpc4-traces/Graph/Ligra/ligra_PageRankDelta.com-lj.ungraph.gcc_6.3.0_O3.drop_17000M.length_250M.champsimtrace.xz")
Simulation finished CPU 0 instructions: 200000000 cycles: 104553676 cumulative IPC: 1.913 (Simulation time: 00 hr 31 min 58 sec)
Simulation complete CPU 0 instructions: 200000000 cycles: 104553676 cumulative IPC: 1.913 (Simulation time: 00 hr 31 min 58 sec)

ChampSim completed all CPUs

=== Simulation ===
CPU 0 runs /local-ssd/ben/dpc4-traces/Graph/Ligra/ligra_PageRankDelta.com-lj.ungraph.gcc_6.3.0_O3.drop_17000M.length_250M.champsimtrace.xz

Region of Interest Statistics

CPU 0 cumulative IPC: 1.913 instructions: 200000000 cycles: 104553676
CPU 0 Branch Prediction Accuracy: 99% MPKI: 1.016 Average ROB Occupancy at Mispredict: 152
Branch type MPKI
BRANCH_DIRECT_JUMP: 0
BRANCH_INDIRECT: 0
BRANCH_CONDITIONAL: 1.015
BRANCH_DIRECT_CALL: 0
BRANCH_INDIRECT_CALL: 0
BRANCH_RETURN: 0.00016

cpu0->cpu0_STLB TOTAL        ACCESS:     113781 HIT:      94164 MISS:      19617 MSHR_MERGE:          0
cpu0->cpu0_STLB LOAD         ACCESS:     113781 HIT:      94164 MISS:      19617 MSHR_MERGE:          0
cpu0->cpu0_STLB RFO          ACCESS:          0 HIT:          0 MISS:          0 MSHR_MERGE:          0
cpu0->cpu0_STLB PREFETCH     ACCESS:          0 HIT:          0 MISS:          0 MSHR_MERGE:          0
cpu0->cpu0_STLB WRITE        ACCESS:          0 HIT:          0 MISS:          0 MSHR_MERGE:          0
cpu0->cpu0_STLB TRANSLATION  ACCESS:          0 HIT:          0 MISS:          0 MSHR_MERGE:          0
cpu0->cpu0_STLB PREFETCH REQUESTED:          0 ISSUED:          0 USEFUL:          0 USELESS:          0
cpu0->cpu0_STLB AVERAGE MISS LATENCY: 277.9 cycles
cpu0->cpu0_L2C TOTAL        ACCESS:   17689120 HIT:   10873885 MISS:    6815235 MSHR_MERGE:    2902336
cpu0->cpu0_L2C LOAD         ACCESS:    2213806 HIT:    1841198 MISS:     372608 MSHR_MERGE:     248150
cpu0->cpu0_L2C RFO          ACCESS:    2245441 HIT:     237549 MISS:    2007892 MSHR_MERGE:         19
cpu0->cpu0_L2C PREFETCH     ACCESS:   10967917 HIT:    6536140 MISS:    4431777 MSHR_MERGE:    2654167
cpu0->cpu0_L2C WRITE        ACCESS:    2256386 HIT:    2256384 MISS:          2 MSHR_MERGE:          0
cpu0->cpu0_L2C TRANSLATION  ACCESS:       5570 HIT:       2614 MISS:       2956 MSHR_MERGE:          0
cpu0->cpu0_L2C PREFETCH REQUESTED:   11618931 ISSUED:   10317375 USEFUL:    1471351 USELESS:     113146
cpu0->cpu0_L2C AVERAGE MISS LATENCY: 302.5 cycles
cpu0->cpu0_L1I TOTAL        ACCESS:   29158264 HIT:   29158264 MISS:          0 MSHR_MERGE:          0
cpu0->cpu0_L1I LOAD         ACCESS:   29158264 HIT:   29158264 MISS:          0 MSHR_MERGE:          0
cpu0->cpu0_L1I RFO          ACCESS:          0 HIT:          0 MISS:          0 MSHR_MERGE:          0
cpu0->cpu0_L1I PREFETCH     ACCESS:          0 HIT:          0 MISS:          0 MSHR_MERGE:          0
cpu0->cpu0_L1I WRITE        ACCESS:          0 HIT:          0 MISS:          0 MSHR_MERGE:          0
cpu0->cpu0_L1I TRANSLATION  ACCESS:          0 HIT:          0 MISS:          0 MSHR_MERGE:          0
cpu0->cpu0_L1I PREFETCH REQUESTED:          0 ISSUED:          0 USEFUL:          0 USELESS:          0
cpu0->cpu0_L1I AVERAGE MISS LATENCY: - cycles
cpu0->cpu0_L1D TOTAL        ACCESS:   59473959 HIT:   40153504 MISS:   19320455 MSHR_MERGE:   14204992
cpu0->cpu0_L1D LOAD         ACCESS:   17393843 HIT:   13955876 MISS:    3437967 MSHR_MERGE:    1224155
cpu0->cpu0_L1D RFO          ACCESS:          0 HIT:          0 MISS:          0 MSHR_MERGE:          0
cpu0->cpu0_L1D PREFETCH     ACCESS:    2952707 HIT:    1719533 MISS:    1233174 MSHR_MERGE:     582630
cpu0->cpu0_L1D WRITE        ACCESS:   39089916 HIT:   24448101 MISS:   14641815 MSHR_MERGE:   12396278
cpu0->cpu0_L1D TRANSLATION  ACCESS:      37493 HIT:      29994 MISS:       7499 MSHR_MERGE:       1929
cpu0->cpu0_L1D PREFETCH REQUESTED:   29226216 ISSUED:    2952699 USEFUL:     580887 USELESS:      69631
cpu0->cpu0_L1D AVERAGE MISS LATENCY: 171.7 cycles
cpu0->cpu0_ITLB TOTAL        ACCESS:   26856316 HIT:   26856316 MISS:          0 MSHR_MERGE:          0
cpu0->cpu0_ITLB LOAD         ACCESS:   26856316 HIT:   26856316 MISS:          0 MSHR_MERGE:          0
cpu0->cpu0_ITLB RFO          ACCESS:          0 HIT:          0 MISS:          0 MSHR_MERGE:          0
cpu0->cpu0_ITLB PREFETCH     ACCESS:          0 HIT:          0 MISS:          0 MSHR_MERGE:          0
cpu0->cpu0_ITLB WRITE        ACCESS:          0 HIT:          0 MISS:          0 MSHR_MERGE:          0
cpu0->cpu0_ITLB TRANSLATION  ACCESS:          0 HIT:          0 MISS:          0 MSHR_MERGE:          0
cpu0->cpu0_ITLB PREFETCH REQUESTED:          0 ISSUED:          0 USEFUL:          0 USELESS:          0
cpu0->cpu0_ITLB AVERAGE MISS LATENCY: - cycles
cpu0->cpu0_DTLB TOTAL        ACCESS:   53509787 HIT:   53108802 MISS:     400985 MSHR_MERGE:     287204
cpu0->cpu0_DTLB LOAD         ACCESS:   53509787 HIT:   53108802 MISS:     400985 MSHR_MERGE:     287204
cpu0->cpu0_DTLB RFO          ACCESS:          0 HIT:          0 MISS:          0 MSHR_MERGE:          0
cpu0->cpu0_DTLB PREFETCH     ACCESS:          0 HIT:          0 MISS:          0 MSHR_MERGE:          0
cpu0->cpu0_DTLB WRITE        ACCESS:          0 HIT:          0 MISS:          0 MSHR_MERGE:          0
cpu0->cpu0_DTLB TRANSLATION  ACCESS:          0 HIT:          0 MISS:          0 MSHR_MERGE:          0
cpu0->cpu0_DTLB PREFETCH REQUESTED:          0 ISSUED:          0 USEFUL:          0 USELESS:          0
cpu0->cpu0_DTLB AVERAGE MISS LATENCY: 53.08 cycles
cpu0->LLC TOTAL        ACCESS:    7831245 HIT:    3330223 MISS:    4501022 MSHR_MERGE:     495782
cpu0->LLC LOAD         ACCESS:     124458 HIT:      75345 MISS:      49113 MSHR_MERGE:       7329
cpu0->LLC RFO          ACCESS:    2007873 HIT:     650376 MISS:    1357497 MSHR_MERGE:         11
cpu0->LLC PREFETCH     ACCESS:    3601762 HIT:    1869962 MISS:    1731800 MSHR_MERGE:     488442
cpu0->LLC WRITE        ACCESS:    2094196 HIT:     734540 MISS:    1359656 MSHR_MERGE:          0
cpu0->LLC TRANSLATION  ACCESS:       2956 HIT:          0 MISS:       2956 MSHR_MERGE:          0
cpu0->LLC PREFETCH REQUESTED:    1844827 ISSUED:    1824190 USEFUL:     628680 USELESS:     406742
cpu0->LLC AVERAGE MISS LATENCY: 231.7 cycles

DRAM Statistics

Channel 0 RQ ROW_BUFFER_HIT:     194306
  ROW_BUFFER_MISS:    2448784
  AVG DBUS CONGESTED CYCLE: 12.16
Channel 0 WQ ROW_BUFFER_HIT:     170033
  ROW_BUFFER_MISS:    1527801
  FULL:     302750
Channel 0 REFRESHES ISSUED:       8712
