[VMEM] WARNING: physical memory size is smaller than virtual memory size.

*** ChampSim Multicore Out-of-Order Simulator ***
Warmup Instructions: 50000000
Simulation Instructions: 200000000
Number of CPUs: 1
Page size: 4096
Core 0: /local-ssd/ben/dpc4-traces/Graph/GMS/gms.triangle_count.soc-pokec-relationships.slice-137.champsimtrace.gz
Off-chip DRAM Size: 64 GiB Channels: 1 Width: 64-bit Data Rate: 4807 MT/s
Heartbeat CPU 0 instructions: 500002 cycles: 205276 heartbeat IPC: 2.436 cumulative IPC: 2.436 (Simulation time: 00 hr 00 min 03 sec)
Heartbeat CPU 0 instructions: 1000009 cycles: 370378 heartbeat IPC: 3.028 cumulative IPC: 2.7 (Simulation time: 00 hr 00 min 06 sec)
Heartbeat CPU 0 instructions: 1500011 cycles: 525838 heartbeat IPC: 3.216 cumulative IPC: 2.853 (Simulation time: 00 hr 00 min 09 sec)
Heartbeat CPU 0 instructions: 2000011 cycles: 679491 heartbeat IPC: 3.254 cumulative IPC: 2.943 (Simulation time: 00 hr 00 min 11 sec)
Heartbeat CPU 0 instructions: 2500018 cycles: 830694 heartbeat IPC: 3.307 cumulative IPC: 3.01 (Simulation time: 00 hr 00 min 14 sec)
Heartbeat CPU 0 instructions: 3000018 cycles: 981799 heartbeat IPC: 3.309 cumulative IPC: 3.056 (Simulation time: 00 hr 00 min 17 sec)
Heartbeat CPU 0 instructions: 3500019 cycles: 1130711 heartbeat IPC: 3.358 cumulative IPC: 3.095 (Simulation time: 00 hr 00 min 20 sec)
Heartbeat CPU 0 instructions: 4000024 cycles: 1279503 heartbeat IPC: 3.36 cumulative IPC: 3.126 (Simulation time: 00 hr 00 min 24 sec)
Heartbeat CPU 0 instructions: 4500029 cycles: 1429790 heartbeat IPC: 3.327 cumulative IPC: 3.147 (Simulation time: 00 hr 00 min 27 sec)
Heartbeat CPU 0 instructions: 5000036 cycles: 1579344 heartbeat IPC: 3.343 cumulative IPC: 3.166 (Simulation time: 00 hr 00 min 30 sec)
Heartbeat CPU 0 instructions: 5500039 cycles: 1726611 heartbeat IPC: 3.395 cumulative IPC: 3.185 (Simulation time: 00 hr 00 min 33 sec)
Heartbeat CPU 0 instructions: 6000040 cycles: 1877356 heartbeat IPC: 3.317 cumulative IPC: 3.196 (Simulation time: 00 hr 00 min 36 sec)
Heartbeat CPU 0 instructions: 6500045 cycles: 2026012 heartbeat IPC: 3.364 cumulative IPC: 3.208 (Simulation time: 00 hr 00 min 39 sec)
Heartbeat CPU 0 instructions: 7000049 cycles: 2174064 heartbeat IPC: 3.377 cumulative IPC: 3.22 (Simulation time: 00 hr 00 min 42 sec)
Heartbeat CPU 0 instructions: 7500056 cycles: 2321280 heartbeat IPC: 3.396 cumulative IPC: 3.231 (Simulation time: 00 hr 00 min 45 sec)
Heartbeat CPU 0 instructions: 8000063 cycles: 2470430 heartbeat IPC: 3.352 cumulative IPC: 3.238 (Simulation time: 00 hr 00 min 48 sec)
Heartbeat CPU 0 instructions: 8500066 cycles: 2618840 heartbeat IPC: 3.369 cumulative IPC: 3.246 (Simulation time: 00 hr 00 min 51 sec)
Heartbeat CPU 0 instructions: 9000067 cycles: 2769112 heartbeat IPC: 3.327 cumulative IPC: 3.25 (Simulation time: 00 hr 00 min 55 sec)
Heartbeat CPU 0 instructions: 9500070 cycles: 2917551 heartbeat IPC: 3.368 cumulative IPC: 3.256 (Simulation time: 00 hr 00 min 58 sec)
Heartbeat CPU 0 instructions: 10000072 cycles: 3066813 heartbeat IPC: 3.35 cumulative IPC: 3.261 (Simulation time: 00 hr 01 min 01 sec)
Heartbeat CPU 0 instructions: 10500075 cycles: 3215541 heartbeat IPC: 3.362 cumulative IPC: 3.265 (Simulation time: 00 hr 01 min 04 sec)
Heartbeat CPU 0 instructions: 11000076 cycles: 3364860 heartbeat IPC: 3.349 cumulative IPC: 3.269 (Simulation time: 00 hr 01 min 07 sec)
Heartbeat CPU 0 instructions: 11500082 cycles: 3510960 heartbeat IPC: 3.422 cumulative IPC: 3.275 (Simulation time: 00 hr 01 min 10 sec)
Heartbeat CPU 0 instructions: 12000085 cycles: 3657687 heartbeat IPC: 3.408 cumulative IPC: 3.281 (Simulation time: 00 hr 01 min 13 sec)
Heartbeat CPU 0 instructions: 12500085 cycles: 3805449 heartbeat IPC: 3.384 cumulative IPC: 3.285 (Simulation time: 00 hr 01 min 17 sec)
Heartbeat CPU 0 instructions: 13000091 cycles: 3953995 heartbeat IPC: 3.366 cumulative IPC: 3.288 (Simulation time: 00 hr 01 min 20 sec)
Heartbeat CPU 0 instructions: 13500097 cycles: 4102519 heartbeat IPC: 3.366 cumulative IPC: 3.291 (Simulation time: 00 hr 01 min 23 sec)
Heartbeat CPU 0 instructions: 14000098 cycles: 4249511 heartbeat IPC: 3.402 cumulative IPC: 3.295 (Simulation time: 00 hr 01 min 26 sec)
Heartbeat CPU 0 instructions: 14500105 cycles: 4396598 heartbeat IPC: 3.399 cumulative IPC: 3.298 (Simulation time: 00 hr 01 min 29 sec)
Heartbeat CPU 0 instructions: 15000107 cycles: 4542909 heartbeat IPC: 3.417 cumulative IPC: 3.302 (Simulation time: 00 hr 01 min 32 sec)
Heartbeat CPU 0 instructions: 15500108 cycles: 4688454 heartbeat IPC: 3.435 cumulative IPC: 3.306 (Simulation time: 00 hr 01 min 35 sec)
Heartbeat CPU 0 instructions: 16000108 cycles: 4835848 heartbeat IPC: 3.392 cumulative IPC: 3.309 (Simulation time: 00 hr 01 min 38 sec)
Heartbeat CPU 0 instructions: 16500110 cycles: 4982511 heartbeat IPC: 3.409 cumulative IPC: 3.312 (Simulation time: 00 hr 01 min 42 sec)
Heartbeat CPU 0 instructions: 17000113 cycles: 5131215 heartbeat IPC: 3.362 cumulative IPC: 3.313 (Simulation time: 00 hr 01 min 45 sec)
Heartbeat CPU 0 instructions: 17500115 cycles: 5275693 heartbeat IPC: 3.461 cumulative IPC: 3.317 (Simulation time: 00 hr 01 min 48 sec)
Heartbeat CPU 0 instructions: 18000117 cycles: 5420549 heartbeat IPC: 3.452 cumulative IPC: 3.321 (Simulation time: 00 hr 01 min 51 sec)
Heartbeat CPU 0 instructions: 18500122 cycles: 5565186 heartbeat IPC: 3.457 cumulative IPC: 3.324 (Simulation time: 00 hr 01 min 54 sec)
Heartbeat CPU 0 instructions: 19000129 cycles: 5712666 heartbeat IPC: 3.39 cumulative IPC: 3.326 (Simulation time: 00 hr 01 min 57 sec)
Heartbeat CPU 0 instructions: 19500130 cycles: 5859427 heartbeat IPC: 3.407 cumulative IPC: 3.328 (Simulation time: 00 hr 02 min 00 sec)
Heartbeat CPU 0 instructions: 20000133 cycles: 6003345 heartbeat IPC: 3.474 cumulative IPC: 3.331 (Simulation time: 00 hr 02 min 03 sec)
Heartbeat CPU 0 instructions: 20500135 cycles: 6148922 heartbeat IPC: 3.435 cumulative IPC: 3.334 (Simulation time: 00 hr 02 min 06 sec)
Heartbeat CPU 0 instructions: 21000138 cycles: 6293770 heartbeat IPC: 3.452 cumulative IPC: 3.337 (Simulation time: 00 hr 02 min 09 sec)
Heartbeat CPU 0 instructions: 21500144 cycles: 6436885 heartbeat IPC: 3.494 cumulative IPC: 3.34 (Simulation time: 00 hr 02 min 12 sec)
Heartbeat CPU 0 instructions: 22000150 cycles: 6583938 heartbeat IPC: 3.4 cumulative IPC: 3.341 (Simulation time: 00 hr 02 min 16 sec)
Heartbeat CPU 0 instructions: 22500154 cycles: 6724144 heartbeat IPC: 3.566 cumulative IPC: 3.346 (Simulation time: 00 hr 02 min 19 sec)
Heartbeat CPU 0 instructions: 23000159 cycles: 6865162 heartbeat IPC: 3.546 cumulative IPC: 3.35 (Simulation time: 00 hr 02 min 21 sec)
Heartbeat CPU 0 instructions: 23500163 cycles: 7009618 heartbeat IPC: 3.461 cumulative IPC: 3.353 (Simulation time: 00 hr 02 min 25 sec)
Heartbeat CPU 0 instructions: 24000166 cycles: 7153176 heartbeat IPC: 3.483 cumulative IPC: 3.355 (Simulation time: 00 hr 02 min 28 sec)
Heartbeat CPU 0 instructions: 24500173 cycles: 7297540 heartbeat IPC: 3.464 cumulative IPC: 3.357 (Simulation time: 00 hr 02 min 31 sec)
Heartbeat CPU 0 instructions: 25000174 cycles: 7441531 heartbeat IPC: 3.472 cumulative IPC: 3.36 (Simulation time: 00 hr 02 min 34 sec)
Heartbeat CPU 0 instructions: 25500181 cycles: 7583146 heartbeat IPC: 3.531 cumulative IPC: 3.363 (Simulation time: 00 hr 02 min 37 sec)
Heartbeat CPU 0 instructions: 26000185 cycles: 7726495 heartbeat IPC: 3.488 cumulative IPC: 3.365 (Simulation time: 00 hr 02 min 40 sec)
Heartbeat CPU 0 instructions: 26500186 cycles: 7866269 heartbeat IPC: 3.577 cumulative IPC: 3.369 (Simulation time: 00 hr 02 min 43 sec)
Heartbeat CPU 0 instructions: 27000192 cycles: 8009600 heartbeat IPC: 3.488 cumulative IPC: 3.371 (Simulation time: 00 hr 02 min 46 sec)
Heartbeat CPU 0 instructions: 27500193 cycles: 8152191 heartbeat IPC: 3.507 cumulative IPC: 3.373 (Simulation time: 00 hr 02 min 49 sec)
Heartbeat CPU 0 instructions: 28000198 cycles: 8293298 heartbeat IPC: 3.543 cumulative IPC: 3.376 (Simulation time: 00 hr 02 min 52 sec)
Heartbeat CPU 0 instructions: 28500202 cycles: 8436010 heartbeat IPC: 3.504 cumulative IPC: 3.378 (Simulation time: 00 hr 02 min 55 sec)
Heartbeat CPU 0 instructions: 29000202 cycles: 8577633 heartbeat IPC: 3.53 cumulative IPC: 3.381 (Simulation time: 00 hr 02 min 58 sec)
Heartbeat CPU 0 instructions: 29500204 cycles: 8718862 heartbeat IPC: 3.54 cumulative IPC: 3.383 (Simulation time: 00 hr 03 min 01 sec)
Heartbeat CPU 0 instructions: 30000211 cycles: 8861237 heartbeat IPC: 3.512 cumulative IPC: 3.386 (Simulation time: 00 hr 03 min 04 sec)
Heartbeat CPU 0 instructions: 30500212 cycles: 9003693 heartbeat IPC: 3.51 cumulative IPC: 3.388 (Simulation time: 00 hr 03 min 07 sec)
Heartbeat CPU 0 instructions: 31000212 cycles: 9144585 heartbeat IPC: 3.549 cumulative IPC: 3.39 (Simulation time: 00 hr 03 min 10 sec)
Heartbeat CPU 0 instructions: 31500216 cycles: 9286959 heartbeat IPC: 3.512 cumulative IPC: 3.392 (Simulation time: 00 hr 03 min 13 sec)
Heartbeat CPU 0 instructions: 32000218 cycles: 9428739 heartbeat IPC: 3.527 cumulative IPC: 3.394 (Simulation time: 00 hr 03 min 16 sec)
Heartbeat CPU 0 instructions: 32500224 cycles: 9570251 heartbeat IPC: 3.533 cumulative IPC: 3.396 (Simulation time: 00 hr 03 min 19 sec)
Heartbeat CPU 0 instructions: 33000227 cycles: 9713717 heartbeat IPC: 3.485 cumulative IPC: 3.397 (Simulation time: 00 hr 03 min 22 sec)
Heartbeat CPU 0 instructions: 33500229 cycles: 9856527 heartbeat IPC: 3.501 cumulative IPC: 3.399 (Simulation time: 00 hr 03 min 25 sec)
Heartbeat CPU 0 instructions: 34000235 cycles: 9998533 heartbeat IPC: 3.521 cumulative IPC: 3.401 (Simulation time: 00 hr 03 min 28 sec)
Heartbeat CPU 0 instructions: 34500238 cycles: 10138832 heartbeat IPC: 3.564 cumulative IPC: 3.403 (Simulation time: 00 hr 03 min 31 sec)
Heartbeat CPU 0 instructions: 35000241 cycles: 10278543 heartbeat IPC: 3.579 cumulative IPC: 3.405 (Simulation time: 00 hr 03 min 34 sec)
Heartbeat CPU 0 instructions: 35500242 cycles: 10422243 heartbeat IPC: 3.479 cumulative IPC: 3.406 (Simulation time: 00 hr 03 min 37 sec)
Heartbeat CPU 0 instructions: 36000247 cycles: 10565938 heartbeat IPC: 3.48 cumulative IPC: 3.407 (Simulation time: 00 hr 03 min 40 sec)
Heartbeat CPU 0 instructions: 36500254 cycles: 10708853 heartbeat IPC: 3.499 cumulative IPC: 3.408 (Simulation time: 00 hr 03 min 43 sec)
Heartbeat CPU 0 instructions: 37000254 cycles: 10849198 heartbeat IPC: 3.563 cumulative IPC: 3.41 (Simulation time: 00 hr 03 min 46 sec)
Heartbeat CPU 0 instructions: 37500261 cycles: 10989495 heartbeat IPC: 3.564 cumulative IPC: 3.412 (Simulation time: 00 hr 03 min 49 sec)
Heartbeat CPU 0 instructions: 38000262 cycles: 11131513 heartbeat IPC: 3.521 cumulative IPC: 3.414 (Simulation time: 00 hr 03 min 52 sec)
Heartbeat CPU 0 instructions: 38500265 cycles: 11273310 heartbeat IPC: 3.526 cumulative IPC: 3.415 (Simulation time: 00 hr 03 min 55 sec)
Heartbeat CPU 0 instructions: 39000266 cycles: 11414345 heartbeat IPC: 3.545 cumulative IPC: 3.417 (Simulation time: 00 hr 03 min 58 sec)
Heartbeat CPU 0 instructions: 39500272 cycles: 11554075 heartbeat IPC: 3.578 cumulative IPC: 3.419 (Simulation time: 00 hr 04 min 01 sec)
Heartbeat CPU 0 instructions: 40000277 cycles: 11694391 heartbeat IPC: 3.563 cumulative IPC: 3.42 (Simulation time: 00 hr 04 min 04 sec)
Heartbeat CPU 0 instructions: 40500284 cycles: 11836519 heartbeat IPC: 3.518 cumulative IPC: 3.422 (Simulation time: 00 hr 04 min 07 sec)
Heartbeat CPU 0 instructions: 41000284 cycles: 11975061 heartbeat IPC: 3.609 cumulative IPC: 3.424 (Simulation time: 00 hr 04 min 10 sec)
Heartbeat CPU 0 instructions: 41500290 cycles: 12114306 heartbeat IPC: 3.591 cumulative IPC: 3.426 (Simulation time: 00 hr 04 min 13 sec)
Heartbeat CPU 0 instructions: 42000291 cycles: 12255647 heartbeat IPC: 3.538 cumulative IPC: 3.427 (Simulation time: 00 hr 04 min 16 sec)
Heartbeat CPU 0 instructions: 42500298 cycles: 12394566 heartbeat IPC: 3.599 cumulative IPC: 3.429 (Simulation time: 00 hr 04 min 19 sec)
Heartbeat CPU 0 instructions: 43000301 cycles: 12535049 heartbeat IPC: 3.559 cumulative IPC: 3.43 (Simulation time: 00 hr 04 min 22 sec)
Heartbeat CPU 0 instructions: 43500301 cycles: 12673469 heartbeat IPC: 3.612 cumulative IPC: 3.432 (Simulation time: 00 hr 04 min 25 sec)
Heartbeat CPU 0 instructions: 44000307 cycles: 12812088 heartbeat IPC: 3.607 cumulative IPC: 3.434 (Simulation time: 00 hr 04 min 28 sec)
Heartbeat CPU 0 instructions: 44500314 cycles: 12951362 heartbeat IPC: 3.59 cumulative IPC: 3.436 (Simulation time: 00 hr 04 min 31 sec)
Heartbeat CPU 0 instructions: 45000316 cycles: 13091048 heartbeat IPC: 3.579 cumulative IPC: 3.437 (Simulation time: 00 hr 04 min 34 sec)
Heartbeat CPU 0 instructions: 45500318 cycles: 13227581 heartbeat IPC: 3.662 cumulative IPC: 3.44 (Simulation time: 00 hr 04 min 37 sec)
Heartbeat CPU 0 instructions: 46000325 cycles: 13368438 heartbeat IPC: 3.55 cumulative IPC: 3.441 (Simulation time: 00 hr 04 min 40 sec)
Heartbeat CPU 0 instructions: 46500332 cycles: 13507332 heartbeat IPC: 3.6 cumulative IPC: 3.443 (Simulation time: 00 hr 04 min 43 sec)
Heartbeat CPU 0 instructions: 47000335 cycles: 13647124 heartbeat IPC: 3.577 cumulative IPC: 3.444 (Simulation time: 00 hr 04 min 46 sec)
Heartbeat CPU 0 instructions: 47500340 cycles: 13786362 heartbeat IPC: 3.591 cumulative IPC: 3.445 (Simulation time: 00 hr 04 min 49 sec)
Heartbeat CPU 0 instructions: 48000342 cycles: 13926150 heartbeat IPC: 3.577 cumulative IPC: 3.447 (Simulation time: 00 hr 04 min 52 sec)
Heartbeat CPU 0 instructions: 48500345 cycles: 14065911 heartbeat IPC: 3.578 cumulative IPC: 3.448 (Simulation time: 00 hr 04 min 55 sec)
Heartbeat CPU 0 instructions: 49000348 cycles: 14205301 heartbeat IPC: 3.587 cumulative IPC: 3.449 (Simulation time: 00 hr 04 min 58 sec)
Heartbeat CPU 0 instructions: 49500348 cycles: 14344115 heartbeat IPC: 3.602 cumulative IPC: 3.451 (Simulation time: 00 hr 05 min 01 sec)
Warmup halting CPU 0 at instruction 50000005 cycle 14480790 for remainder of phase
Warmup finished CPU 0 instructions: 50000005 cycles: 14480790 cumulative IPC: 3.453 (Simulation time: 00 hr 05 min 04 sec)
Warmup complete CPU 0 instructions: 50000005 cycles: 14480790 cumulative IPC: 3.453 (Simulation time: 00 hr 05 min 04 sec)
Heartbeat CPU 0 instructions: 50000349 cycles: 14480833 heartbeat IPC: 3.657 cumulative IPC: 8 (Simulation time: 00 hr 05 min 04 sec)
Heartbeat CPU 0 instructions: 50500350 cycles: 15423860 heartbeat IPC: 0.5302 cumulative IPC: 0.5305 (Simulation time: 00 hr 05 min 12 sec)
Heartbeat CPU 0 instructions: 51000352 cycles: 16353595 heartbeat IPC: 0.5378 cumulative IPC: 0.5341 (Simulation time: 00 hr 05 min 20 sec)
Heartbeat CPU 0 instructions: 51500353 cycles: 17294920 heartbeat IPC: 0.5312 cumulative IPC: 0.5331 (Simulation time: 00 hr 05 min 28 sec)
Heartbeat CPU 0 instructions: 52000354 cycles: 18221214 heartbeat IPC: 0.5398 cumulative IPC: 0.5348 (Simulation time: 00 hr 05 min 36 sec)
Heartbeat CPU 0 instructions: 52500356 cycles: 19158492 heartbeat IPC: 0.5335 cumulative IPC: 0.5345 (Simulation time: 00 hr 05 min 43 sec)
Heartbeat CPU 0 instructions: 53000360 cycles: 20092703 heartbeat IPC: 0.5352 cumulative IPC: 0.5346 (Simulation time: 00 hr 05 min 51 sec)
Heartbeat CPU 0 instructions: 53500362 cycles: 21022680 heartbeat IPC: 0.5376 cumulative IPC: 0.5351 (Simulation time: 00 hr 05 min 59 sec)
Heartbeat CPU 0 instructions: 54000363 cycles: 21948568 heartbeat IPC: 0.54 cumulative IPC: 0.5357 (Simulation time: 00 hr 06 min 07 sec)
Heartbeat CPU 0 instructions: 54500363 cycles: 22870399 heartbeat IPC: 0.5424 cumulative IPC: 0.5364 (Simulation time: 00 hr 06 min 15 sec)
Heartbeat CPU 0 instructions: 55000364 cycles: 23779835 heartbeat IPC: 0.5498 cumulative IPC: 0.5377 (Simulation time: 00 hr 06 min 22 sec)
Heartbeat CPU 0 instructions: 55500366 cycles: 24727733 heartbeat IPC: 0.5275 cumulative IPC: 0.5368 (Simulation time: 00 hr 06 min 30 sec)
Heartbeat CPU 0 instructions: 56000368 cycles: 25639954 heartbeat IPC: 0.5481 cumulative IPC: 0.5377 (Simulation time: 00 hr 06 min 38 sec)
Heartbeat CPU 0 instructions: 56500370 cycles: 26560590 heartbeat IPC: 0.5431 cumulative IPC: 0.5381 (Simulation time: 00 hr 06 min 45 sec)
Heartbeat CPU 0 instructions: 57000373 cycles: 27484797 heartbeat IPC: 0.541 cumulative IPC: 0.5383 (Simulation time: 00 hr 06 min 53 sec)
Heartbeat CPU 0 instructions: 57500373 cycles: 28409814 heartbeat IPC: 0.5405 cumulative IPC: 0.5385 (Simulation time: 00 hr 07 min 01 sec)
Heartbeat CPU 0 instructions: 58000376 cycles: 29324098 heartbeat IPC: 0.5469 cumulative IPC: 0.539 (Simulation time: 00 hr 07 min 09 sec)
Heartbeat CPU 0 instructions: 58500378 cycles: 30232097 heartbeat IPC: 0.5507 cumulative IPC: 0.5397 (Simulation time: 00 hr 07 min 16 sec)
Heartbeat CPU 0 instructions: 59000381 cycles: 31144092 heartbeat IPC: 0.5483 cumulative IPC: 0.5401 (Simulation time: 00 hr 07 min 24 sec)
Heartbeat CPU 0 instructions: 59500383 cycles: 32052850 heartbeat IPC: 0.5502 cumulative IPC: 0.5407 (Simulation time: 00 hr 07 min 32 sec)
Heartbeat CPU 0 instructions: 60000383 cycles: 32968177 heartbeat IPC: 0.5463 cumulative IPC: 0.5409 (Simulation time: 00 hr 07 min 39 sec)
Heartbeat CPU 0 instructions: 60500384 cycles: 33859298 heartbeat IPC: 0.5611 cumulative IPC: 0.5419 (Simulation time: 00 hr 07 min 47 sec)
Heartbeat CPU 0 instructions: 61000385 cycles: 34781969 heartbeat IPC: 0.5419 cumulative IPC: 0.5419 (Simulation time: 00 hr 07 min 54 sec)
Heartbeat CPU 0 instructions: 61500391 cycles: 35723379 heartbeat IPC: 0.5311 cumulative IPC: 0.5414 (Simulation time: 00 hr 08 min 02 sec)
Heartbeat CPU 0 instructions: 62000393 cycles: 36626477 heartbeat IPC: 0.5537 cumulative IPC: 0.5419 (Simulation time: 00 hr 08 min 10 sec)
Heartbeat CPU 0 instructions: 62500394 cycles: 37543259 heartbeat IPC: 0.5454 cumulative IPC: 0.542 (Simulation time: 00 hr 08 min 18 sec)
Heartbeat CPU 0 instructions: 63000396 cycles: 38427031 heartbeat IPC: 0.5658 cumulative IPC: 0.5429 (Simulation time: 00 hr 08 min 25 sec)
Heartbeat CPU 0 instructions: 63500399 cycles: 39326720 heartbeat IPC: 0.5558 cumulative IPC: 0.5434 (Simulation time: 00 hr 08 min 32 sec)
Heartbeat CPU 0 instructions: 64000403 cycles: 40233853 heartbeat IPC: 0.5512 cumulative IPC: 0.5436 (Simulation time: 00 hr 08 min 40 sec)
Heartbeat CPU 0 instructions: 64500405 cycles: 41152675 heartbeat IPC: 0.5442 cumulative IPC: 0.5437 (Simulation time: 00 hr 08 min 48 sec)
Heartbeat CPU 0 instructions: 65000410 cycles: 42032682 heartbeat IPC: 0.5682 cumulative IPC: 0.5444 (Simulation time: 00 hr 08 min 55 sec)
Heartbeat CPU 0 instructions: 65500413 cycles: 42953073 heartbeat IPC: 0.5433 cumulative IPC: 0.5444 (Simulation time: 00 hr 09 min 03 sec)
Heartbeat CPU 0 instructions: 66000413 cycles: 43871347 heartbeat IPC: 0.5445 cumulative IPC: 0.5444 (Simulation time: 00 hr 09 min 11 sec)
Heartbeat CPU 0 instructions: 66500413 cycles: 44786840 heartbeat IPC: 0.5462 cumulative IPC: 0.5445 (Simulation time: 00 hr 09 min 18 sec)
Heartbeat CPU 0 instructions: 67000413 cycles: 45713334 heartbeat IPC: 0.5397 cumulative IPC: 0.5443 (Simulation time: 00 hr 09 min 26 sec)
Heartbeat CPU 0 instructions: 67500413 cycles: 46615221 heartbeat IPC: 0.5544 cumulative IPC: 0.5446 (Simulation time: 00 hr 09 min 34 sec)
Heartbeat CPU 0 instructions: 68000415 cycles: 47505205 heartbeat IPC: 0.5618 cumulative IPC: 0.5451 (Simulation time: 00 hr 09 min 41 sec)
Heartbeat CPU 0 instructions: 68500419 cycles: 48413659 heartbeat IPC: 0.5504 cumulative IPC: 0.5452 (Simulation time: 00 hr 09 min 49 sec)
Heartbeat CPU 0 instructions: 69000420 cycles: 49346730 heartbeat IPC: 0.5359 cumulative IPC: 0.545 (Simulation time: 00 hr 09 min 57 sec)
Heartbeat CPU 0 instructions: 69500426 cycles: 50243329 heartbeat IPC: 0.5577 cumulative IPC: 0.5453 (Simulation time: 00 hr 10 min 04 sec)
Heartbeat CPU 0 instructions: 70000426 cycles: 51141555 heartbeat IPC: 0.5567 cumulative IPC: 0.5456 (Simulation time: 00 hr 10 min 12 sec)
Heartbeat CPU 0 instructions: 70500426 cycles: 52042719 heartbeat IPC: 0.5548 cumulative IPC: 0.5458 (Simulation time: 00 hr 10 min 19 sec)
Heartbeat CPU 0 instructions: 71000429 cycles: 52961304 heartbeat IPC: 0.5443 cumulative IPC: 0.5457 (Simulation time: 00 hr 10 min 27 sec)
Heartbeat CPU 0 instructions: 71500433 cycles: 53876241 heartbeat IPC: 0.5465 cumulative IPC: 0.5458 (Simulation time: 00 hr 10 min 35 sec)
Heartbeat CPU 0 instructions: 72000436 cycles: 54766102 heartbeat IPC: 0.5619 cumulative IPC: 0.5461 (Simulation time: 00 hr 10 min 42 sec)
Heartbeat CPU 0 instructions: 72500437 cycles: 55676089 heartbeat IPC: 0.5495 cumulative IPC: 0.5462 (Simulation time: 00 hr 10 min 50 sec)
Heartbeat CPU 0 instructions: 73000437 cycles: 56591267 heartbeat IPC: 0.5463 cumulative IPC: 0.5462 (Simulation time: 00 hr 10 min 58 sec)
Heartbeat CPU 0 instructions: 73500438 cycles: 57485402 heartbeat IPC: 0.5592 cumulative IPC: 0.5465 (Simulation time: 00 hr 11 min 05 sec)
Heartbeat CPU 0 instructions: 74000440 cycles: 58366164 heartbeat IPC: 0.5677 cumulative IPC: 0.5469 (Simulation time: 00 hr 11 min 13 sec)
Heartbeat CPU 0 instructions: 74500446 cycles: 59273668 heartbeat IPC: 0.551 cumulative IPC: 0.547 (Simulation time: 00 hr 11 min 20 sec)
Heartbeat CPU 0 instructions: 75000447 cycles: 60162281 heartbeat IPC: 0.5627 cumulative IPC: 0.5473 (Simulation time: 00 hr 11 min 28 sec)
Heartbeat CPU 0 instructions: 75500448 cycles: 61088588 heartbeat IPC: 0.5398 cumulative IPC: 0.5471 (Simulation time: 00 hr 11 min 35 sec)
Heartbeat CPU 0 instructions: 76000455 cycles: 62007154 heartbeat IPC: 0.5443 cumulative IPC: 0.5471 (Simulation time: 00 hr 11 min 43 sec)
Heartbeat CPU 0 instructions: 76500457 cycles: 62903034 heartbeat IPC: 0.5581 cumulative IPC: 0.5473 (Simulation time: 00 hr 11 min 51 sec)
Heartbeat CPU 0 instructions: 77000457 cycles: 63796054 heartbeat IPC: 0.5599 cumulative IPC: 0.5475 (Simulation time: 00 hr 11 min 58 sec)
Heartbeat CPU 0 instructions: 77500460 cycles: 64692364 heartbeat IPC: 0.5578 cumulative IPC: 0.5477 (Simulation time: 00 hr 12 min 06 sec)
Heartbeat CPU 0 instructions: 78000460 cycles: 65592722 heartbeat IPC: 0.5553 cumulative IPC: 0.5478 (Simulation time: 00 hr 12 min 13 sec)
Heartbeat CPU 0 instructions: 78500461 cycles: 66505704 heartbeat IPC: 0.5477 cumulative IPC: 0.5478 (Simulation time: 00 hr 12 min 21 sec)
Heartbeat CPU 0 instructions: 79000462 cycles: 67402647 heartbeat IPC: 0.5575 cumulative IPC: 0.548 (Simulation time: 00 hr 12 min 28 sec)
Heartbeat CPU 0 instructions: 79500462 cycles: 68324676 heartbeat IPC: 0.5423 cumulative IPC: 0.5479 (Simulation time: 00 hr 12 min 36 sec)
Heartbeat CPU 0 instructions: 80000462 cycles: 69206949 heartbeat IPC: 0.5667 cumulative IPC: 0.5482 (Simulation time: 00 hr 12 min 44 sec)
Heartbeat CPU 0 instructions: 80500463 cycles: 70103534 heartbeat IPC: 0.5577 cumulative IPC: 0.5483 (Simulation time: 00 hr 12 min 51 sec)
Heartbeat CPU 0 instructions: 81000467 cycles: 71021908 heartbeat IPC: 0.5444 cumulative IPC: 0.5483 (Simulation time: 00 hr 12 min 59 sec)
Heartbeat CPU 0 instructions: 81500467 cycles: 71929680 heartbeat IPC: 0.5508 cumulative IPC: 0.5483 (Simulation time: 00 hr 13 min 07 sec)
Heartbeat CPU 0 instructions: 82000468 cycles: 72834629 heartbeat IPC: 0.5525 cumulative IPC: 0.5484 (Simulation time: 00 hr 13 min 14 sec)
Heartbeat CPU 0 instructions: 82500468 cycles: 73728375 heartbeat IPC: 0.5594 cumulative IPC: 0.5486 (Simulation time: 00 hr 13 min 22 sec)
Heartbeat CPU 0 instructions: 83000469 cycles: 74663197 heartbeat IPC: 0.5349 cumulative IPC: 0.5483 (Simulation time: 00 hr 13 min 30 sec)
Heartbeat CPU 0 instructions: 83500470 cycles: 75587871 heartbeat IPC: 0.5407 cumulative IPC: 0.5482 (Simulation time: 00 hr 13 min 37 sec)
Heartbeat CPU 0 instructions: 84000476 cycles: 76490385 heartbeat IPC: 0.554 cumulative IPC: 0.5483 (Simulation time: 00 hr 13 min 45 sec)
Heartbeat CPU 0 instructions: 84500476 cycles: 77418172 heartbeat IPC: 0.5389 cumulative IPC: 0.5482 (Simulation time: 00 hr 13 min 53 sec)
Heartbeat CPU 0 instructions: 85000476 cycles: 78314535 heartbeat IPC: 0.5578 cumulative IPC: 0.5483 (Simulation time: 00 hr 14 min 00 sec)
Heartbeat CPU 0 instructions: 85500477 cycles: 79224640 heartbeat IPC: 0.5494 cumulative IPC: 0.5483 (Simulation time: 00 hr 14 min 08 sec)
Heartbeat CPU 0 instructions: 86000478 cycles: 80133433 heartbeat IPC: 0.5502 cumulative IPC: 0.5483 (Simulation time: 00 hr 14 min 18 sec)
Heartbeat CPU 0 instructions: 86500478 cycles: 81023369 heartbeat IPC: 0.5618 cumulative IPC: 0.5485 (Simulation time: 00 hr 14 min 26 sec)
Heartbeat CPU 0 instructions: 87000478 cycles: 81927167 heartbeat IPC: 0.5532 cumulative IPC: 0.5486 (Simulation time: 00 hr 14 min 33 sec)
Heartbeat CPU 0 instructions: 87500478 cycles: 82824686 heartbeat IPC: 0.5571 cumulative IPC: 0.5487 (Simulation time: 00 hr 14 min 41 sec)
Heartbeat CPU 0 instructions: 88000481 cycles: 83728633 heartbeat IPC: 0.5531 cumulative IPC: 0.5488 (Simulation time: 00 hr 14 min 49 sec)
Heartbeat CPU 0 instructions: 88500483 cycles: 84643410 heartbeat IPC: 0.5466 cumulative IPC: 0.5487 (Simulation time: 00 hr 14 min 56 sec)
Heartbeat CPU 0 instructions: 89000483 cycles: 85539901 heartbeat IPC: 0.5577 cumulative IPC: 0.5488 (Simulation time: 00 hr 15 min 04 sec)
Heartbeat CPU 0 instructions: 89500483 cycles: 86429034 heartbeat IPC: 0.5623 cumulative IPC: 0.549 (Simulation time: 00 hr 15 min 11 sec)
Heartbeat CPU 0 instructions: 90000486 cycles: 87316518 heartbeat IPC: 0.5634 cumulative IPC: 0.5492 (Simulation time: 00 hr 15 min 19 sec)
Heartbeat CPU 0 instructions: 90500489 cycles: 88201359 heartbeat IPC: 0.5651 cumulative IPC: 0.5494 (Simulation time: 00 hr 15 min 27 sec)
Heartbeat CPU 0 instructions: 91000494 cycles: 89095906 heartbeat IPC: 0.5589 cumulative IPC: 0.5495 (Simulation time: 00 hr 15 min 34 sec)
Heartbeat CPU 0 instructions: 91500497 cycles: 89990996 heartbeat IPC: 0.5586 cumulative IPC: 0.5496 (Simulation time: 00 hr 15 min 42 sec)
Heartbeat CPU 0 instructions: 92000497 cycles: 90901117 heartbeat IPC: 0.5494 cumulative IPC: 0.5496 (Simulation time: 00 hr 15 min 49 sec)
Heartbeat CPU 0 instructions: 92500498 cycles: 91782115 heartbeat IPC: 0.5675 cumulative IPC: 0.5498 (Simulation time: 00 hr 15 min 57 sec)
Heartbeat CPU 0 instructions: 93000498 cycles: 92670613 heartbeat IPC: 0.5627 cumulative IPC: 0.5499 (Simulation time: 00 hr 16 min 04 sec)
Heartbeat CPU 0 instructions: 93500505 cycles: 93588505 heartbeat IPC: 0.5447 cumulative IPC: 0.5499 (Simulation time: 00 hr 16 min 12 sec)
Heartbeat CPU 0 instructions: 94000505 cycles: 94486722 heartbeat IPC: 0.5567 cumulative IPC: 0.55 (Simulation time: 00 hr 16 min 20 sec)
Heartbeat CPU 0 instructions: 94500505 cycles: 95371828 heartbeat IPC: 0.5649 cumulative IPC: 0.5501 (Simulation time: 00 hr 16 min 27 sec)
Heartbeat CPU 0 instructions: 95000505 cycles: 96262341 heartbeat IPC: 0.5615 cumulative IPC: 0.5503 (Simulation time: 00 hr 16 min 35 sec)
Heartbeat CPU 0 instructions: 95500508 cycles: 97153991 heartbeat IPC: 0.5608 cumulative IPC: 0.5504 (Simulation time: 00 hr 16 min 42 sec)
Heartbeat CPU 0 instructions: 96000510 cycles: 98059917 heartbeat IPC: 0.5519 cumulative IPC: 0.5504 (Simulation time: 00 hr 16 min 50 sec)
Heartbeat CPU 0 instructions: 96500510 cycles: 98952878 heartbeat IPC: 0.5599 cumulative IPC: 0.5505 (Simulation time: 00 hr 16 min 58 sec)
Heartbeat CPU 0 instructions: 97000513 cycles: 99833667 heartbeat IPC: 0.5677 cumulative IPC: 0.5507 (Simulation time: 00 hr 17 min 05 sec)
Heartbeat CPU 0 instructions: 97500515 cycles: 100748640 heartbeat IPC: 0.5465 cumulative IPC: 0.5506 (Simulation time: 00 hr 17 min 13 sec)
Heartbeat CPU 0 instructions: 98000519 cycles: 101630394 heartbeat IPC: 0.5671 cumulative IPC: 0.5508 (Simulation time: 00 hr 17 min 20 sec)
Heartbeat CPU 0 instructions: 98500519 cycles: 102519224 heartbeat IPC: 0.5625 cumulative IPC: 0.5509 (Simulation time: 00 hr 17 min 28 sec)
Heartbeat CPU 0 instructions: 99000519 cycles: 103409393 heartbeat IPC: 0.5617 cumulative IPC: 0.551 (Simulation time: 00 hr 17 min 35 sec)
Heartbeat CPU 0 instructions: 99500524 cycles: 104313406 heartbeat IPC: 0.5531 cumulative IPC: 0.551 (Simulation time: 00 hr 17 min 43 sec)
Heartbeat CPU 0 instructions: 100000528 cycles: 105216502 heartbeat IPC: 0.5537 cumulative IPC: 0.5511 (Simulation time: 00 hr 17 min 51 sec)
Heartbeat CPU 0 instructions: 100500528 cycles: 106119433 heartbeat IPC: 0.5538 cumulative IPC: 0.5511 (Simulation time: 00 hr 17 min 58 sec)
Heartbeat CPU 0 instructions: 101000529 cycles: 107018330 heartbeat IPC: 0.5562 cumulative IPC: 0.5511 (Simulation time: 00 hr 18 min 06 sec)
Heartbeat CPU 0 instructions: 101500531 cycles: 107917446 heartbeat IPC: 0.5561 cumulative IPC: 0.5512 (Simulation time: 00 hr 18 min 14 sec)
Heartbeat CPU 0 instructions: 102000532 cycles: 108806544 heartbeat IPC: 0.5624 cumulative IPC: 0.5513 (Simulation time: 00 hr 18 min 21 sec)
Heartbeat CPU 0 instructions: 102500533 cycles: 109695398 heartbeat IPC: 0.5625 cumulative IPC: 0.5514 (Simulation time: 00 hr 18 min 29 sec)
Heartbeat CPU 0 instructions: 103000533 cycles: 110605025 heartbeat IPC: 0.5497 cumulative IPC: 0.5514 (Simulation time: 00 hr 18 min 36 sec)
Heartbeat CPU 0 instructions: 103500535 cycles: 111497148 heartbeat IPC: 0.5605 cumulative IPC: 0.5515 (Simulation time: 00 hr 18 min 44 sec)
Heartbeat CPU 0 instructions: 104000539 cycles: 112392092 heartbeat IPC: 0.5587 cumulative IPC: 0.5515 (Simulation time: 00 hr 18 min 52 sec)
Heartbeat CPU 0 instructions: 104500539 cycles: 113281237 heartbeat IPC: 0.5623 cumulative IPC: 0.5516 (Simulation time: 00 hr 18 min 59 sec)
Heartbeat CPU 0 instructions: 105000540 cycles: 114171607 heartbeat IPC: 0.5616 cumulative IPC: 0.5517 (Simulation time: 00 hr 19 min 07 sec)
Heartbeat CPU 0 instructions: 105500541 cycles: 115073471 heartbeat IPC: 0.5544 cumulative IPC: 0.5517 (Simulation time: 00 hr 19 min 14 sec)
Heartbeat CPU 0 instructions: 106000542 cycles: 115957261 heartbeat IPC: 0.5657 cumulative IPC: 0.5519 (Simulation time: 00 hr 19 min 22 sec)
Heartbeat CPU 0 instructions: 106500542 cycles: 116846936 heartbeat IPC: 0.562 cumulative IPC: 0.5519 (Simulation time: 00 hr 19 min 29 sec)
Heartbeat CPU 0 instructions: 107000544 cycles: 117726657 heartbeat IPC: 0.5684 cumulative IPC: 0.5521 (Simulation time: 00 hr 19 min 37 sec)
Heartbeat CPU 0 instructions: 107500548 cycles: 118608272 heartbeat IPC: 0.5671 cumulative IPC: 0.5522 (Simulation time: 00 hr 19 min 44 sec)
Heartbeat CPU 0 instructions: 108000549 cycles: 119490618 heartbeat IPC: 0.5667 cumulative IPC: 0.5523 (Simulation time: 00 hr 19 min 52 sec)
Heartbeat CPU 0 instructions: 108500550 cycles: 120387106 heartbeat IPC: 0.5577 cumulative IPC: 0.5524 (Simulation time: 00 hr 19 min 59 sec)
Heartbeat CPU 0 instructions: 109000552 cycles: 121280073 heartbeat IPC: 0.5599 cumulative IPC: 0.5524 (Simulation time: 00 hr 20 min 07 sec)
Heartbeat CPU 0 instructions: 109500553 cycles: 122165227 heartbeat IPC: 0.5649 cumulative IPC: 0.5525 (Simulation time: 00 hr 20 min 14 sec)
Heartbeat CPU 0 instructions: 110000554 cycles: 123051014 heartbeat IPC: 0.5645 cumulative IPC: 0.5526 (Simulation time: 00 hr 20 min 22 sec)
Heartbeat CPU 0 instructions: 110500559 cycles: 123946089 heartbeat IPC: 0.5586 cumulative IPC: 0.5527 (Simulation time: 00 hr 20 min 30 sec)
Heartbeat CPU 0 instructions: 111000559 cycles: 124812495 heartbeat IPC: 0.5771 cumulative IPC: 0.5529 (Simulation time: 00 hr 20 min 37 sec)
Heartbeat CPU 0 instructions: 111500560 cycles: 125693371 heartbeat IPC: 0.5676 cumulative IPC: 0.553 (Simulation time: 00 hr 20 min 45 sec)
Heartbeat CPU 0 instructions: 112000562 cycles: 126570557 heartbeat IPC: 0.57 cumulative IPC: 0.5531 (Simulation time: 00 hr 20 min 52 sec)
Heartbeat CPU 0 instructions: 112500566 cycles: 127435123 heartbeat IPC: 0.5783 cumulative IPC: 0.5533 (Simulation time: 00 hr 20 min 59 sec)
Heartbeat CPU 0 instructions: 113000573 cycles: 128314860 heartbeat IPC: 0.5684 cumulative IPC: 0.5534 (Simulation time: 00 hr 21 min 07 sec)
Heartbeat CPU 0 instructions: 113500574 cycles: 129215085 heartbeat IPC: 0.5554 cumulative IPC: 0.5535 (Simulation time: 00 hr 21 min 15 sec)
Heartbeat CPU 0 instructions: 114000579 cycles: 130108258 heartbeat IPC: 0.5598 cumulative IPC: 0.5535 (Simulation time: 00 hr 21 min 22 sec)
Heartbeat CPU 0 instructions: 114500579 cycles: 130986479 heartbeat IPC: 0.5693 cumulative IPC: 0.5536 (Simulation time: 00 hr 21 min 30 sec)
Heartbeat CPU 0 instructions: 115000579 cycles: 131874873 heartbeat IPC: 0.5628 cumulative IPC: 0.5537 (Simulation time: 00 hr 21 min 37 sec)
Heartbeat CPU 0 instructions: 115500579 cycles: 132773403 heartbeat IPC: 0.5565 cumulative IPC: 0.5537 (Simulation time: 00 hr 21 min 45 sec)
Heartbeat CPU 0 instructions: 116000582 cycles: 133673896 heartbeat IPC: 0.5553 cumulative IPC: 0.5537 (Simulation time: 00 hr 21 min 52 sec)
Heartbeat CPU 0 instructions: 116500583 cycles: 134549770 heartbeat IPC: 0.5709 cumulative IPC: 0.5539 (Simulation time: 00 hr 22 min 00 sec)
Heartbeat CPU 0 instructions: 117000587 cycles: 135441238 heartbeat IPC: 0.5609 cumulative IPC: 0.5539 (Simulation time: 00 hr 22 min 07 sec)
Heartbeat CPU 0 instructions: 117500587 cycles: 136333051 heartbeat IPC: 0.5607 cumulative IPC: 0.554 (Simulation time: 00 hr 22 min 15 sec)
Heartbeat CPU 0 instructions: 118000587 cycles: 137228076 heartbeat IPC: 0.5586 cumulative IPC: 0.554 (Simulation time: 00 hr 22 min 23 sec)
Heartbeat CPU 0 instructions: 118500591 cycles: 138133182 heartbeat IPC: 0.5524 cumulative IPC: 0.554 (Simulation time: 00 hr 22 min 30 sec)
Heartbeat CPU 0 instructions: 119000592 cycles: 139007322 heartbeat IPC: 0.572 cumulative IPC: 0.5541 (Simulation time: 00 hr 22 min 38 sec)
Heartbeat CPU 0 instructions: 119500592 cycles: 139888522 heartbeat IPC: 0.5674 cumulative IPC: 0.5542 (Simulation time: 00 hr 22 min 45 sec)
Heartbeat CPU 0 instructions: 120000594 cycles: 140775520 heartbeat IPC: 0.5637 cumulative IPC: 0.5543 (Simulation time: 00 hr 22 min 53 sec)
Heartbeat CPU 0 instructions: 120500599 cycles: 141647424 heartbeat IPC: 0.5735 cumulative IPC: 0.5544 (Simulation time: 00 hr 23 min 01 sec)
Heartbeat CPU 0 instructions: 121000599 cycles: 142523455 heartbeat IPC: 0.5708 cumulative IPC: 0.5545 (Simulation time: 00 hr 23 min 09 sec)
Heartbeat CPU 0 instructions: 121500604 cycles: 143408354 heartbeat IPC: 0.565 cumulative IPC: 0.5546 (Simulation time: 00 hr 23 min 16 sec)
Heartbeat CPU 0 instructions: 122000604 cycles: 144260804 heartbeat IPC: 0.5865 cumulative IPC: 0.5548 (Simulation time: 00 hr 23 min 24 sec)
Heartbeat CPU 0 instructions: 122500605 cycles: 145143705 heartbeat IPC: 0.5663 cumulative IPC: 0.5549 (Simulation time: 00 hr 23 min 31 sec)
Heartbeat CPU 0 instructions: 123000606 cycles: 146036683 heartbeat IPC: 0.5599 cumulative IPC: 0.5549 (Simulation time: 00 hr 23 min 39 sec)
Heartbeat CPU 0 instructions: 123500607 cycles: 146907492 heartbeat IPC: 0.5742 cumulative IPC: 0.555 (Simulation time: 00 hr 23 min 46 sec)
Heartbeat CPU 0 instructions: 124000607 cycles: 147796739 heartbeat IPC: 0.5623 cumulative IPC: 0.5551 (Simulation time: 00 hr 23 min 54 sec)
Heartbeat CPU 0 instructions: 124500607 cycles: 148658519 heartbeat IPC: 0.5802 cumulative IPC: 0.5552 (Simulation time: 00 hr 24 min 01 sec)
Heartbeat CPU 0 instructions: 125000607 cycles: 149543491 heartbeat IPC: 0.565 cumulative IPC: 0.5553 (Simulation time: 00 hr 24 min 09 sec)
Heartbeat CPU 0 instructions: 125500607 cycles: 150429974 heartbeat IPC: 0.564 cumulative IPC: 0.5554 (Simulation time: 00 hr 24 min 16 sec)
Heartbeat CPU 0 instructions: 126000610 cycles: 151296589 heartbeat IPC: 0.577 cumulative IPC: 0.5555 (Simulation time: 00 hr 24 min 24 sec)
Heartbeat CPU 0 instructions: 126500612 cycles: 152170207 heartbeat IPC: 0.5723 cumulative IPC: 0.5556 (Simulation time: 00 hr 24 min 31 sec)
Heartbeat CPU 0 instructions: 127000615 cycles: 153050194 heartbeat IPC: 0.5682 cumulative IPC: 0.5557 (Simulation time: 00 hr 24 min 38 sec)
Heartbeat CPU 0 instructions: 127500615 cycles: 153934034 heartbeat IPC: 0.5657 cumulative IPC: 0.5557 (Simulation time: 00 hr 24 min 46 sec)
Heartbeat CPU 0 instructions: 128000616 cycles: 154807557 heartbeat IPC: 0.5724 cumulative IPC: 0.5558 (Simulation time: 00 hr 24 min 53 sec)
Heartbeat CPU 0 instructions: 128500619 cycles: 155693031 heartbeat IPC: 0.5647 cumulative IPC: 0.5559 (Simulation time: 00 hr 25 min 01 sec)
Heartbeat CPU 0 instructions: 129000620 cycles: 156574133 heartbeat IPC: 0.5675 cumulative IPC: 0.556 (Simulation time: 00 hr 25 min 08 sec)
Heartbeat CPU 0 instructions: 129500626 cycles: 157446935 heartbeat IPC: 0.5729 cumulative IPC: 0.5561 (Simulation time: 00 hr 25 min 16 sec)
Heartbeat CPU 0 instructions: 130000628 cycles: 158337694 heartbeat IPC: 0.5613 cumulative IPC: 0.5561 (Simulation time: 00 hr 25 min 23 sec)
Heartbeat CPU 0 instructions: 130500629 cycles: 159240797 heartbeat IPC: 0.5536 cumulative IPC: 0.5561 (Simulation time: 00 hr 25 min 31 sec)
Heartbeat CPU 0 instructions: 131000629 cycles: 160132413 heartbeat IPC: 0.5608 cumulative IPC: 0.5561 (Simulation time: 00 hr 25 min 39 sec)
Heartbeat CPU 0 instructions: 131500633 cycles: 161011149 heartbeat IPC: 0.569 cumulative IPC: 0.5562 (Simulation time: 00 hr 25 min 46 sec)
Heartbeat CPU 0 instructions: 132000634 cycles: 161886513 heartbeat IPC: 0.5712 cumulative IPC: 0.5563 (Simulation time: 00 hr 25 min 54 sec)
Heartbeat CPU 0 instructions: 132500634 cycles: 162732642 heartbeat IPC: 0.5909 cumulative IPC: 0.5565 (Simulation time: 00 hr 26 min 01 sec)
Heartbeat CPU 0 instructions: 133000636 cycles: 163593871 heartbeat IPC: 0.5806 cumulative IPC: 0.5566 (Simulation time: 00 hr 26 min 08 sec)
Heartbeat CPU 0 instructions: 133500638 cycles: 164478376 heartbeat IPC: 0.5653 cumulative IPC: 0.5567 (Simulation time: 00 hr 26 min 15 sec)
Heartbeat CPU 0 instructions: 134000639 cycles: 165358517 heartbeat IPC: 0.5681 cumulative IPC: 0.5567 (Simulation time: 00 hr 26 min 23 sec)
Heartbeat CPU 0 instructions: 134500639 cycles: 166238463 heartbeat IPC: 0.5682 cumulative IPC: 0.5568 (Simulation time: 00 hr 26 min 30 sec)
Heartbeat CPU 0 instructions: 135000639 cycles: 167121926 heartbeat IPC: 0.566 cumulative IPC: 0.5569 (Simulation time: 00 hr 26 min 38 sec)
Heartbeat CPU 0 instructions: 135500640 cycles: 167993409 heartbeat IPC: 0.5737 cumulative IPC: 0.557 (Simulation time: 00 hr 26 min 45 sec)
Heartbeat CPU 0 instructions: 136000643 cycles: 168853288 heartbeat IPC: 0.5815 cumulative IPC: 0.5571 (Simulation time: 00 hr 26 min 53 sec)
Heartbeat CPU 0 instructions: 136500644 cycles: 169726586 heartbeat IPC: 0.5725 cumulative IPC: 0.5572 (Simulation time: 00 hr 27 min 00 sec)
Heartbeat CPU 0 instructions: 137000644 cycles: 170605445 heartbeat IPC: 0.5689 cumulative IPC: 0.5573 (Simulation time: 00 hr 27 min 07 sec)
Heartbeat CPU 0 instructions: 137500646 cycles: 171473969 heartbeat IPC: 0.5757 cumulative IPC: 0.5574 (Simulation time: 00 hr 27 min 15 sec)
Heartbeat CPU 0 instructions: 138000652 cycles: 172335378 heartbeat IPC: 0.5805 cumulative IPC: 0.5575 (Simulation time: 00 hr 27 min 22 sec)
Heartbeat CPU 0 instructions: 138500653 cycles: 173188205 heartbeat IPC: 0.5863 cumulative IPC: 0.5576 (Simulation time: 00 hr 27 min 29 sec)
Heartbeat CPU 0 instructions: 139000654 cycles: 174040020 heartbeat IPC: 0.587 cumulative IPC: 0.5578 (Simulation time: 00 hr 27 min 37 sec)
Heartbeat CPU 0 instructions: 139500655 cycles: 174913060 heartbeat IPC: 0.5727 cumulative IPC: 0.5579 (Simulation time: 00 hr 27 min 44 sec)
Heartbeat CPU 0 instructions: 140000656 cycles: 175779884 heartbeat IPC: 0.5768 cumulative IPC: 0.558 (Simulation time: 00 hr 27 min 51 sec)
Heartbeat CPU 0 instructions: 140500656 cycles: 176653354 heartbeat IPC: 0.5724 cumulative IPC: 0.5581 (Simulation time: 00 hr 27 min 59 sec)
Heartbeat CPU 0 instructions: 141000656 cycles: 177515049 heartbeat IPC: 0.5803 cumulative IPC: 0.5582 (Simulation time: 00 hr 28 min 06 sec)
Heartbeat CPU 0 instructions: 141500657 cycles: 178386995 heartbeat IPC: 0.5734 cumulative IPC: 0.5583 (Simulation time: 00 hr 28 min 14 sec)
Heartbeat CPU 0 instructions: 142000663 cycles: 179249141 heartbeat IPC: 0.58 cumulative IPC: 0.5584 (Simulation time: 00 hr 28 min 21 sec)
Heartbeat CPU 0 instructions: 142500665 cycles: 180113906 heartbeat IPC: 0.5782 cumulative IPC: 0.5585 (Simulation time: 00 hr 28 min 28 sec)
Heartbeat CPU 0 instructions: 143000666 cycles: 180990997 heartbeat IPC: 0.5701 cumulative IPC: 0.5585 (Simulation time: 00 hr 28 min 36 sec)
Heartbeat CPU 0 instructions: 143500668 cycles: 181864357 heartbeat IPC: 0.5725 cumulative IPC: 0.5586 (Simulation time: 00 hr 28 min 43 sec)
Heartbeat CPU 0 instructions: 144000668 cycles: 182728306 heartbeat IPC: 0.5787 cumulative IPC: 0.5587 (Simulation time: 00 hr 28 min 50 sec)
Heartbeat CPU 0 instructions: 144500668 cycles: 183589790 heartbeat IPC: 0.5804 cumulative IPC: 0.5588 (Simulation time: 00 hr 28 min 58 sec)
Heartbeat CPU 0 instructions: 145000672 cycles: 184445555 heartbeat IPC: 0.5843 cumulative IPC: 0.5589 (Simulation time: 00 hr 29 min 05 sec)
Heartbeat CPU 0 instructions: 145500673 cycles: 185320275 heartbeat IPC: 0.5716 cumulative IPC: 0.559 (Simulation time: 00 hr 29 min 13 sec)
Heartbeat CPU 0 instructions: 146000673 cycles: 186183888 heartbeat IPC: 0.579 cumulative IPC: 0.5591 (Simulation time: 00 hr 29 min 20 sec)
Heartbeat CPU 0 instructions: 146500674 cycles: 187046277 heartbeat IPC: 0.5798 cumulative IPC: 0.5592 (Simulation time: 00 hr 29 min 27 sec)
Heartbeat CPU 0 instructions: 147000677 cycles: 187906137 heartbeat IPC: 0.5815 cumulative IPC: 0.5593 (Simulation time: 00 hr 29 min 35 sec)
Heartbeat CPU 0 instructions: 147500681 cycles: 188753750 heartbeat IPC: 0.5899 cumulative IPC: 0.5595 (Simulation time: 00 hr 29 min 42 sec)
Heartbeat CPU 0 instructions: 148000684 cycles: 189636335 heartbeat IPC: 0.5665 cumulative IPC: 0.5595 (Simulation time: 00 hr 29 min 49 sec)
Heartbeat CPU 0 instructions: 148500690 cycles: 190492036 heartbeat IPC: 0.5843 cumulative IPC: 0.5596 (Simulation time: 00 hr 29 min 57 sec)
Heartbeat CPU 0 instructions: 149000690 cycles: 191369412 heartbeat IPC: 0.5699 cumulative IPC: 0.5597 (Simulation time: 00 hr 30 min 04 sec)
Heartbeat CPU 0 instructions: 149500691 cycles: 192242965 heartbeat IPC: 0.5724 cumulative IPC: 0.5597 (Simulation time: 00 hr 30 min 11 sec)
Heartbeat CPU 0 instructions: 150000692 cycles: 193107136 heartbeat IPC: 0.5786 cumulative IPC: 0.5598 (Simulation time: 00 hr 30 min 19 sec)
Heartbeat CPU 0 instructions: 150500694 cycles: 193951007 heartbeat IPC: 0.5925 cumulative IPC: 0.56 (Simulation time: 00 hr 30 min 26 sec)
Heartbeat CPU 0 instructions: 151000695 cycles: 194798483 heartbeat IPC: 0.59 cumulative IPC: 0.5601 (Simulation time: 00 hr 30 min 33 sec)
Heartbeat CPU 0 instructions: 151500697 cycles: 195654841 heartbeat IPC: 0.5839 cumulative IPC: 0.5602 (Simulation time: 00 hr 30 min 40 sec)
Heartbeat CPU 0 instructions: 152000697 cycles: 196523607 heartbeat IPC: 0.5755 cumulative IPC: 0.5603 (Simulation time: 00 hr 30 min 48 sec)
Heartbeat CPU 0 instructions: 152500697 cycles: 197367566 heartbeat IPC: 0.5924 cumulative IPC: 0.5605 (Simulation time: 00 hr 30 min 55 sec)
Heartbeat CPU 0 instructions: 153000697 cycles: 198232095 heartbeat IPC: 0.5783 cumulative IPC: 0.5605 (Simulation time: 00 hr 31 min 02 sec)
Heartbeat CPU 0 instructions: 153500697 cycles: 199084054 heartbeat IPC: 0.5869 cumulative IPC: 0.5607 (Simulation time: 00 hr 31 min 10 sec)
Heartbeat CPU 0 instructions: 154000699 cycles: 199947525 heartbeat IPC: 0.5791 cumulative IPC: 0.5608 (Simulation time: 00 hr 31 min 17 sec)
Heartbeat CPU 0 instructions: 154500702 cycles: 200815658 heartbeat IPC: 0.576 cumulative IPC: 0.5608 (Simulation time: 00 hr 31 min 24 sec)
Heartbeat CPU 0 instructions: 155000702 cycles: 201639786 heartbeat IPC: 0.6067 cumulative IPC: 0.561 (Simulation time: 00 hr 31 min 31 sec)
Heartbeat CPU 0 instructions: 155500705 cycles: 202497739 heartbeat IPC: 0.5828 cumulative IPC: 0.5611 (Simulation time: 00 hr 31 min 39 sec)
Heartbeat CPU 0 instructions: 156000705 cycles: 203344734 heartbeat IPC: 0.5903 cumulative IPC: 0.5613 (Simulation time: 00 hr 31 min 46 sec)
Heartbeat CPU 0 instructions: 156500706 cycles: 204204444 heartbeat IPC: 0.5816 cumulative IPC: 0.5613 (Simulation time: 00 hr 31 min 53 sec)
Heartbeat CPU 0 instructions: 157000706 cycles: 205051586 heartbeat IPC: 0.5902 cumulative IPC: 0.5615 (Simulation time: 00 hr 32 min 01 sec)
Heartbeat CPU 0 instructions: 157500713 cycles: 205918045 heartbeat IPC: 0.5771 cumulative IPC: 0.5615 (Simulation time: 00 hr 32 min 08 sec)
Heartbeat CPU 0 instructions: 158000714 cycles: 206747287 heartbeat IPC: 0.603 cumulative IPC: 0.5617 (Simulation time: 00 hr 32 min 15 sec)
Heartbeat CPU 0 instructions: 158500714 cycles: 207594407 heartbeat IPC: 0.5902 cumulative IPC: 0.5618 (Simulation time: 00 hr 32 min 22 sec)
Heartbeat CPU 0 instructions: 159000716 cycles: 208470087 heartbeat IPC: 0.571 cumulative IPC: 0.5619 (Simulation time: 00 hr 32 min 30 sec)
Heartbeat CPU 0 instructions: 159500716 cycles: 209329844 heartbeat IPC: 0.5816 cumulative IPC: 0.562 (Simulation time: 00 hr 32 min 37 sec)
Heartbeat CPU 0 instructions: 160000716 cycles: 210200886 heartbeat IPC: 0.574 cumulative IPC: 0.562 (Simulation time: 00 hr 32 min 44 sec)
Heartbeat CPU 0 instructions: 160500722 cycles: 211047485 heartbeat IPC: 0.5906 cumulative IPC: 0.5622 (Simulation time: 00 hr 32 min 52 sec)
Heartbeat CPU 0 instructions: 161000722 cycles: 211892156 heartbeat IPC: 0.5919 cumulative IPC: 0.5623 (Simulation time: 00 hr 32 min 59 sec)
Heartbeat CPU 0 instructions: 161500723 cycles: 212741119 heartbeat IPC: 0.589 cumulative IPC: 0.5624 (Simulation time: 00 hr 33 min 06 sec)
Heartbeat CPU 0 instructions: 162000729 cycles: 213587299 heartbeat IPC: 0.5909 cumulative IPC: 0.5625 (Simulation time: 00 hr 33 min 13 sec)
Heartbeat CPU 0 instructions: 162500734 cycles: 214417369 heartbeat IPC: 0.6024 cumulative IPC: 0.5627 (Simulation time: 00 hr 33 min 20 sec)
Heartbeat CPU 0 instructions: 163000734 cycles: 215260129 heartbeat IPC: 0.5933 cumulative IPC: 0.5628 (Simulation time: 00 hr 33 min 28 sec)
Heartbeat CPU 0 instructions: 163500734 cycles: 216077915 heartbeat IPC: 0.6114 cumulative IPC: 0.563 (Simulation time: 00 hr 33 min 35 sec)
Heartbeat CPU 0 instructions: 164000735 cycles: 216887416 heartbeat IPC: 0.6177 cumulative IPC: 0.5632 (Simulation time: 00 hr 33 min 42 sec)
Heartbeat CPU 0 instructions: 164500735 cycles: 217696466 heartbeat IPC: 0.618 cumulative IPC: 0.5634 (Simulation time: 00 hr 33 min 48 sec)
Heartbeat CPU 0 instructions: 165000739 cycles: 218499572 heartbeat IPC: 0.6226 cumulative IPC: 0.5637 (Simulation time: 00 hr 33 min 55 sec)
Heartbeat CPU 0 instructions: 165500740 cycles: 219310439 heartbeat IPC: 0.6166 cumulative IPC: 0.5639 (Simulation time: 00 hr 34 min 02 sec)
Heartbeat CPU 0 instructions: 166000740 cycles: 220120990 heartbeat IPC: 0.6169 cumulative IPC: 0.5641 (Simulation time: 00 hr 34 min 09 sec)
Heartbeat CPU 0 instructions: 166500741 cycles: 220928420 heartbeat IPC: 0.6192 cumulative IPC: 0.5643 (Simulation time: 00 hr 34 min 16 sec)
Heartbeat CPU 0 instructions: 167000741 cycles: 221753042 heartbeat IPC: 0.6063 cumulative IPC: 0.5645 (Simulation time: 00 hr 34 min 23 sec)
Heartbeat CPU 0 instructions: 167500741 cycles: 222569473 heartbeat IPC: 0.6124 cumulative IPC: 0.5647 (Simulation time: 00 hr 34 min 30 sec)
Heartbeat CPU 0 instructions: 168000741 cycles: 223389421 heartbeat IPC: 0.6098 cumulative IPC: 0.5648 (Simulation time: 00 hr 34 min 37 sec)
Heartbeat CPU 0 instructions: 168500745 cycles: 224206796 heartbeat IPC: 0.6117 cumulative IPC: 0.565 (Simulation time: 00 hr 34 min 44 sec)
Heartbeat CPU 0 instructions: 169000748 cycles: 225030357 heartbeat IPC: 0.6071 cumulative IPC: 0.5652 (Simulation time: 00 hr 34 min 52 sec)
Heartbeat CPU 0 instructions: 169500750 cycles: 225845001 heartbeat IPC: 0.6138 cumulative IPC: 0.5654 (Simulation time: 00 hr 34 min 59 sec)
Heartbeat CPU 0 instructions: 170000751 cycles: 226632876 heartbeat IPC: 0.6346 cumulative IPC: 0.5656 (Simulation time: 00 hr 35 min 05 sec)
Heartbeat CPU 0 instructions: 170500751 cycles: 227418037 heartbeat IPC: 0.6368 cumulative IPC: 0.5659 (Simulation time: 00 hr 35 min 12 sec)
Heartbeat CPU 0 instructions: 171000752 cycles: 228163704 heartbeat IPC: 0.6705 cumulative IPC: 0.5663 (Simulation time: 00 hr 35 min 19 sec)
Heartbeat CPU 0 instructions: 171500752 cycles: 229145456 heartbeat IPC: 0.5093 cumulative IPC: 0.566 (Simulation time: 00 hr 35 min 27 sec)
Heartbeat CPU 0 instructions: 172000754 cycles: 230107819 heartbeat IPC: 0.5196 cumulative IPC: 0.5658 (Simulation time: 00 hr 35 min 35 sec)
Heartbeat CPU 0 instructions: 172500754 cycles: 231029505 heartbeat IPC: 0.5425 cumulative IPC: 0.5657 (Simulation time: 00 hr 35 min 43 sec)
Heartbeat CPU 0 instructions: 173000754 cycles: 231937623 heartbeat IPC: 0.5506 cumulative IPC: 0.5656 (Simulation time: 00 hr 35 min 50 sec)
Heartbeat CPU 0 instructions: 173500759 cycles: 232866074 heartbeat IPC: 0.5385 cumulative IPC: 0.5655 (Simulation time: 00 hr 35 min 58 sec)
Heartbeat CPU 0 instructions: 174000759 cycles: 233789724 heartbeat IPC: 0.5413 cumulative IPC: 0.5654 (Simulation time: 00 hr 36 min 06 sec)
Heartbeat CPU 0 instructions: 174500761 cycles: 234720895 heartbeat IPC: 0.537 cumulative IPC: 0.5653 (Simulation time: 00 hr 36 min 14 sec)
Heartbeat CPU 0 instructions: 175000762 cycles: 235635571 heartbeat IPC: 0.5466 cumulative IPC: 0.5652 (Simulation time: 00 hr 36 min 22 sec)
Heartbeat CPU 0 instructions: 175500762 cycles: 236540578 heartbeat IPC: 0.5525 cumulative IPC: 0.5652 (Simulation time: 00 hr 36 min 29 sec)
Heartbeat CPU 0 instructions: 176000762 cycles: 237458593 heartbeat IPC: 0.5447 cumulative IPC: 0.5651 (Simulation time: 00 hr 36 min 37 sec)
Heartbeat CPU 0 instructions: 176500763 cycles: 238372581 heartbeat IPC: 0.5471 cumulative IPC: 0.565 (Simulation time: 00 hr 36 min 45 sec)
Heartbeat CPU 0 instructions: 177000763 cycles: 239292625 heartbeat IPC: 0.5435 cumulative IPC: 0.5649 (Simulation time: 00 hr 36 min 52 sec)
Heartbeat CPU 0 instructions: 177500767 cycles: 240217409 heartbeat IPC: 0.5407 cumulative IPC: 0.5648 (Simulation time: 00 hr 37 min 00 sec)
Heartbeat CPU 0 instructions: 178000768 cycles: 241093010 heartbeat IPC: 0.571 cumulative IPC: 0.5648 (Simulation time: 00 hr 37 min 08 sec)
Heartbeat CPU 0 instructions: 178500768 cycles: 241988854 heartbeat IPC: 0.5581 cumulative IPC: 0.5648 (Simulation time: 00 hr 37 min 15 sec)
Heartbeat CPU 0 instructions: 179000770 cycles: 242897302 heartbeat IPC: 0.5504 cumulative IPC: 0.5648 (Simulation time: 00 hr 37 min 23 sec)
Heartbeat CPU 0 instructions: 179500770 cycles: 243788640 heartbeat IPC: 0.561 cumulative IPC: 0.5647 (Simulation time: 00 hr 37 min 31 sec)
Heartbeat CPU 0 instructions: 180000776 cycles: 244663645 heartbeat IPC: 0.5714 cumulative IPC: 0.5648 (Simulation time: 00 hr 37 min 38 sec)
Heartbeat CPU 0 instructions: 180500777 cycles: 245562502 heartbeat IPC: 0.5563 cumulative IPC: 0.5647 (Simulation time: 00 hr 37 min 46 sec)
Heartbeat CPU 0 instructions: 181000782 cycles: 246454059 heartbeat IPC: 0.5608 cumulative IPC: 0.5647 (Simulation time: 00 hr 37 min 53 sec)
Heartbeat CPU 0 instructions: 181500782 cycles: 247381071 heartbeat IPC: 0.5394 cumulative IPC: 0.5646 (Simulation time: 00 hr 38 min 01 sec)
Heartbeat CPU 0 instructions: 182000782 cycles: 248294502 heartbeat IPC: 0.5474 cumulative IPC: 0.5646 (Simulation time: 00 hr 38 min 09 sec)
Heartbeat CPU 0 instructions: 182500784 cycles: 249177606 heartbeat IPC: 0.5662 cumulative IPC: 0.5646 (Simulation time: 00 hr 38 min 16 sec)
Heartbeat CPU 0 instructions: 183000784 cycles: 250070193 heartbeat IPC: 0.5602 cumulative IPC: 0.5645 (Simulation time: 00 hr 38 min 24 sec)
Heartbeat CPU 0 instructions: 183500784 cycles: 250973852 heartbeat IPC: 0.5533 cumulative IPC: 0.5645 (Simulation time: 00 hr 38 min 31 sec)
Heartbeat CPU 0 instructions: 184000785 cycles: 251885830 heartbeat IPC: 0.5483 cumulative IPC: 0.5644 (Simulation time: 00 hr 38 min 39 sec)
Heartbeat CPU 0 instructions: 184500789 cycles: 252783400 heartbeat IPC: 0.5571 cumulative IPC: 0.5644 (Simulation time: 00 hr 38 min 47 sec)
Heartbeat CPU 0 instructions: 185000791 cycles: 253654205 heartbeat IPC: 0.5742 cumulative IPC: 0.5644 (Simulation time: 00 hr 38 min 54 sec)
Heartbeat CPU 0 instructions: 185500792 cycles: 254581190 heartbeat IPC: 0.5394 cumulative IPC: 0.5644 (Simulation time: 00 hr 39 min 02 sec)
Heartbeat CPU 0 instructions: 186000795 cycles: 255466998 heartbeat IPC: 0.5645 cumulative IPC: 0.5644 (Simulation time: 00 hr 39 min 09 sec)
Heartbeat CPU 0 instructions: 186500799 cycles: 256344128 heartbeat IPC: 0.57 cumulative IPC: 0.5644 (Simulation time: 00 hr 39 min 17 sec)
Heartbeat CPU 0 instructions: 187000800 cycles: 257220829 heartbeat IPC: 0.5703 cumulative IPC: 0.5644 (Simulation time: 00 hr 39 min 24 sec)
Heartbeat CPU 0 instructions: 187500800 cycles: 258098829 heartbeat IPC: 0.5695 cumulative IPC: 0.5644 (Simulation time: 00 hr 39 min 32 sec)
Heartbeat CPU 0 instructions: 188000800 cycles: 258973747 heartbeat IPC: 0.5715 cumulative IPC: 0.5644 (Simulation time: 00 hr 39 min 39 sec)
Heartbeat CPU 0 instructions: 188500801 cycles: 259881977 heartbeat IPC: 0.5505 cumulative IPC: 0.5644 (Simulation time: 00 hr 39 min 47 sec)
Heartbeat CPU 0 instructions: 189000802 cycles: 260763692 heartbeat IPC: 0.5671 cumulative IPC: 0.5644 (Simulation time: 00 hr 39 min 54 sec)
Heartbeat CPU 0 instructions: 189500803 cycles: 261643181 heartbeat IPC: 0.5685 cumulative IPC: 0.5644 (Simulation time: 00 hr 40 min 02 sec)
Heartbeat CPU 0 instructions: 190000803 cycles: 262515608 heartbeat IPC: 0.5731 cumulative IPC: 0.5644 (Simulation time: 00 hr 40 min 09 sec)
Heartbeat CPU 0 instructions: 190500803 cycles: 263388285 heartbeat IPC: 0.5729 cumulative IPC: 0.5645 (Simulation time: 00 hr 40 min 17 sec)
Heartbeat CPU 0 instructions: 191000807 cycles: 264282416 heartbeat IPC: 0.5592 cumulative IPC: 0.5645 (Simulation time: 00 hr 40 min 24 sec)
Heartbeat CPU 0 instructions: 191500809 cycles: 265141285 heartbeat IPC: 0.5822 cumulative IPC: 0.5645 (Simulation time: 00 hr 40 min 32 sec)
Heartbeat CPU 0 instructions: 192000811 cycles: 266031102 heartbeat IPC: 0.5619 cumulative IPC: 0.5645 (Simulation time: 00 hr 40 min 39 sec)
Heartbeat CPU 0 instructions: 192500813 cycles: 266911617 heartbeat IPC: 0.5679 cumulative IPC: 0.5645 (Simulation time: 00 hr 40 min 47 sec)
Heartbeat CPU 0 instructions: 193000813 cycles: 267817305 heartbeat IPC: 0.5521 cumulative IPC: 0.5645 (Simulation time: 00 hr 40 min 54 sec)
Heartbeat CPU 0 instructions: 193500817 cycles: 268694852 heartbeat IPC: 0.5698 cumulative IPC: 0.5645 (Simulation time: 00 hr 41 min 02 sec)
Heartbeat CPU 0 instructions: 194000818 cycles: 269577929 heartbeat IPC: 0.5662 cumulative IPC: 0.5645 (Simulation time: 00 hr 41 min 09 sec)
Heartbeat CPU 0 instructions: 194500820 cycles: 270462754 heartbeat IPC: 0.5651 cumulative IPC: 0.5645 (Simulation time: 00 hr 41 min 17 sec)
Heartbeat CPU 0 instructions: 195000822 cycles: 271354242 heartbeat IPC: 0.5609 cumulative IPC: 0.5645 (Simulation time: 00 hr 41 min 24 sec)
Heartbeat CPU 0 instructions: 195500822 cycles: 272237855 heartbeat IPC: 0.5659 cumulative IPC: 0.5645 (Simulation time: 00 hr 41 min 32 sec)
Heartbeat CPU 0 instructions: 196000822 cycles: 273115457 heartbeat IPC: 0.5697 cumulative IPC: 0.5645 (Simulation time: 00 hr 41 min 39 sec)
Heartbeat CPU 0 instructions: 196500823 cycles: 273981768 heartbeat IPC: 0.5772 cumulative IPC: 0.5645 (Simulation time: 00 hr 41 min 46 sec)
Heartbeat CPU 0 instructions: 197000823 cycles: 274856122 heartbeat IPC: 0.5719 cumulative IPC: 0.5646 (Simulation time: 00 hr 41 min 54 sec)
Heartbeat CPU 0 instructions: 197500823 cycles: 275711091 heartbeat IPC: 0.5848 cumulative IPC: 0.5646 (Simulation time: 00 hr 42 min 01 sec)
Heartbeat CPU 0 instructions: 198000826 cycles: 276590622 heartbeat IPC: 0.5685 cumulative IPC: 0.5647 (Simulation time: 00 hr 42 min 09 sec)
Heartbeat CPU 0 instructions: 198500827 cycles: 277480554 heartbeat IPC: 0.5618 cumulative IPC: 0.5646 (Simulation time: 00 hr 42 min 16 sec)
Heartbeat CPU 0 instructions: 199000827 cycles: 278378214 heartbeat IPC: 0.557 cumulative IPC: 0.5646 (Simulation time: 00 hr 42 min 24 sec)
Heartbeat CPU 0 instructions: 199500830 cycles: 279255804 heartbeat IPC: 0.5697 cumulative IPC: 0.5646 (Simulation time: 00 hr 42 min 31 sec)
Heartbeat CPU 0 instructions: 200000830 cycles: 280123362 heartbeat IPC: 0.5763 cumulative IPC: 0.5647 (Simulation time: 00 hr 42 min 39 sec)
Heartbeat CPU 0 instructions: 200500831 cycles: 281015265 heartbeat IPC: 0.5606 cumulative IPC: 0.5647 (Simulation time: 00 hr 42 min 46 sec)
Heartbeat CPU 0 instructions: 201000832 cycles: 281900435 heartbeat IPC: 0.5649 cumulative IPC: 0.5647 (Simulation time: 00 hr 42 min 54 sec)
Heartbeat CPU 0 instructions: 201500836 cycles: 282778194 heartbeat IPC: 0.5696 cumulative IPC: 0.5647 (Simulation time: 00 hr 43 min 01 sec)
Heartbeat CPU 0 instructions: 202000842 cycles: 283687871 heartbeat IPC: 0.5497 cumulative IPC: 0.5646 (Simulation time: 00 hr 43 min 09 sec)
Heartbeat CPU 0 instructions: 202500842 cycles: 284567836 heartbeat IPC: 0.5682 cumulative IPC: 0.5646 (Simulation time: 00 hr 43 min 17 sec)
Heartbeat CPU 0 instructions: 203000846 cycles: 285448871 heartbeat IPC: 0.5675 cumulative IPC: 0.5646 (Simulation time: 00 hr 43 min 24 sec)
Heartbeat CPU 0 instructions: 203500849 cycles: 286330589 heartbeat IPC: 0.5671 cumulative IPC: 0.5647 (Simulation time: 00 hr 43 min 32 sec)
Heartbeat CPU 0 instructions: 204000855 cycles: 287220679 heartbeat IPC: 0.5617 cumulative IPC: 0.5646 (Simulation time: 00 hr 43 min 39 sec)
Heartbeat CPU 0 instructions: 204500862 cycles: 288094520 heartbeat IPC: 0.5722 cumulative IPC: 0.5647 (Simulation time: 00 hr 43 min 47 sec)
Heartbeat CPU 0 instructions: 205000869 cycles: 288988764 heartbeat IPC: 0.5591 cumulative IPC: 0.5646 (Simulation time: 00 hr 43 min 54 sec)
Heartbeat CPU 0 instructions: 205500872 cycles: 289898706 heartbeat IPC: 0.5495 cumulative IPC: 0.5646 (Simulation time: 00 hr 44 min 02 sec)
Heartbeat CPU 0 instructions: 206000879 cycles: 290766779 heartbeat IPC: 0.576 cumulative IPC: 0.5646 (Simulation time: 00 hr 44 min 09 sec)
Heartbeat CPU 0 instructions: 206500881 cycles: 291638720 heartbeat IPC: 0.5734 cumulative IPC: 0.5647 (Simulation time: 00 hr 44 min 17 sec)
Heartbeat CPU 0 instructions: 207000886 cycles: 292527795 heartbeat IPC: 0.5624 cumulative IPC: 0.5647 (Simulation time: 00 hr 44 min 24 sec)
Heartbeat CPU 0 instructions: 207500886 cycles: 293426894 heartbeat IPC: 0.5561 cumulative IPC: 0.5646 (Simulation time: 00 hr 44 min 32 sec)
Heartbeat CPU 0 instructions: 208000888 cycles: 294284109 heartbeat IPC: 0.5833 cumulative IPC: 0.5647 (Simulation time: 00 hr 44 min 39 sec)
Heartbeat CPU 0 instructions: 208500894 cycles: 295152580 heartbeat IPC: 0.5757 cumulative IPC: 0.5647 (Simulation time: 00 hr 44 min 46 sec)
Heartbeat CPU 0 instructions: 209000901 cycles: 296027916 heartbeat IPC: 0.5712 cumulative IPC: 0.5647 (Simulation time: 00 hr 44 min 54 sec)
Heartbeat CPU 0 instructions: 209500908 cycles: 296930210 heartbeat IPC: 0.5542 cumulative IPC: 0.5647 (Simulation time: 00 hr 45 min 01 sec)
Heartbeat CPU 0 instructions: 210000913 cycles: 297808263 heartbeat IPC: 0.5694 cumulative IPC: 0.5647 (Simulation time: 00 hr 45 min 09 sec)
Heartbeat CPU 0 instructions: 210500913 cycles: 298721578 heartbeat IPC: 0.5475 cumulative IPC: 0.5647 (Simulation time: 00 hr 45 min 17 sec)
Heartbeat CPU 0 instructions: 211000915 cycles: 299611372 heartbeat IPC: 0.5619 cumulative IPC: 0.5647 (Simulation time: 00 hr 45 min 24 sec)
Heartbeat CPU 0 instructions: 211500916 cycles: 300509214 heartbeat IPC: 0.5569 cumulative IPC: 0.5646 (Simulation time: 00 hr 45 min 32 sec)
Heartbeat CPU 0 instructions: 212000916 cycles: 301371481 heartbeat IPC: 0.5799 cumulative IPC: 0.5647 (Simulation time: 00 hr 45 min 39 sec)
Heartbeat CPU 0 instructions: 212500916 cycles: 302244164 heartbeat IPC: 0.5729 cumulative IPC: 0.5647 (Simulation time: 00 hr 45 min 46 sec)
Heartbeat CPU 0 instructions: 213000922 cycles: 303136793 heartbeat IPC: 0.5601 cumulative IPC: 0.5647 (Simulation time: 00 hr 45 min 54 sec)
Heartbeat CPU 0 instructions: 213500925 cycles: 304017404 heartbeat IPC: 0.5678 cumulative IPC: 0.5647 (Simulation time: 00 hr 46 min 01 sec)
Heartbeat CPU 0 instructions: 214000927 cycles: 304903110 heartbeat IPC: 0.5645 cumulative IPC: 0.5647 (Simulation time: 00 hr 46 min 09 sec)
Heartbeat CPU 0 instructions: 214500927 cycles: 305774199 heartbeat IPC: 0.574 cumulative IPC: 0.5647 (Simulation time: 00 hr 46 min 17 sec)
Heartbeat CPU 0 instructions: 215000930 cycles: 306641206 heartbeat IPC: 0.5767 cumulative IPC: 0.5648 (Simulation time: 00 hr 46 min 24 sec)
Heartbeat CPU 0 instructions: 215500930 cycles: 307518450 heartbeat IPC: 0.57 cumulative IPC: 0.5648 (Simulation time: 00 hr 46 min 31 sec)
Heartbeat CPU 0 instructions: 216000934 cycles: 308390889 heartbeat IPC: 0.5731 cumulative IPC: 0.5648 (Simulation time: 00 hr 46 min 39 sec)
Heartbeat CPU 0 instructions: 216500934 cycles: 309274008 heartbeat IPC: 0.5662 cumulative IPC: 0.5648 (Simulation time: 00 hr 46 min 46 sec)
Heartbeat CPU 0 instructions: 217000934 cycles: 310147124 heartbeat IPC: 0.5727 cumulative IPC: 0.5648 (Simulation time: 00 hr 46 min 54 sec)
Heartbeat CPU 0 instructions: 217500939 cycles: 311037486 heartbeat IPC: 0.5616 cumulative IPC: 0.5648 (Simulation time: 00 hr 47 min 01 sec)
Heartbeat CPU 0 instructions: 218000945 cycles: 311906495 heartbeat IPC: 0.5754 cumulative IPC: 0.5649 (Simulation time: 00 hr 47 min 09 sec)
Heartbeat CPU 0 instructions: 218500948 cycles: 312785787 heartbeat IPC: 0.5686 cumulative IPC: 0.5649 (Simulation time: 00 hr 47 min 16 sec)
Heartbeat CPU 0 instructions: 219000948 cycles: 313663951 heartbeat IPC: 0.5694 cumulative IPC: 0.5649 (Simulation time: 00 hr 47 min 24 sec)
Heartbeat CPU 0 instructions: 219500949 cycles: 314558631 heartbeat IPC: 0.5589 cumulative IPC: 0.5649 (Simulation time: 00 hr 47 min 31 sec)
Heartbeat CPU 0 instructions: 220000949 cycles: 315432264 heartbeat IPC: 0.5723 cumulative IPC: 0.5649 (Simulation time: 00 hr 47 min 39 sec)
Heartbeat CPU 0 instructions: 220500951 cycles: 316310647 heartbeat IPC: 0.5692 cumulative IPC: 0.5649 (Simulation time: 00 hr 47 min 46 sec)
Heartbeat CPU 0 instructions: 221000951 cycles: 317189832 heartbeat IPC: 0.5687 cumulative IPC: 0.5649 (Simulation time: 00 hr 47 min 54 sec)
Heartbeat CPU 0 instructions: 221500953 cycles: 318060987 heartbeat IPC: 0.574 cumulative IPC: 0.5649 (Simulation time: 00 hr 48 min 01 sec)
Heartbeat CPU 0 instructions: 222000956 cycles: 318956374 heartbeat IPC: 0.5584 cumulative IPC: 0.5649 (Simulation time: 00 hr 48 min 08 sec)
Heartbeat CPU 0 instructions: 222500959 cycles: 319849136 heartbeat IPC: 0.5601 cumulative IPC: 0.5649 (Simulation time: 00 hr 48 min 16 sec)
Heartbeat CPU 0 instructions: 223000960 cycles: 320720572 heartbeat IPC: 0.5738 cumulative IPC: 0.5649 (Simulation time: 00 hr 48 min 23 sec)
Heartbeat CPU 0 instructions: 223500960 cycles: 321622190 heartbeat IPC: 0.5546 cumulative IPC: 0.5649 (Simulation time: 00 hr 48 min 31 sec)
Heartbeat CPU 0 instructions: 224000961 cycles: 322489470 heartbeat IPC: 0.5765 cumulative IPC: 0.5649 (Simulation time: 00 hr 48 min 38 sec)
Heartbeat CPU 0 instructions: 224500962 cycles: 323379418 heartbeat IPC: 0.5618 cumulative IPC: 0.5649 (Simulation time: 00 hr 48 min 46 sec)
Heartbeat CPU 0 instructions: 225000962 cycles: 324230485 heartbeat IPC: 0.5875 cumulative IPC: 0.565 (Simulation time: 00 hr 48 min 53 sec)
Heartbeat CPU 0 instructions: 225500963 cycles: 325097304 heartbeat IPC: 0.5768 cumulative IPC: 0.565 (Simulation time: 00 hr 49 min 01 sec)
Heartbeat CPU 0 instructions: 226000964 cycles: 325988304 heartbeat IPC: 0.5612 cumulative IPC: 0.565 (Simulation time: 00 hr 49 min 08 sec)
Heartbeat CPU 0 instructions: 226500967 cycles: 326860032 heartbeat IPC: 0.5736 cumulative IPC: 0.565 (Simulation time: 00 hr 49 min 16 sec)
Heartbeat CPU 0 instructions: 227000967 cycles: 327746260 heartbeat IPC: 0.5642 cumulative IPC: 0.565 (Simulation time: 00 hr 49 min 23 sec)
Heartbeat CPU 0 instructions: 227500969 cycles: 328624773 heartbeat IPC: 0.5691 cumulative IPC: 0.565 (Simulation time: 00 hr 49 min 31 sec)
Heartbeat CPU 0 instructions: 228000969 cycles: 329513829 heartbeat IPC: 0.5624 cumulative IPC: 0.565 (Simulation time: 00 hr 49 min 38 sec)
Heartbeat CPU 0 instructions: 228500976 cycles: 330407434 heartbeat IPC: 0.5595 cumulative IPC: 0.565 (Simulation time: 00 hr 49 min 46 sec)
Heartbeat CPU 0 instructions: 229000980 cycles: 331303987 heartbeat IPC: 0.5577 cumulative IPC: 0.565 (Simulation time: 00 hr 49 min 54 sec)
Heartbeat CPU 0 instructions: 229500982 cycles: 332183247 heartbeat IPC: 0.5687 cumulative IPC: 0.565 (Simulation time: 00 hr 50 min 01 sec)
Heartbeat CPU 0 instructions: 230000982 cycles: 333060822 heartbeat IPC: 0.5698 cumulative IPC: 0.565 (Simulation time: 00 hr 50 min 09 sec)
Heartbeat CPU 0 instructions: 230500982 cycles: 333944442 heartbeat IPC: 0.5659 cumulative IPC: 0.565 (Simulation time: 00 hr 50 min 16 sec)
Heartbeat CPU 0 instructions: 231000989 cycles: 334807366 heartbeat IPC: 0.5794 cumulative IPC: 0.5651 (Simulation time: 00 hr 50 min 23 sec)
Heartbeat CPU 0 instructions: 231500991 cycles: 335674032 heartbeat IPC: 0.5769 cumulative IPC: 0.5651 (Simulation time: 00 hr 50 min 31 sec)
Heartbeat CPU 0 instructions: 232000995 cycles: 336533973 heartbeat IPC: 0.5814 cumulative IPC: 0.5651 (Simulation time: 00 hr 50 min 38 sec)
Heartbeat CPU 0 instructions: 232501000 cycles: 337405713 heartbeat IPC: 0.5736 cumulative IPC: 0.5651 (Simulation time: 00 hr 50 min 46 sec)
Heartbeat CPU 0 instructions: 233001001 cycles: 338282271 heartbeat IPC: 0.5704 cumulative IPC: 0.5652 (Simulation time: 00 hr 50 min 53 sec)
Heartbeat CPU 0 instructions: 233501002 cycles: 339149799 heartbeat IPC: 0.5764 cumulative IPC: 0.5652 (Simulation time: 00 hr 51 min 01 sec)
Heartbeat CPU 0 instructions: 234001005 cycles: 340025809 heartbeat IPC: 0.5708 cumulative IPC: 0.5652 (Simulation time: 00 hr 51 min 08 sec)
Heartbeat CPU 0 instructions: 234501007 cycles: 340897056 heartbeat IPC: 0.5739 cumulative IPC: 0.5652 (Simulation time: 00 hr 51 min 15 sec)
Heartbeat CPU 0 instructions: 235001007 cycles: 341760608 heartbeat IPC: 0.579 cumulative IPC: 0.5653 (Simulation time: 00 hr 51 min 23 sec)
Heartbeat CPU 0 instructions: 235501012 cycles: 342623314 heartbeat IPC: 0.5796 cumulative IPC: 0.5653 (Simulation time: 00 hr 51 min 30 sec)
Heartbeat CPU 0 instructions: 236001013 cycles: 343481752 heartbeat IPC: 0.5825 cumulative IPC: 0.5654 (Simulation time: 00 hr 51 min 38 sec)
Heartbeat CPU 0 instructions: 236501016 cycles: 344336708 heartbeat IPC: 0.5848 cumulative IPC: 0.5654 (Simulation time: 00 hr 51 min 45 sec)
Heartbeat CPU 0 instructions: 237001017 cycles: 345216151 heartbeat IPC: 0.5685 cumulative IPC: 0.5654 (Simulation time: 00 hr 51 min 52 sec)
Heartbeat CPU 0 instructions: 237501021 cycles: 346110326 heartbeat IPC: 0.5592 cumulative IPC: 0.5654 (Simulation time: 00 hr 52 min 00 sec)
Heartbeat CPU 0 instructions: 238001023 cycles: 346982372 heartbeat IPC: 0.5734 cumulative IPC: 0.5654 (Simulation time: 00 hr 52 min 07 sec)
Heartbeat CPU 0 instructions: 238501026 cycles: 347842092 heartbeat IPC: 0.5816 cumulative IPC: 0.5655 (Simulation time: 00 hr 52 min 15 sec)
Heartbeat CPU 0 instructions: 239001027 cycles: 348728919 heartbeat IPC: 0.5638 cumulative IPC: 0.5655 (Simulation time: 00 hr 52 min 22 sec)
Heartbeat CPU 0 instructions: 239501029 cycles: 349596764 heartbeat IPC: 0.5761 cumulative IPC: 0.5655 (Simulation time: 00 hr 52 min 29 sec)
Heartbeat CPU 0 instructions: 240001032 cycles: 350486869 heartbeat IPC: 0.5617 cumulative IPC: 0.5655 (Simulation time: 00 hr 52 min 37 sec)
Heartbeat CPU 0 instructions: 240501032 cycles: 351380881 heartbeat IPC: 0.5593 cumulative IPC: 0.5655 (Simulation time: 00 hr 52 min 44 sec)
Heartbeat CPU 0 instructions: 241001034 cycles: 352249979 heartbeat IPC: 0.5753 cumulative IPC: 0.5655 (Simulation time: 00 hr 52 min 52 sec)
Heartbeat CPU 0 instructions: 241501035 cycles: 353123129 heartbeat IPC: 0.5726 cumulative IPC: 0.5655 (Simulation time: 00 hr 52 min 59 sec)
Heartbeat CPU 0 instructions: 242001037 cycles: 353995169 heartbeat IPC: 0.5734 cumulative IPC: 0.5655 (Simulation time: 00 hr 53 min 07 sec)
Heartbeat CPU 0 instructions: 242501037 cycles: 354865096 heartbeat IPC: 0.5748 cumulative IPC: 0.5655 (Simulation time: 00 hr 53 min 14 sec)
Heartbeat CPU 0 instructions: 243001037 cycles: 355756318 heartbeat IPC: 0.561 cumulative IPC: 0.5655 (Simulation time: 00 hr 53 min 22 sec)
Heartbeat CPU 0 instructions: 243501039 cycles: 356632232 heartbeat IPC: 0.5708 cumulative IPC: 0.5655 (Simulation time: 00 hr 53 min 29 sec)
Heartbeat CPU 0 instructions: 244001039 cycles: 357489046 heartbeat IPC: 0.5836 cumulative IPC: 0.5656 (Simulation time: 00 hr 53 min 36 sec)
Heartbeat CPU 0 instructions: 244501043 cycles: 358358797 heartbeat IPC: 0.5749 cumulative IPC: 0.5656 (Simulation time: 00 hr 53 min 44 sec)
Heartbeat CPU 0 instructions: 245001045 cycles: 359218830 heartbeat IPC: 0.5814 cumulative IPC: 0.5656 (Simulation time: 00 hr 53 min 51 sec)
Heartbeat CPU 0 instructions: 245501047 cycles: 360087739 heartbeat IPC: 0.5754 cumulative IPC: 0.5657 (Simulation time: 00 hr 53 min 58 sec)
Heartbeat CPU 0 instructions: 246001049 cycles: 360957478 heartbeat IPC: 0.5749 cumulative IPC: 0.5657 (Simulation time: 00 hr 54 min 06 sec)
Heartbeat CPU 0 instructions: 246501049 cycles: 361849651 heartbeat IPC: 0.5604 cumulative IPC: 0.5657 (Simulation time: 00 hr 54 min 13 sec)
Heartbeat CPU 0 instructions: 247001050 cycles: 362707922 heartbeat IPC: 0.5826 cumulative IPC: 0.5657 (Simulation time: 00 hr 54 min 21 sec)
Heartbeat CPU 0 instructions: 247501050 cycles: 363573100 heartbeat IPC: 0.5779 cumulative IPC: 0.5658 (Simulation time: 00 hr 54 min 28 sec)
Heartbeat CPU 0 instructions: 248001051 cycles: 364467997 heartbeat IPC: 0.5587 cumulative IPC: 0.5657 (Simulation time: 00 hr 54 min 36 sec)
Heartbeat CPU 0 instructions: 248501056 cycles: 365369094 heartbeat IPC: 0.5549 cumulative IPC: 0.5657 (Simulation time: 00 hr 54 min 43 sec)
Heartbeat CPU 0 instructions: 249001056 cycles: 366237559 heartbeat IPC: 0.5757 cumulative IPC: 0.5657 (Simulation time: 00 hr 54 min 51 sec)
Heartbeat CPU 0 instructions: 249501063 cycles: 367104952 heartbeat IPC: 0.5764 cumulative IPC: 0.5658 (Simulation time: 00 hr 54 min 58 sec)
Simulation finished CPU 0 instructions: 200000004 cycles: 353485317 cumulative IPC: 0.5658 (Simulation time: 00 hr 55 min 06 sec)
Simulation complete CPU 0 instructions: 200000004 cycles: 353485317 cumulative IPC: 0.5658 (Simulation time: 00 hr 55 min 06 sec)

ChampSim completed all CPUs

=== Simulation ===
CPU 0 runs /local-ssd/ben/dpc4-traces/Graph/GMS/gms.triangle_count.soc-pokec-relationships.slice-137.champsimtrace.gz

Region of Interest Statistics

CPU 0 cumulative IPC: 0.5658 instructions: 200000004 cycles: 353485317
CPU 0 Branch Prediction Accuracy: 85.99% MPKI: 38.72 Average ROB Occupancy at Mispredict: 13.51
Branch type MPKI
BRANCH_DIRECT_JUMP: 0.0272
BRANCH_INDIRECT: 0.002705
BRANCH_CONDITIONAL: 38.69
BRANCH_DIRECT_CALL: 0
BRANCH_INDIRECT_CALL: 0
BRANCH_RETURN: 1e-05

cpu0->cpu0_STLB TOTAL        ACCESS:     521046 HIT:      67034 MISS:     454012 MSHR_MERGE:          0
cpu0->cpu0_STLB LOAD         ACCESS:     521046 HIT:      67034 MISS:     454012 MSHR_MERGE:          0
cpu0->cpu0_STLB RFO          ACCESS:          0 HIT:          0 MISS:          0 MSHR_MERGE:          0
cpu0->cpu0_STLB PREFETCH     ACCESS:          0 HIT:          0 MISS:          0 MSHR_MERGE:          0
cpu0->cpu0_STLB WRITE        ACCESS:          0 HIT:          0 MISS:          0 MSHR_MERGE:          0
cpu0->cpu0_STLB TRANSLATION  ACCESS:          0 HIT:          0 MISS:          0 MSHR_MERGE:          0
cpu0->cpu0_STLB PREFETCH REQUESTED:          0 ISSUED:          0 USEFUL:          0 USELESS:          0
cpu0->cpu0_STLB AVERAGE MISS LATENCY: 204.3 cycles
cpu0->cpu0_L2C TOTAL        ACCESS:   18911025 HIT:   10357987 MISS:    8553038 MSHR_MERGE:    2435077
cpu0->cpu0_L2C LOAD         ACCESS:    1924545 HIT:    1069851 MISS:     854694 MSHR_MERGE:      77826
cpu0->cpu0_L2C RFO          ACCESS:         61 HIT:         18 MISS:         43 MSHR_MERGE:          0
cpu0->cpu0_L2C PREFETCH     ACCESS:   16480546 HIT:    9020847 MISS:    7459699 MSHR_MERGE:    2357251
cpu0->cpu0_L2C WRITE        ACCESS:         39 HIT:         39 MISS:          0 MSHR_MERGE:          0
cpu0->cpu0_L2C TRANSLATION  ACCESS:     505834 HIT:     267232 MISS:     238602 MSHR_MERGE:          0
cpu0->cpu0_L2C PREFETCH REQUESTED:   14367929 ISSUED:   14323718 USEFUL:    2209724 USELESS:    2041208
cpu0->cpu0_L2C AVERAGE MISS LATENCY: 229.9 cycles
cpu0->cpu0_L1I TOTAL        ACCESS:      18511 HIT:      18511 MISS:          0 MSHR_MERGE:          0
cpu0->cpu0_L1I LOAD         ACCESS:      18511 HIT:      18511 MISS:          0 MSHR_MERGE:          0
cpu0->cpu0_L1I RFO          ACCESS:          0 HIT:          0 MISS:          0 MSHR_MERGE:          0
cpu0->cpu0_L1I PREFETCH     ACCESS:          0 HIT:          0 MISS:          0 MSHR_MERGE:          0
cpu0->cpu0_L1I WRITE        ACCESS:          0 HIT:          0 MISS:          0 MSHR_MERGE:          0
cpu0->cpu0_L1I TRANSLATION  ACCESS:          0 HIT:          0 MISS:          0 MSHR_MERGE:          0
cpu0->cpu0_L1I PREFETCH REQUESTED:          0 ISSUED:          0 USEFUL:          0 USELESS:          0
cpu0->cpu0_L1I AVERAGE MISS LATENCY: - cycles
cpu0->cpu0_L1D TOTAL        ACCESS:   76574691 HIT:   70573095 MISS:    6001596 MSHR_MERGE:    1414328
cpu0->cpu0_L1D LOAD         ACCESS:   38179685 HIT:   35741123 MISS:    2438562 MSHR_MERGE:     514017
cpu0->cpu0_L1D RFO          ACCESS:          0 HIT:          0 MISS:          0 MSHR_MERGE:          0
cpu0->cpu0_L1D PREFETCH     ACCESS:   27169731 HIT:   24116832 MISS:    3052899 MSHR_MERGE:     896071
cpu0->cpu0_L1D WRITE        ACCESS:   10095421 HIT:   10095299 MISS:        122 MSHR_MERGE:         61
cpu0->cpu0_L1D TRANSLATION  ACCESS:    1129854 HIT:     619841 MISS:     510013 MSHR_MERGE:       4179
cpu0->cpu0_L1D PREFETCH REQUESTED:   27226931 ISSUED:   27169724 USEFUL:     608612 USELESS:    1548150
cpu0->cpu0_L1D AVERAGE MISS LATENCY: 110.2 cycles
cpu0->cpu0_ITLB TOTAL        ACCESS:      18304 HIT:      18304 MISS:          0 MSHR_MERGE:          0
cpu0->cpu0_ITLB LOAD         ACCESS:      18304 HIT:      18304 MISS:          0 MSHR_MERGE:          0
cpu0->cpu0_ITLB RFO          ACCESS:          0 HIT:          0 MISS:          0 MSHR_MERGE:          0
cpu0->cpu0_ITLB PREFETCH     ACCESS:          0 HIT:          0 MISS:          0 MSHR_MERGE:          0
cpu0->cpu0_ITLB WRITE        ACCESS:          0 HIT:          0 MISS:          0 MSHR_MERGE:          0
cpu0->cpu0_ITLB TRANSLATION  ACCESS:          0 HIT:          0 MISS:          0 MSHR_MERGE:          0
cpu0->cpu0_ITLB PREFETCH REQUESTED:          0 ISSUED:          0 USEFUL:          0 USELESS:          0
cpu0->cpu0_ITLB AVERAGE MISS LATENCY: - cycles
cpu0->cpu0_DTLB TOTAL        ACCESS:   69745431 HIT:   68681337 MISS:    1064094 MSHR_MERGE:     543048
cpu0->cpu0_DTLB LOAD         ACCESS:   69745431 HIT:   68681337 MISS:    1064094 MSHR_MERGE:     543048
cpu0->cpu0_DTLB RFO          ACCESS:          0 HIT:          0 MISS:          0 MSHR_MERGE:          0
cpu0->cpu0_DTLB PREFETCH     ACCESS:          0 HIT:          0 MISS:          0 MSHR_MERGE:          0
cpu0->cpu0_DTLB WRITE        ACCESS:          0 HIT:          0 MISS:          0 MSHR_MERGE:          0
cpu0->cpu0_DTLB TRANSLATION  ACCESS:          0 HIT:          0 MISS:          0 MSHR_MERGE:          0
cpu0->cpu0_DTLB PREFETCH REQUESTED:          0 ISSUED:          0 USEFUL:          0 USELESS:          0
cpu0->cpu0_DTLB AVERAGE MISS LATENCY: 183.9 cycles
cpu0->LLC TOTAL        ACCESS:   11476484 HIT:    1600487 MISS:    9875997 MSHR_MERGE:    1808360
cpu0->LLC LOAD         ACCESS:     776868 HIT:      29718 MISS:     747150 MSHR_MERGE:      54951
cpu0->LLC RFO          ACCESS:         43 HIT:         16 MISS:         27 MSHR_MERGE:          0
cpu0->LLC PREFETCH     ACCESS:   10460943 HIT:    1570257 MISS:    8890686 MSHR_MERGE:    1753409
cpu0->LLC WRITE        ACCESS:         28 HIT:         13 MISS:         15 MSHR_MERGE:          0
cpu0->LLC TRANSLATION  ACCESS:     238602 HIT:        483 MISS:     238119 MSHR_MERGE:          0
cpu0->LLC PREFETCH REQUESTED:    5377298 ISSUED:    5358495 USEFUL:    1563554 USELESS:    2319294
cpu0->LLC AVERAGE MISS LATENCY: 225.2 cycles

DRAM Statistics

Channel 0 RQ ROW_BUFFER_HIT:     804642
  ROW_BUFFER_MISS:    7262980
  AVG DBUS CONGESTED CYCLE: 4.005
Channel 0 WQ ROW_BUFFER_HIT:          2
  ROW_BUFFER_MISS:         13
  FULL:          0
Channel 0 REFRESHES ISSUED:      29455
