[VMEM] WARNING: physical memory size is smaller than virtual memory size.

*** ChampSim Multicore Out-of-Order Simulator ***
Warmup Instructions: 50000000
Simulation Instructions: 200000000
Number of CPUs: 1
Page size: 4096
Core 0: /local-ssd/ben/dpc4-traces/Graph/GMS/gms.k_clique_list_danisch_node_parallel.soc-pokec-relationships.slice-248.champsimstrace.gz
Off-chip DRAM Size: 64 GiB Channels: 1 Width: 64-bit Data Rate: 4807 MT/s
Heartbeat CPU 0 instructions: 500000 cycles: 177009 heartbeat IPC: 2.825 cumulative IPC: 2.825 (Simulation time: 00 hr 00 min 04 sec)
Heartbeat CPU 0 instructions: 1000001 cycles: 278402 heartbeat IPC: 4.931 cumulative IPC: 3.592 (Simulation time: 00 hr 00 min 06 sec)
Heartbeat CPU 0 instructions: 1500007 cycles: 380338 heartbeat IPC: 4.905 cumulative IPC: 3.944 (Simulation time: 00 hr 00 min 07 sec)
Heartbeat CPU 0 instructions: 2000012 cycles: 483181 heartbeat IPC: 4.862 cumulative IPC: 4.139 (Simulation time: 00 hr 00 min 09 sec)
Heartbeat CPU 0 instructions: 2500014 cycles: 585383 heartbeat IPC: 4.892 cumulative IPC: 4.271 (Simulation time: 00 hr 00 min 11 sec)
Heartbeat CPU 0 instructions: 3000015 cycles: 688451 heartbeat IPC: 4.851 cumulative IPC: 4.358 (Simulation time: 00 hr 00 min 13 sec)
Heartbeat CPU 0 instructions: 3500018 cycles: 811586 heartbeat IPC: 4.061 cumulative IPC: 4.313 (Simulation time: 00 hr 00 min 16 sec)
Heartbeat CPU 0 instructions: 4000018 cycles: 913177 heartbeat IPC: 4.922 cumulative IPC: 4.38 (Simulation time: 00 hr 00 min 18 sec)
Heartbeat CPU 0 instructions: 4500025 cycles: 1026356 heartbeat IPC: 4.418 cumulative IPC: 4.384 (Simulation time: 00 hr 00 min 21 sec)
Heartbeat CPU 0 instructions: 5000030 cycles: 1159820 heartbeat IPC: 3.746 cumulative IPC: 4.311 (Simulation time: 00 hr 00 min 24 sec)
Heartbeat CPU 0 instructions: 5500037 cycles: 1284916 heartbeat IPC: 3.997 cumulative IPC: 4.28 (Simulation time: 00 hr 00 min 28 sec)
Heartbeat CPU 0 instructions: 6000039 cycles: 1395941 heartbeat IPC: 4.504 cumulative IPC: 4.298 (Simulation time: 00 hr 00 min 30 sec)
Heartbeat CPU 0 instructions: 6500040 cycles: 1497948 heartbeat IPC: 4.902 cumulative IPC: 4.339 (Simulation time: 00 hr 00 min 32 sec)
Heartbeat CPU 0 instructions: 7000041 cycles: 1619476 heartbeat IPC: 4.114 cumulative IPC: 4.322 (Simulation time: 00 hr 00 min 36 sec)
Heartbeat CPU 0 instructions: 7500041 cycles: 1739945 heartbeat IPC: 4.15 cumulative IPC: 4.311 (Simulation time: 00 hr 00 min 39 sec)
Heartbeat CPU 0 instructions: 8000045 cycles: 1860893 heartbeat IPC: 4.134 cumulative IPC: 4.299 (Simulation time: 00 hr 00 min 42 sec)
Heartbeat CPU 0 instructions: 8500048 cycles: 1972038 heartbeat IPC: 4.499 cumulative IPC: 4.31 (Simulation time: 00 hr 00 min 44 sec)
Heartbeat CPU 0 instructions: 9000054 cycles: 2084813 heartbeat IPC: 4.434 cumulative IPC: 4.317 (Simulation time: 00 hr 00 min 47 sec)
Heartbeat CPU 0 instructions: 9500056 cycles: 2196931 heartbeat IPC: 4.46 cumulative IPC: 4.324 (Simulation time: 00 hr 00 min 50 sec)
Heartbeat CPU 0 instructions: 10000060 cycles: 2315378 heartbeat IPC: 4.221 cumulative IPC: 4.319 (Simulation time: 00 hr 00 min 53 sec)
Heartbeat CPU 0 instructions: 10500063 cycles: 2436472 heartbeat IPC: 4.129 cumulative IPC: 4.31 (Simulation time: 00 hr 00 min 56 sec)
Heartbeat CPU 0 instructions: 11000069 cycles: 2540130 heartbeat IPC: 4.824 cumulative IPC: 4.331 (Simulation time: 00 hr 00 min 58 sec)
Heartbeat CPU 0 instructions: 11500070 cycles: 2640238 heartbeat IPC: 4.995 cumulative IPC: 4.356 (Simulation time: 00 hr 01 min 00 sec)
Heartbeat CPU 0 instructions: 12000072 cycles: 2740392 heartbeat IPC: 4.992 cumulative IPC: 4.379 (Simulation time: 00 hr 01 min 02 sec)
Heartbeat CPU 0 instructions: 12500077 cycles: 2840610 heartbeat IPC: 4.989 cumulative IPC: 4.4 (Simulation time: 00 hr 01 min 04 sec)
Heartbeat CPU 0 instructions: 13000077 cycles: 2940920 heartbeat IPC: 4.985 cumulative IPC: 4.42 (Simulation time: 00 hr 01 min 06 sec)
Heartbeat CPU 0 instructions: 13500084 cycles: 3041468 heartbeat IPC: 4.973 cumulative IPC: 4.439 (Simulation time: 00 hr 01 min 08 sec)
Heartbeat CPU 0 instructions: 14000088 cycles: 3142503 heartbeat IPC: 4.949 cumulative IPC: 4.455 (Simulation time: 00 hr 01 min 10 sec)
Heartbeat CPU 0 instructions: 14500088 cycles: 3251093 heartbeat IPC: 4.604 cumulative IPC: 4.46 (Simulation time: 00 hr 01 min 13 sec)
Heartbeat CPU 0 instructions: 15000089 cycles: 3381617 heartbeat IPC: 3.831 cumulative IPC: 4.436 (Simulation time: 00 hr 01 min 16 sec)
Heartbeat CPU 0 instructions: 15500089 cycles: 3507176 heartbeat IPC: 3.982 cumulative IPC: 4.42 (Simulation time: 00 hr 01 min 19 sec)
Heartbeat CPU 0 instructions: 16000090 cycles: 3628131 heartbeat IPC: 4.134 cumulative IPC: 4.41 (Simulation time: 00 hr 01 min 22 sec)
Heartbeat CPU 0 instructions: 16500097 cycles: 3748540 heartbeat IPC: 4.153 cumulative IPC: 4.402 (Simulation time: 00 hr 01 min 25 sec)
Heartbeat CPU 0 instructions: 17000100 cycles: 3871498 heartbeat IPC: 4.066 cumulative IPC: 4.391 (Simulation time: 00 hr 01 min 28 sec)
Heartbeat CPU 0 instructions: 17500102 cycles: 3996798 heartbeat IPC: 3.99 cumulative IPC: 4.379 (Simulation time: 00 hr 01 min 32 sec)
Heartbeat CPU 0 instructions: 18000104 cycles: 4135678 heartbeat IPC: 3.6 cumulative IPC: 4.352 (Simulation time: 00 hr 01 min 36 sec)
Heartbeat CPU 0 instructions: 18500108 cycles: 4259472 heartbeat IPC: 4.039 cumulative IPC: 4.343 (Simulation time: 00 hr 01 min 39 sec)
Heartbeat CPU 0 instructions: 19000115 cycles: 4362840 heartbeat IPC: 4.837 cumulative IPC: 4.355 (Simulation time: 00 hr 01 min 41 sec)
Heartbeat CPU 0 instructions: 19500115 cycles: 4481147 heartbeat IPC: 4.226 cumulative IPC: 4.352 (Simulation time: 00 hr 01 min 44 sec)
Heartbeat CPU 0 instructions: 20000117 cycles: 4605135 heartbeat IPC: 4.033 cumulative IPC: 4.343 (Simulation time: 00 hr 01 min 47 sec)
Heartbeat CPU 0 instructions: 20500121 cycles: 4714250 heartbeat IPC: 4.582 cumulative IPC: 4.349 (Simulation time: 00 hr 01 min 49 sec)
Heartbeat CPU 0 instructions: 21000127 cycles: 4815699 heartbeat IPC: 4.929 cumulative IPC: 4.361 (Simulation time: 00 hr 01 min 51 sec)
Heartbeat CPU 0 instructions: 21500127 cycles: 4926218 heartbeat IPC: 4.524 cumulative IPC: 4.364 (Simulation time: 00 hr 01 min 54 sec)
Heartbeat CPU 0 instructions: 22000131 cycles: 5027834 heartbeat IPC: 4.921 cumulative IPC: 4.376 (Simulation time: 00 hr 01 min 56 sec)
Heartbeat CPU 0 instructions: 22500135 cycles: 5138462 heartbeat IPC: 4.52 cumulative IPC: 4.379 (Simulation time: 00 hr 01 min 59 sec)
Heartbeat CPU 0 instructions: 23000137 cycles: 5251484 heartbeat IPC: 4.424 cumulative IPC: 4.38 (Simulation time: 00 hr 02 min 02 sec)
Heartbeat CPU 0 instructions: 23500140 cycles: 5353712 heartbeat IPC: 4.891 cumulative IPC: 4.39 (Simulation time: 00 hr 02 min 04 sec)
Heartbeat CPU 0 instructions: 24000141 cycles: 5481421 heartbeat IPC: 3.915 cumulative IPC: 4.378 (Simulation time: 00 hr 02 min 08 sec)
Heartbeat CPU 0 instructions: 24500148 cycles: 5582678 heartbeat IPC: 4.938 cumulative IPC: 4.389 (Simulation time: 00 hr 02 min 10 sec)
Heartbeat CPU 0 instructions: 25000149 cycles: 5684206 heartbeat IPC: 4.925 cumulative IPC: 4.398 (Simulation time: 00 hr 02 min 12 sec)
Heartbeat CPU 0 instructions: 25500151 cycles: 5785703 heartbeat IPC: 4.926 cumulative IPC: 4.407 (Simulation time: 00 hr 02 min 14 sec)
Heartbeat CPU 0 instructions: 26000155 cycles: 5888015 heartbeat IPC: 4.887 cumulative IPC: 4.416 (Simulation time: 00 hr 02 min 16 sec)
Heartbeat CPU 0 instructions: 26500157 cycles: 5996961 heartbeat IPC: 4.589 cumulative IPC: 4.419 (Simulation time: 00 hr 02 min 19 sec)
Heartbeat CPU 0 instructions: 27000161 cycles: 6110388 heartbeat IPC: 4.408 cumulative IPC: 4.419 (Simulation time: 00 hr 02 min 22 sec)
Heartbeat CPU 0 instructions: 27500167 cycles: 6238928 heartbeat IPC: 3.89 cumulative IPC: 4.408 (Simulation time: 00 hr 02 min 25 sec)
Heartbeat CPU 0 instructions: 28000171 cycles: 6353361 heartbeat IPC: 4.369 cumulative IPC: 4.407 (Simulation time: 00 hr 02 min 28 sec)
Heartbeat CPU 0 instructions: 28500178 cycles: 6471557 heartbeat IPC: 4.23 cumulative IPC: 4.404 (Simulation time: 00 hr 02 min 31 sec)
Heartbeat CPU 0 instructions: 29000185 cycles: 6592196 heartbeat IPC: 4.145 cumulative IPC: 4.399 (Simulation time: 00 hr 02 min 34 sec)
Heartbeat CPU 0 instructions: 29500191 cycles: 6696193 heartbeat IPC: 4.808 cumulative IPC: 4.406 (Simulation time: 00 hr 02 min 36 sec)
Heartbeat CPU 0 instructions: 30000197 cycles: 6815170 heartbeat IPC: 4.203 cumulative IPC: 4.402 (Simulation time: 00 hr 02 min 40 sec)
Heartbeat CPU 0 instructions: 30500200 cycles: 6932159 heartbeat IPC: 4.274 cumulative IPC: 4.4 (Simulation time: 00 hr 02 min 42 sec)
Heartbeat CPU 0 instructions: 31000205 cycles: 7054158 heartbeat IPC: 4.098 cumulative IPC: 4.395 (Simulation time: 00 hr 02 min 45 sec)
Heartbeat CPU 0 instructions: 31500211 cycles: 7180187 heartbeat IPC: 3.967 cumulative IPC: 4.387 (Simulation time: 00 hr 02 min 49 sec)
Heartbeat CPU 0 instructions: 32000218 cycles: 7303562 heartbeat IPC: 4.053 cumulative IPC: 4.381 (Simulation time: 00 hr 02 min 52 sec)
Heartbeat CPU 0 instructions: 32500223 cycles: 7406391 heartbeat IPC: 4.862 cumulative IPC: 4.388 (Simulation time: 00 hr 02 min 54 sec)
Heartbeat CPU 0 instructions: 33000228 cycles: 7535640 heartbeat IPC: 3.869 cumulative IPC: 4.379 (Simulation time: 00 hr 02 min 58 sec)
Heartbeat CPU 0 instructions: 33500234 cycles: 7659355 heartbeat IPC: 4.042 cumulative IPC: 4.374 (Simulation time: 00 hr 03 min 01 sec)
Heartbeat CPU 0 instructions: 34000234 cycles: 7760327 heartbeat IPC: 4.952 cumulative IPC: 4.381 (Simulation time: 00 hr 03 min 03 sec)
Heartbeat CPU 0 instructions: 34500234 cycles: 7862287 heartbeat IPC: 4.904 cumulative IPC: 4.388 (Simulation time: 00 hr 03 min 05 sec)
Heartbeat CPU 0 instructions: 35000240 cycles: 7983099 heartbeat IPC: 4.139 cumulative IPC: 4.384 (Simulation time: 00 hr 03 min 09 sec)
Heartbeat CPU 0 instructions: 35500240 cycles: 8094101 heartbeat IPC: 4.504 cumulative IPC: 4.386 (Simulation time: 00 hr 03 min 11 sec)
Heartbeat CPU 0 instructions: 36000240 cycles: 8214108 heartbeat IPC: 4.166 cumulative IPC: 4.383 (Simulation time: 00 hr 03 min 15 sec)
Heartbeat CPU 0 instructions: 36500243 cycles: 8335274 heartbeat IPC: 4.127 cumulative IPC: 4.379 (Simulation time: 00 hr 03 min 18 sec)
Heartbeat CPU 0 instructions: 37000246 cycles: 8436888 heartbeat IPC: 4.921 cumulative IPC: 4.386 (Simulation time: 00 hr 03 min 20 sec)
Heartbeat CPU 0 instructions: 37500252 cycles: 8552160 heartbeat IPC: 4.338 cumulative IPC: 4.385 (Simulation time: 00 hr 03 min 23 sec)
Heartbeat CPU 0 instructions: 38000258 cycles: 8670928 heartbeat IPC: 4.21 cumulative IPC: 4.382 (Simulation time: 00 hr 03 min 26 sec)
Heartbeat CPU 0 instructions: 38500263 cycles: 8801903 heartbeat IPC: 3.818 cumulative IPC: 4.374 (Simulation time: 00 hr 03 min 30 sec)
Heartbeat CPU 0 instructions: 39000270 cycles: 8923809 heartbeat IPC: 4.102 cumulative IPC: 4.37 (Simulation time: 00 hr 03 min 33 sec)
Heartbeat CPU 0 instructions: 39500274 cycles: 9023809 heartbeat IPC: 5 cumulative IPC: 4.377 (Simulation time: 00 hr 03 min 35 sec)
Heartbeat CPU 0 instructions: 40000281 cycles: 9123822 heartbeat IPC: 4.999 cumulative IPC: 4.384 (Simulation time: 00 hr 03 min 37 sec)
Heartbeat CPU 0 instructions: 40500282 cycles: 9243918 heartbeat IPC: 4.163 cumulative IPC: 4.381 (Simulation time: 00 hr 03 min 40 sec)
Heartbeat CPU 0 instructions: 41000289 cycles: 9364323 heartbeat IPC: 4.153 cumulative IPC: 4.378 (Simulation time: 00 hr 03 min 43 sec)
Heartbeat CPU 0 instructions: 41500293 cycles: 9493759 heartbeat IPC: 3.863 cumulative IPC: 4.371 (Simulation time: 00 hr 03 min 47 sec)
Heartbeat CPU 0 instructions: 42000297 cycles: 9617410 heartbeat IPC: 4.044 cumulative IPC: 4.367 (Simulation time: 00 hr 03 min 50 sec)
Heartbeat CPU 0 instructions: 42500299 cycles: 9735598 heartbeat IPC: 4.231 cumulative IPC: 4.365 (Simulation time: 00 hr 03 min 53 sec)
Heartbeat CPU 0 instructions: 43000302 cycles: 9848129 heartbeat IPC: 4.443 cumulative IPC: 4.366 (Simulation time: 00 hr 03 min 55 sec)
Heartbeat CPU 0 instructions: 43500302 cycles: 9960958 heartbeat IPC: 4.431 cumulative IPC: 4.367 (Simulation time: 00 hr 03 min 58 sec)
Heartbeat CPU 0 instructions: 44000304 cycles: 10065555 heartbeat IPC: 4.78 cumulative IPC: 4.371 (Simulation time: 00 hr 04 min 00 sec)
Heartbeat CPU 0 instructions: 44500304 cycles: 10194948 heartbeat IPC: 3.864 cumulative IPC: 4.365 (Simulation time: 00 hr 04 min 04 sec)
Heartbeat CPU 0 instructions: 45000310 cycles: 10294957 heartbeat IPC: 5 cumulative IPC: 4.371 (Simulation time: 00 hr 04 min 06 sec)
Heartbeat CPU 0 instructions: 45500316 cycles: 10418992 heartbeat IPC: 4.031 cumulative IPC: 4.367 (Simulation time: 00 hr 04 min 09 sec)
Heartbeat CPU 0 instructions: 46000316 cycles: 10528810 heartbeat IPC: 4.553 cumulative IPC: 4.369 (Simulation time: 00 hr 04 min 12 sec)
Heartbeat CPU 0 instructions: 46500318 cycles: 10628857 heartbeat IPC: 4.998 cumulative IPC: 4.375 (Simulation time: 00 hr 04 min 14 sec)
Heartbeat CPU 0 instructions: 47000319 cycles: 10728985 heartbeat IPC: 4.994 cumulative IPC: 4.381 (Simulation time: 00 hr 04 min 16 sec)
Heartbeat CPU 0 instructions: 47500320 cycles: 10829005 heartbeat IPC: 4.999 cumulative IPC: 4.386 (Simulation time: 00 hr 04 min 18 sec)
Heartbeat CPU 0 instructions: 48000323 cycles: 10929158 heartbeat IPC: 4.992 cumulative IPC: 4.392 (Simulation time: 00 hr 04 min 20 sec)
Heartbeat CPU 0 instructions: 48500326 cycles: 11029175 heartbeat IPC: 4.999 cumulative IPC: 4.397 (Simulation time: 00 hr 04 min 22 sec)
Heartbeat CPU 0 instructions: 49000328 cycles: 11129219 heartbeat IPC: 4.998 cumulative IPC: 4.403 (Simulation time: 00 hr 04 min 24 sec)
Heartbeat CPU 0 instructions: 49500330 cycles: 11229233 heartbeat IPC: 4.999 cumulative IPC: 4.408 (Simulation time: 00 hr 04 min 26 sec)
Warmup halting CPU 0 at instruction 50000002 cycle 11329234 for remainder of phase
Warmup finished CPU 0 instructions: 50000002 cycles: 11329234 cumulative IPC: 4.413 (Simulation time: 00 hr 04 min 28 sec)
Warmup complete CPU 0 instructions: 50000002 cycles: 11329234 cumulative IPC: 4.413 (Simulation time: 00 hr 04 min 28 sec)
Heartbeat CPU 0 instructions: 50000331 cycles: 11329321 heartbeat IPC: 4.996 cumulative IPC: 3.782 (Simulation time: 00 hr 04 min 28 sec)
Heartbeat CPU 0 instructions: 50500331 cycles: 11722312 heartbeat IPC: 1.272 cumulative IPC: 1.273 (Simulation time: 00 hr 04 min 31 sec)
Heartbeat CPU 0 instructions: 51000331 cycles: 12107571 heartbeat IPC: 1.298 cumulative IPC: 1.285 (Simulation time: 00 hr 04 min 35 sec)
Heartbeat CPU 0 instructions: 51500331 cycles: 12506232 heartbeat IPC: 1.254 cumulative IPC: 1.275 (Simulation time: 00 hr 04 min 39 sec)
Heartbeat CPU 0 instructions: 52000334 cycles: 12895763 heartbeat IPC: 1.284 cumulative IPC: 1.277 (Simulation time: 00 hr 04 min 43 sec)
Heartbeat CPU 0 instructions: 52500334 cycles: 13301388 heartbeat IPC: 1.233 cumulative IPC: 1.268 (Simulation time: 00 hr 04 min 47 sec)
Heartbeat CPU 0 instructions: 53000340 cycles: 13698820 heartbeat IPC: 1.258 cumulative IPC: 1.266 (Simulation time: 00 hr 04 min 50 sec)
Heartbeat CPU 0 instructions: 53500342 cycles: 14103722 heartbeat IPC: 1.235 cumulative IPC: 1.262 (Simulation time: 00 hr 04 min 54 sec)
Heartbeat CPU 0 instructions: 54000346 cycles: 14500970 heartbeat IPC: 1.259 cumulative IPC: 1.261 (Simulation time: 00 hr 04 min 58 sec)
Heartbeat CPU 0 instructions: 54500347 cycles: 14901126 heartbeat IPC: 1.25 cumulative IPC: 1.26 (Simulation time: 00 hr 05 min 02 sec)
Heartbeat CPU 0 instructions: 55000351 cycles: 15298829 heartbeat IPC: 1.257 cumulative IPC: 1.26 (Simulation time: 00 hr 05 min 06 sec)
Heartbeat CPU 0 instructions: 55500355 cycles: 15699900 heartbeat IPC: 1.247 cumulative IPC: 1.258 (Simulation time: 00 hr 05 min 09 sec)
Heartbeat CPU 0 instructions: 56000356 cycles: 16090056 heartbeat IPC: 1.282 cumulative IPC: 1.26 (Simulation time: 00 hr 05 min 13 sec)
Heartbeat CPU 0 instructions: 56500356 cycles: 16546733 heartbeat IPC: 1.095 cumulative IPC: 1.246 (Simulation time: 00 hr 05 min 18 sec)
Heartbeat CPU 0 instructions: 57000359 cycles: 17247070 heartbeat IPC: 0.7139 cumulative IPC: 1.183 (Simulation time: 00 hr 05 min 24 sec)
Heartbeat CPU 0 instructions: 57500360 cycles: 17746985 heartbeat IPC: 1 cumulative IPC: 1.169 (Simulation time: 00 hr 05 min 29 sec)
Heartbeat CPU 0 instructions: 58000364 cycles: 18134003 heartbeat IPC: 1.292 cumulative IPC: 1.176 (Simulation time: 00 hr 05 min 33 sec)
Heartbeat CPU 0 instructions: 58500368 cycles: 19093006 heartbeat IPC: 0.5214 cumulative IPC: 1.095 (Simulation time: 00 hr 05 min 42 sec)
Heartbeat CPU 0 instructions: 59000370 cycles: 19468456 heartbeat IPC: 1.332 cumulative IPC: 1.106 (Simulation time: 00 hr 05 min 45 sec)
Heartbeat CPU 0 instructions: 59500375 cycles: 20276879 heartbeat IPC: 0.6185 cumulative IPC: 1.062 (Simulation time: 00 hr 05 min 53 sec)
Heartbeat CPU 0 instructions: 60000375 cycles: 20669277 heartbeat IPC: 1.274 cumulative IPC: 1.071 (Simulation time: 00 hr 05 min 57 sec)
Heartbeat CPU 0 instructions: 60500377 cycles: 21607573 heartbeat IPC: 0.5329 cumulative IPC: 1.022 (Simulation time: 00 hr 06 min 07 sec)
Heartbeat CPU 0 instructions: 61000378 cycles: 23000241 heartbeat IPC: 0.359 cumulative IPC: 0.9425 (Simulation time: 00 hr 06 min 21 sec)
Heartbeat CPU 0 instructions: 61500383 cycles: 23398760 heartbeat IPC: 1.255 cumulative IPC: 0.9528 (Simulation time: 00 hr 06 min 24 sec)
Heartbeat CPU 0 instructions: 62000384 cycles: 24221890 heartbeat IPC: 0.6074 cumulative IPC: 0.9308 (Simulation time: 00 hr 06 min 32 sec)
Heartbeat CPU 0 instructions: 62500385 cycles: 24615130 heartbeat IPC: 1.271 cumulative IPC: 0.9409 (Simulation time: 00 hr 06 min 36 sec)
Heartbeat CPU 0 instructions: 63000390 cycles: 25196555 heartbeat IPC: 0.86 cumulative IPC: 0.9375 (Simulation time: 00 hr 06 min 42 sec)
Heartbeat CPU 0 instructions: 63500392 cycles: 25970772 heartbeat IPC: 0.6458 cumulative IPC: 0.9221 (Simulation time: 00 hr 06 min 49 sec)
Heartbeat CPU 0 instructions: 64000392 cycles: 26750736 heartbeat IPC: 0.6411 cumulative IPC: 0.9078 (Simulation time: 00 hr 06 min 57 sec)
Heartbeat CPU 0 instructions: 64500393 cycles: 27117932 heartbeat IPC: 1.362 cumulative IPC: 0.9184 (Simulation time: 00 hr 07 min 01 sec)
Heartbeat CPU 0 instructions: 65000400 cycles: 27850035 heartbeat IPC: 0.683 cumulative IPC: 0.908 (Simulation time: 00 hr 07 min 08 sec)
Heartbeat CPU 0 instructions: 65500401 cycles: 28621157 heartbeat IPC: 0.6484 cumulative IPC: 0.8964 (Simulation time: 00 hr 07 min 15 sec)
Heartbeat CPU 0 instructions: 66000401 cycles: 29571614 heartbeat IPC: 0.5261 cumulative IPC: 0.8771 (Simulation time: 00 hr 07 min 24 sec)
Heartbeat CPU 0 instructions: 66500401 cycles: 29960241 heartbeat IPC: 1.287 cumulative IPC: 0.8856 (Simulation time: 00 hr 07 min 28 sec)
Heartbeat CPU 0 instructions: 67000402 cycles: 30343593 heartbeat IPC: 1.304 cumulative IPC: 0.8941 (Simulation time: 00 hr 07 min 32 sec)
Heartbeat CPU 0 instructions: 67500402 cycles: 30911129 heartbeat IPC: 0.881 cumulative IPC: 0.8937 (Simulation time: 00 hr 07 min 37 sec)
Heartbeat CPU 0 instructions: 68000402 cycles: 31514588 heartbeat IPC: 0.8286 cumulative IPC: 0.8918 (Simulation time: 00 hr 07 min 43 sec)
Heartbeat CPU 0 instructions: 68500409 cycles: 31898290 heartbeat IPC: 1.303 cumulative IPC: 0.8994 (Simulation time: 00 hr 07 min 47 sec)
Heartbeat CPU 0 instructions: 69000410 cycles: 32719345 heartbeat IPC: 0.609 cumulative IPC: 0.8883 (Simulation time: 00 hr 07 min 55 sec)
Heartbeat CPU 0 instructions: 69500415 cycles: 33514741 heartbeat IPC: 0.6286 cumulative IPC: 0.879 (Simulation time: 00 hr 08 min 02 sec)
Heartbeat CPU 0 instructions: 70000417 cycles: 33905864 heartbeat IPC: 1.278 cumulative IPC: 0.8859 (Simulation time: 00 hr 08 min 06 sec)
Heartbeat CPU 0 instructions: 70500417 cycles: 34292181 heartbeat IPC: 1.294 cumulative IPC: 0.8928 (Simulation time: 00 hr 08 min 10 sec)
Heartbeat CPU 0 instructions: 71000417 cycles: 34852778 heartbeat IPC: 0.8919 cumulative IPC: 0.8927 (Simulation time: 00 hr 08 min 15 sec)
Heartbeat CPU 0 instructions: 71500420 cycles: 35489006 heartbeat IPC: 0.7859 cumulative IPC: 0.8899 (Simulation time: 00 hr 08 min 21 sec)
Heartbeat CPU 0 instructions: 72000422 cycles: 36474023 heartbeat IPC: 0.5076 cumulative IPC: 0.8749 (Simulation time: 00 hr 08 min 31 sec)
Heartbeat CPU 0 instructions: 72500422 cycles: 36881430 heartbeat IPC: 1.227 cumulative IPC: 0.8806 (Simulation time: 00 hr 08 min 35 sec)
Heartbeat CPU 0 instructions: 73000428 cycles: 37295629 heartbeat IPC: 1.207 cumulative IPC: 0.8858 (Simulation time: 00 hr 08 min 39 sec)
Heartbeat CPU 0 instructions: 73500428 cycles: 37859569 heartbeat IPC: 0.8866 cumulative IPC: 0.8858 (Simulation time: 00 hr 08 min 44 sec)
Heartbeat CPU 0 instructions: 74000430 cycles: 38711641 heartbeat IPC: 0.5868 cumulative IPC: 0.8765 (Simulation time: 00 hr 08 min 53 sec)
Heartbeat CPU 0 instructions: 74500432 cycles: 39452320 heartbeat IPC: 0.6751 cumulative IPC: 0.8712 (Simulation time: 00 hr 09 min 00 sec)
Heartbeat CPU 0 instructions: 75000433 cycles: 40610581 heartbeat IPC: 0.4317 cumulative IPC: 0.8538 (Simulation time: 00 hr 09 min 11 sec)
Heartbeat CPU 0 instructions: 75500436 cycles: 41588002 heartbeat IPC: 0.5116 cumulative IPC: 0.8427 (Simulation time: 00 hr 09 min 21 sec)
Heartbeat CPU 0 instructions: 76000436 cycles: 41997965 heartbeat IPC: 1.22 cumulative IPC: 0.8478 (Simulation time: 00 hr 09 min 25 sec)
Heartbeat CPU 0 instructions: 76500439 cycles: 42394699 heartbeat IPC: 1.26 cumulative IPC: 0.8531 (Simulation time: 00 hr 09 min 29 sec)
Heartbeat CPU 0 instructions: 77000440 cycles: 42794913 heartbeat IPC: 1.249 cumulative IPC: 0.8581 (Simulation time: 00 hr 09 min 33 sec)
Heartbeat CPU 0 instructions: 77500446 cycles: 43202802 heartbeat IPC: 1.226 cumulative IPC: 0.8628 (Simulation time: 00 hr 09 min 36 sec)
Heartbeat CPU 0 instructions: 78000447 cycles: 43602806 heartbeat IPC: 1.25 cumulative IPC: 0.8676 (Simulation time: 00 hr 09 min 40 sec)
Heartbeat CPU 0 instructions: 78500447 cycles: 43997089 heartbeat IPC: 1.268 cumulative IPC: 0.8724 (Simulation time: 00 hr 09 min 44 sec)
Heartbeat CPU 0 instructions: 79000451 cycles: 44383773 heartbeat IPC: 1.293 cumulative IPC: 0.8774 (Simulation time: 00 hr 09 min 48 sec)
Heartbeat CPU 0 instructions: 79500455 cycles: 44754880 heartbeat IPC: 1.347 cumulative IPC: 0.8826 (Simulation time: 00 hr 09 min 51 sec)
Heartbeat CPU 0 instructions: 80000455 cycles: 45432706 heartbeat IPC: 0.7377 cumulative IPC: 0.8797 (Simulation time: 00 hr 09 min 58 sec)
Heartbeat CPU 0 instructions: 80500455 cycles: 46108644 heartbeat IPC: 0.7397 cumulative IPC: 0.877 (Simulation time: 00 hr 10 min 05 sec)
Heartbeat CPU 0 instructions: 81000455 cycles: 46840891 heartbeat IPC: 0.6828 cumulative IPC: 0.873 (Simulation time: 00 hr 10 min 12 sec)
Heartbeat CPU 0 instructions: 81500457 cycles: 47586316 heartbeat IPC: 0.6708 cumulative IPC: 0.8688 (Simulation time: 00 hr 10 min 19 sec)
Heartbeat CPU 0 instructions: 82000464 cycles: 47995156 heartbeat IPC: 1.223 cumulative IPC: 0.8728 (Simulation time: 00 hr 10 min 23 sec)
Heartbeat CPU 0 instructions: 82500466 cycles: 48391601 heartbeat IPC: 1.261 cumulative IPC: 0.8769 (Simulation time: 00 hr 10 min 27 sec)
Heartbeat CPU 0 instructions: 83000467 cycles: 48966895 heartbeat IPC: 0.8691 cumulative IPC: 0.8768 (Simulation time: 00 hr 10 min 32 sec)
Heartbeat CPU 0 instructions: 83500467 cycles: 49744450 heartbeat IPC: 0.643 cumulative IPC: 0.8721 (Simulation time: 00 hr 10 min 40 sec)
Heartbeat CPU 0 instructions: 84000469 cycles: 50342342 heartbeat IPC: 0.8363 cumulative IPC: 0.8715 (Simulation time: 00 hr 10 min 46 sec)
Heartbeat CPU 0 instructions: 84500470 cycles: 50726462 heartbeat IPC: 1.302 cumulative IPC: 0.8757 (Simulation time: 00 hr 10 min 50 sec)
Heartbeat CPU 0 instructions: 85000471 cycles: 51297296 heartbeat IPC: 0.8759 cumulative IPC: 0.8757 (Simulation time: 00 hr 10 min 55 sec)
Heartbeat CPU 0 instructions: 85500471 cycles: 51902868 heartbeat IPC: 0.8257 cumulative IPC: 0.875 (Simulation time: 00 hr 11 min 01 sec)
Heartbeat CPU 0 instructions: 86000473 cycles: 52286289 heartbeat IPC: 1.304 cumulative IPC: 0.879 (Simulation time: 00 hr 11 min 05 sec)
Heartbeat CPU 0 instructions: 86500474 cycles: 52853209 heartbeat IPC: 0.882 cumulative IPC: 0.879 (Simulation time: 00 hr 11 min 11 sec)
Heartbeat CPU 0 instructions: 87000474 cycles: 53446851 heartbeat IPC: 0.8423 cumulative IPC: 0.8785 (Simulation time: 00 hr 11 min 16 sec)
Heartbeat CPU 0 instructions: 87500481 cycles: 53849060 heartbeat IPC: 1.243 cumulative IPC: 0.882 (Simulation time: 00 hr 11 min 20 sec)
Heartbeat CPU 0 instructions: 88000485 cycles: 54911300 heartbeat IPC: 0.4707 cumulative IPC: 0.8719 (Simulation time: 00 hr 11 min 31 sec)
Heartbeat CPU 0 instructions: 88500485 cycles: 56018444 heartbeat IPC: 0.4516 cumulative IPC: 0.8615 (Simulation time: 00 hr 11 min 43 sec)
Heartbeat CPU 0 instructions: 89000486 cycles: 56645133 heartbeat IPC: 0.7978 cumulative IPC: 0.8606 (Simulation time: 00 hr 11 min 48 sec)
Heartbeat CPU 0 instructions: 89500486 cycles: 57040336 heartbeat IPC: 1.265 cumulative IPC: 0.8641 (Simulation time: 00 hr 11 min 52 sec)
Heartbeat CPU 0 instructions: 90000486 cycles: 57434397 heartbeat IPC: 1.269 cumulative IPC: 0.8676 (Simulation time: 00 hr 11 min 56 sec)
Heartbeat CPU 0 instructions: 90500487 cycles: 58020711 heartbeat IPC: 0.8528 cumulative IPC: 0.8674 (Simulation time: 00 hr 12 min 02 sec)
Heartbeat CPU 0 instructions: 91000487 cycles: 58843206 heartbeat IPC: 0.6079 cumulative IPC: 0.8629 (Simulation time: 00 hr 12 min 10 sec)
Heartbeat CPU 0 instructions: 91500488 cycles: 59383306 heartbeat IPC: 0.9258 cumulative IPC: 0.8636 (Simulation time: 00 hr 12 min 15 sec)
Heartbeat CPU 0 instructions: 92000489 cycles: 59788794 heartbeat IPC: 1.233 cumulative IPC: 0.8667 (Simulation time: 00 hr 12 min 19 sec)
Heartbeat CPU 0 instructions: 92500489 cycles: 60487241 heartbeat IPC: 0.7159 cumulative IPC: 0.8646 (Simulation time: 00 hr 12 min 26 sec)
Heartbeat CPU 0 instructions: 93000490 cycles: 60932324 heartbeat IPC: 1.123 cumulative IPC: 0.8669 (Simulation time: 00 hr 12 min 30 sec)
Heartbeat CPU 0 instructions: 93500494 cycles: 61521963 heartbeat IPC: 0.848 cumulative IPC: 0.8667 (Simulation time: 00 hr 12 min 36 sec)
Heartbeat CPU 0 instructions: 94000496 cycles: 62106513 heartbeat IPC: 0.8554 cumulative IPC: 0.8665 (Simulation time: 00 hr 12 min 42 sec)
Heartbeat CPU 0 instructions: 94500497 cycles: 62991022 heartbeat IPC: 0.5653 cumulative IPC: 0.8614 (Simulation time: 00 hr 12 min 50 sec)
Heartbeat CPU 0 instructions: 95000497 cycles: 63719465 heartbeat IPC: 0.6864 cumulative IPC: 0.8589 (Simulation time: 00 hr 12 min 58 sec)
Heartbeat CPU 0 instructions: 95500498 cycles: 64669137 heartbeat IPC: 0.5265 cumulative IPC: 0.853 (Simulation time: 00 hr 13 min 07 sec)
Heartbeat CPU 0 instructions: 96000505 cycles: 65421364 heartbeat IPC: 0.6647 cumulative IPC: 0.8504 (Simulation time: 00 hr 13 min 15 sec)
Heartbeat CPU 0 instructions: 96500509 cycles: 66535159 heartbeat IPC: 0.4489 cumulative IPC: 0.8423 (Simulation time: 00 hr 13 min 26 sec)
Heartbeat CPU 0 instructions: 97000509 cycles: 67304135 heartbeat IPC: 0.6502 cumulative IPC: 0.8397 (Simulation time: 00 hr 13 min 33 sec)
Heartbeat CPU 0 instructions: 97500510 cycles: 67897552 heartbeat IPC: 0.8426 cumulative IPC: 0.8397 (Simulation time: 00 hr 13 min 39 sec)
Heartbeat CPU 0 instructions: 98000516 cycles: 68801082 heartbeat IPC: 0.5534 cumulative IPC: 0.8352 (Simulation time: 00 hr 13 min 48 sec)
Heartbeat CPU 0 instructions: 98500523 cycles: 69542494 heartbeat IPC: 0.6744 cumulative IPC: 0.8332 (Simulation time: 00 hr 13 min 56 sec)
Heartbeat CPU 0 instructions: 99000523 cycles: 70143275 heartbeat IPC: 0.8323 cumulative IPC: 0.8331 (Simulation time: 00 hr 14 min 01 sec)
Heartbeat CPU 0 instructions: 99500527 cycles: 70510788 heartbeat IPC: 1.361 cumulative IPC: 0.8364 (Simulation time: 00 hr 14 min 05 sec)
Heartbeat CPU 0 instructions: 100000527 cycles: 71102520 heartbeat IPC: 0.845 cumulative IPC: 0.8365 (Simulation time: 00 hr 14 min 11 sec)
Heartbeat CPU 0 instructions: 100500527 cycles: 71747145 heartbeat IPC: 0.7756 cumulative IPC: 0.8359 (Simulation time: 00 hr 14 min 18 sec)
Heartbeat CPU 0 instructions: 101000527 cycles: 72500575 heartbeat IPC: 0.6636 cumulative IPC: 0.8337 (Simulation time: 00 hr 14 min 25 sec)
Heartbeat CPU 0 instructions: 101500532 cycles: 72905782 heartbeat IPC: 1.234 cumulative IPC: 0.8364 (Simulation time: 00 hr 14 min 29 sec)
Heartbeat CPU 0 instructions: 102000532 cycles: 73296745 heartbeat IPC: 1.279 cumulative IPC: 0.8392 (Simulation time: 00 hr 14 min 33 sec)
Heartbeat CPU 0 instructions: 102500534 cycles: 74159439 heartbeat IPC: 0.5796 cumulative IPC: 0.8356 (Simulation time: 00 hr 14 min 42 sec)
Heartbeat CPU 0 instructions: 103000534 cycles: 74744207 heartbeat IPC: 0.855 cumulative IPC: 0.8358 (Simulation time: 00 hr 14 min 47 sec)
Heartbeat CPU 0 instructions: 103500535 cycles: 75328176 heartbeat IPC: 0.8562 cumulative IPC: 0.836 (Simulation time: 00 hr 14 min 53 sec)
Heartbeat CPU 0 instructions: 104000535 cycles: 76393194 heartbeat IPC: 0.4695 cumulative IPC: 0.83 (Simulation time: 00 hr 15 min 04 sec)
Heartbeat CPU 0 instructions: 104500538 cycles: 77144041 heartbeat IPC: 0.6659 cumulative IPC: 0.8281 (Simulation time: 00 hr 15 min 11 sec)
Heartbeat CPU 0 instructions: 105000541 cycles: 77872095 heartbeat IPC: 0.6868 cumulative IPC: 0.8265 (Simulation time: 00 hr 15 min 19 sec)
Heartbeat CPU 0 instructions: 105500548 cycles: 78626379 heartbeat IPC: 0.6629 cumulative IPC: 0.8247 (Simulation time: 00 hr 15 min 26 sec)
Heartbeat CPU 0 instructions: 106000549 cycles: 79015342 heartbeat IPC: 1.285 cumulative IPC: 0.8274 (Simulation time: 00 hr 15 min 30 sec)
Heartbeat CPU 0 instructions: 106500549 cycles: 79561385 heartbeat IPC: 0.9157 cumulative IPC: 0.8281 (Simulation time: 00 hr 15 min 35 sec)
Heartbeat CPU 0 instructions: 107000550 cycles: 80313530 heartbeat IPC: 0.6648 cumulative IPC: 0.8263 (Simulation time: 00 hr 15 min 43 sec)
Heartbeat CPU 0 instructions: 107500552 cycles: 80874094 heartbeat IPC: 0.892 cumulative IPC: 0.8268 (Simulation time: 00 hr 15 min 48 sec)
Heartbeat CPU 0 instructions: 108000557 cycles: 81277213 heartbeat IPC: 1.24 cumulative IPC: 0.8292 (Simulation time: 00 hr 15 min 52 sec)
Heartbeat CPU 0 instructions: 108500562 cycles: 81818645 heartbeat IPC: 0.9235 cumulative IPC: 0.8299 (Simulation time: 00 hr 15 min 57 sec)
Heartbeat CPU 0 instructions: 109000564 cycles: 82213083 heartbeat IPC: 1.268 cumulative IPC: 0.8324 (Simulation time: 00 hr 16 min 01 sec)
Heartbeat CPU 0 instructions: 109500571 cycles: 82980052 heartbeat IPC: 0.6519 cumulative IPC: 0.8304 (Simulation time: 00 hr 16 min 09 sec)
Heartbeat CPU 0 instructions: 110000573 cycles: 83866381 heartbeat IPC: 0.5641 cumulative IPC: 0.8272 (Simulation time: 00 hr 16 min 18 sec)
Heartbeat CPU 0 instructions: 110500574 cycles: 84779840 heartbeat IPC: 0.5474 cumulative IPC: 0.8237 (Simulation time: 00 hr 16 min 27 sec)
Heartbeat CPU 0 instructions: 111000577 cycles: 85666366 heartbeat IPC: 0.564 cumulative IPC: 0.8206 (Simulation time: 00 hr 16 min 36 sec)
Heartbeat CPU 0 instructions: 111500577 cycles: 86525261 heartbeat IPC: 0.5821 cumulative IPC: 0.8179 (Simulation time: 00 hr 16 min 45 sec)
Heartbeat CPU 0 instructions: 112000580 cycles: 87081677 heartbeat IPC: 0.8986 cumulative IPC: 0.8185 (Simulation time: 00 hr 16 min 50 sec)
Heartbeat CPU 0 instructions: 112500582 cycles: 88025871 heartbeat IPC: 0.5296 cumulative IPC: 0.8149 (Simulation time: 00 hr 17 min 00 sec)
Heartbeat CPU 0 instructions: 113000587 cycles: 88657907 heartbeat IPC: 0.7911 cumulative IPC: 0.8147 (Simulation time: 00 hr 17 min 06 sec)
Heartbeat CPU 0 instructions: 113500587 cycles: 89514913 heartbeat IPC: 0.5834 cumulative IPC: 0.8122 (Simulation time: 00 hr 17 min 15 sec)
Heartbeat CPU 0 instructions: 114000587 cycles: 89908238 heartbeat IPC: 1.271 cumulative IPC: 0.8145 (Simulation time: 00 hr 17 min 18 sec)
Heartbeat CPU 0 instructions: 114500591 cycles: 90294219 heartbeat IPC: 1.295 cumulative IPC: 0.8168 (Simulation time: 00 hr 17 min 22 sec)
Heartbeat CPU 0 instructions: 115000592 cycles: 90822783 heartbeat IPC: 0.946 cumulative IPC: 0.8177 (Simulation time: 00 hr 17 min 27 sec)
Heartbeat CPU 0 instructions: 115500595 cycles: 91358572 heartbeat IPC: 0.9332 cumulative IPC: 0.8185 (Simulation time: 00 hr 17 min 33 sec)
Heartbeat CPU 0 instructions: 116000601 cycles: 91747392 heartbeat IPC: 1.286 cumulative IPC: 0.8207 (Simulation time: 00 hr 17 min 36 sec)
Heartbeat CPU 0 instructions: 116500602 cycles: 92623279 heartbeat IPC: 0.5709 cumulative IPC: 0.818 (Simulation time: 00 hr 17 min 45 sec)
Heartbeat CPU 0 instructions: 117000608 cycles: 93028201 heartbeat IPC: 1.235 cumulative IPC: 0.8201 (Simulation time: 00 hr 17 min 49 sec)
Heartbeat CPU 0 instructions: 117500611 cycles: 93441213 heartbeat IPC: 1.211 cumulative IPC: 0.8221 (Simulation time: 00 hr 17 min 53 sec)
Heartbeat CPU 0 instructions: 118000617 cycles: 93847229 heartbeat IPC: 1.231 cumulative IPC: 0.8241 (Simulation time: 00 hr 17 min 57 sec)
Heartbeat CPU 0 instructions: 118500618 cycles: 94428438 heartbeat IPC: 0.8603 cumulative IPC: 0.8243 (Simulation time: 00 hr 18 min 02 sec)
Heartbeat CPU 0 instructions: 119000618 cycles: 94829916 heartbeat IPC: 1.245 cumulative IPC: 0.8263 (Simulation time: 00 hr 18 min 06 sec)
Heartbeat CPU 0 instructions: 119500625 cycles: 95240580 heartbeat IPC: 1.218 cumulative IPC: 0.8283 (Simulation time: 00 hr 18 min 10 sec)
Heartbeat CPU 0 instructions: 120000626 cycles: 95657286 heartbeat IPC: 1.2 cumulative IPC: 0.8301 (Simulation time: 00 hr 18 min 14 sec)
Heartbeat CPU 0 instructions: 120500630 cycles: 96069031 heartbeat IPC: 1.214 cumulative IPC: 0.832 (Simulation time: 00 hr 18 min 18 sec)
Heartbeat CPU 0 instructions: 121000633 cycles: 96487760 heartbeat IPC: 1.194 cumulative IPC: 0.8337 (Simulation time: 00 hr 18 min 22 sec)
Heartbeat CPU 0 instructions: 121500634 cycles: 96904492 heartbeat IPC: 1.2 cumulative IPC: 0.8355 (Simulation time: 00 hr 18 min 26 sec)
Heartbeat CPU 0 instructions: 122000634 cycles: 97316509 heartbeat IPC: 1.214 cumulative IPC: 0.8373 (Simulation time: 00 hr 18 min 29 sec)
Heartbeat CPU 0 instructions: 122500636 cycles: 97721757 heartbeat IPC: 1.234 cumulative IPC: 0.8392 (Simulation time: 00 hr 18 min 33 sec)
Heartbeat CPU 0 instructions: 123000636 cycles: 98129376 heartbeat IPC: 1.227 cumulative IPC: 0.841 (Simulation time: 00 hr 18 min 37 sec)
Heartbeat CPU 0 instructions: 123500636 cycles: 98534275 heartbeat IPC: 1.235 cumulative IPC: 0.8428 (Simulation time: 00 hr 18 min 41 sec)
Heartbeat CPU 0 instructions: 124000640 cycles: 98932244 heartbeat IPC: 1.256 cumulative IPC: 0.8447 (Simulation time: 00 hr 18 min 45 sec)
Heartbeat CPU 0 instructions: 124500641 cycles: 99507249 heartbeat IPC: 0.8696 cumulative IPC: 0.8449 (Simulation time: 00 hr 18 min 50 sec)
Heartbeat CPU 0 instructions: 125000644 cycles: 100353937 heartbeat IPC: 0.5905 cumulative IPC: 0.8425 (Simulation time: 00 hr 18 min 59 sec)
Heartbeat CPU 0 instructions: 125500649 cycles: 101047573 heartbeat IPC: 0.7208 cumulative IPC: 0.8415 (Simulation time: 00 hr 19 min 06 sec)
Heartbeat CPU 0 instructions: 126000650 cycles: 101450489 heartbeat IPC: 1.241 cumulative IPC: 0.8433 (Simulation time: 00 hr 19 min 10 sec)
Heartbeat CPU 0 instructions: 126500655 cycles: 102089659 heartbeat IPC: 0.7823 cumulative IPC: 0.8429 (Simulation time: 00 hr 19 min 17 sec)
Heartbeat CPU 0 instructions: 127000662 cycles: 102619528 heartbeat IPC: 0.9436 cumulative IPC: 0.8435 (Simulation time: 00 hr 19 min 22 sec)
Heartbeat CPU 0 instructions: 127500665 cycles: 103023820 heartbeat IPC: 1.237 cumulative IPC: 0.8452 (Simulation time: 00 hr 19 min 26 sec)
Heartbeat CPU 0 instructions: 128000668 cycles: 103431317 heartbeat IPC: 1.227 cumulative IPC: 0.8469 (Simulation time: 00 hr 19 min 29 sec)
Heartbeat CPU 0 instructions: 128500668 cycles: 103829595 heartbeat IPC: 1.255 cumulative IPC: 0.8487 (Simulation time: 00 hr 19 min 33 sec)
Heartbeat CPU 0 instructions: 129000673 cycles: 104429477 heartbeat IPC: 0.8335 cumulative IPC: 0.8486 (Simulation time: 00 hr 19 min 39 sec)
Heartbeat CPU 0 instructions: 129500673 cycles: 104835711 heartbeat IPC: 1.231 cumulative IPC: 0.8502 (Simulation time: 00 hr 19 min 43 sec)
Heartbeat CPU 0 instructions: 130000674 cycles: 105248551 heartbeat IPC: 1.211 cumulative IPC: 0.8518 (Simulation time: 00 hr 19 min 47 sec)
Heartbeat CPU 0 instructions: 130500677 cycles: 105647015 heartbeat IPC: 1.255 cumulative IPC: 0.8535 (Simulation time: 00 hr 19 min 50 sec)
Heartbeat CPU 0 instructions: 131000682 cycles: 106045699 heartbeat IPC: 1.254 cumulative IPC: 0.8552 (Simulation time: 00 hr 19 min 54 sec)
Heartbeat CPU 0 instructions: 131500684 cycles: 106436210 heartbeat IPC: 1.28 cumulative IPC: 0.8569 (Simulation time: 00 hr 19 min 58 sec)
Heartbeat CPU 0 instructions: 132000684 cycles: 107386666 heartbeat IPC: 0.5261 cumulative IPC: 0.8537 (Simulation time: 00 hr 20 min 07 sec)
Heartbeat CPU 0 instructions: 132500691 cycles: 107786214 heartbeat IPC: 1.251 cumulative IPC: 0.8553 (Simulation time: 00 hr 20 min 11 sec)
Heartbeat CPU 0 instructions: 133000694 cycles: 108549144 heartbeat IPC: 0.6554 cumulative IPC: 0.8537 (Simulation time: 00 hr 20 min 18 sec)
Heartbeat CPU 0 instructions: 133500694 cycles: 108938573 heartbeat IPC: 1.284 cumulative IPC: 0.8555 (Simulation time: 00 hr 20 min 22 sec)
Heartbeat CPU 0 instructions: 134000694 cycles: 109507530 heartbeat IPC: 0.8788 cumulative IPC: 0.8556 (Simulation time: 00 hr 20 min 27 sec)
Heartbeat CPU 0 instructions: 134500694 cycles: 110112709 heartbeat IPC: 0.8262 cumulative IPC: 0.8554 (Simulation time: 00 hr 20 min 33 sec)
Heartbeat CPU 0 instructions: 135000696 cycles: 110855077 heartbeat IPC: 0.6735 cumulative IPC: 0.8541 (Simulation time: 00 hr 20 min 40 sec)
Heartbeat CPU 0 instructions: 135500697 cycles: 111238391 heartbeat IPC: 1.304 cumulative IPC: 0.8558 (Simulation time: 00 hr 20 min 44 sec)
Heartbeat CPU 0 instructions: 136000702 cycles: 111608462 heartbeat IPC: 1.351 cumulative IPC: 0.8576 (Simulation time: 00 hr 20 min 47 sec)
Heartbeat CPU 0 instructions: 136500704 cycles: 112174047 heartbeat IPC: 0.884 cumulative IPC: 0.8578 (Simulation time: 00 hr 20 min 53 sec)
Heartbeat CPU 0 instructions: 137000704 cycles: 112772912 heartbeat IPC: 0.8349 cumulative IPC: 0.8576 (Simulation time: 00 hr 20 min 59 sec)
Heartbeat CPU 0 instructions: 137500709 cycles: 113317365 heartbeat IPC: 0.9184 cumulative IPC: 0.8579 (Simulation time: 00 hr 21 min 04 sec)
Heartbeat CPU 0 instructions: 138000709 cycles: 114045302 heartbeat IPC: 0.6869 cumulative IPC: 0.8567 (Simulation time: 00 hr 21 min 11 sec)
Heartbeat CPU 0 instructions: 138500711 cycles: 114443814 heartbeat IPC: 1.255 cumulative IPC: 0.8583 (Simulation time: 00 hr 21 min 15 sec)
Heartbeat CPU 0 instructions: 139000714 cycles: 114837727 heartbeat IPC: 1.269 cumulative IPC: 0.8598 (Simulation time: 00 hr 21 min 18 sec)
Heartbeat CPU 0 instructions: 139500714 cycles: 115231159 heartbeat IPC: 1.271 cumulative IPC: 0.8614 (Simulation time: 00 hr 21 min 22 sec)
Heartbeat CPU 0 instructions: 140000721 cycles: 115809176 heartbeat IPC: 0.865 cumulative IPC: 0.8614 (Simulation time: 00 hr 21 min 28 sec)
Heartbeat CPU 0 instructions: 140500721 cycles: 116513060 heartbeat IPC: 0.7103 cumulative IPC: 0.8604 (Simulation time: 00 hr 21 min 35 sec)
Heartbeat CPU 0 instructions: 141000726 cycles: 117099470 heartbeat IPC: 0.8527 cumulative IPC: 0.8604 (Simulation time: 00 hr 21 min 40 sec)
Heartbeat CPU 0 instructions: 141500729 cycles: 117675832 heartbeat IPC: 0.8675 cumulative IPC: 0.8604 (Simulation time: 00 hr 21 min 46 sec)
Heartbeat CPU 0 instructions: 142000731 cycles: 118240621 heartbeat IPC: 0.8853 cumulative IPC: 0.8605 (Simulation time: 00 hr 21 min 52 sec)
Heartbeat CPU 0 instructions: 142500734 cycles: 118969165 heartbeat IPC: 0.6863 cumulative IPC: 0.8594 (Simulation time: 00 hr 21 min 58 sec)
Heartbeat CPU 0 instructions: 143000739 cycles: 119533851 heartbeat IPC: 0.8855 cumulative IPC: 0.8595 (Simulation time: 00 hr 22 min 04 sec)
Heartbeat CPU 0 instructions: 143500739 cycles: 119924485 heartbeat IPC: 1.28 cumulative IPC: 0.861 (Simulation time: 00 hr 22 min 08 sec)
Heartbeat CPU 0 instructions: 144000741 cycles: 120345293 heartbeat IPC: 1.188 cumulative IPC: 0.8623 (Simulation time: 00 hr 22 min 12 sec)
Heartbeat CPU 0 instructions: 144500744 cycles: 121146186 heartbeat IPC: 0.6243 cumulative IPC: 0.8605 (Simulation time: 00 hr 22 min 20 sec)
Heartbeat CPU 0 instructions: 145000745 cycles: 121883091 heartbeat IPC: 0.6785 cumulative IPC: 0.8593 (Simulation time: 00 hr 22 min 27 sec)
Heartbeat CPU 0 instructions: 145500745 cycles: 122189191 heartbeat IPC: 1.633 cumulative IPC: 0.8615 (Simulation time: 00 hr 22 min 30 sec)
Heartbeat CPU 0 instructions: 146000746 cycles: 122772765 heartbeat IPC: 0.8568 cumulative IPC: 0.8614 (Simulation time: 00 hr 22 min 36 sec)
Heartbeat CPU 0 instructions: 146500748 cycles: 123167534 heartbeat IPC: 1.267 cumulative IPC: 0.8629 (Simulation time: 00 hr 22 min 40 sec)
Heartbeat CPU 0 instructions: 147000748 cycles: 123567088 heartbeat IPC: 1.251 cumulative IPC: 0.8642 (Simulation time: 00 hr 22 min 43 sec)
Heartbeat CPU 0 instructions: 147500752 cycles: 123964771 heartbeat IPC: 1.257 cumulative IPC: 0.8656 (Simulation time: 00 hr 22 min 47 sec)
Heartbeat CPU 0 instructions: 148000753 cycles: 124357587 heartbeat IPC: 1.273 cumulative IPC: 0.867 (Simulation time: 00 hr 22 min 51 sec)
Heartbeat CPU 0 instructions: 148500754 cycles: 124746619 heartbeat IPC: 1.285 cumulative IPC: 0.8685 (Simulation time: 00 hr 22 min 55 sec)
Heartbeat CPU 0 instructions: 149000754 cycles: 125134895 heartbeat IPC: 1.288 cumulative IPC: 0.8699 (Simulation time: 00 hr 22 min 58 sec)
Heartbeat CPU 0 instructions: 149500755 cycles: 125532632 heartbeat IPC: 1.257 cumulative IPC: 0.8713 (Simulation time: 00 hr 23 min 02 sec)
Heartbeat CPU 0 instructions: 150000755 cycles: 125940125 heartbeat IPC: 1.227 cumulative IPC: 0.8725 (Simulation time: 00 hr 23 min 06 sec)
Heartbeat CPU 0 instructions: 150500762 cycles: 126337650 heartbeat IPC: 1.258 cumulative IPC: 0.8739 (Simulation time: 00 hr 23 min 10 sec)
Heartbeat CPU 0 instructions: 151000763 cycles: 126719663 heartbeat IPC: 1.309 cumulative IPC: 0.8753 (Simulation time: 00 hr 23 min 14 sec)
Heartbeat CPU 0 instructions: 151500765 cycles: 127509857 heartbeat IPC: 0.6328 cumulative IPC: 0.8736 (Simulation time: 00 hr 23 min 21 sec)
Heartbeat CPU 0 instructions: 152000772 cycles: 128430130 heartbeat IPC: 0.5433 cumulative IPC: 0.8711 (Simulation time: 00 hr 23 min 31 sec)
Heartbeat CPU 0 instructions: 152500776 cycles: 129087182 heartbeat IPC: 0.761 cumulative IPC: 0.8704 (Simulation time: 00 hr 23 min 37 sec)
Heartbeat CPU 0 instructions: 153000781 cycles: 129793217 heartbeat IPC: 0.7082 cumulative IPC: 0.8695 (Simulation time: 00 hr 23 min 45 sec)
Heartbeat CPU 0 instructions: 153500781 cycles: 130627464 heartbeat IPC: 0.5993 cumulative IPC: 0.8676 (Simulation time: 00 hr 23 min 52 sec)
Heartbeat CPU 0 instructions: 154000781 cycles: 131038504 heartbeat IPC: 1.216 cumulative IPC: 0.8688 (Simulation time: 00 hr 23 min 56 sec)
Heartbeat CPU 0 instructions: 154500783 cycles: 131445711 heartbeat IPC: 1.228 cumulative IPC: 0.87 (Simulation time: 00 hr 24 min 00 sec)
Heartbeat CPU 0 instructions: 155000783 cycles: 131858473 heartbeat IPC: 1.211 cumulative IPC: 0.8712 (Simulation time: 00 hr 24 min 04 sec)
Heartbeat CPU 0 instructions: 155500784 cycles: 132264678 heartbeat IPC: 1.231 cumulative IPC: 0.8724 (Simulation time: 00 hr 24 min 08 sec)
Heartbeat CPU 0 instructions: 156000786 cycles: 132664906 heartbeat IPC: 1.249 cumulative IPC: 0.8736 (Simulation time: 00 hr 24 min 11 sec)
Heartbeat CPU 0 instructions: 156500786 cycles: 133240027 heartbeat IPC: 0.8694 cumulative IPC: 0.8736 (Simulation time: 00 hr 24 min 17 sec)
Heartbeat CPU 0 instructions: 157000791 cycles: 133656529 heartbeat IPC: 1.2 cumulative IPC: 0.8747 (Simulation time: 00 hr 24 min 21 sec)
Heartbeat CPU 0 instructions: 157500794 cycles: 134070358 heartbeat IPC: 1.208 cumulative IPC: 0.8758 (Simulation time: 00 hr 24 min 25 sec)
Heartbeat CPU 0 instructions: 158000794 cycles: 134485853 heartbeat IPC: 1.203 cumulative IPC: 0.8769 (Simulation time: 00 hr 24 min 28 sec)
Heartbeat CPU 0 instructions: 158500797 cycles: 134900748 heartbeat IPC: 1.205 cumulative IPC: 0.878 (Simulation time: 00 hr 24 min 32 sec)
Heartbeat CPU 0 instructions: 159000801 cycles: 135588805 heartbeat IPC: 0.7267 cumulative IPC: 0.8772 (Simulation time: 00 hr 24 min 39 sec)
Heartbeat CPU 0 instructions: 159500801 cycles: 136302454 heartbeat IPC: 0.7006 cumulative IPC: 0.8762 (Simulation time: 00 hr 24 min 46 sec)
Heartbeat CPU 0 instructions: 160000805 cycles: 137025968 heartbeat IPC: 0.6911 cumulative IPC: 0.8751 (Simulation time: 00 hr 24 min 53 sec)
Heartbeat CPU 0 instructions: 160500809 cycles: 137533348 heartbeat IPC: 0.9855 cumulative IPC: 0.8756 (Simulation time: 00 hr 24 min 58 sec)
Heartbeat CPU 0 instructions: 161000813 cycles: 138127039 heartbeat IPC: 0.8422 cumulative IPC: 0.8754 (Simulation time: 00 hr 25 min 04 sec)
Heartbeat CPU 0 instructions: 161500814 cycles: 138540302 heartbeat IPC: 1.21 cumulative IPC: 0.8765 (Simulation time: 00 hr 25 min 08 sec)
Heartbeat CPU 0 instructions: 162000816 cycles: 138957399 heartbeat IPC: 1.199 cumulative IPC: 0.8776 (Simulation time: 00 hr 25 min 12 sec)
Heartbeat CPU 0 instructions: 162500816 cycles: 139367643 heartbeat IPC: 1.219 cumulative IPC: 0.8786 (Simulation time: 00 hr 25 min 16 sec)
Heartbeat CPU 0 instructions: 163000821 cycles: 139763948 heartbeat IPC: 1.262 cumulative IPC: 0.8798 (Simulation time: 00 hr 25 min 20 sec)
Heartbeat CPU 0 instructions: 163500821 cycles: 140170658 heartbeat IPC: 1.229 cumulative IPC: 0.8809 (Simulation time: 00 hr 25 min 23 sec)
Heartbeat CPU 0 instructions: 164000821 cycles: 140566092 heartbeat IPC: 1.264 cumulative IPC: 0.8821 (Simulation time: 00 hr 25 min 27 sec)
Heartbeat CPU 0 instructions: 164500825 cycles: 140960587 heartbeat IPC: 1.267 cumulative IPC: 0.8833 (Simulation time: 00 hr 25 min 31 sec)
Heartbeat CPU 0 instructions: 165000825 cycles: 141355993 heartbeat IPC: 1.265 cumulative IPC: 0.8844 (Simulation time: 00 hr 25 min 35 sec)
Heartbeat CPU 0 instructions: 165500826 cycles: 141750099 heartbeat IPC: 1.269 cumulative IPC: 0.8856 (Simulation time: 00 hr 25 min 39 sec)
Heartbeat CPU 0 instructions: 166000826 cycles: 142590596 heartbeat IPC: 0.5949 cumulative IPC: 0.8837 (Simulation time: 00 hr 25 min 47 sec)
Heartbeat CPU 0 instructions: 166500829 cycles: 143521435 heartbeat IPC: 0.5372 cumulative IPC: 0.8813 (Simulation time: 00 hr 25 min 57 sec)
Heartbeat CPU 0 instructions: 167000829 cycles: 144050162 heartbeat IPC: 0.9457 cumulative IPC: 0.8816 (Simulation time: 00 hr 26 min 02 sec)
Heartbeat CPU 0 instructions: 167500833 cycles: 144960553 heartbeat IPC: 0.5492 cumulative IPC: 0.8793 (Simulation time: 00 hr 26 min 11 sec)
Heartbeat CPU 0 instructions: 168000840 cycles: 145503262 heartbeat IPC: 0.9213 cumulative IPC: 0.8795 (Simulation time: 00 hr 26 min 16 sec)
Heartbeat CPU 0 instructions: 168500840 cycles: 146066891 heartbeat IPC: 0.8871 cumulative IPC: 0.8795 (Simulation time: 00 hr 26 min 21 sec)
Heartbeat CPU 0 instructions: 169000843 cycles: 146463408 heartbeat IPC: 1.261 cumulative IPC: 0.8806 (Simulation time: 00 hr 26 min 25 sec)
Heartbeat CPU 0 instructions: 169500843 cycles: 146861971 heartbeat IPC: 1.255 cumulative IPC: 0.8817 (Simulation time: 00 hr 26 min 29 sec)
Heartbeat CPU 0 instructions: 170000845 cycles: 147264165 heartbeat IPC: 1.243 cumulative IPC: 0.8828 (Simulation time: 00 hr 26 min 33 sec)
Heartbeat CPU 0 instructions: 170500847 cycles: 147922090 heartbeat IPC: 0.76 cumulative IPC: 0.8822 (Simulation time: 00 hr 26 min 39 sec)
Heartbeat CPU 0 instructions: 171000848 cycles: 148511241 heartbeat IPC: 0.8487 cumulative IPC: 0.882 (Simulation time: 00 hr 26 min 45 sec)
Heartbeat CPU 0 instructions: 171500853 cycles: 149270341 heartbeat IPC: 0.6587 cumulative IPC: 0.8808 (Simulation time: 00 hr 26 min 52 sec)
Heartbeat CPU 0 instructions: 172000860 cycles: 149829614 heartbeat IPC: 0.894 cumulative IPC: 0.8809 (Simulation time: 00 hr 26 min 58 sec)
Heartbeat CPU 0 instructions: 172500861 cycles: 150234763 heartbeat IPC: 1.234 cumulative IPC: 0.8819 (Simulation time: 00 hr 27 min 02 sec)
Heartbeat CPU 0 instructions: 173000862 cycles: 150640624 heartbeat IPC: 1.232 cumulative IPC: 0.8829 (Simulation time: 00 hr 27 min 05 sec)
Heartbeat CPU 0 instructions: 173500862 cycles: 151032851 heartbeat IPC: 1.275 cumulative IPC: 0.884 (Simulation time: 00 hr 27 min 09 sec)
Heartbeat CPU 0 instructions: 174000862 cycles: 151937518 heartbeat IPC: 0.5527 cumulative IPC: 0.8819 (Simulation time: 00 hr 27 min 18 sec)
Heartbeat CPU 0 instructions: 174500866 cycles: 152620520 heartbeat IPC: 0.7321 cumulative IPC: 0.8812 (Simulation time: 00 hr 27 min 25 sec)
Heartbeat CPU 0 instructions: 175000868 cycles: 153210596 heartbeat IPC: 0.8474 cumulative IPC: 0.881 (Simulation time: 00 hr 27 min 31 sec)
Heartbeat CPU 0 instructions: 175500868 cycles: 153608840 heartbeat IPC: 1.256 cumulative IPC: 0.8821 (Simulation time: 00 hr 27 min 34 sec)
Heartbeat CPU 0 instructions: 176000871 cycles: 154252071 heartbeat IPC: 0.7773 cumulative IPC: 0.8816 (Simulation time: 00 hr 27 min 41 sec)
Heartbeat CPU 0 instructions: 176500873 cycles: 155362804 heartbeat IPC: 0.4502 cumulative IPC: 0.8783 (Simulation time: 00 hr 27 min 52 sec)
Heartbeat CPU 0 instructions: 177000874 cycles: 156133215 heartbeat IPC: 0.649 cumulative IPC: 0.8771 (Simulation time: 00 hr 28 min 00 sec)
Heartbeat CPU 0 instructions: 177500877 cycles: 156990285 heartbeat IPC: 0.5834 cumulative IPC: 0.8753 (Simulation time: 00 hr 28 min 08 sec)
Heartbeat CPU 0 instructions: 178000881 cycles: 157576251 heartbeat IPC: 0.8533 cumulative IPC: 0.8752 (Simulation time: 00 hr 28 min 14 sec)
Heartbeat CPU 0 instructions: 178500886 cycles: 157965403 heartbeat IPC: 1.285 cumulative IPC: 0.8763 (Simulation time: 00 hr 28 min 18 sec)
Heartbeat CPU 0 instructions: 179000889 cycles: 158364846 heartbeat IPC: 1.252 cumulative IPC: 0.8773 (Simulation time: 00 hr 28 min 22 sec)
Heartbeat CPU 0 instructions: 179500890 cycles: 158775098 heartbeat IPC: 1.219 cumulative IPC: 0.8783 (Simulation time: 00 hr 28 min 26 sec)
Heartbeat CPU 0 instructions: 180000892 cycles: 159170789 heartbeat IPC: 1.264 cumulative IPC: 0.8793 (Simulation time: 00 hr 28 min 29 sec)
Heartbeat CPU 0 instructions: 180500898 cycles: 159577711 heartbeat IPC: 1.229 cumulative IPC: 0.8803 (Simulation time: 00 hr 28 min 33 sec)
Heartbeat CPU 0 instructions: 181000904 cycles: 159978927 heartbeat IPC: 1.246 cumulative IPC: 0.8813 (Simulation time: 00 hr 28 min 37 sec)
Heartbeat CPU 0 instructions: 181500911 cycles: 160384253 heartbeat IPC: 1.234 cumulative IPC: 0.8822 (Simulation time: 00 hr 28 min 41 sec)
Heartbeat CPU 0 instructions: 182000912 cycles: 160924415 heartbeat IPC: 0.9257 cumulative IPC: 0.8824 (Simulation time: 00 hr 28 min 46 sec)
Heartbeat CPU 0 instructions: 182500917 cycles: 161710384 heartbeat IPC: 0.6362 cumulative IPC: 0.8811 (Simulation time: 00 hr 28 min 54 sec)
Heartbeat CPU 0 instructions: 183000917 cycles: 162725114 heartbeat IPC: 0.4927 cumulative IPC: 0.8785 (Simulation time: 00 hr 29 min 04 sec)
Heartbeat CPU 0 instructions: 183500919 cycles: 163583752 heartbeat IPC: 0.5823 cumulative IPC: 0.8768 (Simulation time: 00 hr 29 min 13 sec)
Heartbeat CPU 0 instructions: 184000919 cycles: 164610649 heartbeat IPC: 0.4869 cumulative IPC: 0.8742 (Simulation time: 00 hr 29 min 24 sec)
Heartbeat CPU 0 instructions: 184500919 cycles: 165448815 heartbeat IPC: 0.5965 cumulative IPC: 0.8727 (Simulation time: 00 hr 29 min 32 sec)
Heartbeat CPU 0 instructions: 185000925 cycles: 166334071 heartbeat IPC: 0.5648 cumulative IPC: 0.8709 (Simulation time: 00 hr 29 min 41 sec)
Heartbeat CPU 0 instructions: 185500925 cycles: 166733410 heartbeat IPC: 1.252 cumulative IPC: 0.8719 (Simulation time: 00 hr 29 min 45 sec)
Heartbeat CPU 0 instructions: 186000929 cycles: 167138240 heartbeat IPC: 1.235 cumulative IPC: 0.8729 (Simulation time: 00 hr 29 min 48 sec)
Heartbeat CPU 0 instructions: 186500931 cycles: 167534079 heartbeat IPC: 1.263 cumulative IPC: 0.8739 (Simulation time: 00 hr 29 min 52 sec)
Heartbeat CPU 0 instructions: 187000933 cycles: 167939535 heartbeat IPC: 1.233 cumulative IPC: 0.8748 (Simulation time: 00 hr 29 min 56 sec)
Heartbeat CPU 0 instructions: 187500933 cycles: 168340552 heartbeat IPC: 1.247 cumulative IPC: 0.8757 (Simulation time: 00 hr 30 min 00 sec)
Heartbeat CPU 0 instructions: 188000935 cycles: 168745152 heartbeat IPC: 1.236 cumulative IPC: 0.8767 (Simulation time: 00 hr 30 min 04 sec)
Heartbeat CPU 0 instructions: 188500937 cycles: 169148912 heartbeat IPC: 1.238 cumulative IPC: 0.8776 (Simulation time: 00 hr 30 min 07 sec)
Heartbeat CPU 0 instructions: 189000939 cycles: 169547845 heartbeat IPC: 1.253 cumulative IPC: 0.8785 (Simulation time: 00 hr 30 min 11 sec)
Heartbeat CPU 0 instructions: 189500939 cycles: 170117588 heartbeat IPC: 0.8776 cumulative IPC: 0.8785 (Simulation time: 00 hr 30 min 17 sec)
Heartbeat CPU 0 instructions: 190000939 cycles: 170682365 heartbeat IPC: 0.8853 cumulative IPC: 0.8786 (Simulation time: 00 hr 30 min 22 sec)
Heartbeat CPU 0 instructions: 190500941 cycles: 171078593 heartbeat IPC: 1.262 cumulative IPC: 0.8795 (Simulation time: 00 hr 30 min 26 sec)
Heartbeat CPU 0 instructions: 191000944 cycles: 171473069 heartbeat IPC: 1.268 cumulative IPC: 0.8805 (Simulation time: 00 hr 30 min 30 sec)
Heartbeat CPU 0 instructions: 191500946 cycles: 172217387 heartbeat IPC: 0.6718 cumulative IPC: 0.8795 (Simulation time: 00 hr 30 min 37 sec)
Heartbeat CPU 0 instructions: 192000951 cycles: 172615833 heartbeat IPC: 1.255 cumulative IPC: 0.8804 (Simulation time: 00 hr 30 min 41 sec)
Heartbeat CPU 0 instructions: 192500951 cycles: 173019329 heartbeat IPC: 1.239 cumulative IPC: 0.8813 (Simulation time: 00 hr 30 min 45 sec)
Heartbeat CPU 0 instructions: 193000955 cycles: 173413733 heartbeat IPC: 1.268 cumulative IPC: 0.8823 (Simulation time: 00 hr 30 min 48 sec)
Heartbeat CPU 0 instructions: 193500957 cycles: 173975112 heartbeat IPC: 0.8907 cumulative IPC: 0.8823 (Simulation time: 00 hr 30 min 54 sec)
Heartbeat CPU 0 instructions: 194000958 cycles: 174698091 heartbeat IPC: 0.6916 cumulative IPC: 0.8814 (Simulation time: 00 hr 31 min 01 sec)
Heartbeat CPU 0 instructions: 194500958 cycles: 175262753 heartbeat IPC: 0.8855 cumulative IPC: 0.8815 (Simulation time: 00 hr 31 min 07 sec)
Heartbeat CPU 0 instructions: 195000960 cycles: 176123973 heartbeat IPC: 0.5806 cumulative IPC: 0.8799 (Simulation time: 00 hr 31 min 15 sec)
Heartbeat CPU 0 instructions: 195500960 cycles: 177018731 heartbeat IPC: 0.5588 cumulative IPC: 0.8782 (Simulation time: 00 hr 31 min 24 sec)
Heartbeat CPU 0 instructions: 196000964 cycles: 177414630 heartbeat IPC: 1.263 cumulative IPC: 0.8791 (Simulation time: 00 hr 31 min 28 sec)
Heartbeat CPU 0 instructions: 196500966 cycles: 178136331 heartbeat IPC: 0.6928 cumulative IPC: 0.8783 (Simulation time: 00 hr 31 min 35 sec)
Heartbeat CPU 0 instructions: 197000973 cycles: 178694361 heartbeat IPC: 0.896 cumulative IPC: 0.8783 (Simulation time: 00 hr 31 min 41 sec)
Heartbeat CPU 0 instructions: 197500974 cycles: 179420013 heartbeat IPC: 0.689 cumulative IPC: 0.8775 (Simulation time: 00 hr 31 min 48 sec)
Heartbeat CPU 0 instructions: 198000976 cycles: 179832164 heartbeat IPC: 1.213 cumulative IPC: 0.8783 (Simulation time: 00 hr 31 min 52 sec)
Heartbeat CPU 0 instructions: 198500979 cycles: 180665443 heartbeat IPC: 0.6 cumulative IPC: 0.877 (Simulation time: 00 hr 32 min 01 sec)
Heartbeat CPU 0 instructions: 199000986 cycles: 181241186 heartbeat IPC: 0.8685 cumulative IPC: 0.8769 (Simulation time: 00 hr 32 min 06 sec)
Heartbeat CPU 0 instructions: 199500990 cycles: 181956395 heartbeat IPC: 0.6991 cumulative IPC: 0.8762 (Simulation time: 00 hr 32 min 13 sec)
Heartbeat CPU 0 instructions: 200000991 cycles: 182361248 heartbeat IPC: 1.235 cumulative IPC: 0.877 (Simulation time: 00 hr 32 min 17 sec)
Heartbeat CPU 0 instructions: 200500992 cycles: 182934912 heartbeat IPC: 0.8716 cumulative IPC: 0.877 (Simulation time: 00 hr 32 min 23 sec)
Heartbeat CPU 0 instructions: 201000994 cycles: 183682369 heartbeat IPC: 0.6689 cumulative IPC: 0.8761 (Simulation time: 00 hr 32 min 30 sec)
Heartbeat CPU 0 instructions: 201500995 cycles: 184253454 heartbeat IPC: 0.8755 cumulative IPC: 0.8761 (Simulation time: 00 hr 32 min 36 sec)
Heartbeat CPU 0 instructions: 202001000 cycles: 184646171 heartbeat IPC: 1.273 cumulative IPC: 0.877 (Simulation time: 00 hr 32 min 39 sec)
Heartbeat CPU 0 instructions: 202501001 cycles: 185173768 heartbeat IPC: 0.9477 cumulative IPC: 0.8772 (Simulation time: 00 hr 32 min 45 sec)
Heartbeat CPU 0 instructions: 203001001 cycles: 185928800 heartbeat IPC: 0.6622 cumulative IPC: 0.8763 (Simulation time: 00 hr 32 min 52 sec)
Heartbeat CPU 0 instructions: 203501004 cycles: 186336916 heartbeat IPC: 1.225 cumulative IPC: 0.8771 (Simulation time: 00 hr 32 min 56 sec)
Heartbeat CPU 0 instructions: 204001008 cycles: 186929811 heartbeat IPC: 0.8433 cumulative IPC: 0.877 (Simulation time: 00 hr 33 min 02 sec)
Heartbeat CPU 0 instructions: 204501011 cycles: 187347657 heartbeat IPC: 1.197 cumulative IPC: 0.8778 (Simulation time: 00 hr 33 min 06 sec)
Heartbeat CPU 0 instructions: 205001011 cycles: 188422741 heartbeat IPC: 0.4651 cumulative IPC: 0.8752 (Simulation time: 00 hr 33 min 17 sec)
Heartbeat CPU 0 instructions: 205501011 cycles: 188842961 heartbeat IPC: 1.19 cumulative IPC: 0.876 (Simulation time: 00 hr 33 min 21 sec)
Heartbeat CPU 0 instructions: 206001014 cycles: 189258418 heartbeat IPC: 1.204 cumulative IPC: 0.8768 (Simulation time: 00 hr 33 min 25 sec)
Heartbeat CPU 0 instructions: 206501020 cycles: 189671827 heartbeat IPC: 1.209 cumulative IPC: 0.8775 (Simulation time: 00 hr 33 min 29 sec)
Heartbeat CPU 0 instructions: 207001022 cycles: 190086186 heartbeat IPC: 1.207 cumulative IPC: 0.8783 (Simulation time: 00 hr 33 min 33 sec)
Heartbeat CPU 0 instructions: 207501022 cycles: 190489055 heartbeat IPC: 1.241 cumulative IPC: 0.8791 (Simulation time: 00 hr 33 min 36 sec)
Heartbeat CPU 0 instructions: 208001025 cycles: 190876639 heartbeat IPC: 1.29 cumulative IPC: 0.88 (Simulation time: 00 hr 33 min 40 sec)
Heartbeat CPU 0 instructions: 208501029 cycles: 191636841 heartbeat IPC: 0.6577 cumulative IPC: 0.8791 (Simulation time: 00 hr 33 min 48 sec)
Heartbeat CPU 0 instructions: 209001029 cycles: 192044990 heartbeat IPC: 1.225 cumulative IPC: 0.8798 (Simulation time: 00 hr 33 min 51 sec)
Heartbeat CPU 0 instructions: 209501029 cycles: 192441742 heartbeat IPC: 1.26 cumulative IPC: 0.8807 (Simulation time: 00 hr 33 min 55 sec)
Heartbeat CPU 0 instructions: 210001029 cycles: 192838063 heartbeat IPC: 1.262 cumulative IPC: 0.8815 (Simulation time: 00 hr 33 min 59 sec)
Heartbeat CPU 0 instructions: 210501034 cycles: 193407392 heartbeat IPC: 0.8782 cumulative IPC: 0.8815 (Simulation time: 00 hr 34 min 04 sec)
Heartbeat CPU 0 instructions: 211001034 cycles: 194123688 heartbeat IPC: 0.698 cumulative IPC: 0.8808 (Simulation time: 00 hr 34 min 12 sec)
Heartbeat CPU 0 instructions: 211501040 cycles: 194676371 heartbeat IPC: 0.9047 cumulative IPC: 0.8808 (Simulation time: 00 hr 34 min 17 sec)
Heartbeat CPU 0 instructions: 212001040 cycles: 195246176 heartbeat IPC: 0.8775 cumulative IPC: 0.8808 (Simulation time: 00 hr 34 min 23 sec)
Heartbeat CPU 0 instructions: 212501040 cycles: 195636217 heartbeat IPC: 1.282 cumulative IPC: 0.8817 (Simulation time: 00 hr 34 min 26 sec)
Heartbeat CPU 0 instructions: 213001044 cycles: 196350384 heartbeat IPC: 0.7001 cumulative IPC: 0.881 (Simulation time: 00 hr 34 min 33 sec)
Heartbeat CPU 0 instructions: 213501047 cycles: 197138693 heartbeat IPC: 0.6343 cumulative IPC: 0.8799 (Simulation time: 00 hr 34 min 42 sec)
Heartbeat CPU 0 instructions: 214001053 cycles: 197807685 heartbeat IPC: 0.7474 cumulative IPC: 0.8795 (Simulation time: 00 hr 34 min 48 sec)
Heartbeat CPU 0 instructions: 214501055 cycles: 198202916 heartbeat IPC: 1.265 cumulative IPC: 0.8803 (Simulation time: 00 hr 34 min 52 sec)
Heartbeat CPU 0 instructions: 215001055 cycles: 198600372 heartbeat IPC: 1.258 cumulative IPC: 0.8811 (Simulation time: 00 hr 34 min 56 sec)
Heartbeat CPU 0 instructions: 215501058 cycles: 199000011 heartbeat IPC: 1.251 cumulative IPC: 0.8819 (Simulation time: 00 hr 35 min 00 sec)
Heartbeat CPU 0 instructions: 216001059 cycles: 199403994 heartbeat IPC: 1.238 cumulative IPC: 0.8826 (Simulation time: 00 hr 35 min 03 sec)
Heartbeat CPU 0 instructions: 216501063 cycles: 199980600 heartbeat IPC: 0.8672 cumulative IPC: 0.8826 (Simulation time: 00 hr 35 min 09 sec)
Heartbeat CPU 0 instructions: 217001064 cycles: 200720814 heartbeat IPC: 0.6755 cumulative IPC: 0.8818 (Simulation time: 00 hr 35 min 16 sec)
Heartbeat CPU 0 instructions: 217501067 cycles: 201110541 heartbeat IPC: 1.283 cumulative IPC: 0.8826 (Simulation time: 00 hr 35 min 20 sec)
Heartbeat CPU 0 instructions: 218001069 cycles: 201493397 heartbeat IPC: 1.306 cumulative IPC: 0.8835 (Simulation time: 00 hr 35 min 24 sec)
Heartbeat CPU 0 instructions: 218501071 cycles: 202131422 heartbeat IPC: 0.7837 cumulative IPC: 0.8831 (Simulation time: 00 hr 35 min 30 sec)
Heartbeat CPU 0 instructions: 219001075 cycles: 202966141 heartbeat IPC: 0.599 cumulative IPC: 0.8819 (Simulation time: 00 hr 35 min 38 sec)
Heartbeat CPU 0 instructions: 219501079 cycles: 203352128 heartbeat IPC: 1.295 cumulative IPC: 0.8827 (Simulation time: 00 hr 35 min 42 sec)
Heartbeat CPU 0 instructions: 220001079 cycles: 204154526 heartbeat IPC: 0.6231 cumulative IPC: 0.8816 (Simulation time: 00 hr 35 min 50 sec)
Heartbeat CPU 0 instructions: 220501079 cycles: 204724931 heartbeat IPC: 0.8766 cumulative IPC: 0.8816 (Simulation time: 00 hr 35 min 55 sec)
Heartbeat CPU 0 instructions: 221001080 cycles: 205113250 heartbeat IPC: 1.288 cumulative IPC: 0.8824 (Simulation time: 00 hr 35 min 59 sec)
Heartbeat CPU 0 instructions: 221501081 cycles: 206018132 heartbeat IPC: 0.5526 cumulative IPC: 0.8809 (Simulation time: 00 hr 36 min 08 sec)
Heartbeat CPU 0 instructions: 222001081 cycles: 206433245 heartbeat IPC: 1.204 cumulative IPC: 0.8816 (Simulation time: 00 hr 36 min 12 sec)
Heartbeat CPU 0 instructions: 222501081 cycles: 207132692 heartbeat IPC: 0.7149 cumulative IPC: 0.881 (Simulation time: 00 hr 36 min 19 sec)
Heartbeat CPU 0 instructions: 223001081 cycles: 207536608 heartbeat IPC: 1.238 cumulative IPC: 0.8817 (Simulation time: 00 hr 36 min 23 sec)
Heartbeat CPU 0 instructions: 223501082 cycles: 207953119 heartbeat IPC: 1.2 cumulative IPC: 0.8824 (Simulation time: 00 hr 36 min 27 sec)
Heartbeat CPU 0 instructions: 224001086 cycles: 208469891 heartbeat IPC: 0.9676 cumulative IPC: 0.8826 (Simulation time: 00 hr 36 min 32 sec)
Heartbeat CPU 0 instructions: 224501086 cycles: 208960895 heartbeat IPC: 1.018 cumulative IPC: 0.883 (Simulation time: 00 hr 36 min 37 sec)
Heartbeat CPU 0 instructions: 225001086 cycles: 209636614 heartbeat IPC: 0.74 cumulative IPC: 0.8825 (Simulation time: 00 hr 36 min 44 sec)
Heartbeat CPU 0 instructions: 225501093 cycles: 210405731 heartbeat IPC: 0.6501 cumulative IPC: 0.8816 (Simulation time: 00 hr 36 min 51 sec)
Heartbeat CPU 0 instructions: 226001094 cycles: 211072351 heartbeat IPC: 0.7501 cumulative IPC: 0.8811 (Simulation time: 00 hr 36 min 58 sec)
Heartbeat CPU 0 instructions: 226501095 cycles: 211847855 heartbeat IPC: 0.6447 cumulative IPC: 0.8802 (Simulation time: 00 hr 37 min 07 sec)
Heartbeat CPU 0 instructions: 227001100 cycles: 212345831 heartbeat IPC: 1.004 cumulative IPC: 0.8805 (Simulation time: 00 hr 37 min 11 sec)
Heartbeat CPU 0 instructions: 227501107 cycles: 212909713 heartbeat IPC: 0.8867 cumulative IPC: 0.8805 (Simulation time: 00 hr 37 min 17 sec)
Heartbeat CPU 0 instructions: 228001109 cycles: 213459548 heartbeat IPC: 0.9094 cumulative IPC: 0.8806 (Simulation time: 00 hr 37 min 22 sec)
Heartbeat CPU 0 instructions: 228501112 cycles: 214232299 heartbeat IPC: 0.647 cumulative IPC: 0.8797 (Simulation time: 00 hr 37 min 29 sec)
Heartbeat CPU 0 instructions: 229001117 cycles: 214610262 heartbeat IPC: 1.323 cumulative IPC: 0.8806 (Simulation time: 00 hr 37 min 33 sec)
Heartbeat CPU 0 instructions: 229501123 cycles: 215503610 heartbeat IPC: 0.5597 cumulative IPC: 0.8792 (Simulation time: 00 hr 37 min 42 sec)
Heartbeat CPU 0 instructions: 230001127 cycles: 216279930 heartbeat IPC: 0.6441 cumulative IPC: 0.8783 (Simulation time: 00 hr 37 min 50 sec)
Heartbeat CPU 0 instructions: 230501129 cycles: 216984313 heartbeat IPC: 0.7098 cumulative IPC: 0.8777 (Simulation time: 00 hr 37 min 57 sec)
Heartbeat CPU 0 instructions: 231001129 cycles: 217689233 heartbeat IPC: 0.7093 cumulative IPC: 0.8771 (Simulation time: 00 hr 38 min 04 sec)
Heartbeat CPU 0 instructions: 231501131 cycles: 218304696 heartbeat IPC: 0.8124 cumulative IPC: 0.8769 (Simulation time: 00 hr 38 min 10 sec)
Heartbeat CPU 0 instructions: 232001131 cycles: 218716929 heartbeat IPC: 1.213 cumulative IPC: 0.8776 (Simulation time: 00 hr 38 min 14 sec)
Heartbeat CPU 0 instructions: 232501131 cycles: 219137961 heartbeat IPC: 1.188 cumulative IPC: 0.8782 (Simulation time: 00 hr 38 min 18 sec)
Heartbeat CPU 0 instructions: 233001133 cycles: 219560548 heartbeat IPC: 1.183 cumulative IPC: 0.8788 (Simulation time: 00 hr 38 min 22 sec)
Heartbeat CPU 0 instructions: 233501137 cycles: 219985088 heartbeat IPC: 1.178 cumulative IPC: 0.8794 (Simulation time: 00 hr 38 min 26 sec)
Heartbeat CPU 0 instructions: 234001137 cycles: 220407554 heartbeat IPC: 1.184 cumulative IPC: 0.8801 (Simulation time: 00 hr 38 min 30 sec)
Heartbeat CPU 0 instructions: 234501139 cycles: 220823873 heartbeat IPC: 1.201 cumulative IPC: 0.8807 (Simulation time: 00 hr 38 min 33 sec)
Heartbeat CPU 0 instructions: 235001144 cycles: 221238169 heartbeat IPC: 1.207 cumulative IPC: 0.8813 (Simulation time: 00 hr 38 min 37 sec)
Heartbeat CPU 0 instructions: 235501144 cycles: 221653222 heartbeat IPC: 1.205 cumulative IPC: 0.882 (Simulation time: 00 hr 38 min 41 sec)
Heartbeat CPU 0 instructions: 236001144 cycles: 222071370 heartbeat IPC: 1.196 cumulative IPC: 0.8826 (Simulation time: 00 hr 38 min 45 sec)
Heartbeat CPU 0 instructions: 236501144 cycles: 222494117 heartbeat IPC: 1.183 cumulative IPC: 0.8832 (Simulation time: 00 hr 38 min 49 sec)
Heartbeat CPU 0 instructions: 237001149 cycles: 222903384 heartbeat IPC: 1.222 cumulative IPC: 0.8839 (Simulation time: 00 hr 38 min 53 sec)
Heartbeat CPU 0 instructions: 237501149 cycles: 223326488 heartbeat IPC: 1.182 cumulative IPC: 0.8845 (Simulation time: 00 hr 38 min 57 sec)
Heartbeat CPU 0 instructions: 238001153 cycles: 223735847 heartbeat IPC: 1.221 cumulative IPC: 0.8851 (Simulation time: 00 hr 39 min 00 sec)
Heartbeat CPU 0 instructions: 238501156 cycles: 224141356 heartbeat IPC: 1.233 cumulative IPC: 0.8858 (Simulation time: 00 hr 39 min 04 sec)
Heartbeat CPU 0 instructions: 239001157 cycles: 224554011 heartbeat IPC: 1.212 cumulative IPC: 0.8864 (Simulation time: 00 hr 39 min 08 sec)
Heartbeat CPU 0 instructions: 239501157 cycles: 224971446 heartbeat IPC: 1.198 cumulative IPC: 0.887 (Simulation time: 00 hr 39 min 12 sec)
Heartbeat CPU 0 instructions: 240001157 cycles: 225397345 heartbeat IPC: 1.174 cumulative IPC: 0.8876 (Simulation time: 00 hr 39 min 16 sec)
Heartbeat CPU 0 instructions: 240501160 cycles: 225816599 heartbeat IPC: 1.193 cumulative IPC: 0.8882 (Simulation time: 00 hr 39 min 20 sec)
Heartbeat CPU 0 instructions: 241001164 cycles: 226232348 heartbeat IPC: 1.203 cumulative IPC: 0.8888 (Simulation time: 00 hr 39 min 23 sec)
Heartbeat CPU 0 instructions: 241501164 cycles: 226656884 heartbeat IPC: 1.178 cumulative IPC: 0.8893 (Simulation time: 00 hr 39 min 27 sec)
Heartbeat CPU 0 instructions: 242001166 cycles: 227077371 heartbeat IPC: 1.189 cumulative IPC: 0.8899 (Simulation time: 00 hr 39 min 31 sec)
Heartbeat CPU 0 instructions: 242501169 cycles: 227496007 heartbeat IPC: 1.194 cumulative IPC: 0.8905 (Simulation time: 00 hr 39 min 35 sec)
Heartbeat CPU 0 instructions: 243001171 cycles: 227908926 heartbeat IPC: 1.211 cumulative IPC: 0.8911 (Simulation time: 00 hr 39 min 39 sec)
Heartbeat CPU 0 instructions: 243501172 cycles: 228315623 heartbeat IPC: 1.229 cumulative IPC: 0.8918 (Simulation time: 00 hr 39 min 43 sec)
Heartbeat CPU 0 instructions: 244001174 cycles: 228726599 heartbeat IPC: 1.217 cumulative IPC: 0.8924 (Simulation time: 00 hr 39 min 46 sec)
Heartbeat CPU 0 instructions: 244501179 cycles: 229143526 heartbeat IPC: 1.199 cumulative IPC: 0.893 (Simulation time: 00 hr 39 min 50 sec)
Heartbeat CPU 0 instructions: 245001180 cycles: 229556498 heartbeat IPC: 1.211 cumulative IPC: 0.8936 (Simulation time: 00 hr 39 min 54 sec)
Heartbeat CPU 0 instructions: 245501187 cycles: 229976422 heartbeat IPC: 1.191 cumulative IPC: 0.8941 (Simulation time: 00 hr 39 min 58 sec)
Heartbeat CPU 0 instructions: 246001189 cycles: 230389327 heartbeat IPC: 1.211 cumulative IPC: 0.8947 (Simulation time: 00 hr 40 min 02 sec)
Heartbeat CPU 0 instructions: 246501191 cycles: 230807565 heartbeat IPC: 1.195 cumulative IPC: 0.8953 (Simulation time: 00 hr 40 min 06 sec)
Heartbeat CPU 0 instructions: 247001192 cycles: 231223160 heartbeat IPC: 1.203 cumulative IPC: 0.8959 (Simulation time: 00 hr 40 min 09 sec)
Heartbeat CPU 0 instructions: 247501192 cycles: 231630611 heartbeat IPC: 1.227 cumulative IPC: 0.8965 (Simulation time: 00 hr 40 min 13 sec)
Heartbeat CPU 0 instructions: 248001193 cycles: 232042089 heartbeat IPC: 1.215 cumulative IPC: 0.8971 (Simulation time: 00 hr 40 min 17 sec)
Heartbeat CPU 0 instructions: 248501195 cycles: 232441185 heartbeat IPC: 1.253 cumulative IPC: 0.8977 (Simulation time: 00 hr 40 min 21 sec)
Heartbeat CPU 0 instructions: 249001195 cycles: 232839753 heartbeat IPC: 1.254 cumulative IPC: 0.8984 (Simulation time: 00 hr 40 min 24 sec)
Heartbeat CPU 0 instructions: 249501200 cycles: 233566544 heartbeat IPC: 0.688 cumulative IPC: 0.8977 (Simulation time: 00 hr 40 min 32 sec)
Simulation finished CPU 0 instructions: 200000000 cycles: 222981027 cumulative IPC: 0.8969 (Simulation time: 00 hr 40 min 39 sec)
Simulation complete CPU 0 instructions: 200000000 cycles: 222981027 cumulative IPC: 0.8969 (Simulation time: 00 hr 40 min 39 sec)

ChampSim completed all CPUs

=== Simulation ===
CPU 0 runs /local-ssd/ben/dpc4-traces/Graph/GMS/gms.k_clique_list_danisch_node_parallel.soc-pokec-relationships.slice-248.champsimstrace.gz

Region of Interest Statistics

CPU 0 cumulative IPC: 0.8969 instructions: 200000000 cycles: 222981027
CPU 0 Branch Prediction Accuracy: 83.01% MPKI: 24.05 Average ROB Occupancy at Mispredict: 17.89
Branch type MPKI
BRANCH_DIRECT_JUMP: 0
BRANCH_INDIRECT: 0
BRANCH_CONDITIONAL: 24.05
BRANCH_DIRECT_CALL: 0
BRANCH_INDIRECT_CALL: 0
BRANCH_RETURN: 0

cpu0->cpu0_STLB TOTAL        ACCESS:    3872995 HIT:    3553112 MISS:     319883 MSHR_MERGE:          0
cpu0->cpu0_STLB LOAD         ACCESS:    3872995 HIT:    3553112 MISS:     319883 MSHR_MERGE:          0
cpu0->cpu0_STLB RFO          ACCESS:          0 HIT:          0 MISS:          0 MSHR_MERGE:          0
cpu0->cpu0_STLB PREFETCH     ACCESS:          0 HIT:          0 MISS:          0 MSHR_MERGE:          0
cpu0->cpu0_STLB WRITE        ACCESS:          0 HIT:          0 MISS:          0 MSHR_MERGE:          0
cpu0->cpu0_STLB TRANSLATION  ACCESS:          0 HIT:          0 MISS:          0 MSHR_MERGE:          0
cpu0->cpu0_STLB PREFETCH REQUESTED:          0 ISSUED:          0 USEFUL:          0 USELESS:          0
cpu0->cpu0_STLB AVERAGE MISS LATENCY: 75.14 cycles
cpu0->cpu0_L2C TOTAL        ACCESS:    7389978 HIT:    4849569 MISS:    2540409 MSHR_MERGE:     122376
cpu0->cpu0_L2C LOAD         ACCESS:    2256377 HIT:    1276251 MISS:     980126 MSHR_MERGE:      23434
cpu0->cpu0_L2C RFO          ACCESS:     161708 HIT:     134033 MISS:      27675 MSHR_MERGE:          0
cpu0->cpu0_L2C PREFETCH     ACCESS:    4506929 HIT:    3041494 MISS:    1465435 MSHR_MERGE:      98942
cpu0->cpu0_L2C WRITE        ACCESS:     210195 HIT:     210170 MISS:         25 MSHR_MERGE:          0
cpu0->cpu0_L2C TRANSLATION  ACCESS:     254769 HIT:     187621 MISS:      67148 MSHR_MERGE:          0
cpu0->cpu0_L2C PREFETCH REQUESTED:    3557751 ISSUED:    3405487 USEFUL:     357151 USELESS:     840717
cpu0->cpu0_L2C AVERAGE MISS LATENCY: 154.3 cycles
cpu0->cpu0_L1I TOTAL        ACCESS:    1525728 HIT:    1525728 MISS:          0 MSHR_MERGE:          0
cpu0->cpu0_L1I LOAD         ACCESS:    1525728 HIT:    1525728 MISS:          0 MSHR_MERGE:          0
cpu0->cpu0_L1I RFO          ACCESS:          0 HIT:          0 MISS:          0 MSHR_MERGE:          0
cpu0->cpu0_L1I PREFETCH     ACCESS:          0 HIT:          0 MISS:          0 MSHR_MERGE:          0
cpu0->cpu0_L1I WRITE        ACCESS:          0 HIT:          0 MISS:          0 MSHR_MERGE:          0
cpu0->cpu0_L1I TRANSLATION  ACCESS:          0 HIT:          0 MISS:          0 MSHR_MERGE:          0
cpu0->cpu0_L1I PREFETCH REQUESTED:          0 ISSUED:          0 USEFUL:          0 USELESS:          0
cpu0->cpu0_L1I AVERAGE MISS LATENCY: - cycles
cpu0->cpu0_L1D TOTAL        ACCESS:   98151716 HIT:   93499768 MISS:    4651948 MSHR_MERGE:     877639
cpu0->cpu0_L1D LOAD         ACCESS:   45111324 HIT:   42150304 MISS:    2961020 MSHR_MERGE:     704637
cpu0->cpu0_L1D RFO          ACCESS:          0 HIT:          0 MISS:          0 MSHR_MERGE:          0
cpu0->cpu0_L1D PREFETCH     ACCESS:   21240339 HIT:   19995260 MISS:    1245079 MSHR_MERGE:     143633
cpu0->cpu0_L1D WRITE        ACCESS:   31148396 HIT:   30959511 MISS:     188885 MSHR_MERGE:      27174
cpu0->cpu0_L1D TRANSLATION  ACCESS:     651657 HIT:     394693 MISS:     256964 MSHR_MERGE:       2195
cpu0->cpu0_L1D PREFETCH REQUESTED:   22052469 ISSUED:   21240333 USEFUL:     100228 USELESS:    1001126
cpu0->cpu0_L1D AVERAGE MISS LATENCY: 70.79 cycles
cpu0->cpu0_ITLB TOTAL        ACCESS:    1425295 HIT:    1425295 MISS:          0 MSHR_MERGE:          0
cpu0->cpu0_ITLB LOAD         ACCESS:    1425295 HIT:    1425295 MISS:          0 MSHR_MERGE:          0
cpu0->cpu0_ITLB RFO          ACCESS:          0 HIT:          0 MISS:          0 MSHR_MERGE:          0
cpu0->cpu0_ITLB PREFETCH     ACCESS:          0 HIT:          0 MISS:          0 MSHR_MERGE:          0
cpu0->cpu0_ITLB WRITE        ACCESS:          0 HIT:          0 MISS:          0 MSHR_MERGE:          0
cpu0->cpu0_ITLB TRANSLATION  ACCESS:          0 HIT:          0 MISS:          0 MSHR_MERGE:          0
cpu0->cpu0_ITLB PREFETCH REQUESTED:          0 ISSUED:          0 USEFUL:          0 USELESS:          0
cpu0->cpu0_ITLB AVERAGE MISS LATENCY: - cycles
cpu0->cpu0_DTLB TOTAL        ACCESS:   89782190 HIT:   85177408 MISS:    4604782 MSHR_MERGE:     731787
cpu0->cpu0_DTLB LOAD         ACCESS:   89782190 HIT:   85177408 MISS:    4604782 MSHR_MERGE:     731787
cpu0->cpu0_DTLB RFO          ACCESS:          0 HIT:          0 MISS:          0 MSHR_MERGE:          0
cpu0->cpu0_DTLB PREFETCH     ACCESS:          0 HIT:          0 MISS:          0 MSHR_MERGE:          0
cpu0->cpu0_DTLB WRITE        ACCESS:          0 HIT:          0 MISS:          0 MSHR_MERGE:          0
cpu0->cpu0_DTLB TRANSLATION  ACCESS:          0 HIT:          0 MISS:          0 MSHR_MERGE:          0
cpu0->cpu0_DTLB PREFETCH REQUESTED:          0 ISSUED:          0 USEFUL:          0 USELESS:          0
cpu0->cpu0_DTLB AVERAGE MISS LATENCY: 11.42 cycles
cpu0->LLC TOTAL        ACCESS:    4163684 HIT:    1954657 MISS:    2209027 MSHR_MERGE:     461127
cpu0->LLC LOAD         ACCESS:     956692 HIT:     485098 MISS:     471594 MSHR_MERGE:         35
cpu0->LLC RFO          ACCESS:      27675 HIT:      18720 MISS:       8955 MSHR_MERGE:          0
cpu0->LLC PREFETCH     ACCESS:    3054815 HIT:    1403713 MISS:    1651102 MSHR_MERGE:     461092
cpu0->LLC WRITE        ACCESS:      57354 HIT:      43019 MISS:      14335 MSHR_MERGE:          0
cpu0->LLC TRANSLATION  ACCESS:      67148 HIT:       4107 MISS:      63041 MSHR_MERGE:          0
cpu0->LLC PREFETCH REQUESTED:    1688327 ISSUED:    1688322 USEFUL:      76436 USELESS:     438233
cpu0->LLC AVERAGE MISS LATENCY: 246.3 cycles

DRAM Statistics

Channel 0 RQ ROW_BUFFER_HIT:       3488
  ROW_BUFFER_MISS:    1729939
  AVG DBUS CONGESTED CYCLE: 11.65
Channel 0 WQ ROW_BUFFER_HIT:       8131
  ROW_BUFFER_MISS:      13702
  FULL:          0
Channel 0 REFRESHES ISSUED:      18580
