[VMEM] WARNING: physical memory size is smaller than virtual memory size.

*** ChampSim Multicore Out-of-Order Simulator ***
Warmup Instructions: 50000000
Simulation Instructions: 200000000
Number of CPUs: 1
Page size: 4096
Core 0: /local-ssd/ben/dpc4-traces/gtraces_v2/merced_0003.champsim.gz
Off-chip DRAM Size: 64 GiB Channels: 1 Width: 64-bit Data Rate: 4807 MT/s
Heartbeat CPU 0 instructions: 500002 cycles: 106501 heartbeat IPC: 4.695 cumulative IPC: 4.695 (Simulation time: 00 hr 00 min 02 sec)
Heartbeat CPU 0 instructions: 1000008 cycles: 208730 heartbeat IPC: 4.891 cumulative IPC: 4.791 (Simulation time: 00 hr 00 min 03 sec)
Heartbeat CPU 0 instructions: 1500010 cycles: 310774 heartbeat IPC: 4.9 cumulative IPC: 4.827 (Simulation time: 00 hr 00 min 05 sec)
Heartbeat CPU 0 instructions: 2000014 cycles: 412939 heartbeat IPC: 4.894 cumulative IPC: 4.843 (Simulation time: 00 hr 00 min 06 sec)
Heartbeat CPU 0 instructions: 2500018 cycles: 514961 heartbeat IPC: 4.901 cumulative IPC: 4.855 (Simulation time: 00 hr 00 min 08 sec)
Heartbeat CPU 0 instructions: 3000020 cycles: 617304 heartbeat IPC: 4.886 cumulative IPC: 4.86 (Simulation time: 00 hr 00 min 09 sec)
Heartbeat CPU 0 instructions: 3500026 cycles: 718790 heartbeat IPC: 4.927 cumulative IPC: 4.869 (Simulation time: 00 hr 00 min 11 sec)
Heartbeat CPU 0 instructions: 4000027 cycles: 820246 heartbeat IPC: 4.928 cumulative IPC: 4.877 (Simulation time: 00 hr 00 min 13 sec)
Heartbeat CPU 0 instructions: 4500027 cycles: 921320 heartbeat IPC: 4.947 cumulative IPC: 4.884 (Simulation time: 00 hr 00 min 14 sec)
Heartbeat CPU 0 instructions: 5000030 cycles: 1060246 heartbeat IPC: 3.599 cumulative IPC: 4.716 (Simulation time: 00 hr 00 min 17 sec)
Heartbeat CPU 0 instructions: 5500030 cycles: 1206620 heartbeat IPC: 3.416 cumulative IPC: 4.558 (Simulation time: 00 hr 00 min 19 sec)
Heartbeat CPU 0 instructions: 6000036 cycles: 1307229 heartbeat IPC: 4.97 cumulative IPC: 4.59 (Simulation time: 00 hr 00 min 21 sec)
Heartbeat CPU 0 instructions: 6500036 cycles: 1407229 heartbeat IPC: 5 cumulative IPC: 4.619 (Simulation time: 00 hr 00 min 23 sec)
Heartbeat CPU 0 instructions: 7000042 cycles: 1507229 heartbeat IPC: 5 cumulative IPC: 4.644 (Simulation time: 00 hr 00 min 24 sec)
Heartbeat CPU 0 instructions: 7500045 cycles: 1607234 heartbeat IPC: 5 cumulative IPC: 4.666 (Simulation time: 00 hr 00 min 26 sec)
Heartbeat CPU 0 instructions: 8000049 cycles: 1707230 heartbeat IPC: 5 cumulative IPC: 4.686 (Simulation time: 00 hr 00 min 28 sec)
Heartbeat CPU 0 instructions: 8500050 cycles: 1807232 heartbeat IPC: 5 cumulative IPC: 4.703 (Simulation time: 00 hr 00 min 29 sec)
Heartbeat CPU 0 instructions: 9000053 cycles: 1907325 heartbeat IPC: 4.995 cumulative IPC: 4.719 (Simulation time: 00 hr 00 min 31 sec)
Heartbeat CPU 0 instructions: 9500056 cycles: 2007324 heartbeat IPC: 5 cumulative IPC: 4.733 (Simulation time: 00 hr 00 min 32 sec)
[BTB] WARNING: target of return is a lower address than the corresponding call. This is usually a problem with your trace.
[BTB] WARNING: target of return is a lower address than the corresponding call. This is usually a problem with your trace.
Heartbeat CPU 0 instructions: 10000058 cycles: 2107747 heartbeat IPC: 4.979 cumulative IPC: 4.744 (Simulation time: 00 hr 00 min 34 sec)
[BTB] WARNING: target of return is a lower address than the corresponding call. This is usually a problem with your trace.
Heartbeat CPU 0 instructions: 10500058 cycles: 2338408 heartbeat IPC: 2.168 cumulative IPC: 4.49 (Simulation time: 00 hr 00 min 39 sec)
[BTB] WARNING: target of return is a lower address than the corresponding call. This is usually a problem with your trace.
Heartbeat CPU 0 instructions: 11000061 cycles: 2487818 heartbeat IPC: 3.347 cumulative IPC: 4.422 (Simulation time: 00 hr 00 min 41 sec)
[BTB] WARNING: target of return is a lower address than the corresponding call. This is usually a problem with your trace.
Heartbeat CPU 0 instructions: 11500067 cycles: 2731095 heartbeat IPC: 2.055 cumulative IPC: 4.211 (Simulation time: 00 hr 00 min 46 sec)
[BTB] WARNING: target of return is a lower address than the corresponding call. This is usually a problem with your trace.
[BTB] WARNING: target of return is a lower address than the corresponding call. This is usually a problem with your trace.
[BTB] WARNING: target of return is a lower address than the corresponding call. This is usually a problem with your trace.
[BTB] WARNING: target of return is a lower address than the corresponding call. This is usually a problem with your trace.
[BTB] WARNING: target of return is a lower address than the corresponding call. This is usually a problem with your trace.
Heartbeat CPU 0 instructions: 12000071 cycles: 2937960 heartbeat IPC: 2.417 cumulative IPC: 4.084 (Simulation time: 00 hr 00 min 50 sec)
Heartbeat CPU 0 instructions: 12500072 cycles: 3079725 heartbeat IPC: 3.527 cumulative IPC: 4.059 (Simulation time: 00 hr 00 min 53 sec)
Heartbeat CPU 0 instructions: 13000073 cycles: 3228019 heartbeat IPC: 3.372 cumulative IPC: 4.027 (Simulation time: 00 hr 00 min 56 sec)
Heartbeat CPU 0 instructions: 13500080 cycles: 3466190 heartbeat IPC: 2.099 cumulative IPC: 3.895 (Simulation time: 00 hr 01 min 00 sec)
Heartbeat CPU 0 instructions: 14000086 cycles: 3598746 heartbeat IPC: 3.772 cumulative IPC: 3.89 (Simulation time: 00 hr 01 min 03 sec)
Heartbeat CPU 0 instructions: 14500092 cycles: 3742278 heartbeat IPC: 3.484 cumulative IPC: 3.875 (Simulation time: 00 hr 01 min 06 sec)
Heartbeat CPU 0 instructions: 15000094 cycles: 3880967 heartbeat IPC: 3.605 cumulative IPC: 3.865 (Simulation time: 00 hr 01 min 08 sec)
Heartbeat CPU 0 instructions: 15500100 cycles: 4068823 heartbeat IPC: 2.662 cumulative IPC: 3.809 (Simulation time: 00 hr 01 min 12 sec)
Heartbeat CPU 0 instructions: 16000104 cycles: 4244011 heartbeat IPC: 2.854 cumulative IPC: 3.77 (Simulation time: 00 hr 01 min 16 sec)
Heartbeat CPU 0 instructions: 16500108 cycles: 4422607 heartbeat IPC: 2.8 cumulative IPC: 3.731 (Simulation time: 00 hr 01 min 19 sec)
Heartbeat CPU 0 instructions: 17000108 cycles: 4549607 heartbeat IPC: 3.937 cumulative IPC: 3.737 (Simulation time: 00 hr 01 min 21 sec)
Heartbeat CPU 0 instructions: 17500115 cycles: 4709324 heartbeat IPC: 3.131 cumulative IPC: 3.716 (Simulation time: 00 hr 01 min 24 sec)
Heartbeat CPU 0 instructions: 18000121 cycles: 4905749 heartbeat IPC: 2.546 cumulative IPC: 3.669 (Simulation time: 00 hr 01 min 28 sec)
Heartbeat CPU 0 instructions: 18500126 cycles: 5055919 heartbeat IPC: 3.33 cumulative IPC: 3.659 (Simulation time: 00 hr 01 min 32 sec)
Heartbeat CPU 0 instructions: 19000128 cycles: 5223145 heartbeat IPC: 2.99 cumulative IPC: 3.638 (Simulation time: 00 hr 01 min 35 sec)
Heartbeat CPU 0 instructions: 19500128 cycles: 5369954 heartbeat IPC: 3.406 cumulative IPC: 3.631 (Simulation time: 00 hr 01 min 38 sec)
Heartbeat CPU 0 instructions: 20000131 cycles: 5534073 heartbeat IPC: 3.047 cumulative IPC: 3.614 (Simulation time: 00 hr 01 min 41 sec)
Heartbeat CPU 0 instructions: 20500137 cycles: 5694593 heartbeat IPC: 3.115 cumulative IPC: 3.6 (Simulation time: 00 hr 01 min 45 sec)
Heartbeat CPU 0 instructions: 21000137 cycles: 5807540 heartbeat IPC: 4.427 cumulative IPC: 3.616 (Simulation time: 00 hr 01 min 47 sec)
Heartbeat CPU 0 instructions: 21500138 cycles: 5955232 heartbeat IPC: 3.385 cumulative IPC: 3.61 (Simulation time: 00 hr 01 min 50 sec)
Heartbeat CPU 0 instructions: 22000138 cycles: 6070544 heartbeat IPC: 4.336 cumulative IPC: 3.624 (Simulation time: 00 hr 01 min 52 sec)
Heartbeat CPU 0 instructions: 22500139 cycles: 6179590 heartbeat IPC: 4.585 cumulative IPC: 3.641 (Simulation time: 00 hr 01 min 54 sec)
Heartbeat CPU 0 instructions: 23000140 cycles: 6283739 heartbeat IPC: 4.801 cumulative IPC: 3.66 (Simulation time: 00 hr 01 min 56 sec)
Heartbeat CPU 0 instructions: 23500140 cycles: 6386170 heartbeat IPC: 4.881 cumulative IPC: 3.68 (Simulation time: 00 hr 01 min 58 sec)
Heartbeat CPU 0 instructions: 24000143 cycles: 6500863 heartbeat IPC: 4.359 cumulative IPC: 3.692 (Simulation time: 00 hr 02 min 01 sec)
Heartbeat CPU 0 instructions: 24500148 cycles: 6607668 heartbeat IPC: 4.681 cumulative IPC: 3.708 (Simulation time: 00 hr 02 min 03 sec)
Heartbeat CPU 0 instructions: 25000149 cycles: 6737032 heartbeat IPC: 3.865 cumulative IPC: 3.711 (Simulation time: 00 hr 02 min 06 sec)
Heartbeat CPU 0 instructions: 25500150 cycles: 6843741 heartbeat IPC: 4.686 cumulative IPC: 3.726 (Simulation time: 00 hr 02 min 08 sec)
Heartbeat CPU 0 instructions: 26000154 cycles: 6951155 heartbeat IPC: 4.655 cumulative IPC: 3.74 (Simulation time: 00 hr 02 min 10 sec)
Heartbeat CPU 0 instructions: 26500159 cycles: 7062356 heartbeat IPC: 4.496 cumulative IPC: 3.752 (Simulation time: 00 hr 02 min 12 sec)
Heartbeat CPU 0 instructions: 27000159 cycles: 7166071 heartbeat IPC: 4.821 cumulative IPC: 3.768 (Simulation time: 00 hr 02 min 14 sec)
Heartbeat CPU 0 instructions: 27500161 cycles: 7268165 heartbeat IPC: 4.897 cumulative IPC: 3.784 (Simulation time: 00 hr 02 min 15 sec)
Heartbeat CPU 0 instructions: 28000168 cycles: 7386000 heartbeat IPC: 4.243 cumulative IPC: 3.791 (Simulation time: 00 hr 02 min 18 sec)
Heartbeat CPU 0 instructions: 28500174 cycles: 7490857 heartbeat IPC: 4.768 cumulative IPC: 3.805 (Simulation time: 00 hr 02 min 20 sec)
Heartbeat CPU 0 instructions: 29000175 cycles: 7591767 heartbeat IPC: 4.955 cumulative IPC: 3.82 (Simulation time: 00 hr 02 min 22 sec)
Heartbeat CPU 0 instructions: 29500182 cycles: 7692447 heartbeat IPC: 4.966 cumulative IPC: 3.835 (Simulation time: 00 hr 02 min 24 sec)
Heartbeat CPU 0 instructions: 30000189 cycles: 7803630 heartbeat IPC: 4.497 cumulative IPC: 3.844 (Simulation time: 00 hr 02 min 26 sec)
Heartbeat CPU 0 instructions: 30500192 cycles: 7910821 heartbeat IPC: 4.665 cumulative IPC: 3.856 (Simulation time: 00 hr 02 min 28 sec)
Heartbeat CPU 0 instructions: 31000199 cycles: 8013941 heartbeat IPC: 4.849 cumulative IPC: 3.868 (Simulation time: 00 hr 02 min 30 sec)
Heartbeat CPU 0 instructions: 31500199 cycles: 8121076 heartbeat IPC: 4.667 cumulative IPC: 3.879 (Simulation time: 00 hr 02 min 32 sec)
Heartbeat CPU 0 instructions: 32000199 cycles: 8243169 heartbeat IPC: 4.095 cumulative IPC: 3.882 (Simulation time: 00 hr 02 min 34 sec)
Heartbeat CPU 0 instructions: 32500200 cycles: 8345661 heartbeat IPC: 4.878 cumulative IPC: 3.894 (Simulation time: 00 hr 02 min 36 sec)
Heartbeat CPU 0 instructions: 33000203 cycles: 8449661 heartbeat IPC: 4.808 cumulative IPC: 3.906 (Simulation time: 00 hr 02 min 39 sec)
Heartbeat CPU 0 instructions: 33500207 cycles: 8552626 heartbeat IPC: 4.856 cumulative IPC: 3.917 (Simulation time: 00 hr 02 min 41 sec)
Heartbeat CPU 0 instructions: 34000209 cycles: 8654517 heartbeat IPC: 4.907 cumulative IPC: 3.929 (Simulation time: 00 hr 02 min 43 sec)
Heartbeat CPU 0 instructions: 34500209 cycles: 8755918 heartbeat IPC: 4.931 cumulative IPC: 3.94 (Simulation time: 00 hr 02 min 45 sec)
Heartbeat CPU 0 instructions: 35000211 cycles: 8861569 heartbeat IPC: 4.733 cumulative IPC: 3.95 (Simulation time: 00 hr 02 min 47 sec)
Heartbeat CPU 0 instructions: 35500216 cycles: 8966676 heartbeat IPC: 4.757 cumulative IPC: 3.959 (Simulation time: 00 hr 02 min 49 sec)
Heartbeat CPU 0 instructions: 36000217 cycles: 9070477 heartbeat IPC: 4.817 cumulative IPC: 3.969 (Simulation time: 00 hr 02 min 51 sec)
Heartbeat CPU 0 instructions: 36500223 cycles: 9171670 heartbeat IPC: 4.941 cumulative IPC: 3.98 (Simulation time: 00 hr 02 min 53 sec)
Heartbeat CPU 0 instructions: 37000224 cycles: 9273287 heartbeat IPC: 4.92 cumulative IPC: 3.99 (Simulation time: 00 hr 02 min 55 sec)
Heartbeat CPU 0 instructions: 37500225 cycles: 9374753 heartbeat IPC: 4.928 cumulative IPC: 4 (Simulation time: 00 hr 02 min 57 sec)
Heartbeat CPU 0 instructions: 38000230 cycles: 9487964 heartbeat IPC: 4.417 cumulative IPC: 4.005 (Simulation time: 00 hr 02 min 59 sec)
Heartbeat CPU 0 instructions: 38500233 cycles: 9597141 heartbeat IPC: 4.58 cumulative IPC: 4.012 (Simulation time: 00 hr 03 min 01 sec)
Heartbeat CPU 0 instructions: 39000238 cycles: 9702699 heartbeat IPC: 4.737 cumulative IPC: 4.02 (Simulation time: 00 hr 03 min 03 sec)
Heartbeat CPU 0 instructions: 39500238 cycles: 9812762 heartbeat IPC: 4.543 cumulative IPC: 4.025 (Simulation time: 00 hr 03 min 06 sec)
Heartbeat CPU 0 instructions: 40000240 cycles: 9916610 heartbeat IPC: 4.815 cumulative IPC: 4.034 (Simulation time: 00 hr 03 min 08 sec)
Heartbeat CPU 0 instructions: 40500241 cycles: 10021627 heartbeat IPC: 4.761 cumulative IPC: 4.041 (Simulation time: 00 hr 03 min 10 sec)
Heartbeat CPU 0 instructions: 41000244 cycles: 10128356 heartbeat IPC: 4.685 cumulative IPC: 4.048 (Simulation time: 00 hr 03 min 12 sec)
Heartbeat CPU 0 instructions: 41500248 cycles: 10238554 heartbeat IPC: 4.537 cumulative IPC: 4.053 (Simulation time: 00 hr 03 min 14 sec)
Heartbeat CPU 0 instructions: 42000252 cycles: 10353486 heartbeat IPC: 4.35 cumulative IPC: 4.057 (Simulation time: 00 hr 03 min 17 sec)
Heartbeat CPU 0 instructions: 42500252 cycles: 10457914 heartbeat IPC: 4.788 cumulative IPC: 4.064 (Simulation time: 00 hr 03 min 19 sec)
Heartbeat CPU 0 instructions: 43000257 cycles: 10570046 heartbeat IPC: 4.459 cumulative IPC: 4.068 (Simulation time: 00 hr 03 min 21 sec)
Heartbeat CPU 0 instructions: 43500262 cycles: 10688932 heartbeat IPC: 4.206 cumulative IPC: 4.07 (Simulation time: 00 hr 03 min 24 sec)
Heartbeat CPU 0 instructions: 44000269 cycles: 10840675 heartbeat IPC: 3.295 cumulative IPC: 4.059 (Simulation time: 00 hr 03 min 27 sec)
Heartbeat CPU 0 instructions: 44500269 cycles: 11001154 heartbeat IPC: 3.116 cumulative IPC: 4.045 (Simulation time: 00 hr 03 min 30 sec)
Heartbeat CPU 0 instructions: 45000271 cycles: 11109121 heartbeat IPC: 4.631 cumulative IPC: 4.051 (Simulation time: 00 hr 03 min 31 sec)
Heartbeat CPU 0 instructions: 45500272 cycles: 11219510 heartbeat IPC: 4.529 cumulative IPC: 4.055 (Simulation time: 00 hr 03 min 33 sec)
Heartbeat CPU 0 instructions: 46000278 cycles: 11329835 heartbeat IPC: 4.532 cumulative IPC: 4.06 (Simulation time: 00 hr 03 min 35 sec)
Heartbeat CPU 0 instructions: 46500284 cycles: 11438483 heartbeat IPC: 4.602 cumulative IPC: 4.065 (Simulation time: 00 hr 03 min 37 sec)
Heartbeat CPU 0 instructions: 47000284 cycles: 11559690 heartbeat IPC: 4.125 cumulative IPC: 4.066 (Simulation time: 00 hr 03 min 39 sec)
Heartbeat CPU 0 instructions: 47500285 cycles: 11719857 heartbeat IPC: 3.122 cumulative IPC: 4.053 (Simulation time: 00 hr 03 min 42 sec)
Heartbeat CPU 0 instructions: 48000286 cycles: 11847260 heartbeat IPC: 3.925 cumulative IPC: 4.052 (Simulation time: 00 hr 03 min 45 sec)
Heartbeat CPU 0 instructions: 48500292 cycles: 11983381 heartbeat IPC: 3.673 cumulative IPC: 4.047 (Simulation time: 00 hr 03 min 48 sec)
Heartbeat CPU 0 instructions: 49000298 cycles: 12108851 heartbeat IPC: 3.985 cumulative IPC: 4.047 (Simulation time: 00 hr 03 min 51 sec)
Heartbeat CPU 0 instructions: 49500302 cycles: 12226278 heartbeat IPC: 4.258 cumulative IPC: 4.049 (Simulation time: 00 hr 03 min 53 sec)
Warmup halting CPU 0 at instruction 50000002 cycle 12370767 for remainder of phase
Warmup finished CPU 0 instructions: 50000002 cycles: 12370767 cumulative IPC: 4.042 (Simulation time: 00 hr 03 min 56 sec)
Warmup complete CPU 0 instructions: 50000002 cycles: 12370767 cumulative IPC: 4.042 (Simulation time: 00 hr 03 min 56 sec)
Heartbeat CPU 0 instructions: 50000302 cycles: 12371643 heartbeat IPC: 3.44 cumulative IPC: 0.3425 (Simulation time: 00 hr 03 min 56 sec)
Heartbeat CPU 0 instructions: 50500307 cycles: 15965454 heartbeat IPC: 0.1391 cumulative IPC: 0.1392 (Simulation time: 00 hr 04 min 36 sec)
Heartbeat CPU 0 instructions: 51000308 cycles: 17518554 heartbeat IPC: 0.3219 cumulative IPC: 0.1943 (Simulation time: 00 hr 04 min 49 sec)
Heartbeat CPU 0 instructions: 51500309 cycles: 18079942 heartbeat IPC: 0.8907 cumulative IPC: 0.2628 (Simulation time: 00 hr 04 min 55 sec)
Heartbeat CPU 0 instructions: 52000312 cycles: 18917216 heartbeat IPC: 0.5972 cumulative IPC: 0.3056 (Simulation time: 00 hr 05 min 01 sec)
Heartbeat CPU 0 instructions: 52500315 cycles: 20003748 heartbeat IPC: 0.4602 cumulative IPC: 0.3276 (Simulation time: 00 hr 05 min 10 sec)
Heartbeat CPU 0 instructions: 53000315 cycles: 20487851 heartbeat IPC: 1.033 cumulative IPC: 0.3696 (Simulation time: 00 hr 05 min 15 sec)
Heartbeat CPU 0 instructions: 53500317 cycles: 21118085 heartbeat IPC: 0.7934 cumulative IPC: 0.4002 (Simulation time: 00 hr 05 min 22 sec)
Heartbeat CPU 0 instructions: 54000317 cycles: 21578049 heartbeat IPC: 1.087 cumulative IPC: 0.4345 (Simulation time: 00 hr 05 min 27 sec)
Heartbeat CPU 0 instructions: 54500320 cycles: 22344380 heartbeat IPC: 0.6525 cumulative IPC: 0.4512 (Simulation time: 00 hr 05 min 34 sec)
Heartbeat CPU 0 instructions: 55000320 cycles: 22870067 heartbeat IPC: 0.9511 cumulative IPC: 0.4763 (Simulation time: 00 hr 05 min 39 sec)
Heartbeat CPU 0 instructions: 55500322 cycles: 23117451 heartbeat IPC: 2.021 cumulative IPC: 0.5118 (Simulation time: 00 hr 05 min 42 sec)
Heartbeat CPU 0 instructions: 56000325 cycles: 23767071 heartbeat IPC: 0.7697 cumulative IPC: 0.5265 (Simulation time: 00 hr 05 min 48 sec)
Heartbeat CPU 0 instructions: 56500325 cycles: 24898480 heartbeat IPC: 0.4419 cumulative IPC: 0.5189 (Simulation time: 00 hr 05 min 57 sec)
Heartbeat CPU 0 instructions: 57000325 cycles: 25948261 heartbeat IPC: 0.4763 cumulative IPC: 0.5156 (Simulation time: 00 hr 06 min 06 sec)
Heartbeat CPU 0 instructions: 57500332 cycles: 27404641 heartbeat IPC: 0.3433 cumulative IPC: 0.4989 (Simulation time: 00 hr 06 min 17 sec)
Heartbeat CPU 0 instructions: 58000332 cycles: 28162378 heartbeat IPC: 0.6599 cumulative IPC: 0.5066 (Simulation time: 00 hr 06 min 24 sec)
Heartbeat CPU 0 instructions: 58500332 cycles: 28570933 heartbeat IPC: 1.224 cumulative IPC: 0.5247 (Simulation time: 00 hr 06 min 28 sec)
Heartbeat CPU 0 instructions: 59000337 cycles: 29551971 heartbeat IPC: 0.5097 cumulative IPC: 0.5238 (Simulation time: 00 hr 06 min 37 sec)
Heartbeat CPU 0 instructions: 59500338 cycles: 29907996 heartbeat IPC: 1.404 cumulative IPC: 0.5417 (Simulation time: 00 hr 06 min 40 sec)
Heartbeat CPU 0 instructions: 60000339 cycles: 30308571 heartbeat IPC: 1.248 cumulative IPC: 0.5575 (Simulation time: 00 hr 06 min 45 sec)
Heartbeat CPU 0 instructions: 60500340 cycles: 31168722 heartbeat IPC: 0.5813 cumulative IPC: 0.5586 (Simulation time: 00 hr 06 min 52 sec)
Heartbeat CPU 0 instructions: 61000344 cycles: 32587646 heartbeat IPC: 0.3524 cumulative IPC: 0.5441 (Simulation time: 00 hr 07 min 04 sec)
Heartbeat CPU 0 instructions: 61500344 cycles: 32980591 heartbeat IPC: 1.272 cumulative IPC: 0.558 (Simulation time: 00 hr 07 min 09 sec)
Heartbeat CPU 0 instructions: 62000345 cycles: 34033170 heartbeat IPC: 0.475 cumulative IPC: 0.554 (Simulation time: 00 hr 07 min 18 sec)
Heartbeat CPU 0 instructions: 62500349 cycles: 35694042 heartbeat IPC: 0.301 cumulative IPC: 0.536 (Simulation time: 00 hr 07 min 31 sec)
Heartbeat CPU 0 instructions: 63000356 cycles: 36618305 heartbeat IPC: 0.541 cumulative IPC: 0.5362 (Simulation time: 00 hr 07 min 39 sec)
Heartbeat CPU 0 instructions: 63500356 cycles: 38859956 heartbeat IPC: 0.223 cumulative IPC: 0.5097 (Simulation time: 00 hr 07 min 56 sec)
Heartbeat CPU 0 instructions: 64000357 cycles: 41613380 heartbeat IPC: 0.1816 cumulative IPC: 0.4788 (Simulation time: 00 hr 08 min 16 sec)
Heartbeat CPU 0 instructions: 64500360 cycles: 42703997 heartbeat IPC: 0.4585 cumulative IPC: 0.478 (Simulation time: 00 hr 08 min 25 sec)
Heartbeat CPU 0 instructions: 65000360 cycles: 43936821 heartbeat IPC: 0.4056 cumulative IPC: 0.4752 (Simulation time: 00 hr 08 min 35 sec)
Heartbeat CPU 0 instructions: 65500363 cycles: 46076348 heartbeat IPC: 0.2337 cumulative IPC: 0.4599 (Simulation time: 00 hr 08 min 51 sec)
Heartbeat CPU 0 instructions: 66000364 cycles: 47028850 heartbeat IPC: 0.5249 cumulative IPC: 0.4617 (Simulation time: 00 hr 08 min 59 sec)
Heartbeat CPU 0 instructions: 66500365 cycles: 47555898 heartbeat IPC: 0.9487 cumulative IPC: 0.469 (Simulation time: 00 hr 09 min 04 sec)
Heartbeat CPU 0 instructions: 67000367 cycles: 48336999 heartbeat IPC: 0.6401 cumulative IPC: 0.4727 (Simulation time: 00 hr 09 min 12 sec)
Heartbeat CPU 0 instructions: 67500367 cycles: 48962334 heartbeat IPC: 0.7996 cumulative IPC: 0.4783 (Simulation time: 00 hr 09 min 19 sec)
Heartbeat CPU 0 instructions: 68000367 cycles: 50107688 heartbeat IPC: 0.4365 cumulative IPC: 0.477 (Simulation time: 00 hr 09 min 28 sec)
Heartbeat CPU 0 instructions: 68500368 cycles: 52345696 heartbeat IPC: 0.2234 cumulative IPC: 0.4628 (Simulation time: 00 hr 09 min 45 sec)
Heartbeat CPU 0 instructions: 69000368 cycles: 53584105 heartbeat IPC: 0.4037 cumulative IPC: 0.461 (Simulation time: 00 hr 09 min 56 sec)
Heartbeat CPU 0 instructions: 69500368 cycles: 53838791 heartbeat IPC: 1.963 cumulative IPC: 0.4703 (Simulation time: 00 hr 09 min 59 sec)
Heartbeat CPU 0 instructions: 70000368 cycles: 54056446 heartbeat IPC: 2.297 cumulative IPC: 0.4798 (Simulation time: 00 hr 10 min 02 sec)
Heartbeat CPU 0 instructions: 70500370 cycles: 54273572 heartbeat IPC: 2.303 cumulative IPC: 0.4892 (Simulation time: 00 hr 10 min 05 sec)
Heartbeat CPU 0 instructions: 71000375 cycles: 55407812 heartbeat IPC: 0.4408 cumulative IPC: 0.488 (Simulation time: 00 hr 10 min 14 sec)
Heartbeat CPU 0 instructions: 71500375 cycles: 57053467 heartbeat IPC: 0.3038 cumulative IPC: 0.4812 (Simulation time: 00 hr 10 min 27 sec)
Heartbeat CPU 0 instructions: 72000375 cycles: 58105682 heartbeat IPC: 0.4752 cumulative IPC: 0.481 (Simulation time: 00 hr 10 min 37 sec)
Heartbeat CPU 0 instructions: 72500375 cycles: 59565905 heartbeat IPC: 0.3424 cumulative IPC: 0.4768 (Simulation time: 00 hr 10 min 49 sec)
Heartbeat CPU 0 instructions: 73000382 cycles: 60967460 heartbeat IPC: 0.3568 cumulative IPC: 0.4733 (Simulation time: 00 hr 10 min 59 sec)
Heartbeat CPU 0 instructions: 73500383 cycles: 63033398 heartbeat IPC: 0.242 cumulative IPC: 0.4639 (Simulation time: 00 hr 11 min 15 sec)
Heartbeat CPU 0 instructions: 74000389 cycles: 63551202 heartbeat IPC: 0.9656 cumulative IPC: 0.4689 (Simulation time: 00 hr 11 min 20 sec)
Heartbeat CPU 0 instructions: 74500389 cycles: 64364375 heartbeat IPC: 0.6149 cumulative IPC: 0.4712 (Simulation time: 00 hr 11 min 27 sec)
Heartbeat CPU 0 instructions: 75000390 cycles: 64712602 heartbeat IPC: 1.436 cumulative IPC: 0.4776 (Simulation time: 00 hr 11 min 31 sec)
Heartbeat CPU 0 instructions: 75500392 cycles: 65004210 heartbeat IPC: 1.715 cumulative IPC: 0.4845 (Simulation time: 00 hr 11 min 34 sec)
Heartbeat CPU 0 instructions: 76000392 cycles: 65350936 heartbeat IPC: 1.442 cumulative IPC: 0.4908 (Simulation time: 00 hr 11 min 38 sec)
Heartbeat CPU 0 instructions: 76500392 cycles: 65837351 heartbeat IPC: 1.028 cumulative IPC: 0.4956 (Simulation time: 00 hr 11 min 43 sec)
Heartbeat CPU 0 instructions: 77000394 cycles: 66117363 heartbeat IPC: 1.786 cumulative IPC: 0.5024 (Simulation time: 00 hr 11 min 47 sec)
Heartbeat CPU 0 instructions: 77500399 cycles: 66392100 heartbeat IPC: 1.82 cumulative IPC: 0.5091 (Simulation time: 00 hr 11 min 50 sec)
Heartbeat CPU 0 instructions: 78000404 cycles: 66653172 heartbeat IPC: 1.915 cumulative IPC: 0.5158 (Simulation time: 00 hr 11 min 54 sec)
Heartbeat CPU 0 instructions: 78500409 cycles: 67902387 heartbeat IPC: 0.4003 cumulative IPC: 0.5132 (Simulation time: 00 hr 12 min 04 sec)
Heartbeat CPU 0 instructions: 79000409 cycles: 70075893 heartbeat IPC: 0.23 cumulative IPC: 0.5026 (Simulation time: 00 hr 12 min 20 sec)
Heartbeat CPU 0 instructions: 79500410 cycles: 71760292 heartbeat IPC: 0.2968 cumulative IPC: 0.4967 (Simulation time: 00 hr 12 min 34 sec)
Heartbeat CPU 0 instructions: 80000416 cycles: 73018607 heartbeat IPC: 0.3974 cumulative IPC: 0.4947 (Simulation time: 00 hr 12 min 44 sec)
Heartbeat CPU 0 instructions: 80500418 cycles: 73919505 heartbeat IPC: 0.555 cumulative IPC: 0.4955 (Simulation time: 00 hr 12 min 52 sec)
Heartbeat CPU 0 instructions: 81000418 cycles: 74623941 heartbeat IPC: 0.7098 cumulative IPC: 0.498 (Simulation time: 00 hr 12 min 58 sec)
Heartbeat CPU 0 instructions: 81500419 cycles: 75083797 heartbeat IPC: 1.087 cumulative IPC: 0.5023 (Simulation time: 00 hr 13 min 03 sec)
Heartbeat CPU 0 instructions: 82000421 cycles: 76564415 heartbeat IPC: 0.3377 cumulative IPC: 0.4985 (Simulation time: 00 hr 13 min 15 sec)
Heartbeat CPU 0 instructions: 82500423 cycles: 78273008 heartbeat IPC: 0.2926 cumulative IPC: 0.4932 (Simulation time: 00 hr 13 min 28 sec)
Heartbeat CPU 0 instructions: 83000423 cycles: 80331544 heartbeat IPC: 0.2429 cumulative IPC: 0.4856 (Simulation time: 00 hr 13 min 44 sec)
Heartbeat CPU 0 instructions: 83500426 cycles: 82122260 heartbeat IPC: 0.2792 cumulative IPC: 0.4803 (Simulation time: 00 hr 13 min 58 sec)
Heartbeat CPU 0 instructions: 84000430 cycles: 82974641 heartbeat IPC: 0.5866 cumulative IPC: 0.4816 (Simulation time: 00 hr 14 min 05 sec)
Heartbeat CPU 0 instructions: 84500435 cycles: 83549042 heartbeat IPC: 0.8705 cumulative IPC: 0.4847 (Simulation time: 00 hr 14 min 11 sec)
Heartbeat CPU 0 instructions: 85000435 cycles: 84673763 heartbeat IPC: 0.4446 cumulative IPC: 0.4841 (Simulation time: 00 hr 14 min 20 sec)
Heartbeat CPU 0 instructions: 85500435 cycles: 86086224 heartbeat IPC: 0.354 cumulative IPC: 0.4816 (Simulation time: 00 hr 14 min 32 sec)
Heartbeat CPU 0 instructions: 86000435 cycles: 87185074 heartbeat IPC: 0.455 cumulative IPC: 0.4812 (Simulation time: 00 hr 14 min 42 sec)
Heartbeat CPU 0 instructions: 86500439 cycles: 88403398 heartbeat IPC: 0.4104 cumulative IPC: 0.4801 (Simulation time: 00 hr 14 min 52 sec)
Heartbeat CPU 0 instructions: 87000440 cycles: 89996983 heartbeat IPC: 0.3138 cumulative IPC: 0.4766 (Simulation time: 00 hr 15 min 05 sec)
Heartbeat CPU 0 instructions: 87500440 cycles: 90588236 heartbeat IPC: 0.8457 cumulative IPC: 0.4794 (Simulation time: 00 hr 15 min 11 sec)
Heartbeat CPU 0 instructions: 88000440 cycles: 91001339 heartbeat IPC: 1.21 cumulative IPC: 0.4833 (Simulation time: 00 hr 15 min 15 sec)
Heartbeat CPU 0 instructions: 88500441 cycles: 91550438 heartbeat IPC: 0.9106 cumulative IPC: 0.4862 (Simulation time: 00 hr 15 min 20 sec)
Heartbeat CPU 0 instructions: 89000442 cycles: 92172709 heartbeat IPC: 0.8035 cumulative IPC: 0.4887 (Simulation time: 00 hr 15 min 26 sec)
Heartbeat CPU 0 instructions: 89500449 cycles: 93940041 heartbeat IPC: 0.2829 cumulative IPC: 0.4843 (Simulation time: 00 hr 15 min 40 sec)
Heartbeat CPU 0 instructions: 90000450 cycles: 94597485 heartbeat IPC: 0.7605 cumulative IPC: 0.4865 (Simulation time: 00 hr 15 min 46 sec)
Heartbeat CPU 0 instructions: 90500450 cycles: 95936128 heartbeat IPC: 0.3735 cumulative IPC: 0.4847 (Simulation time: 00 hr 15 min 57 sec)
Heartbeat CPU 0 instructions: 91000450 cycles: 96564893 heartbeat IPC: 0.7952 cumulative IPC: 0.487 (Simulation time: 00 hr 16 min 03 sec)
Heartbeat CPU 0 instructions: 91500452 cycles: 98452817 heartbeat IPC: 0.2648 cumulative IPC: 0.4821 (Simulation time: 00 hr 16 min 18 sec)
Heartbeat CPU 0 instructions: 92000458 cycles: 99448365 heartbeat IPC: 0.5022 cumulative IPC: 0.4823 (Simulation time: 00 hr 16 min 27 sec)
Heartbeat CPU 0 instructions: 92500459 cycles: 101282201 heartbeat IPC: 0.2727 cumulative IPC: 0.478 (Simulation time: 00 hr 16 min 42 sec)
Heartbeat CPU 0 instructions: 93000459 cycles: 102383889 heartbeat IPC: 0.4538 cumulative IPC: 0.4777 (Simulation time: 00 hr 16 min 51 sec)
Heartbeat CPU 0 instructions: 93500459 cycles: 102830352 heartbeat IPC: 1.12 cumulative IPC: 0.4809 (Simulation time: 00 hr 16 min 56 sec)
Heartbeat CPU 0 instructions: 94000464 cycles: 103349575 heartbeat IPC: 0.963 cumulative IPC: 0.4836 (Simulation time: 00 hr 17 min 00 sec)
Heartbeat CPU 0 instructions: 94500464 cycles: 103570267 heartbeat IPC: 2.266 cumulative IPC: 0.4879 (Simulation time: 00 hr 17 min 02 sec)
Heartbeat CPU 0 instructions: 95000464 cycles: 103784433 heartbeat IPC: 2.335 cumulative IPC: 0.4923 (Simulation time: 00 hr 17 min 05 sec)
Heartbeat CPU 0 instructions: 95500464 cycles: 104488265 heartbeat IPC: 0.7104 cumulative IPC: 0.4939 (Simulation time: 00 hr 17 min 11 sec)
Heartbeat CPU 0 instructions: 96000470 cycles: 104796625 heartbeat IPC: 1.622 cumulative IPC: 0.4977 (Simulation time: 00 hr 17 min 14 sec)
Heartbeat CPU 0 instructions: 96500474 cycles: 105586093 heartbeat IPC: 0.6333 cumulative IPC: 0.4989 (Simulation time: 00 hr 17 min 21 sec)
Heartbeat CPU 0 instructions: 97000478 cycles: 105957428 heartbeat IPC: 1.347 cumulative IPC: 0.5022 (Simulation time: 00 hr 17 min 25 sec)
Heartbeat CPU 0 instructions: 97500481 cycles: 106619518 heartbeat IPC: 0.7552 cumulative IPC: 0.504 (Simulation time: 00 hr 17 min 31 sec)
Heartbeat CPU 0 instructions: 98000482 cycles: 107353794 heartbeat IPC: 0.6809 cumulative IPC: 0.5054 (Simulation time: 00 hr 17 min 38 sec)
Heartbeat CPU 0 instructions: 98500485 cycles: 107764808 heartbeat IPC: 1.217 cumulative IPC: 0.5084 (Simulation time: 00 hr 17 min 42 sec)
Heartbeat CPU 0 instructions: 99000489 cycles: 108349045 heartbeat IPC: 0.8558 cumulative IPC: 0.5105 (Simulation time: 00 hr 17 min 47 sec)
Heartbeat CPU 0 instructions: 99500494 cycles: 108936961 heartbeat IPC: 0.8505 cumulative IPC: 0.5126 (Simulation time: 00 hr 17 min 53 sec)
Heartbeat CPU 0 instructions: 100000494 cycles: 109686473 heartbeat IPC: 0.6671 cumulative IPC: 0.5138 (Simulation time: 00 hr 17 min 59 sec)
Heartbeat CPU 0 instructions: 100500494 cycles: 110432989 heartbeat IPC: 0.6698 cumulative IPC: 0.515 (Simulation time: 00 hr 18 min 05 sec)
Heartbeat CPU 0 instructions: 101000494 cycles: 110620945 heartbeat IPC: 2.66 cumulative IPC: 0.5191 (Simulation time: 00 hr 18 min 08 sec)
Heartbeat CPU 0 instructions: 101500494 cycles: 110852675 heartbeat IPC: 2.158 cumulative IPC: 0.5229 (Simulation time: 00 hr 18 min 10 sec)
Heartbeat CPU 0 instructions: 102000494 cycles: 111593476 heartbeat IPC: 0.6749 cumulative IPC: 0.5241 (Simulation time: 00 hr 18 min 17 sec)
Heartbeat CPU 0 instructions: 102500496 cycles: 113107462 heartbeat IPC: 0.3303 cumulative IPC: 0.5212 (Simulation time: 00 hr 18 min 29 sec)
Heartbeat CPU 0 instructions: 103000497 cycles: 114217766 heartbeat IPC: 0.4503 cumulative IPC: 0.5204 (Simulation time: 00 hr 18 min 38 sec)
Heartbeat CPU 0 instructions: 103500497 cycles: 114571903 heartbeat IPC: 1.412 cumulative IPC: 0.5235 (Simulation time: 00 hr 18 min 42 sec)
Heartbeat CPU 0 instructions: 104000498 cycles: 116537139 heartbeat IPC: 0.2544 cumulative IPC: 0.5184 (Simulation time: 00 hr 18 min 57 sec)
Heartbeat CPU 0 instructions: 104500500 cycles: 118251028 heartbeat IPC: 0.2917 cumulative IPC: 0.5147 (Simulation time: 00 hr 19 min 10 sec)
Heartbeat CPU 0 instructions: 105000502 cycles: 118726776 heartbeat IPC: 1.051 cumulative IPC: 0.5171 (Simulation time: 00 hr 19 min 15 sec)
Heartbeat CPU 0 instructions: 105500502 cycles: 119461495 heartbeat IPC: 0.6805 cumulative IPC: 0.5183 (Simulation time: 00 hr 19 min 22 sec)
Heartbeat CPU 0 instructions: 106000506 cycles: 120550581 heartbeat IPC: 0.4591 cumulative IPC: 0.5177 (Simulation time: 00 hr 19 min 31 sec)
Heartbeat CPU 0 instructions: 106500507 cycles: 121002270 heartbeat IPC: 1.107 cumulative IPC: 0.5201 (Simulation time: 00 hr 19 min 35 sec)
Heartbeat CPU 0 instructions: 107000507 cycles: 122729495 heartbeat IPC: 0.2895 cumulative IPC: 0.5165 (Simulation time: 00 hr 19 min 49 sec)
Heartbeat CPU 0 instructions: 107500511 cycles: 122972569 heartbeat IPC: 2.057 cumulative IPC: 0.5199 (Simulation time: 00 hr 19 min 52 sec)
Heartbeat CPU 0 instructions: 108000512 cycles: 124377324 heartbeat IPC: 0.3559 cumulative IPC: 0.5178 (Simulation time: 00 hr 20 min 03 sec)
Heartbeat CPU 0 instructions: 108500512 cycles: 125857744 heartbeat IPC: 0.3377 cumulative IPC: 0.5155 (Simulation time: 00 hr 20 min 14 sec)
Heartbeat CPU 0 instructions: 109000515 cycles: 126293998 heartbeat IPC: 1.146 cumulative IPC: 0.5179 (Simulation time: 00 hr 20 min 18 sec)
Heartbeat CPU 0 instructions: 109500515 cycles: 126614630 heartbeat IPC: 1.559 cumulative IPC: 0.5208 (Simulation time: 00 hr 20 min 22 sec)
Heartbeat CPU 0 instructions: 110000515 cycles: 127432831 heartbeat IPC: 0.6111 cumulative IPC: 0.5215 (Simulation time: 00 hr 20 min 29 sec)
Heartbeat CPU 0 instructions: 110500520 cycles: 128376568 heartbeat IPC: 0.5298 cumulative IPC: 0.5215 (Simulation time: 00 hr 20 min 36 sec)
Heartbeat CPU 0 instructions: 111000520 cycles: 130394062 heartbeat IPC: 0.2478 cumulative IPC: 0.5169 (Simulation time: 00 hr 20 min 51 sec)
Heartbeat CPU 0 instructions: 111500521 cycles: 130885215 heartbeat IPC: 1.018 cumulative IPC: 0.5189 (Simulation time: 00 hr 20 min 55 sec)
Heartbeat CPU 0 instructions: 112000525 cycles: 131060644 heartbeat IPC: 2.85 cumulative IPC: 0.5224 (Simulation time: 00 hr 20 min 57 sec)
Heartbeat CPU 0 instructions: 112500525 cycles: 131219773 heartbeat IPC: 3.142 cumulative IPC: 0.5259 (Simulation time: 00 hr 20 min 59 sec)
Heartbeat CPU 0 instructions: 113000526 cycles: 131390167 heartbeat IPC: 2.934 cumulative IPC: 0.5293 (Simulation time: 00 hr 21 min 01 sec)
Heartbeat CPU 0 instructions: 113500527 cycles: 133076735 heartbeat IPC: 0.2965 cumulative IPC: 0.5261 (Simulation time: 00 hr 21 min 14 sec)
Heartbeat CPU 0 instructions: 114000531 cycles: 133889515 heartbeat IPC: 0.6152 cumulative IPC: 0.5267 (Simulation time: 00 hr 21 min 21 sec)
Heartbeat CPU 0 instructions: 114500533 cycles: 135564643 heartbeat IPC: 0.2985 cumulative IPC: 0.5236 (Simulation time: 00 hr 21 min 35 sec)
Heartbeat CPU 0 instructions: 115000536 cycles: 137376864 heartbeat IPC: 0.2759 cumulative IPC: 0.52 (Simulation time: 00 hr 21 min 50 sec)
Heartbeat CPU 0 instructions: 115500536 cycles: 138573502 heartbeat IPC: 0.4178 cumulative IPC: 0.519 (Simulation time: 00 hr 22 min 00 sec)
Heartbeat CPU 0 instructions: 116000537 cycles: 139637053 heartbeat IPC: 0.4701 cumulative IPC: 0.5186 (Simulation time: 00 hr 22 min 09 sec)
Heartbeat CPU 0 instructions: 116500537 cycles: 141489466 heartbeat IPC: 0.2699 cumulative IPC: 0.515 (Simulation time: 00 hr 22 min 23 sec)
Heartbeat CPU 0 instructions: 117000544 cycles: 142622342 heartbeat IPC: 0.4414 cumulative IPC: 0.5144 (Simulation time: 00 hr 22 min 32 sec)
Heartbeat CPU 0 instructions: 117500547 cycles: 143694505 heartbeat IPC: 0.4663 cumulative IPC: 0.514 (Simulation time: 00 hr 22 min 42 sec)
Heartbeat CPU 0 instructions: 118000550 cycles: 144556944 heartbeat IPC: 0.5798 cumulative IPC: 0.5144 (Simulation time: 00 hr 22 min 49 sec)
Heartbeat CPU 0 instructions: 118500551 cycles: 145068490 heartbeat IPC: 0.9774 cumulative IPC: 0.5162 (Simulation time: 00 hr 22 min 54 sec)
Heartbeat CPU 0 instructions: 119000554 cycles: 145695909 heartbeat IPC: 0.7969 cumulative IPC: 0.5175 (Simulation time: 00 hr 23 min 01 sec)
Heartbeat CPU 0 instructions: 119500555 cycles: 146824614 heartbeat IPC: 0.443 cumulative IPC: 0.5169 (Simulation time: 00 hr 23 min 10 sec)
Heartbeat CPU 0 instructions: 120000557 cycles: 148009379 heartbeat IPC: 0.422 cumulative IPC: 0.5161 (Simulation time: 00 hr 23 min 20 sec)
Heartbeat CPU 0 instructions: 120500559 cycles: 149248014 heartbeat IPC: 0.4037 cumulative IPC: 0.5151 (Simulation time: 00 hr 23 min 30 sec)
Heartbeat CPU 0 instructions: 121000560 cycles: 150776104 heartbeat IPC: 0.3272 cumulative IPC: 0.513 (Simulation time: 00 hr 23 min 43 sec)
Heartbeat CPU 0 instructions: 121500565 cycles: 151257586 heartbeat IPC: 1.038 cumulative IPC: 0.5148 (Simulation time: 00 hr 23 min 47 sec)
Heartbeat CPU 0 instructions: 122000566 cycles: 151451234 heartbeat IPC: 2.582 cumulative IPC: 0.5177 (Simulation time: 00 hr 23 min 50 sec)
Heartbeat CPU 0 instructions: 122500567 cycles: 151991338 heartbeat IPC: 0.9257 cumulative IPC: 0.5193 (Simulation time: 00 hr 23 min 55 sec)
Heartbeat CPU 0 instructions: 123000567 cycles: 153017981 heartbeat IPC: 0.487 cumulative IPC: 0.519 (Simulation time: 00 hr 24 min 04 sec)
Heartbeat CPU 0 instructions: 123500567 cycles: 154064270 heartbeat IPC: 0.4779 cumulative IPC: 0.5187 (Simulation time: 00 hr 24 min 12 sec)
Heartbeat CPU 0 instructions: 124000569 cycles: 155204488 heartbeat IPC: 0.4385 cumulative IPC: 0.5181 (Simulation time: 00 hr 24 min 22 sec)
Heartbeat CPU 0 instructions: 124500572 cycles: 156619234 heartbeat IPC: 0.3534 cumulative IPC: 0.5165 (Simulation time: 00 hr 24 min 34 sec)
Heartbeat CPU 0 instructions: 125000579 cycles: 158409876 heartbeat IPC: 0.2792 cumulative IPC: 0.5136 (Simulation time: 00 hr 24 min 48 sec)
Heartbeat CPU 0 instructions: 125500580 cycles: 159287457 heartbeat IPC: 0.5697 cumulative IPC: 0.5139 (Simulation time: 00 hr 24 min 56 sec)
Heartbeat CPU 0 instructions: 126000580 cycles: 159528962 heartbeat IPC: 2.07 cumulative IPC: 0.5165 (Simulation time: 00 hr 24 min 59 sec)
Heartbeat CPU 0 instructions: 126500582 cycles: 160302335 heartbeat IPC: 0.6465 cumulative IPC: 0.5171 (Simulation time: 00 hr 25 min 06 sec)
Heartbeat CPU 0 instructions: 127000589 cycles: 162103110 heartbeat IPC: 0.2777 cumulative IPC: 0.5143 (Simulation time: 00 hr 25 min 20 sec)
Heartbeat CPU 0 instructions: 127500590 cycles: 163507864 heartbeat IPC: 0.3559 cumulative IPC: 0.5128 (Simulation time: 00 hr 25 min 31 sec)
Heartbeat CPU 0 instructions: 128000594 cycles: 165113887 heartbeat IPC: 0.3113 cumulative IPC: 0.5107 (Simulation time: 00 hr 25 min 43 sec)
Heartbeat CPU 0 instructions: 128500596 cycles: 166660665 heartbeat IPC: 0.3233 cumulative IPC: 0.5088 (Simulation time: 00 hr 25 min 55 sec)
Heartbeat CPU 0 instructions: 129000597 cycles: 167637327 heartbeat IPC: 0.5119 cumulative IPC: 0.5088 (Simulation time: 00 hr 26 min 03 sec)
Heartbeat CPU 0 instructions: 129500600 cycles: 168296035 heartbeat IPC: 0.7591 cumulative IPC: 0.5099 (Simulation time: 00 hr 26 min 09 sec)
Heartbeat CPU 0 instructions: 130000604 cycles: 168437105 heartbeat IPC: 3.544 cumulative IPC: 0.5126 (Simulation time: 00 hr 26 min 11 sec)
Heartbeat CPU 0 instructions: 130500604 cycles: 170442511 heartbeat IPC: 0.2493 cumulative IPC: 0.5093 (Simulation time: 00 hr 26 min 26 sec)
Heartbeat CPU 0 instructions: 131000605 cycles: 171441624 heartbeat IPC: 0.5004 cumulative IPC: 0.5092 (Simulation time: 00 hr 26 min 35 sec)
Heartbeat CPU 0 instructions: 131500609 cycles: 173647029 heartbeat IPC: 0.2267 cumulative IPC: 0.5053 (Simulation time: 00 hr 26 min 52 sec)
Heartbeat CPU 0 instructions: 132000611 cycles: 174681829 heartbeat IPC: 0.4832 cumulative IPC: 0.5052 (Simulation time: 00 hr 27 min 01 sec)
Heartbeat CPU 0 instructions: 132500613 cycles: 175375557 heartbeat IPC: 0.7207 cumulative IPC: 0.5061 (Simulation time: 00 hr 27 min 07 sec)
Heartbeat CPU 0 instructions: 133000615 cycles: 177006879 heartbeat IPC: 0.3065 cumulative IPC: 0.5041 (Simulation time: 00 hr 27 min 20 sec)
Heartbeat CPU 0 instructions: 133500617 cycles: 179336044 heartbeat IPC: 0.2147 cumulative IPC: 0.5001 (Simulation time: 00 hr 27 min 38 sec)
Heartbeat CPU 0 instructions: 134000617 cycles: 180397073 heartbeat IPC: 0.4712 cumulative IPC: 0.4999 (Simulation time: 00 hr 27 min 48 sec)
Heartbeat CPU 0 instructions: 134500621 cycles: 181925145 heartbeat IPC: 0.3272 cumulative IPC: 0.4984 (Simulation time: 00 hr 27 min 59 sec)
Heartbeat CPU 0 instructions: 135000622 cycles: 182549460 heartbeat IPC: 0.8009 cumulative IPC: 0.4995 (Simulation time: 00 hr 28 min 05 sec)
Heartbeat CPU 0 instructions: 135500623 cycles: 183866643 heartbeat IPC: 0.3796 cumulative IPC: 0.4986 (Simulation time: 00 hr 28 min 16 sec)
Heartbeat CPU 0 instructions: 136000629 cycles: 185098624 heartbeat IPC: 0.4059 cumulative IPC: 0.4979 (Simulation time: 00 hr 28 min 26 sec)
Heartbeat CPU 0 instructions: 136500630 cycles: 186030204 heartbeat IPC: 0.5367 cumulative IPC: 0.4981 (Simulation time: 00 hr 28 min 35 sec)
Heartbeat CPU 0 instructions: 137000633 cycles: 187253705 heartbeat IPC: 0.4087 cumulative IPC: 0.4975 (Simulation time: 00 hr 28 min 46 sec)
Heartbeat CPU 0 instructions: 137500639 cycles: 188683762 heartbeat IPC: 0.3496 cumulative IPC: 0.4963 (Simulation time: 00 hr 28 min 58 sec)
Heartbeat CPU 0 instructions: 138000643 cycles: 189943029 heartbeat IPC: 0.3971 cumulative IPC: 0.4956 (Simulation time: 00 hr 29 min 07 sec)
Heartbeat CPU 0 instructions: 138500650 cycles: 190585453 heartbeat IPC: 0.7783 cumulative IPC: 0.4966 (Simulation time: 00 hr 29 min 13 sec)
Heartbeat CPU 0 instructions: 139000650 cycles: 190935958 heartbeat IPC: 1.427 cumulative IPC: 0.4984 (Simulation time: 00 hr 29 min 17 sec)
Heartbeat CPU 0 instructions: 139500653 cycles: 191386943 heartbeat IPC: 1.109 cumulative IPC: 0.5 (Simulation time: 00 hr 29 min 22 sec)
Heartbeat CPU 0 instructions: 140000657 cycles: 191794942 heartbeat IPC: 1.226 cumulative IPC: 0.5016 (Simulation time: 00 hr 29 min 26 sec)
Heartbeat CPU 0 instructions: 140500658 cycles: 193593448 heartbeat IPC: 0.278 cumulative IPC: 0.4994 (Simulation time: 00 hr 29 min 39 sec)
Heartbeat CPU 0 instructions: 141000658 cycles: 193920108 heartbeat IPC: 1.531 cumulative IPC: 0.5012 (Simulation time: 00 hr 29 min 43 sec)
Heartbeat CPU 0 instructions: 141500664 cycles: 196244702 heartbeat IPC: 0.2151 cumulative IPC: 0.4976 (Simulation time: 00 hr 30 min 01 sec)
Heartbeat CPU 0 instructions: 142000671 cycles: 197040110 heartbeat IPC: 0.6286 cumulative IPC: 0.4982 (Simulation time: 00 hr 30 min 08 sec)
Heartbeat CPU 0 instructions: 142500671 cycles: 197987743 heartbeat IPC: 0.5276 cumulative IPC: 0.4983 (Simulation time: 00 hr 30 min 18 sec)
Heartbeat CPU 0 instructions: 143000674 cycles: 199187857 heartbeat IPC: 0.4166 cumulative IPC: 0.4978 (Simulation time: 00 hr 30 min 28 sec)
Heartbeat CPU 0 instructions: 143500676 cycles: 200471090 heartbeat IPC: 0.3896 cumulative IPC: 0.4971 (Simulation time: 00 hr 30 min 38 sec)
Heartbeat CPU 0 instructions: 144000679 cycles: 201647353 heartbeat IPC: 0.4251 cumulative IPC: 0.4966 (Simulation time: 00 hr 30 min 50 sec)
Heartbeat CPU 0 instructions: 144500679 cycles: 202388155 heartbeat IPC: 0.6749 cumulative IPC: 0.4973 (Simulation time: 00 hr 31 min 00 sec)
Heartbeat CPU 0 instructions: 145000683 cycles: 203145639 heartbeat IPC: 0.6601 cumulative IPC: 0.498 (Simulation time: 00 hr 31 min 09 sec)
Heartbeat CPU 0 instructions: 145500684 cycles: 203869920 heartbeat IPC: 0.6903 cumulative IPC: 0.4987 (Simulation time: 00 hr 31 min 18 sec)
Heartbeat CPU 0 instructions: 146000691 cycles: 205301379 heartbeat IPC: 0.3493 cumulative IPC: 0.4976 (Simulation time: 00 hr 31 min 35 sec)
Heartbeat CPU 0 instructions: 146500691 cycles: 206641062 heartbeat IPC: 0.3732 cumulative IPC: 0.4967 (Simulation time: 00 hr 31 min 50 sec)
Heartbeat CPU 0 instructions: 147000696 cycles: 207745467 heartbeat IPC: 0.4527 cumulative IPC: 0.4965 (Simulation time: 00 hr 32 min 04 sec)
Heartbeat CPU 0 instructions: 147500699 cycles: 208878548 heartbeat IPC: 0.4413 cumulative IPC: 0.4962 (Simulation time: 00 hr 32 min 17 sec)
Heartbeat CPU 0 instructions: 148000702 cycles: 209849427 heartbeat IPC: 0.515 cumulative IPC: 0.4963 (Simulation time: 00 hr 32 min 29 sec)
Heartbeat CPU 0 instructions: 148500704 cycles: 211407451 heartbeat IPC: 0.3209 cumulative IPC: 0.4949 (Simulation time: 00 hr 32 min 47 sec)
Heartbeat CPU 0 instructions: 149000706 cycles: 213394426 heartbeat IPC: 0.2516 cumulative IPC: 0.4925 (Simulation time: 00 hr 33 min 03 sec)
Heartbeat CPU 0 instructions: 149500706 cycles: 214961625 heartbeat IPC: 0.319 cumulative IPC: 0.4911 (Simulation time: 00 hr 33 min 19 sec)
Heartbeat CPU 0 instructions: 150000707 cycles: 216000708 heartbeat IPC: 0.4812 cumulative IPC: 0.4911 (Simulation time: 00 hr 33 min 32 sec)
Heartbeat CPU 0 instructions: 150500707 cycles: 217234163 heartbeat IPC: 0.4054 cumulative IPC: 0.4906 (Simulation time: 00 hr 33 min 47 sec)
Heartbeat CPU 0 instructions: 151000707 cycles: 218221194 heartbeat IPC: 0.5066 cumulative IPC: 0.4907 (Simulation time: 00 hr 33 min 58 sec)
Heartbeat CPU 0 instructions: 151500708 cycles: 219784768 heartbeat IPC: 0.3198 cumulative IPC: 0.4894 (Simulation time: 00 hr 34 min 16 sec)
Heartbeat CPU 0 instructions: 152000713 cycles: 221237439 heartbeat IPC: 0.3442 cumulative IPC: 0.4884 (Simulation time: 00 hr 34 min 33 sec)
Heartbeat CPU 0 instructions: 152500714 cycles: 222421098 heartbeat IPC: 0.4224 cumulative IPC: 0.488 (Simulation time: 00 hr 34 min 47 sec)
Heartbeat CPU 0 instructions: 153000718 cycles: 223519154 heartbeat IPC: 0.4554 cumulative IPC: 0.4878 (Simulation time: 00 hr 35 min 00 sec)
Heartbeat CPU 0 instructions: 153500718 cycles: 224793580 heartbeat IPC: 0.3923 cumulative IPC: 0.4872 (Simulation time: 00 hr 35 min 15 sec)
Heartbeat CPU 0 instructions: 154000720 cycles: 226000102 heartbeat IPC: 0.4144 cumulative IPC: 0.4868 (Simulation time: 00 hr 35 min 30 sec)
Heartbeat CPU 0 instructions: 154500726 cycles: 227104296 heartbeat IPC: 0.4528 cumulative IPC: 0.4867 (Simulation time: 00 hr 35 min 40 sec)
Heartbeat CPU 0 instructions: 155000726 cycles: 227772672 heartbeat IPC: 0.7481 cumulative IPC: 0.4875 (Simulation time: 00 hr 35 min 46 sec)
Heartbeat CPU 0 instructions: 155500726 cycles: 228321560 heartbeat IPC: 0.9109 cumulative IPC: 0.4885 (Simulation time: 00 hr 35 min 52 sec)
Heartbeat CPU 0 instructions: 156000728 cycles: 229128390 heartbeat IPC: 0.6197 cumulative IPC: 0.489 (Simulation time: 00 hr 35 min 59 sec)
Heartbeat CPU 0 instructions: 156500728 cycles: 229862103 heartbeat IPC: 0.6815 cumulative IPC: 0.4897 (Simulation time: 00 hr 36 min 06 sec)
Heartbeat CPU 0 instructions: 157000728 cycles: 231321613 heartbeat IPC: 0.3426 cumulative IPC: 0.4887 (Simulation time: 00 hr 36 min 18 sec)
Heartbeat CPU 0 instructions: 157500728 cycles: 232790696 heartbeat IPC: 0.3403 cumulative IPC: 0.4877 (Simulation time: 00 hr 36 min 30 sec)
Heartbeat CPU 0 instructions: 158000730 cycles: 233851629 heartbeat IPC: 0.4713 cumulative IPC: 0.4876 (Simulation time: 00 hr 36 min 40 sec)
Heartbeat CPU 0 instructions: 158500734 cycles: 234364721 heartbeat IPC: 0.9745 cumulative IPC: 0.4888 (Simulation time: 00 hr 36 min 45 sec)
Heartbeat CPU 0 instructions: 159000741 cycles: 235553859 heartbeat IPC: 0.4205 cumulative IPC: 0.4884 (Simulation time: 00 hr 36 min 55 sec)
Heartbeat CPU 0 instructions: 159500741 cycles: 236055435 heartbeat IPC: 0.9969 cumulative IPC: 0.4895 (Simulation time: 00 hr 37 min 00 sec)
Heartbeat CPU 0 instructions: 160000741 cycles: 236758025 heartbeat IPC: 0.7117 cumulative IPC: 0.4902 (Simulation time: 00 hr 37 min 07 sec)
Heartbeat CPU 0 instructions: 160500743 cycles: 238391649 heartbeat IPC: 0.3061 cumulative IPC: 0.4889 (Simulation time: 00 hr 37 min 19 sec)
Heartbeat CPU 0 instructions: 161000743 cycles: 238909622 heartbeat IPC: 0.9653 cumulative IPC: 0.49 (Simulation time: 00 hr 37 min 25 sec)
Heartbeat CPU 0 instructions: 161500746 cycles: 241293201 heartbeat IPC: 0.2098 cumulative IPC: 0.4871 (Simulation time: 00 hr 37 min 43 sec)
Heartbeat CPU 0 instructions: 162000747 cycles: 243167888 heartbeat IPC: 0.2667 cumulative IPC: 0.4853 (Simulation time: 00 hr 37 min 59 sec)
Heartbeat CPU 0 instructions: 162500749 cycles: 243989963 heartbeat IPC: 0.6082 cumulative IPC: 0.4857 (Simulation time: 00 hr 38 min 06 sec)
Heartbeat CPU 0 instructions: 163000752 cycles: 244579286 heartbeat IPC: 0.8484 cumulative IPC: 0.4866 (Simulation time: 00 hr 38 min 11 sec)
Heartbeat CPU 0 instructions: 163500752 cycles: 244949030 heartbeat IPC: 1.352 cumulative IPC: 0.488 (Simulation time: 00 hr 38 min 15 sec)
Heartbeat CPU 0 instructions: 164000757 cycles: 245830852 heartbeat IPC: 0.567 cumulative IPC: 0.4883 (Simulation time: 00 hr 38 min 23 sec)
Heartbeat CPU 0 instructions: 164500759 cycles: 247210031 heartbeat IPC: 0.3625 cumulative IPC: 0.4876 (Simulation time: 00 hr 38 min 34 sec)
Heartbeat CPU 0 instructions: 165000759 cycles: 248038772 heartbeat IPC: 0.6033 cumulative IPC: 0.488 (Simulation time: 00 hr 38 min 42 sec)
Heartbeat CPU 0 instructions: 165500765 cycles: 250020141 heartbeat IPC: 0.2524 cumulative IPC: 0.486 (Simulation time: 00 hr 38 min 57 sec)
Heartbeat CPU 0 instructions: 166000771 cycles: 252706459 heartbeat IPC: 0.1861 cumulative IPC: 0.4827 (Simulation time: 00 hr 39 min 17 sec)
Heartbeat CPU 0 instructions: 166500772 cycles: 253240982 heartbeat IPC: 0.9354 cumulative IPC: 0.4837 (Simulation time: 00 hr 39 min 23 sec)
Heartbeat CPU 0 instructions: 167000773 cycles: 253679480 heartbeat IPC: 1.14 cumulative IPC: 0.4849 (Simulation time: 00 hr 39 min 27 sec)
Heartbeat CPU 0 instructions: 167500775 cycles: 254605778 heartbeat IPC: 0.5398 cumulative IPC: 0.4851 (Simulation time: 00 hr 39 min 36 sec)
Heartbeat CPU 0 instructions: 168000776 cycles: 255440423 heartbeat IPC: 0.5991 cumulative IPC: 0.4855 (Simulation time: 00 hr 39 min 44 sec)
Heartbeat CPU 0 instructions: 168500779 cycles: 255864051 heartbeat IPC: 1.18 cumulative IPC: 0.4867 (Simulation time: 00 hr 39 min 49 sec)
Heartbeat CPU 0 instructions: 169000780 cycles: 257503653 heartbeat IPC: 0.305 cumulative IPC: 0.4855 (Simulation time: 00 hr 40 min 02 sec)
Heartbeat CPU 0 instructions: 169500782 cycles: 257852571 heartbeat IPC: 1.433 cumulative IPC: 0.4868 (Simulation time: 00 hr 40 min 06 sec)
Heartbeat CPU 0 instructions: 170000783 cycles: 259724780 heartbeat IPC: 0.2671 cumulative IPC: 0.4851 (Simulation time: 00 hr 40 min 21 sec)
Heartbeat CPU 0 instructions: 170500785 cycles: 260829545 heartbeat IPC: 0.4526 cumulative IPC: 0.485 (Simulation time: 00 hr 40 min 31 sec)
Heartbeat CPU 0 instructions: 171000792 cycles: 262492545 heartbeat IPC: 0.3007 cumulative IPC: 0.4838 (Simulation time: 00 hr 40 min 44 sec)
Heartbeat CPU 0 instructions: 171500797 cycles: 263046519 heartbeat IPC: 0.9026 cumulative IPC: 0.4847 (Simulation time: 00 hr 40 min 50 sec)
Heartbeat CPU 0 instructions: 172000802 cycles: 263334743 heartbeat IPC: 1.735 cumulative IPC: 0.4861 (Simulation time: 00 hr 40 min 54 sec)
Heartbeat CPU 0 instructions: 172500803 cycles: 264195305 heartbeat IPC: 0.581 cumulative IPC: 0.4865 (Simulation time: 00 hr 41 min 02 sec)
Heartbeat CPU 0 instructions: 173000803 cycles: 265249720 heartbeat IPC: 0.4742 cumulative IPC: 0.4864 (Simulation time: 00 hr 41 min 11 sec)
Heartbeat CPU 0 instructions: 173500807 cycles: 266098681 heartbeat IPC: 0.589 cumulative IPC: 0.4867 (Simulation time: 00 hr 41 min 19 sec)
Heartbeat CPU 0 instructions: 174000814 cycles: 267981908 heartbeat IPC: 0.2655 cumulative IPC: 0.4851 (Simulation time: 00 hr 41 min 33 sec)
Heartbeat CPU 0 instructions: 174500816 cycles: 268941706 heartbeat IPC: 0.5209 cumulative IPC: 0.4852 (Simulation time: 00 hr 41 min 42 sec)
Heartbeat CPU 0 instructions: 175000819 cycles: 269553815 heartbeat IPC: 0.8169 cumulative IPC: 0.486 (Simulation time: 00 hr 41 min 48 sec)
Heartbeat CPU 0 instructions: 175500819 cycles: 270170240 heartbeat IPC: 0.8111 cumulative IPC: 0.4868 (Simulation time: 00 hr 41 min 55 sec)
Heartbeat CPU 0 instructions: 176000820 cycles: 270598926 heartbeat IPC: 1.166 cumulative IPC: 0.4879 (Simulation time: 00 hr 42 min 00 sec)
Heartbeat CPU 0 instructions: 176500823 cycles: 271226751 heartbeat IPC: 0.7964 cumulative IPC: 0.4887 (Simulation time: 00 hr 42 min 06 sec)
Heartbeat CPU 0 instructions: 177000823 cycles: 272158766 heartbeat IPC: 0.5365 cumulative IPC: 0.4889 (Simulation time: 00 hr 42 min 14 sec)
Heartbeat CPU 0 instructions: 177500823 cycles: 273310844 heartbeat IPC: 0.434 cumulative IPC: 0.4886 (Simulation time: 00 hr 42 min 25 sec)
Heartbeat CPU 0 instructions: 178000825 cycles: 275219984 heartbeat IPC: 0.2619 cumulative IPC: 0.487 (Simulation time: 00 hr 42 min 40 sec)
Heartbeat CPU 0 instructions: 178500829 cycles: 276460030 heartbeat IPC: 0.4032 cumulative IPC: 0.4866 (Simulation time: 00 hr 42 min 50 sec)
Heartbeat CPU 0 instructions: 179000829 cycles: 278110179 heartbeat IPC: 0.303 cumulative IPC: 0.4854 (Simulation time: 00 hr 43 min 03 sec)
Heartbeat CPU 0 instructions: 179500833 cycles: 279314872 heartbeat IPC: 0.415 cumulative IPC: 0.4851 (Simulation time: 00 hr 43 min 14 sec)
Heartbeat CPU 0 instructions: 180000833 cycles: 281229762 heartbeat IPC: 0.2611 cumulative IPC: 0.4835 (Simulation time: 00 hr 43 min 29 sec)
Heartbeat CPU 0 instructions: 180500836 cycles: 282249419 heartbeat IPC: 0.4904 cumulative IPC: 0.4836 (Simulation time: 00 hr 43 min 38 sec)
Heartbeat CPU 0 instructions: 181000837 cycles: 283838265 heartbeat IPC: 0.3147 cumulative IPC: 0.4826 (Simulation time: 00 hr 43 min 51 sec)
Heartbeat CPU 0 instructions: 181500837 cycles: 284662244 heartbeat IPC: 0.6068 cumulative IPC: 0.4829 (Simulation time: 00 hr 43 min 58 sec)
Heartbeat CPU 0 instructions: 182000837 cycles: 286519911 heartbeat IPC: 0.2692 cumulative IPC: 0.4815 (Simulation time: 00 hr 44 min 12 sec)
Heartbeat CPU 0 instructions: 182500838 cycles: 288197217 heartbeat IPC: 0.2981 cumulative IPC: 0.4804 (Simulation time: 00 hr 44 min 25 sec)
Heartbeat CPU 0 instructions: 183000838 cycles: 288912545 heartbeat IPC: 0.699 cumulative IPC: 0.4809 (Simulation time: 00 hr 44 min 31 sec)
Heartbeat CPU 0 instructions: 183500838 cycles: 290919780 heartbeat IPC: 0.2491 cumulative IPC: 0.4793 (Simulation time: 00 hr 44 min 47 sec)
Heartbeat CPU 0 instructions: 184000838 cycles: 292669416 heartbeat IPC: 0.2858 cumulative IPC: 0.4781 (Simulation time: 00 hr 45 min 01 sec)
Heartbeat CPU 0 instructions: 184500838 cycles: 294596334 heartbeat IPC: 0.2595 cumulative IPC: 0.4766 (Simulation time: 00 hr 45 min 16 sec)
Heartbeat CPU 0 instructions: 185000839 cycles: 296105551 heartbeat IPC: 0.3313 cumulative IPC: 0.4758 (Simulation time: 00 hr 45 min 28 sec)
Heartbeat CPU 0 instructions: 185500839 cycles: 297850486 heartbeat IPC: 0.2865 cumulative IPC: 0.4746 (Simulation time: 00 hr 45 min 41 sec)
Heartbeat CPU 0 instructions: 186000839 cycles: 298514045 heartbeat IPC: 0.7535 cumulative IPC: 0.4753 (Simulation time: 00 hr 45 min 47 sec)
Heartbeat CPU 0 instructions: 186500839 cycles: 298703112 heartbeat IPC: 2.645 cumulative IPC: 0.4767 (Simulation time: 00 hr 45 min 50 sec)
Heartbeat CPU 0 instructions: 187000840 cycles: 298948702 heartbeat IPC: 2.036 cumulative IPC: 0.4781 (Simulation time: 00 hr 45 min 54 sec)
Heartbeat CPU 0 instructions: 187500840 cycles: 301186450 heartbeat IPC: 0.2234 cumulative IPC: 0.4761 (Simulation time: 00 hr 46 min 10 sec)
Heartbeat CPU 0 instructions: 188000841 cycles: 302477787 heartbeat IPC: 0.3872 cumulative IPC: 0.4757 (Simulation time: 00 hr 46 min 20 sec)
Heartbeat CPU 0 instructions: 188500842 cycles: 304514435 heartbeat IPC: 0.2455 cumulative IPC: 0.4741 (Simulation time: 00 hr 46 min 36 sec)
Heartbeat CPU 0 instructions: 189000849 cycles: 305259679 heartbeat IPC: 0.6709 cumulative IPC: 0.4746 (Simulation time: 00 hr 46 min 43 sec)
Heartbeat CPU 0 instructions: 189500850 cycles: 306122281 heartbeat IPC: 0.5796 cumulative IPC: 0.4749 (Simulation time: 00 hr 46 min 50 sec)
Heartbeat CPU 0 instructions: 190000855 cycles: 307491195 heartbeat IPC: 0.3653 cumulative IPC: 0.4744 (Simulation time: 00 hr 47 min 01 sec)
Heartbeat CPU 0 instructions: 190500859 cycles: 308748504 heartbeat IPC: 0.3977 cumulative IPC: 0.4741 (Simulation time: 00 hr 47 min 11 sec)
Heartbeat CPU 0 instructions: 191000860 cycles: 310561977 heartbeat IPC: 0.2757 cumulative IPC: 0.4729 (Simulation time: 00 hr 47 min 26 sec)
Heartbeat CPU 0 instructions: 191500860 cycles: 312007336 heartbeat IPC: 0.3459 cumulative IPC: 0.4722 (Simulation time: 00 hr 47 min 37 sec)
Heartbeat CPU 0 instructions: 192000861 cycles: 312949473 heartbeat IPC: 0.5307 cumulative IPC: 0.4724 (Simulation time: 00 hr 47 min 46 sec)
Heartbeat CPU 0 instructions: 192500862 cycles: 314295341 heartbeat IPC: 0.3715 cumulative IPC: 0.472 (Simulation time: 00 hr 47 min 57 sec)
Heartbeat CPU 0 instructions: 193000864 cycles: 314562988 heartbeat IPC: 1.868 cumulative IPC: 0.4732 (Simulation time: 00 hr 48 min 00 sec)
Heartbeat CPU 0 instructions: 193500869 cycles: 314852294 heartbeat IPC: 1.728 cumulative IPC: 0.4744 (Simulation time: 00 hr 48 min 04 sec)
Heartbeat CPU 0 instructions: 194000869 cycles: 315647210 heartbeat IPC: 0.629 cumulative IPC: 0.4748 (Simulation time: 00 hr 48 min 11 sec)
Heartbeat CPU 0 instructions: 194500869 cycles: 316473991 heartbeat IPC: 0.6048 cumulative IPC: 0.4752 (Simulation time: 00 hr 48 min 18 sec)
Heartbeat CPU 0 instructions: 195000875 cycles: 316973518 heartbeat IPC: 1.001 cumulative IPC: 0.476 (Simulation time: 00 hr 48 min 23 sec)
Heartbeat CPU 0 instructions: 195500876 cycles: 318600239 heartbeat IPC: 0.3074 cumulative IPC: 0.4751 (Simulation time: 00 hr 48 min 36 sec)
Heartbeat CPU 0 instructions: 196000882 cycles: 319770944 heartbeat IPC: 0.4271 cumulative IPC: 0.475 (Simulation time: 00 hr 48 min 46 sec)
Heartbeat CPU 0 instructions: 196500884 cycles: 320723352 heartbeat IPC: 0.525 cumulative IPC: 0.4751 (Simulation time: 00 hr 48 min 54 sec)
Heartbeat CPU 0 instructions: 197000884 cycles: 321481555 heartbeat IPC: 0.6595 cumulative IPC: 0.4756 (Simulation time: 00 hr 49 min 01 sec)
Heartbeat CPU 0 instructions: 197500884 cycles: 321946874 heartbeat IPC: 1.075 cumulative IPC: 0.4765 (Simulation time: 00 hr 49 min 06 sec)
Heartbeat CPU 0 instructions: 198000891 cycles: 322438029 heartbeat IPC: 1.018 cumulative IPC: 0.4773 (Simulation time: 00 hr 49 min 11 sec)
Heartbeat CPU 0 instructions: 198500891 cycles: 322911131 heartbeat IPC: 1.057 cumulative IPC: 0.4782 (Simulation time: 00 hr 49 min 16 sec)
Heartbeat CPU 0 instructions: 199000895 cycles: 323679928 heartbeat IPC: 0.6504 cumulative IPC: 0.4786 (Simulation time: 00 hr 49 min 23 sec)
Heartbeat CPU 0 instructions: 199500896 cycles: 324283838 heartbeat IPC: 0.8279 cumulative IPC: 0.4793 (Simulation time: 00 hr 49 min 29 sec)
Heartbeat CPU 0 instructions: 200000901 cycles: 325453449 heartbeat IPC: 0.4275 cumulative IPC: 0.4791 (Simulation time: 00 hr 49 min 39 sec)
Heartbeat CPU 0 instructions: 200500902 cycles: 327332012 heartbeat IPC: 0.2662 cumulative IPC: 0.4778 (Simulation time: 00 hr 49 min 54 sec)
Heartbeat CPU 0 instructions: 201000904 cycles: 328592081 heartbeat IPC: 0.3968 cumulative IPC: 0.4775 (Simulation time: 00 hr 50 min 04 sec)
Heartbeat CPU 0 instructions: 201500904 cycles: 329278682 heartbeat IPC: 0.7282 cumulative IPC: 0.4781 (Simulation time: 00 hr 50 min 10 sec)
Heartbeat CPU 0 instructions: 202000906 cycles: 329652013 heartbeat IPC: 1.339 cumulative IPC: 0.4791 (Simulation time: 00 hr 50 min 14 sec)
Heartbeat CPU 0 instructions: 202500910 cycles: 330134752 heartbeat IPC: 1.036 cumulative IPC: 0.4799 (Simulation time: 00 hr 50 min 18 sec)
Heartbeat CPU 0 instructions: 203000911 cycles: 330701781 heartbeat IPC: 0.8818 cumulative IPC: 0.4806 (Simulation time: 00 hr 50 min 24 sec)
Heartbeat CPU 0 instructions: 203500917 cycles: 330989039 heartbeat IPC: 1.741 cumulative IPC: 0.4818 (Simulation time: 00 hr 50 min 27 sec)
Heartbeat CPU 0 instructions: 204000924 cycles: 331299738 heartbeat IPC: 1.609 cumulative IPC: 0.4829 (Simulation time: 00 hr 50 min 30 sec)
Heartbeat CPU 0 instructions: 204500928 cycles: 332644284 heartbeat IPC: 0.3719 cumulative IPC: 0.4824 (Simulation time: 00 hr 50 min 41 sec)
Heartbeat CPU 0 instructions: 205000928 cycles: 334327843 heartbeat IPC: 0.297 cumulative IPC: 0.4814 (Simulation time: 00 hr 50 min 54 sec)
Heartbeat CPU 0 instructions: 205500928 cycles: 335461889 heartbeat IPC: 0.4409 cumulative IPC: 0.4813 (Simulation time: 00 hr 51 min 03 sec)
Heartbeat CPU 0 instructions: 206000930 cycles: 335892956 heartbeat IPC: 1.16 cumulative IPC: 0.4822 (Simulation time: 00 hr 51 min 07 sec)
Heartbeat CPU 0 instructions: 206500930 cycles: 336272035 heartbeat IPC: 1.319 cumulative IPC: 0.4832 (Simulation time: 00 hr 51 min 11 sec)
Heartbeat CPU 0 instructions: 207000932 cycles: 336575709 heartbeat IPC: 1.647 cumulative IPC: 0.4843 (Simulation time: 00 hr 51 min 14 sec)
Heartbeat CPU 0 instructions: 207500932 cycles: 337344912 heartbeat IPC: 0.65 cumulative IPC: 0.4847 (Simulation time: 00 hr 51 min 21 sec)
Heartbeat CPU 0 instructions: 208000936 cycles: 338760384 heartbeat IPC: 0.3532 cumulative IPC: 0.4841 (Simulation time: 00 hr 51 min 33 sec)
Heartbeat CPU 0 instructions: 208500937 cycles: 339526843 heartbeat IPC: 0.6524 cumulative IPC: 0.4845 (Simulation time: 00 hr 51 min 39 sec)
Heartbeat CPU 0 instructions: 209000943 cycles: 341044809 heartbeat IPC: 0.3294 cumulative IPC: 0.4838 (Simulation time: 00 hr 51 min 51 sec)
Heartbeat CPU 0 instructions: 209500946 cycles: 342314356 heartbeat IPC: 0.3938 cumulative IPC: 0.4834 (Simulation time: 00 hr 52 min 01 sec)
Heartbeat CPU 0 instructions: 210000951 cycles: 342819680 heartbeat IPC: 0.9895 cumulative IPC: 0.4842 (Simulation time: 00 hr 52 min 06 sec)
Heartbeat CPU 0 instructions: 210500957 cycles: 343231298 heartbeat IPC: 1.215 cumulative IPC: 0.4851 (Simulation time: 00 hr 52 min 10 sec)
Heartbeat CPU 0 instructions: 211000958 cycles: 344086037 heartbeat IPC: 0.585 cumulative IPC: 0.4854 (Simulation time: 00 hr 52 min 17 sec)
Heartbeat CPU 0 instructions: 211500960 cycles: 345581691 heartbeat IPC: 0.3343 cumulative IPC: 0.4847 (Simulation time: 00 hr 52 min 29 sec)
Heartbeat CPU 0 instructions: 212000967 cycles: 346502444 heartbeat IPC: 0.543 cumulative IPC: 0.4848 (Simulation time: 00 hr 52 min 37 sec)
Heartbeat CPU 0 instructions: 212500967 cycles: 347566052 heartbeat IPC: 0.4701 cumulative IPC: 0.4848 (Simulation time: 00 hr 52 min 46 sec)
Heartbeat CPU 0 instructions: 213000968 cycles: 349272713 heartbeat IPC: 0.293 cumulative IPC: 0.4838 (Simulation time: 00 hr 52 min 59 sec)
Heartbeat CPU 0 instructions: 213500975 cycles: 350236465 heartbeat IPC: 0.5188 cumulative IPC: 0.4839 (Simulation time: 00 hr 53 min 07 sec)
Heartbeat CPU 0 instructions: 214000982 cycles: 351516139 heartbeat IPC: 0.3907 cumulative IPC: 0.4836 (Simulation time: 00 hr 53 min 18 sec)
Heartbeat CPU 0 instructions: 214500986 cycles: 352477072 heartbeat IPC: 0.5203 cumulative IPC: 0.4837 (Simulation time: 00 hr 53 min 26 sec)
Heartbeat CPU 0 instructions: 215000987 cycles: 353607108 heartbeat IPC: 0.4425 cumulative IPC: 0.4835 (Simulation time: 00 hr 53 min 36 sec)
Heartbeat CPU 0 instructions: 215500990 cycles: 354169151 heartbeat IPC: 0.8896 cumulative IPC: 0.4842 (Simulation time: 00 hr 53 min 41 sec)
Heartbeat CPU 0 instructions: 216000995 cycles: 355134494 heartbeat IPC: 0.518 cumulative IPC: 0.4843 (Simulation time: 00 hr 53 min 50 sec)
Heartbeat CPU 0 instructions: 216500998 cycles: 356223792 heartbeat IPC: 0.459 cumulative IPC: 0.4842 (Simulation time: 00 hr 54 min 00 sec)
Heartbeat CPU 0 instructions: 217001004 cycles: 356577452 heartbeat IPC: 1.414 cumulative IPC: 0.4852 (Simulation time: 00 hr 54 min 03 sec)
Heartbeat CPU 0 instructions: 217501006 cycles: 357978003 heartbeat IPC: 0.357 cumulative IPC: 0.4847 (Simulation time: 00 hr 54 min 15 sec)
Heartbeat CPU 0 instructions: 218001009 cycles: 358838700 heartbeat IPC: 0.5809 cumulative IPC: 0.4849 (Simulation time: 00 hr 54 min 23 sec)
Heartbeat CPU 0 instructions: 218501009 cycles: 359837313 heartbeat IPC: 0.5007 cumulative IPC: 0.4849 (Simulation time: 00 hr 54 min 31 sec)
Heartbeat CPU 0 instructions: 219001015 cycles: 360240985 heartbeat IPC: 1.239 cumulative IPC: 0.4858 (Simulation time: 00 hr 54 min 35 sec)
Heartbeat CPU 0 instructions: 219501015 cycles: 360549325 heartbeat IPC: 1.622 cumulative IPC: 0.4868 (Simulation time: 00 hr 54 min 38 sec)
Heartbeat CPU 0 instructions: 220001018 cycles: 362176540 heartbeat IPC: 0.3073 cumulative IPC: 0.486 (Simulation time: 00 hr 54 min 51 sec)
Heartbeat CPU 0 instructions: 220501018 cycles: 363089863 heartbeat IPC: 0.5475 cumulative IPC: 0.4861 (Simulation time: 00 hr 54 min 59 sec)
Heartbeat CPU 0 instructions: 221001022 cycles: 364196997 heartbeat IPC: 0.4516 cumulative IPC: 0.486 (Simulation time: 00 hr 55 min 09 sec)
Heartbeat CPU 0 instructions: 221501024 cycles: 365489679 heartbeat IPC: 0.3868 cumulative IPC: 0.4857 (Simulation time: 00 hr 55 min 20 sec)
Heartbeat CPU 0 instructions: 222001029 cycles: 366608773 heartbeat IPC: 0.4468 cumulative IPC: 0.4856 (Simulation time: 00 hr 55 min 29 sec)
Heartbeat CPU 0 instructions: 222501035 cycles: 367174375 heartbeat IPC: 0.884 cumulative IPC: 0.4862 (Simulation time: 00 hr 55 min 34 sec)
Heartbeat CPU 0 instructions: 223001037 cycles: 367489049 heartbeat IPC: 1.589 cumulative IPC: 0.4872 (Simulation time: 00 hr 55 min 38 sec)
Heartbeat CPU 0 instructions: 223501037 cycles: 367942129 heartbeat IPC: 1.104 cumulative IPC: 0.4879 (Simulation time: 00 hr 55 min 43 sec)
Heartbeat CPU 0 instructions: 224001037 cycles: 369802002 heartbeat IPC: 0.2688 cumulative IPC: 0.4868 (Simulation time: 00 hr 55 min 57 sec)
Heartbeat CPU 0 instructions: 224501038 cycles: 372153878 heartbeat IPC: 0.2126 cumulative IPC: 0.485 (Simulation time: 00 hr 56 min 15 sec)
Heartbeat CPU 0 instructions: 225001040 cycles: 373425131 heartbeat IPC: 0.3933 cumulative IPC: 0.4847 (Simulation time: 00 hr 56 min 25 sec)
Heartbeat CPU 0 instructions: 225501043 cycles: 374403310 heartbeat IPC: 0.5112 cumulative IPC: 0.4848 (Simulation time: 00 hr 56 min 36 sec)
Heartbeat CPU 0 instructions: 226001046 cycles: 376255839 heartbeat IPC: 0.2699 cumulative IPC: 0.4837 (Simulation time: 00 hr 56 min 50 sec)
Heartbeat CPU 0 instructions: 226501047 cycles: 377309417 heartbeat IPC: 0.4746 cumulative IPC: 0.4836 (Simulation time: 00 hr 56 min 59 sec)
Heartbeat CPU 0 instructions: 227001051 cycles: 378172458 heartbeat IPC: 0.5794 cumulative IPC: 0.4839 (Simulation time: 00 hr 57 min 07 sec)
Heartbeat CPU 0 instructions: 227501052 cycles: 378876278 heartbeat IPC: 0.7104 cumulative IPC: 0.4843 (Simulation time: 00 hr 57 min 13 sec)
Heartbeat CPU 0 instructions: 228001059 cycles: 380164207 heartbeat IPC: 0.3882 cumulative IPC: 0.484 (Simulation time: 00 hr 57 min 23 sec)
Heartbeat CPU 0 instructions: 228501061 cycles: 380650699 heartbeat IPC: 1.028 cumulative IPC: 0.4847 (Simulation time: 00 hr 57 min 28 sec)
Heartbeat CPU 0 instructions: 229001061 cycles: 381102445 heartbeat IPC: 1.107 cumulative IPC: 0.4855 (Simulation time: 00 hr 57 min 32 sec)
Heartbeat CPU 0 instructions: 229501065 cycles: 382098525 heartbeat IPC: 0.502 cumulative IPC: 0.4855 (Simulation time: 00 hr 57 min 41 sec)
Heartbeat CPU 0 instructions: 230001065 cycles: 382547457 heartbeat IPC: 1.114 cumulative IPC: 0.4863 (Simulation time: 00 hr 57 min 45 sec)
Heartbeat CPU 0 instructions: 230501065 cycles: 382900014 heartbeat IPC: 1.418 cumulative IPC: 0.4871 (Simulation time: 00 hr 57 min 49 sec)
Heartbeat CPU 0 instructions: 231001065 cycles: 383319063 heartbeat IPC: 1.193 cumulative IPC: 0.4879 (Simulation time: 00 hr 57 min 53 sec)
Heartbeat CPU 0 instructions: 231501067 cycles: 384059904 heartbeat IPC: 0.6749 cumulative IPC: 0.4883 (Simulation time: 00 hr 57 min 59 sec)
Heartbeat CPU 0 instructions: 232001067 cycles: 384752842 heartbeat IPC: 0.7216 cumulative IPC: 0.4887 (Simulation time: 00 hr 58 min 05 sec)
Heartbeat CPU 0 instructions: 232501071 cycles: 386898482 heartbeat IPC: 0.233 cumulative IPC: 0.4873 (Simulation time: 00 hr 58 min 22 sec)
Heartbeat CPU 0 instructions: 233001075 cycles: 388775229 heartbeat IPC: 0.2664 cumulative IPC: 0.4862 (Simulation time: 00 hr 58 min 36 sec)
Heartbeat CPU 0 instructions: 233501075 cycles: 389555719 heartbeat IPC: 0.6406 cumulative IPC: 0.4865 (Simulation time: 00 hr 58 min 44 sec)
Heartbeat CPU 0 instructions: 234001076 cycles: 389940586 heartbeat IPC: 1.299 cumulative IPC: 0.4873 (Simulation time: 00 hr 58 min 48 sec)
Heartbeat CPU 0 instructions: 234501078 cycles: 391358557 heartbeat IPC: 0.3526 cumulative IPC: 0.4868 (Simulation time: 00 hr 59 min 01 sec)
Heartbeat CPU 0 instructions: 235001083 cycles: 392453929 heartbeat IPC: 0.4565 cumulative IPC: 0.4867 (Simulation time: 00 hr 59 min 11 sec)
Heartbeat CPU 0 instructions: 235501087 cycles: 393285028 heartbeat IPC: 0.6016 cumulative IPC: 0.487 (Simulation time: 00 hr 59 min 20 sec)
Heartbeat CPU 0 instructions: 236001090 cycles: 394288953 heartbeat IPC: 0.498 cumulative IPC: 0.487 (Simulation time: 00 hr 59 min 29 sec)
Heartbeat CPU 0 instructions: 236501094 cycles: 395226498 heartbeat IPC: 0.5333 cumulative IPC: 0.4871 (Simulation time: 00 hr 59 min 39 sec)
Heartbeat CPU 0 instructions: 237001095 cycles: 395906445 heartbeat IPC: 0.7354 cumulative IPC: 0.4876 (Simulation time: 00 hr 59 min 46 sec)
Heartbeat CPU 0 instructions: 237501095 cycles: 397191295 heartbeat IPC: 0.3892 cumulative IPC: 0.4872 (Simulation time: 00 hr 59 min 58 sec)
Heartbeat CPU 0 instructions: 238001096 cycles: 398745210 heartbeat IPC: 0.3218 cumulative IPC: 0.4866 (Simulation time: 01 hr 00 min 11 sec)
Heartbeat CPU 0 instructions: 238501096 cycles: 399253898 heartbeat IPC: 0.9829 cumulative IPC: 0.4872 (Simulation time: 01 hr 00 min 17 sec)
Heartbeat CPU 0 instructions: 239001096 cycles: 400736807 heartbeat IPC: 0.3372 cumulative IPC: 0.4867 (Simulation time: 01 hr 00 min 29 sec)
Heartbeat CPU 0 instructions: 239501097 cycles: 402692159 heartbeat IPC: 0.2557 cumulative IPC: 0.4855 (Simulation time: 01 hr 00 min 44 sec)
Heartbeat CPU 0 instructions: 240001100 cycles: 404212301 heartbeat IPC: 0.3289 cumulative IPC: 0.4849 (Simulation time: 01 hr 00 min 55 sec)
Heartbeat CPU 0 instructions: 240501105 cycles: 404927405 heartbeat IPC: 0.6992 cumulative IPC: 0.4853 (Simulation time: 01 hr 01 min 02 sec)
Heartbeat CPU 0 instructions: 241001106 cycles: 405807269 heartbeat IPC: 0.5683 cumulative IPC: 0.4855 (Simulation time: 01 hr 01 min 09 sec)
Heartbeat CPU 0 instructions: 241501108 cycles: 407269010 heartbeat IPC: 0.3421 cumulative IPC: 0.4849 (Simulation time: 01 hr 01 min 20 sec)
Heartbeat CPU 0 instructions: 242001112 cycles: 408684217 heartbeat IPC: 0.3533 cumulative IPC: 0.4845 (Simulation time: 01 hr 01 min 32 sec)
Heartbeat CPU 0 instructions: 242501114 cycles: 408930633 heartbeat IPC: 2.029 cumulative IPC: 0.4854 (Simulation time: 01 hr 01 min 34 sec)
Heartbeat CPU 0 instructions: 243001118 cycles: 409149487 heartbeat IPC: 2.285 cumulative IPC: 0.4864 (Simulation time: 01 hr 01 min 37 sec)
Heartbeat CPU 0 instructions: 243501119 cycles: 409381261 heartbeat IPC: 2.157 cumulative IPC: 0.4874 (Simulation time: 01 hr 01 min 39 sec)
Heartbeat CPU 0 instructions: 244001120 cycles: 409593998 heartbeat IPC: 2.35 cumulative IPC: 0.4884 (Simulation time: 01 hr 01 min 41 sec)
Heartbeat CPU 0 instructions: 244501122 cycles: 410172216 heartbeat IPC: 0.8647 cumulative IPC: 0.4889 (Simulation time: 01 hr 01 min 47 sec)
Heartbeat CPU 0 instructions: 245001129 cycles: 410554297 heartbeat IPC: 1.309 cumulative IPC: 0.4897 (Simulation time: 01 hr 01 min 51 sec)
Heartbeat CPU 0 instructions: 245501133 cycles: 411609011 heartbeat IPC: 0.4741 cumulative IPC: 0.4897 (Simulation time: 01 hr 02 min 00 sec)
Heartbeat CPU 0 instructions: 246001133 cycles: 413508166 heartbeat IPC: 0.2633 cumulative IPC: 0.4886 (Simulation time: 01 hr 02 min 17 sec)
Heartbeat CPU 0 instructions: 246501136 cycles: 414625817 heartbeat IPC: 0.4474 cumulative IPC: 0.4885 (Simulation time: 01 hr 02 min 25 sec)
Heartbeat CPU 0 instructions: 247001136 cycles: 416308857 heartbeat IPC: 0.2971 cumulative IPC: 0.4877 (Simulation time: 01 hr 02 min 38 sec)
Heartbeat CPU 0 instructions: 247501136 cycles: 416927241 heartbeat IPC: 0.8086 cumulative IPC: 0.4882 (Simulation time: 01 hr 02 min 44 sec)
Heartbeat CPU 0 instructions: 248001141 cycles: 418210342 heartbeat IPC: 0.3897 cumulative IPC: 0.4879 (Simulation time: 01 hr 02 min 55 sec)
Heartbeat CPU 0 instructions: 248501146 cycles: 419622960 heartbeat IPC: 0.354 cumulative IPC: 0.4874 (Simulation time: 01 hr 03 min 06 sec)
Heartbeat CPU 0 instructions: 249001146 cycles: 420146825 heartbeat IPC: 0.9544 cumulative IPC: 0.488 (Simulation time: 01 hr 03 min 11 sec)
Heartbeat CPU 0 instructions: 249501146 cycles: 421017518 heartbeat IPC: 0.5743 cumulative IPC: 0.4882 (Simulation time: 01 hr 03 min 19 sec)
Simulation finished CPU 0 instructions: 200000007 cycles: 409311589 cumulative IPC: 0.4886 (Simulation time: 01 hr 03 min 25 sec)
Simulation complete CPU 0 instructions: 200000007 cycles: 409311589 cumulative IPC: 0.4886 (Simulation time: 01 hr 03 min 25 sec)

ChampSim completed all CPUs

=== Simulation ===
CPU 0 runs /local-ssd/ben/dpc4-traces/gtraces_v2/merced_0003.champsim.gz

Region of Interest Statistics

CPU 0 cumulative IPC: 0.4886 instructions: 200000007 cycles: 409311589
CPU 0 Branch Prediction Accuracy: 90.83% MPKI: 16.34 Average ROB Occupancy at Mispredict: 24.69
Branch type MPKI
BRANCH_DIRECT_JUMP: 0.924
BRANCH_INDIRECT: 0.3118
BRANCH_CONDITIONAL: 13.42
BRANCH_DIRECT_CALL: 0.8213
BRANCH_INDIRECT_CALL: 0.3049
BRANCH_RETURN: 0.5598

cpu0->cpu0_STLB TOTAL        ACCESS:    2200965 HIT:    1570741 MISS:     630224 MSHR_MERGE:          0
cpu0->cpu0_STLB LOAD         ACCESS:    2200965 HIT:    1570741 MISS:     630224 MSHR_MERGE:          0
cpu0->cpu0_STLB RFO          ACCESS:          0 HIT:          0 MISS:          0 MSHR_MERGE:          0
cpu0->cpu0_STLB PREFETCH     ACCESS:          0 HIT:          0 MISS:          0 MSHR_MERGE:          0
cpu0->cpu0_STLB WRITE        ACCESS:          0 HIT:          0 MISS:          0 MSHR_MERGE:          0
cpu0->cpu0_STLB TRANSLATION  ACCESS:          0 HIT:          0 MISS:          0 MSHR_MERGE:          0
cpu0->cpu0_STLB PREFETCH REQUESTED:          0 ISSUED:          0 USEFUL:          0 USELESS:          0
cpu0->cpu0_STLB AVERAGE MISS LATENCY: 190.9 cycles
cpu0->cpu0_L2C TOTAL        ACCESS:   16572900 HIT:   10698327 MISS:    5874573 MSHR_MERGE:     985436
cpu0->cpu0_L2C LOAD         ACCESS:    3685742 HIT:    2018191 MISS:    1667551 MSHR_MERGE:      33365
cpu0->cpu0_L2C RFO          ACCESS:     625447 HIT:     243526 MISS:     381921 MSHR_MERGE:       2709
cpu0->cpu0_L2C PREFETCH     ACCESS:   10458797 HIT:    6929829 MISS:    3528968 MSHR_MERGE:     949362
cpu0->cpu0_L2C WRITE        ACCESS:    1123148 HIT:    1123125 MISS:         23 MSHR_MERGE:          0
cpu0->cpu0_L2C TRANSLATION  ACCESS:     679766 HIT:     383656 MISS:     296110 MSHR_MERGE:          0
cpu0->cpu0_L2C PREFETCH REQUESTED:    8975657 ISSUED:    8632492 USEFUL:     689357 USELESS:    1286301
cpu0->cpu0_L2C AVERAGE MISS LATENCY: 233.4 cycles
cpu0->cpu0_L1I TOTAL        ACCESS:   16158201 HIT:   14068654 MISS:    2089547 MSHR_MERGE:     485325
cpu0->cpu0_L1I LOAD         ACCESS:   16158201 HIT:   14068654 MISS:    2089547 MSHR_MERGE:     485325
cpu0->cpu0_L1I RFO          ACCESS:          0 HIT:          0 MISS:          0 MSHR_MERGE:          0
cpu0->cpu0_L1I PREFETCH     ACCESS:          0 HIT:          0 MISS:          0 MSHR_MERGE:          0
cpu0->cpu0_L1I WRITE        ACCESS:          0 HIT:          0 MISS:          0 MSHR_MERGE:          0
cpu0->cpu0_L1I TRANSLATION  ACCESS:          0 HIT:          0 MISS:          0 MSHR_MERGE:          0
cpu0->cpu0_L1I PREFETCH REQUESTED:          0 ISSUED:          0 USEFUL:          0 USELESS:          0
cpu0->cpu0_L1I AVERAGE MISS LATENCY: 139 cycles
cpu0->cpu0_L1D TOTAL        ACCESS:   68733107 HIT:   60449729 MISS:    8283378 MSHR_MERGE:    3070293
cpu0->cpu0_L1D LOAD         ACCESS:   30511030 HIT:   27680492 MISS:    2830538 MSHR_MERGE:     748996
cpu0->cpu0_L1D RFO          ACCESS:          0 HIT:          0 MISS:          0 MSHR_MERGE:          0
cpu0->cpu0_L1D PREFETCH     ACCESS:   17770246 HIT:   15235449 MISS:    2534797 MSHR_MERGE:     708502
cpu0->cpu0_L1D WRITE        ACCESS:   18832283 HIT:   16600340 MISS:    2231943 MSHR_MERGE:    1606461
cpu0->cpu0_L1D TRANSLATION  ACCESS:    1619548 HIT:     933448 MISS:     686100 MSHR_MERGE:       6334
cpu0->cpu0_L1D PREFETCH REQUESTED:   19446856 ISSUED:   17770238 USEFUL:     621010 USELESS:    1205193
cpu0->cpu0_L1D AVERAGE MISS LATENCY: 108.2 cycles
cpu0->cpu0_ITLB TOTAL        ACCESS:   13319628 HIT:   13096503 MISS:     223125 MSHR_MERGE:     110626
cpu0->cpu0_ITLB LOAD         ACCESS:   13319628 HIT:   13096503 MISS:     223125 MSHR_MERGE:     110626
cpu0->cpu0_ITLB RFO          ACCESS:          0 HIT:          0 MISS:          0 MSHR_MERGE:          0
cpu0->cpu0_ITLB PREFETCH     ACCESS:          0 HIT:          0 MISS:          0 MSHR_MERGE:          0
cpu0->cpu0_ITLB WRITE        ACCESS:          0 HIT:          0 MISS:          0 MSHR_MERGE:          0
cpu0->cpu0_ITLB TRANSLATION  ACCESS:          0 HIT:          0 MISS:          0 MSHR_MERGE:          0
cpu0->cpu0_ITLB PREFETCH REQUESTED:          0 ISSUED:          0 USEFUL:          0 USELESS:          0
cpu0->cpu0_ITLB AVERAGE MISS LATENCY: 42.82 cycles
cpu0->cpu0_DTLB TOTAL        ACCESS:   62151765 HIT:   58936758 MISS:    3215007 MSHR_MERGE:    1126541
cpu0->cpu0_DTLB LOAD         ACCESS:   62151765 HIT:   58936758 MISS:    3215007 MSHR_MERGE:    1126541
cpu0->cpu0_DTLB RFO          ACCESS:          0 HIT:          0 MISS:          0 MSHR_MERGE:          0
cpu0->cpu0_DTLB PREFETCH     ACCESS:          0 HIT:          0 MISS:          0 MSHR_MERGE:          0
cpu0->cpu0_DTLB WRITE        ACCESS:          0 HIT:          0 MISS:          0 MSHR_MERGE:          0
cpu0->cpu0_DTLB TRANSLATION  ACCESS:          0 HIT:          0 MISS:          0 MSHR_MERGE:          0
cpu0->cpu0_DTLB PREFETCH REQUESTED:          0 ISSUED:          0 USEFUL:          0 USELESS:          0
cpu0->cpu0_DTLB AVERAGE MISS LATENCY: 60.88 cycles
cpu0->LLC TOTAL        ACCESS:    7373243 HIT:    1041873 MISS:    6331370 MSHR_MERGE:     530262
cpu0->LLC LOAD         ACCESS:    1634186 HIT:     134164 MISS:    1500022 MSHR_MERGE:       2638
cpu0->LLC RFO          ACCESS:     379212 HIT:      18379 MISS:     360833 MSHR_MERGE:        161
cpu0->LLC PREFETCH     ACCESS:    4342564 HIT:     606995 MISS:    3735569 MSHR_MERGE:     527463
cpu0->LLC WRITE        ACCESS:     721171 HIT:     261246 MISS:     459925 MSHR_MERGE:          0
cpu0->LLC TRANSLATION  ACCESS:     296110 HIT:      21089 MISS:     275021 MSHR_MERGE:          0
cpu0->LLC PREFETCH REQUESTED:    1878781 ISSUED:    1762926 USEFUL:     258967 USELESS:     814139
cpu0->LLC AVERAGE MISS LATENCY: 191.1 cycles

DRAM Statistics

Channel 0 RQ ROW_BUFFER_HIT:     215898
  ROW_BUFFER_MISS:    5125186
  AVG DBUS CONGESTED CYCLE: 18.59
Channel 0 WQ ROW_BUFFER_HIT:     174970
  ROW_BUFFER_MISS:     520508
  FULL:          0
Channel 0 REFRESHES ISSUED:      34107
