[VMEM] WARNING: physical memory size is smaller than virtual memory size.

*** ChampSim Multicore Out-of-Order Simulator ***
Warmup Instructions: 50000000
Simulation Instructions: 200000000
Number of CPUs: 1
Page size: 4096
Core 0: /local-ssd/ben/dpc4-traces/gtraces_v2/tahoe_0003.champsim.gz
Off-chip DRAM Size: 64 GiB Channels: 1 Width: 64-bit Data Rate: 4807 MT/s
Heartbeat CPU 0 instructions: 500003 cycles: 274416 heartbeat IPC: 1.822 cumulative IPC: 1.822 (Simulation time: 00 hr 00 min 04 sec)
[BTB] WARNING: target of return is a lower address than the corresponding call. This is usually a problem with your trace.
Heartbeat CPU 0 instructions: 1000005 cycles: 473073 heartbeat IPC: 2.517 cumulative IPC: 2.114 (Simulation time: 00 hr 00 min 07 sec)
[BTB] WARNING: target of return is a lower address than the corresponding call. This is usually a problem with your trace.
[BTB] WARNING: target of return is a lower address than the corresponding call. This is usually a problem with your trace.
[BTB] WARNING: target of return is a lower address than the corresponding call. This is usually a problem with your trace.
[BTB] WARNING: target of return is a lower address than the corresponding call. This is usually a problem with your trace.
[BTB] WARNING: target of return is a lower address than the corresponding call. This is usually a problem with your trace.
[BTB] WARNING: target of return is a lower address than the corresponding call. This is usually a problem with your trace.
[BTB] WARNING: target of return is a lower address than the corresponding call. This is usually a problem with your trace.
[BTB] WARNING: target of return is a lower address than the corresponding call. This is usually a problem with your trace.
Heartbeat CPU 0 instructions: 1500007 cycles: 654684 heartbeat IPC: 2.753 cumulative IPC: 2.291 (Simulation time: 00 hr 00 min 11 sec)
[BTB] WARNING: target of return is a lower address than the corresponding call. This is usually a problem with your trace.
Heartbeat CPU 0 instructions: 2000010 cycles: 868286 heartbeat IPC: 2.341 cumulative IPC: 2.303 (Simulation time: 00 hr 00 min 14 sec)
Heartbeat CPU 0 instructions: 2500016 cycles: 1112160 heartbeat IPC: 2.05 cumulative IPC: 2.248 (Simulation time: 00 hr 00 min 19 sec)
Heartbeat CPU 0 instructions: 3000017 cycles: 1266390 heartbeat IPC: 3.242 cumulative IPC: 2.369 (Simulation time: 00 hr 00 min 22 sec)
Heartbeat CPU 0 instructions: 3500024 cycles: 1417830 heartbeat IPC: 3.302 cumulative IPC: 2.469 (Simulation time: 00 hr 00 min 24 sec)
Heartbeat CPU 0 instructions: 4000024 cycles: 1546773 heartbeat IPC: 3.878 cumulative IPC: 2.586 (Simulation time: 00 hr 00 min 27 sec)
Heartbeat CPU 0 instructions: 4500031 cycles: 1784257 heartbeat IPC: 2.105 cumulative IPC: 2.522 (Simulation time: 00 hr 00 min 31 sec)
Heartbeat CPU 0 instructions: 5000031 cycles: 1933989 heartbeat IPC: 3.339 cumulative IPC: 2.585 (Simulation time: 00 hr 00 min 34 sec)
Heartbeat CPU 0 instructions: 5500034 cycles: 2108553 heartbeat IPC: 2.864 cumulative IPC: 2.608 (Simulation time: 00 hr 00 min 38 sec)
Heartbeat CPU 0 instructions: 6000038 cycles: 2251732 heartbeat IPC: 3.492 cumulative IPC: 2.665 (Simulation time: 00 hr 00 min 40 sec)
Heartbeat CPU 0 instructions: 6500039 cycles: 2422962 heartbeat IPC: 2.92 cumulative IPC: 2.683 (Simulation time: 00 hr 00 min 44 sec)
Heartbeat CPU 0 instructions: 7000042 cycles: 2606409 heartbeat IPC: 2.726 cumulative IPC: 2.686 (Simulation time: 00 hr 00 min 47 sec)
Heartbeat CPU 0 instructions: 7500042 cycles: 2792738 heartbeat IPC: 2.683 cumulative IPC: 2.686 (Simulation time: 00 hr 00 min 51 sec)
Heartbeat CPU 0 instructions: 8000043 cycles: 2947780 heartbeat IPC: 3.225 cumulative IPC: 2.714 (Simulation time: 00 hr 00 min 54 sec)
Heartbeat CPU 0 instructions: 8500043 cycles: 3106479 heartbeat IPC: 3.151 cumulative IPC: 2.736 (Simulation time: 00 hr 00 min 58 sec)
Heartbeat CPU 0 instructions: 9000046 cycles: 3262577 heartbeat IPC: 3.203 cumulative IPC: 2.759 (Simulation time: 00 hr 01 min 00 sec)
Heartbeat CPU 0 instructions: 9500053 cycles: 3430481 heartbeat IPC: 2.978 cumulative IPC: 2.769 (Simulation time: 00 hr 01 min 04 sec)
Heartbeat CPU 0 instructions: 10000058 cycles: 3587719 heartbeat IPC: 3.18 cumulative IPC: 2.787 (Simulation time: 00 hr 01 min 07 sec)
Heartbeat CPU 0 instructions: 10500058 cycles: 3733842 heartbeat IPC: 3.422 cumulative IPC: 2.812 (Simulation time: 00 hr 01 min 10 sec)
Heartbeat CPU 0 instructions: 11000062 cycles: 3884094 heartbeat IPC: 3.328 cumulative IPC: 2.832 (Simulation time: 00 hr 01 min 13 sec)
Heartbeat CPU 0 instructions: 11500067 cycles: 4047134 heartbeat IPC: 3.067 cumulative IPC: 2.842 (Simulation time: 00 hr 01 min 16 sec)
Heartbeat CPU 0 instructions: 12000072 cycles: 4204290 heartbeat IPC: 3.182 cumulative IPC: 2.854 (Simulation time: 00 hr 01 min 19 sec)
Heartbeat CPU 0 instructions: 12500075 cycles: 4330762 heartbeat IPC: 3.953 cumulative IPC: 2.886 (Simulation time: 00 hr 01 min 22 sec)
Heartbeat CPU 0 instructions: 13000075 cycles: 4478568 heartbeat IPC: 3.383 cumulative IPC: 2.903 (Simulation time: 00 hr 01 min 25 sec)
Heartbeat CPU 0 instructions: 13500076 cycles: 4650365 heartbeat IPC: 2.91 cumulative IPC: 2.903 (Simulation time: 00 hr 01 min 28 sec)
Heartbeat CPU 0 instructions: 14000076 cycles: 4813021 heartbeat IPC: 3.074 cumulative IPC: 2.909 (Simulation time: 00 hr 01 min 32 sec)
Heartbeat CPU 0 instructions: 14500082 cycles: 4942290 heartbeat IPC: 3.868 cumulative IPC: 2.934 (Simulation time: 00 hr 01 min 34 sec)
Heartbeat CPU 0 instructions: 15000084 cycles: 5072446 heartbeat IPC: 3.842 cumulative IPC: 2.957 (Simulation time: 00 hr 01 min 37 sec)
Heartbeat CPU 0 instructions: 15500087 cycles: 5254793 heartbeat IPC: 2.742 cumulative IPC: 2.95 (Simulation time: 00 hr 01 min 41 sec)
Heartbeat CPU 0 instructions: 16000091 cycles: 5369741 heartbeat IPC: 4.35 cumulative IPC: 2.98 (Simulation time: 00 hr 01 min 43 sec)
Heartbeat CPU 0 instructions: 16500094 cycles: 5552706 heartbeat IPC: 2.733 cumulative IPC: 2.972 (Simulation time: 00 hr 01 min 47 sec)
Heartbeat CPU 0 instructions: 17000101 cycles: 5677011 heartbeat IPC: 4.022 cumulative IPC: 2.995 (Simulation time: 00 hr 01 min 49 sec)
Heartbeat CPU 0 instructions: 17500106 cycles: 5784835 heartbeat IPC: 4.637 cumulative IPC: 3.025 (Simulation time: 00 hr 01 min 52 sec)
Heartbeat CPU 0 instructions: 18000106 cycles: 5938946 heartbeat IPC: 3.244 cumulative IPC: 3.031 (Simulation time: 00 hr 01 min 55 sec)
Heartbeat CPU 0 instructions: 18500107 cycles: 6061010 heartbeat IPC: 4.096 cumulative IPC: 3.052 (Simulation time: 00 hr 01 min 57 sec)
Heartbeat CPU 0 instructions: 19000108 cycles: 6162059 heartbeat IPC: 4.948 cumulative IPC: 3.083 (Simulation time: 00 hr 01 min 59 sec)
Heartbeat CPU 0 instructions: 19500111 cycles: 6288126 heartbeat IPC: 3.966 cumulative IPC: 3.101 (Simulation time: 00 hr 02 min 02 sec)
Heartbeat CPU 0 instructions: 20000113 cycles: 6433383 heartbeat IPC: 3.442 cumulative IPC: 3.109 (Simulation time: 00 hr 02 min 05 sec)
Heartbeat CPU 0 instructions: 20500120 cycles: 6584091 heartbeat IPC: 3.318 cumulative IPC: 3.114 (Simulation time: 00 hr 02 min 08 sec)
Heartbeat CPU 0 instructions: 21000120 cycles: 6756816 heartbeat IPC: 2.895 cumulative IPC: 3.108 (Simulation time: 00 hr 02 min 11 sec)
Heartbeat CPU 0 instructions: 21500124 cycles: 6907495 heartbeat IPC: 3.318 cumulative IPC: 3.113 (Simulation time: 00 hr 02 min 15 sec)
Heartbeat CPU 0 instructions: 22000124 cycles: 7043186 heartbeat IPC: 3.685 cumulative IPC: 3.124 (Simulation time: 00 hr 02 min 17 sec)
Heartbeat CPU 0 instructions: 22500128 cycles: 7192838 heartbeat IPC: 3.341 cumulative IPC: 3.128 (Simulation time: 00 hr 02 min 20 sec)
Heartbeat CPU 0 instructions: 23000134 cycles: 7309054 heartbeat IPC: 4.302 cumulative IPC: 3.147 (Simulation time: 00 hr 02 min 23 sec)
Heartbeat CPU 0 instructions: 23500138 cycles: 7429531 heartbeat IPC: 4.15 cumulative IPC: 3.163 (Simulation time: 00 hr 02 min 25 sec)
Heartbeat CPU 0 instructions: 24000140 cycles: 7547711 heartbeat IPC: 4.231 cumulative IPC: 3.18 (Simulation time: 00 hr 02 min 28 sec)
Heartbeat CPU 0 instructions: 24500142 cycles: 7663060 heartbeat IPC: 4.335 cumulative IPC: 3.197 (Simulation time: 00 hr 02 min 30 sec)
Heartbeat CPU 0 instructions: 25000145 cycles: 7778011 heartbeat IPC: 4.35 cumulative IPC: 3.214 (Simulation time: 00 hr 02 min 33 sec)
Heartbeat CPU 0 instructions: 25500148 cycles: 7912746 heartbeat IPC: 3.711 cumulative IPC: 3.223 (Simulation time: 00 hr 02 min 35 sec)
Heartbeat CPU 0 instructions: 26000152 cycles: 8064912 heartbeat IPC: 3.286 cumulative IPC: 3.224 (Simulation time: 00 hr 02 min 39 sec)
Heartbeat CPU 0 instructions: 26500152 cycles: 8197552 heartbeat IPC: 3.77 cumulative IPC: 3.233 (Simulation time: 00 hr 02 min 41 sec)
Heartbeat CPU 0 instructions: 27000158 cycles: 8358519 heartbeat IPC: 3.106 cumulative IPC: 3.23 (Simulation time: 00 hr 02 min 45 sec)
Heartbeat CPU 0 instructions: 27500158 cycles: 8501903 heartbeat IPC: 3.487 cumulative IPC: 3.235 (Simulation time: 00 hr 02 min 48 sec)
Heartbeat CPU 0 instructions: 28000160 cycles: 8640924 heartbeat IPC: 3.597 cumulative IPC: 3.24 (Simulation time: 00 hr 02 min 50 sec)
Heartbeat CPU 0 instructions: 28500165 cycles: 8789535 heartbeat IPC: 3.365 cumulative IPC: 3.243 (Simulation time: 00 hr 02 min 54 sec)
Heartbeat CPU 0 instructions: 29000171 cycles: 8937348 heartbeat IPC: 3.383 cumulative IPC: 3.245 (Simulation time: 00 hr 02 min 57 sec)
Heartbeat CPU 0 instructions: 29500171 cycles: 9084048 heartbeat IPC: 3.408 cumulative IPC: 3.247 (Simulation time: 00 hr 03 min 00 sec)
Heartbeat CPU 0 instructions: 30000173 cycles: 9234449 heartbeat IPC: 3.324 cumulative IPC: 3.249 (Simulation time: 00 hr 03 min 03 sec)
Heartbeat CPU 0 instructions: 30500177 cycles: 9380826 heartbeat IPC: 3.416 cumulative IPC: 3.251 (Simulation time: 00 hr 03 min 06 sec)
Heartbeat CPU 0 instructions: 31000178 cycles: 9525868 heartbeat IPC: 3.447 cumulative IPC: 3.254 (Simulation time: 00 hr 03 min 09 sec)
Heartbeat CPU 0 instructions: 31500178 cycles: 9668547 heartbeat IPC: 3.504 cumulative IPC: 3.258 (Simulation time: 00 hr 03 min 12 sec)
Heartbeat CPU 0 instructions: 32000184 cycles: 9819651 heartbeat IPC: 3.309 cumulative IPC: 3.259 (Simulation time: 00 hr 03 min 15 sec)
Heartbeat CPU 0 instructions: 32500190 cycles: 9940671 heartbeat IPC: 4.132 cumulative IPC: 3.269 (Simulation time: 00 hr 03 min 18 sec)
Heartbeat CPU 0 instructions: 33000190 cycles: 10077637 heartbeat IPC: 3.651 cumulative IPC: 3.275 (Simulation time: 00 hr 03 min 21 sec)
Heartbeat CPU 0 instructions: 33500197 cycles: 10268876 heartbeat IPC: 2.615 cumulative IPC: 3.262 (Simulation time: 00 hr 03 min 25 sec)
Heartbeat CPU 0 instructions: 34000197 cycles: 10411106 heartbeat IPC: 3.515 cumulative IPC: 3.266 (Simulation time: 00 hr 03 min 28 sec)
Heartbeat CPU 0 instructions: 34500201 cycles: 10556074 heartbeat IPC: 3.449 cumulative IPC: 3.268 (Simulation time: 00 hr 03 min 31 sec)
Heartbeat CPU 0 instructions: 35000208 cycles: 10702022 heartbeat IPC: 3.426 cumulative IPC: 3.27 (Simulation time: 00 hr 03 min 34 sec)
Heartbeat CPU 0 instructions: 35500209 cycles: 10832919 heartbeat IPC: 3.82 cumulative IPC: 3.277 (Simulation time: 00 hr 03 min 37 sec)
Heartbeat CPU 0 instructions: 36000212 cycles: 10967745 heartbeat IPC: 3.709 cumulative IPC: 3.282 (Simulation time: 00 hr 03 min 40 sec)
Heartbeat CPU 0 instructions: 36500214 cycles: 11109237 heartbeat IPC: 3.534 cumulative IPC: 3.286 (Simulation time: 00 hr 03 min 43 sec)
Heartbeat CPU 0 instructions: 37000217 cycles: 11237988 heartbeat IPC: 3.883 cumulative IPC: 3.292 (Simulation time: 00 hr 03 min 45 sec)
Heartbeat CPU 0 instructions: 37500224 cycles: 11362006 heartbeat IPC: 4.032 cumulative IPC: 3.3 (Simulation time: 00 hr 03 min 48 sec)
Heartbeat CPU 0 instructions: 38000225 cycles: 11518539 heartbeat IPC: 3.194 cumulative IPC: 3.299 (Simulation time: 00 hr 03 min 51 sec)
Heartbeat CPU 0 instructions: 38500232 cycles: 11682745 heartbeat IPC: 3.045 cumulative IPC: 3.295 (Simulation time: 00 hr 03 min 54 sec)
Heartbeat CPU 0 instructions: 39000238 cycles: 11817119 heartbeat IPC: 3.721 cumulative IPC: 3.3 (Simulation time: 00 hr 03 min 57 sec)
Heartbeat CPU 0 instructions: 39500243 cycles: 11960952 heartbeat IPC: 3.476 cumulative IPC: 3.302 (Simulation time: 00 hr 04 min 00 sec)
Heartbeat CPU 0 instructions: 40000246 cycles: 12099359 heartbeat IPC: 3.613 cumulative IPC: 3.306 (Simulation time: 00 hr 04 min 03 sec)
Heartbeat CPU 0 instructions: 40500250 cycles: 12222608 heartbeat IPC: 4.057 cumulative IPC: 3.314 (Simulation time: 00 hr 04 min 06 sec)
Heartbeat CPU 0 instructions: 41000255 cycles: 12323045 heartbeat IPC: 4.978 cumulative IPC: 3.327 (Simulation time: 00 hr 04 min 07 sec)
Heartbeat CPU 0 instructions: 41500259 cycles: 12423371 heartbeat IPC: 4.984 cumulative IPC: 3.34 (Simulation time: 00 hr 04 min 09 sec)
Heartbeat CPU 0 instructions: 42000260 cycles: 12523911 heartbeat IPC: 4.973 cumulative IPC: 3.354 (Simulation time: 00 hr 04 min 11 sec)
Heartbeat CPU 0 instructions: 42500264 cycles: 12657020 heartbeat IPC: 3.756 cumulative IPC: 3.358 (Simulation time: 00 hr 04 min 13 sec)
Heartbeat CPU 0 instructions: 43000265 cycles: 12757504 heartbeat IPC: 4.976 cumulative IPC: 3.371 (Simulation time: 00 hr 04 min 15 sec)
Heartbeat CPU 0 instructions: 43500265 cycles: 12857712 heartbeat IPC: 4.99 cumulative IPC: 3.383 (Simulation time: 00 hr 04 min 17 sec)
Heartbeat CPU 0 instructions: 44000268 cycles: 12958032 heartbeat IPC: 4.984 cumulative IPC: 3.396 (Simulation time: 00 hr 04 min 18 sec)
Heartbeat CPU 0 instructions: 44500270 cycles: 13107181 heartbeat IPC: 3.352 cumulative IPC: 3.395 (Simulation time: 00 hr 04 min 21 sec)
Heartbeat CPU 0 instructions: 45000274 cycles: 13239568 heartbeat IPC: 3.777 cumulative IPC: 3.399 (Simulation time: 00 hr 04 min 24 sec)
Heartbeat CPU 0 instructions: 45500276 cycles: 13380334 heartbeat IPC: 3.552 cumulative IPC: 3.401 (Simulation time: 00 hr 04 min 27 sec)
Heartbeat CPU 0 instructions: 46000281 cycles: 13500537 heartbeat IPC: 4.16 cumulative IPC: 3.407 (Simulation time: 00 hr 04 min 29 sec)
Heartbeat CPU 0 instructions: 46500286 cycles: 13647418 heartbeat IPC: 3.404 cumulative IPC: 3.407 (Simulation time: 00 hr 04 min 33 sec)
Heartbeat CPU 0 instructions: 47000286 cycles: 13792287 heartbeat IPC: 3.451 cumulative IPC: 3.408 (Simulation time: 00 hr 04 min 36 sec)
Heartbeat CPU 0 instructions: 47500288 cycles: 13978318 heartbeat IPC: 2.688 cumulative IPC: 3.398 (Simulation time: 00 hr 04 min 39 sec)
Heartbeat CPU 0 instructions: 48000288 cycles: 14196433 heartbeat IPC: 2.292 cumulative IPC: 3.381 (Simulation time: 00 hr 04 min 43 sec)
Heartbeat CPU 0 instructions: 48500293 cycles: 14344977 heartbeat IPC: 3.366 cumulative IPC: 3.381 (Simulation time: 00 hr 04 min 46 sec)
Heartbeat CPU 0 instructions: 49000295 cycles: 14449370 heartbeat IPC: 4.79 cumulative IPC: 3.391 (Simulation time: 00 hr 04 min 48 sec)
Heartbeat CPU 0 instructions: 49500296 cycles: 14578548 heartbeat IPC: 3.871 cumulative IPC: 3.395 (Simulation time: 00 hr 04 min 51 sec)
Warmup halting CPU 0 at instruction 50000004 cycle 14719307 for remainder of phase
Warmup finished CPU 0 instructions: 50000004 cycles: 14719307 cumulative IPC: 3.397 (Simulation time: 00 hr 04 min 54 sec)
Warmup complete CPU 0 instructions: 50000004 cycles: 14719307 cumulative IPC: 3.397 (Simulation time: 00 hr 04 min 54 sec)
Heartbeat CPU 0 instructions: 50000298 cycles: 14719377 heartbeat IPC: 3.55 cumulative IPC: 4.2 (Simulation time: 00 hr 04 min 54 sec)
Heartbeat CPU 0 instructions: 50500303 cycles: 15602730 heartbeat IPC: 0.566 cumulative IPC: 0.5663 (Simulation time: 00 hr 05 min 02 sec)
Heartbeat CPU 0 instructions: 51000303 cycles: 16464488 heartbeat IPC: 0.5802 cumulative IPC: 0.5732 (Simulation time: 00 hr 05 min 10 sec)
Heartbeat CPU 0 instructions: 51500303 cycles: 18338877 heartbeat IPC: 0.2668 cumulative IPC: 0.4145 (Simulation time: 00 hr 05 min 24 sec)
Heartbeat CPU 0 instructions: 52000305 cycles: 19533211 heartbeat IPC: 0.4186 cumulative IPC: 0.4155 (Simulation time: 00 hr 05 min 34 sec)
Heartbeat CPU 0 instructions: 52500307 cycles: 21005651 heartbeat IPC: 0.3396 cumulative IPC: 0.3977 (Simulation time: 00 hr 05 min 47 sec)
Heartbeat CPU 0 instructions: 53000308 cycles: 22520552 heartbeat IPC: 0.3301 cumulative IPC: 0.3846 (Simulation time: 00 hr 05 min 59 sec)
Heartbeat CPU 0 instructions: 53500308 cycles: 23771063 heartbeat IPC: 0.3998 cumulative IPC: 0.3867 (Simulation time: 00 hr 06 min 10 sec)
Heartbeat CPU 0 instructions: 54000315 cycles: 25175292 heartbeat IPC: 0.3561 cumulative IPC: 0.3826 (Simulation time: 00 hr 06 min 20 sec)
Heartbeat CPU 0 instructions: 54500321 cycles: 25827499 heartbeat IPC: 0.7666 cumulative IPC: 0.4051 (Simulation time: 00 hr 06 min 26 sec)
Heartbeat CPU 0 instructions: 55000323 cycles: 26539863 heartbeat IPC: 0.7019 cumulative IPC: 0.423 (Simulation time: 00 hr 06 min 33 sec)
Heartbeat CPU 0 instructions: 55500326 cycles: 26841363 heartbeat IPC: 1.658 cumulative IPC: 0.4537 (Simulation time: 00 hr 06 min 37 sec)
Heartbeat CPU 0 instructions: 56000333 cycles: 29947433 heartbeat IPC: 0.161 cumulative IPC: 0.394 (Simulation time: 00 hr 07 min 00 sec)
Heartbeat CPU 0 instructions: 56500339 cycles: 31366225 heartbeat IPC: 0.3524 cumulative IPC: 0.3905 (Simulation time: 00 hr 07 min 11 sec)
Heartbeat CPU 0 instructions: 57000340 cycles: 33002064 heartbeat IPC: 0.3057 cumulative IPC: 0.3829 (Simulation time: 00 hr 07 min 24 sec)
Heartbeat CPU 0 instructions: 57500342 cycles: 34018651 heartbeat IPC: 0.4918 cumulative IPC: 0.3886 (Simulation time: 00 hr 07 min 33 sec)
Heartbeat CPU 0 instructions: 58000342 cycles: 35267717 heartbeat IPC: 0.4003 cumulative IPC: 0.3893 (Simulation time: 00 hr 07 min 44 sec)
Heartbeat CPU 0 instructions: 58500344 cycles: 37672338 heartbeat IPC: 0.2079 cumulative IPC: 0.3703 (Simulation time: 00 hr 08 min 02 sec)
Heartbeat CPU 0 instructions: 59000347 cycles: 39259962 heartbeat IPC: 0.3149 cumulative IPC: 0.3668 (Simulation time: 00 hr 08 min 14 sec)
Heartbeat CPU 0 instructions: 59500349 cycles: 41277287 heartbeat IPC: 0.2479 cumulative IPC: 0.3577 (Simulation time: 00 hr 08 min 29 sec)
Heartbeat CPU 0 instructions: 60000350 cycles: 44210587 heartbeat IPC: 0.1705 cumulative IPC: 0.3391 (Simulation time: 00 hr 08 min 50 sec)
Heartbeat CPU 0 instructions: 60500350 cycles: 46408396 heartbeat IPC: 0.2275 cumulative IPC: 0.3314 (Simulation time: 00 hr 09 min 07 sec)
Heartbeat CPU 0 instructions: 61000351 cycles: 47778891 heartbeat IPC: 0.3648 cumulative IPC: 0.3327 (Simulation time: 00 hr 09 min 18 sec)
Heartbeat CPU 0 instructions: 61500351 cycles: 49020899 heartbeat IPC: 0.4026 cumulative IPC: 0.3353 (Simulation time: 00 hr 09 min 28 sec)
Heartbeat CPU 0 instructions: 62000354 cycles: 49447872 heartbeat IPC: 1.171 cumulative IPC: 0.3455 (Simulation time: 00 hr 09 min 33 sec)
Heartbeat CPU 0 instructions: 62500357 cycles: 51285772 heartbeat IPC: 0.2721 cumulative IPC: 0.3419 (Simulation time: 00 hr 09 min 47 sec)
Heartbeat CPU 0 instructions: 63000357 cycles: 53863073 heartbeat IPC: 0.194 cumulative IPC: 0.3321 (Simulation time: 00 hr 10 min 07 sec)
Heartbeat CPU 0 instructions: 63500358 cycles: 54335020 heartbeat IPC: 1.059 cumulative IPC: 0.3408 (Simulation time: 00 hr 10 min 12 sec)
Heartbeat CPU 0 instructions: 64000360 cycles: 54722489 heartbeat IPC: 1.29 cumulative IPC: 0.35 (Simulation time: 00 hr 10 min 17 sec)
Heartbeat CPU 0 instructions: 64500360 cycles: 55465388 heartbeat IPC: 0.673 cumulative IPC: 0.3559 (Simulation time: 00 hr 10 min 24 sec)
Heartbeat CPU 0 instructions: 65000366 cycles: 56661731 heartbeat IPC: 0.4179 cumulative IPC: 0.3576 (Simulation time: 00 hr 10 min 34 sec)
Heartbeat CPU 0 instructions: 65500366 cycles: 56878400 heartbeat IPC: 2.308 cumulative IPC: 0.3677 (Simulation time: 00 hr 10 min 38 sec)
Heartbeat CPU 0 instructions: 66000367 cycles: 57065127 heartbeat IPC: 2.678 cumulative IPC: 0.3778 (Simulation time: 00 hr 10 min 41 sec)
Heartbeat CPU 0 instructions: 66500373 cycles: 57667261 heartbeat IPC: 0.8304 cumulative IPC: 0.3842 (Simulation time: 00 hr 10 min 47 sec)
Heartbeat CPU 0 instructions: 67000375 cycles: 58046151 heartbeat IPC: 1.32 cumulative IPC: 0.3924 (Simulation time: 00 hr 10 min 52 sec)
Heartbeat CPU 0 instructions: 67500376 cycles: 58287744 heartbeat IPC: 2.07 cumulative IPC: 0.4017 (Simulation time: 00 hr 10 min 56 sec)
Heartbeat CPU 0 instructions: 68000380 cycles: 58475919 heartbeat IPC: 2.657 cumulative IPC: 0.4114 (Simulation time: 00 hr 10 min 59 sec)
Heartbeat CPU 0 instructions: 68500382 cycles: 58665452 heartbeat IPC: 2.638 cumulative IPC: 0.421 (Simulation time: 00 hr 11 min 03 sec)
Heartbeat CPU 0 instructions: 69000388 cycles: 59015310 heartbeat IPC: 1.429 cumulative IPC: 0.4289 (Simulation time: 00 hr 11 min 07 sec)
Heartbeat CPU 0 instructions: 69500388 cycles: 59277594 heartbeat IPC: 1.906 cumulative IPC: 0.4376 (Simulation time: 00 hr 11 min 11 sec)
Heartbeat CPU 0 instructions: 70000391 cycles: 59463845 heartbeat IPC: 2.685 cumulative IPC: 0.447 (Simulation time: 00 hr 11 min 15 sec)
Heartbeat CPU 0 instructions: 70500396 cycles: 59818383 heartbeat IPC: 1.41 cumulative IPC: 0.4546 (Simulation time: 00 hr 11 min 20 sec)
Heartbeat CPU 0 instructions: 71000401 cycles: 60050225 heartbeat IPC: 2.157 cumulative IPC: 0.4633 (Simulation time: 00 hr 11 min 23 sec)
Heartbeat CPU 0 instructions: 71500408 cycles: 60839045 heartbeat IPC: 0.6339 cumulative IPC: 0.4662 (Simulation time: 00 hr 11 min 31 sec)
Heartbeat CPU 0 instructions: 72000408 cycles: 62506080 heartbeat IPC: 0.2999 cumulative IPC: 0.4604 (Simulation time: 00 hr 11 min 47 sec)
Heartbeat CPU 0 instructions: 72500408 cycles: 64744029 heartbeat IPC: 0.2234 cumulative IPC: 0.4498 (Simulation time: 00 hr 12 min 04 sec)
Heartbeat CPU 0 instructions: 73000414 cycles: 64936056 heartbeat IPC: 2.604 cumulative IPC: 0.458 (Simulation time: 00 hr 12 min 07 sec)
Heartbeat CPU 0 instructions: 73500415 cycles: 65207937 heartbeat IPC: 1.839 cumulative IPC: 0.4655 (Simulation time: 00 hr 12 min 10 sec)
Heartbeat CPU 0 instructions: 74000418 cycles: 65409544 heartbeat IPC: 2.48 cumulative IPC: 0.4735 (Simulation time: 00 hr 12 min 12 sec)
Heartbeat CPU 0 instructions: 74500422 cycles: 65862115 heartbeat IPC: 1.105 cumulative IPC: 0.4791 (Simulation time: 00 hr 12 min 16 sec)
Heartbeat CPU 0 instructions: 75000423 cycles: 67978432 heartbeat IPC: 0.2363 cumulative IPC: 0.4694 (Simulation time: 00 hr 12 min 33 sec)
Heartbeat CPU 0 instructions: 75500423 cycles: 69268663 heartbeat IPC: 0.3875 cumulative IPC: 0.4675 (Simulation time: 00 hr 12 min 43 sec)
Heartbeat CPU 0 instructions: 76000426 cycles: 71058169 heartbeat IPC: 0.2794 cumulative IPC: 0.4615 (Simulation time: 00 hr 12 min 57 sec)
Heartbeat CPU 0 instructions: 76500426 cycles: 72095600 heartbeat IPC: 0.482 cumulative IPC: 0.4619 (Simulation time: 00 hr 13 min 06 sec)
Heartbeat CPU 0 instructions: 77000426 cycles: 72730826 heartbeat IPC: 0.7871 cumulative IPC: 0.4654 (Simulation time: 00 hr 13 min 12 sec)
Heartbeat CPU 0 instructions: 77500426 cycles: 73392189 heartbeat IPC: 0.756 cumulative IPC: 0.4687 (Simulation time: 00 hr 13 min 18 sec)
Heartbeat CPU 0 instructions: 78000426 cycles: 73852688 heartbeat IPC: 1.086 cumulative IPC: 0.4735 (Simulation time: 00 hr 13 min 22 sec)
Heartbeat CPU 0 instructions: 78500426 cycles: 74406464 heartbeat IPC: 0.9029 cumulative IPC: 0.4775 (Simulation time: 00 hr 13 min 28 sec)
Heartbeat CPU 0 instructions: 79000427 cycles: 75018254 heartbeat IPC: 0.8173 cumulative IPC: 0.4809 (Simulation time: 00 hr 13 min 33 sec)
Heartbeat CPU 0 instructions: 79500427 cycles: 75532245 heartbeat IPC: 0.9728 cumulative IPC: 0.4851 (Simulation time: 00 hr 13 min 38 sec)
Heartbeat CPU 0 instructions: 80000428 cycles: 76062733 heartbeat IPC: 0.9425 cumulative IPC: 0.4891 (Simulation time: 00 hr 13 min 43 sec)
Heartbeat CPU 0 instructions: 80500431 cycles: 76671323 heartbeat IPC: 0.8216 cumulative IPC: 0.4923 (Simulation time: 00 hr 13 min 49 sec)
Heartbeat CPU 0 instructions: 81000431 cycles: 77432531 heartbeat IPC: 0.6569 cumulative IPC: 0.4943 (Simulation time: 00 hr 13 min 56 sec)
Heartbeat CPU 0 instructions: 81500436 cycles: 79978872 heartbeat IPC: 0.1964 cumulative IPC: 0.4827 (Simulation time: 00 hr 14 min 16 sec)
Heartbeat CPU 0 instructions: 82000440 cycles: 81601241 heartbeat IPC: 0.3082 cumulative IPC: 0.4785 (Simulation time: 00 hr 14 min 29 sec)
Heartbeat CPU 0 instructions: 82500442 cycles: 83666785 heartbeat IPC: 0.2421 cumulative IPC: 0.4714 (Simulation time: 00 hr 14 min 45 sec)
Heartbeat CPU 0 instructions: 83000442 cycles: 85443025 heartbeat IPC: 0.2815 cumulative IPC: 0.4666 (Simulation time: 00 hr 14 min 59 sec)
Heartbeat CPU 0 instructions: 83500444 cycles: 87275179 heartbeat IPC: 0.2729 cumulative IPC: 0.4617 (Simulation time: 00 hr 15 min 12 sec)
Heartbeat CPU 0 instructions: 84000445 cycles: 88468054 heartbeat IPC: 0.4192 cumulative IPC: 0.461 (Simulation time: 00 hr 15 min 23 sec)
Heartbeat CPU 0 instructions: 84500446 cycles: 89235440 heartbeat IPC: 0.6516 cumulative IPC: 0.463 (Simulation time: 00 hr 15 min 32 sec)
Heartbeat CPU 0 instructions: 85000446 cycles: 89772481 heartbeat IPC: 0.931 cumulative IPC: 0.4663 (Simulation time: 00 hr 15 min 40 sec)
Heartbeat CPU 0 instructions: 85500448 cycles: 92109101 heartbeat IPC: 0.214 cumulative IPC: 0.4587 (Simulation time: 00 hr 15 min 58 sec)
Heartbeat CPU 0 instructions: 86000448 cycles: 92462138 heartbeat IPC: 1.416 cumulative IPC: 0.4631 (Simulation time: 00 hr 16 min 02 sec)
Heartbeat CPU 0 instructions: 86500448 cycles: 94281967 heartbeat IPC: 0.2748 cumulative IPC: 0.4588 (Simulation time: 00 hr 16 min 17 sec)
Heartbeat CPU 0 instructions: 87000448 cycles: 95485181 heartbeat IPC: 0.4156 cumulative IPC: 0.4581 (Simulation time: 00 hr 16 min 27 sec)
Heartbeat CPU 0 instructions: 87500448 cycles: 96288048 heartbeat IPC: 0.6228 cumulative IPC: 0.4597 (Simulation time: 00 hr 16 min 34 sec)
Heartbeat CPU 0 instructions: 88000448 cycles: 96967546 heartbeat IPC: 0.7358 cumulative IPC: 0.462 (Simulation time: 00 hr 16 min 40 sec)
Heartbeat CPU 0 instructions: 88500449 cycles: 97617036 heartbeat IPC: 0.7698 cumulative IPC: 0.4644 (Simulation time: 00 hr 16 min 46 sec)
Heartbeat CPU 0 instructions: 89000449 cycles: 98108857 heartbeat IPC: 1.017 cumulative IPC: 0.4677 (Simulation time: 00 hr 16 min 51 sec)
Heartbeat CPU 0 instructions: 89500451 cycles: 98731874 heartbeat IPC: 0.8025 cumulative IPC: 0.4702 (Simulation time: 00 hr 16 min 56 sec)
Heartbeat CPU 0 instructions: 90000452 cycles: 99260416 heartbeat IPC: 0.946 cumulative IPC: 0.4731 (Simulation time: 00 hr 17 min 02 sec)
Heartbeat CPU 0 instructions: 90500453 cycles: 99806174 heartbeat IPC: 0.9162 cumulative IPC: 0.476 (Simulation time: 00 hr 17 min 07 sec)
Heartbeat CPU 0 instructions: 91000453 cycles: 100298370 heartbeat IPC: 1.016 cumulative IPC: 0.4791 (Simulation time: 00 hr 17 min 12 sec)
Heartbeat CPU 0 instructions: 91500453 cycles: 101736527 heartbeat IPC: 0.3477 cumulative IPC: 0.4769 (Simulation time: 00 hr 17 min 24 sec)
Heartbeat CPU 0 instructions: 92000458 cycles: 103989228 heartbeat IPC: 0.222 cumulative IPC: 0.4705 (Simulation time: 00 hr 17 min 43 sec)
Heartbeat CPU 0 instructions: 92500458 cycles: 104804469 heartbeat IPC: 0.6133 cumulative IPC: 0.4718 (Simulation time: 00 hr 17 min 50 sec)
Heartbeat CPU 0 instructions: 93000458 cycles: 105624752 heartbeat IPC: 0.6095 cumulative IPC: 0.473 (Simulation time: 00 hr 17 min 57 sec)
Heartbeat CPU 0 instructions: 93500462 cycles: 106489416 heartbeat IPC: 0.5783 cumulative IPC: 0.474 (Simulation time: 00 hr 18 min 05 sec)
Heartbeat CPU 0 instructions: 94000462 cycles: 107325904 heartbeat IPC: 0.5977 cumulative IPC: 0.4751 (Simulation time: 00 hr 18 min 12 sec)
Heartbeat CPU 0 instructions: 94500468 cycles: 109453908 heartbeat IPC: 0.235 cumulative IPC: 0.4697 (Simulation time: 00 hr 18 min 29 sec)
Heartbeat CPU 0 instructions: 95000472 cycles: 110045258 heartbeat IPC: 0.8455 cumulative IPC: 0.4721 (Simulation time: 00 hr 18 min 36 sec)
Heartbeat CPU 0 instructions: 95500478 cycles: 110458466 heartbeat IPC: 1.21 cumulative IPC: 0.4753 (Simulation time: 00 hr 18 min 41 sec)
Heartbeat CPU 0 instructions: 96000484 cycles: 110869836 heartbeat IPC: 1.215 cumulative IPC: 0.4784 (Simulation time: 00 hr 18 min 46 sec)
Heartbeat CPU 0 instructions: 96500485 cycles: 111273845 heartbeat IPC: 1.238 cumulative IPC: 0.4816 (Simulation time: 00 hr 18 min 51 sec)
Heartbeat CPU 0 instructions: 97000485 cycles: 111707719 heartbeat IPC: 1.152 cumulative IPC: 0.4846 (Simulation time: 00 hr 18 min 57 sec)
Heartbeat CPU 0 instructions: 97500489 cycles: 112140826 heartbeat IPC: 1.154 cumulative IPC: 0.4876 (Simulation time: 00 hr 19 min 02 sec)
Heartbeat CPU 0 instructions: 98000492 cycles: 112574456 heartbeat IPC: 1.153 cumulative IPC: 0.4905 (Simulation time: 00 hr 19 min 08 sec)
Heartbeat CPU 0 instructions: 98500492 cycles: 114468556 heartbeat IPC: 0.264 cumulative IPC: 0.4862 (Simulation time: 00 hr 19 min 24 sec)
Heartbeat CPU 0 instructions: 99000497 cycles: 115827518 heartbeat IPC: 0.3679 cumulative IPC: 0.4846 (Simulation time: 00 hr 19 min 37 sec)
Heartbeat CPU 0 instructions: 99500501 cycles: 116567171 heartbeat IPC: 0.676 cumulative IPC: 0.486 (Simulation time: 00 hr 19 min 45 sec)
Heartbeat CPU 0 instructions: 100000504 cycles: 118252187 heartbeat IPC: 0.2967 cumulative IPC: 0.4829 (Simulation time: 00 hr 19 min 59 sec)
Heartbeat CPU 0 instructions: 100500509 cycles: 119062937 heartbeat IPC: 0.6167 cumulative IPC: 0.484 (Simulation time: 00 hr 20 min 09 sec)
Heartbeat CPU 0 instructions: 101000516 cycles: 119599921 heartbeat IPC: 0.9311 cumulative IPC: 0.4863 (Simulation time: 00 hr 20 min 16 sec)
Heartbeat CPU 0 instructions: 101500516 cycles: 120146979 heartbeat IPC: 0.914 cumulative IPC: 0.4885 (Simulation time: 00 hr 20 min 24 sec)
Heartbeat CPU 0 instructions: 102000521 cycles: 121806514 heartbeat IPC: 0.3013 cumulative IPC: 0.4856 (Simulation time: 00 hr 20 min 40 sec)
Heartbeat CPU 0 instructions: 102500521 cycles: 124023360 heartbeat IPC: 0.2255 cumulative IPC: 0.4803 (Simulation time: 00 hr 21 min 00 sec)
Heartbeat CPU 0 instructions: 103000525 cycles: 125691919 heartbeat IPC: 0.2997 cumulative IPC: 0.4776 (Simulation time: 00 hr 21 min 14 sec)
Heartbeat CPU 0 instructions: 103500525 cycles: 126354392 heartbeat IPC: 0.7547 cumulative IPC: 0.4792 (Simulation time: 00 hr 21 min 22 sec)
Heartbeat CPU 0 instructions: 104000530 cycles: 127692958 heartbeat IPC: 0.3735 cumulative IPC: 0.478 (Simulation time: 00 hr 21 min 34 sec)
Heartbeat CPU 0 instructions: 104500532 cycles: 129500245 heartbeat IPC: 0.2767 cumulative IPC: 0.4748 (Simulation time: 00 hr 21 min 48 sec)
Heartbeat CPU 0 instructions: 105000533 cycles: 131038101 heartbeat IPC: 0.3251 cumulative IPC: 0.4728 (Simulation time: 00 hr 22 min 01 sec)
Heartbeat CPU 0 instructions: 105500534 cycles: 132644276 heartbeat IPC: 0.3113 cumulative IPC: 0.4706 (Simulation time: 00 hr 22 min 13 sec)
Heartbeat CPU 0 instructions: 106000534 cycles: 134387992 heartbeat IPC: 0.2867 cumulative IPC: 0.468 (Simulation time: 00 hr 22 min 27 sec)
Heartbeat CPU 0 instructions: 106500534 cycles: 135159780 heartbeat IPC: 0.6478 cumulative IPC: 0.4691 (Simulation time: 00 hr 22 min 34 sec)
Heartbeat CPU 0 instructions: 107000537 cycles: 137283830 heartbeat IPC: 0.2354 cumulative IPC: 0.4651 (Simulation time: 00 hr 22 min 50 sec)
Heartbeat CPU 0 instructions: 107500537 cycles: 138146239 heartbeat IPC: 0.5798 cumulative IPC: 0.4659 (Simulation time: 00 hr 22 min 58 sec)
Heartbeat CPU 0 instructions: 108000537 cycles: 138993989 heartbeat IPC: 0.5898 cumulative IPC: 0.4667 (Simulation time: 00 hr 23 min 06 sec)
Heartbeat CPU 0 instructions: 108500537 cycles: 139330122 heartbeat IPC: 1.488 cumulative IPC: 0.4695 (Simulation time: 00 hr 23 min 09 sec)
Heartbeat CPU 0 instructions: 109000538 cycles: 139670976 heartbeat IPC: 1.467 cumulative IPC: 0.4722 (Simulation time: 00 hr 23 min 13 sec)
Heartbeat CPU 0 instructions: 109500543 cycles: 139980838 heartbeat IPC: 1.614 cumulative IPC: 0.475 (Simulation time: 00 hr 23 min 16 sec)
Heartbeat CPU 0 instructions: 110000543 cycles: 140498614 heartbeat IPC: 0.9657 cumulative IPC: 0.477 (Simulation time: 00 hr 23 min 21 sec)
Heartbeat CPU 0 instructions: 110500546 cycles: 141074783 heartbeat IPC: 0.8678 cumulative IPC: 0.4788 (Simulation time: 00 hr 23 min 27 sec)
Heartbeat CPU 0 instructions: 111000548 cycles: 141238457 heartbeat IPC: 3.055 cumulative IPC: 0.4821 (Simulation time: 00 hr 23 min 30 sec)
Heartbeat CPU 0 instructions: 111500551 cycles: 142890176 heartbeat IPC: 0.3027 cumulative IPC: 0.4798 (Simulation time: 00 hr 23 min 42 sec)
Heartbeat CPU 0 instructions: 112000552 cycles: 144616912 heartbeat IPC: 0.2896 cumulative IPC: 0.4773 (Simulation time: 00 hr 23 min 55 sec)
Heartbeat CPU 0 instructions: 112500557 cycles: 146840430 heartbeat IPC: 0.2249 cumulative IPC: 0.4731 (Simulation time: 00 hr 24 min 12 sec)
Heartbeat CPU 0 instructions: 113000557 cycles: 148337142 heartbeat IPC: 0.3341 cumulative IPC: 0.4715 (Simulation time: 00 hr 24 min 25 sec)
Heartbeat CPU 0 instructions: 113500558 cycles: 149113665 heartbeat IPC: 0.6439 cumulative IPC: 0.4725 (Simulation time: 00 hr 24 min 32 sec)
Heartbeat CPU 0 instructions: 114000561 cycles: 149847335 heartbeat IPC: 0.6815 cumulative IPC: 0.4736 (Simulation time: 00 hr 24 min 39 sec)
Heartbeat CPU 0 instructions: 114500562 cycles: 151866570 heartbeat IPC: 0.2476 cumulative IPC: 0.4703 (Simulation time: 00 hr 24 min 57 sec)
Heartbeat CPU 0 instructions: 115000566 cycles: 153524544 heartbeat IPC: 0.3016 cumulative IPC: 0.4683 (Simulation time: 00 hr 25 min 10 sec)
Heartbeat CPU 0 instructions: 115500570 cycles: 154771243 heartbeat IPC: 0.4011 cumulative IPC: 0.4677 (Simulation time: 00 hr 25 min 21 sec)
Heartbeat CPU 0 instructions: 116000571 cycles: 156789762 heartbeat IPC: 0.2477 cumulative IPC: 0.4646 (Simulation time: 00 hr 25 min 37 sec)
Heartbeat CPU 0 instructions: 116500572 cycles: 158199480 heartbeat IPC: 0.3547 cumulative IPC: 0.4635 (Simulation time: 00 hr 25 min 48 sec)
Heartbeat CPU 0 instructions: 117000572 cycles: 160029730 heartbeat IPC: 0.2732 cumulative IPC: 0.4611 (Simulation time: 00 hr 26 min 05 sec)
Heartbeat CPU 0 instructions: 117500577 cycles: 160401473 heartbeat IPC: 1.345 cumulative IPC: 0.4633 (Simulation time: 00 hr 26 min 10 sec)
Heartbeat CPU 0 instructions: 118000578 cycles: 161963581 heartbeat IPC: 0.3201 cumulative IPC: 0.4618 (Simulation time: 00 hr 26 min 22 sec)
Heartbeat CPU 0 instructions: 118500580 cycles: 163374451 heartbeat IPC: 0.3544 cumulative IPC: 0.4608 (Simulation time: 00 hr 26 min 34 sec)
Heartbeat CPU 0 instructions: 119000581 cycles: 163933090 heartbeat IPC: 0.895 cumulative IPC: 0.4624 (Simulation time: 00 hr 26 min 40 sec)
Heartbeat CPU 0 instructions: 119500581 cycles: 164484971 heartbeat IPC: 0.906 cumulative IPC: 0.4641 (Simulation time: 00 hr 26 min 47 sec)
Heartbeat CPU 0 instructions: 120000581 cycles: 165676436 heartbeat IPC: 0.4197 cumulative IPC: 0.4637 (Simulation time: 00 hr 26 min 56 sec)
Heartbeat CPU 0 instructions: 120500581 cycles: 166436790 heartbeat IPC: 0.6576 cumulative IPC: 0.4647 (Simulation time: 00 hr 27 min 03 sec)
Heartbeat CPU 0 instructions: 121000581 cycles: 167570900 heartbeat IPC: 0.4409 cumulative IPC: 0.4645 (Simulation time: 00 hr 27 min 12 sec)
Heartbeat CPU 0 instructions: 121500582 cycles: 168930519 heartbeat IPC: 0.3678 cumulative IPC: 0.4637 (Simulation time: 00 hr 27 min 24 sec)
Heartbeat CPU 0 instructions: 122000583 cycles: 171118237 heartbeat IPC: 0.2285 cumulative IPC: 0.4604 (Simulation time: 00 hr 27 min 41 sec)
Heartbeat CPU 0 instructions: 122500590 cycles: 172360623 heartbeat IPC: 0.4025 cumulative IPC: 0.4599 (Simulation time: 00 hr 27 min 53 sec)
Heartbeat CPU 0 instructions: 123000590 cycles: 173928161 heartbeat IPC: 0.319 cumulative IPC: 0.4585 (Simulation time: 00 hr 28 min 06 sec)
Heartbeat CPU 0 instructions: 123500590 cycles: 175462942 heartbeat IPC: 0.3258 cumulative IPC: 0.4573 (Simulation time: 00 hr 28 min 18 sec)
Heartbeat CPU 0 instructions: 124000590 cycles: 176588825 heartbeat IPC: 0.4441 cumulative IPC: 0.4572 (Simulation time: 00 hr 28 min 27 sec)
Heartbeat CPU 0 instructions: 124500597 cycles: 178423151 heartbeat IPC: 0.2726 cumulative IPC: 0.4551 (Simulation time: 00 hr 28 min 40 sec)
Heartbeat CPU 0 instructions: 125000599 cycles: 180805882 heartbeat IPC: 0.2098 cumulative IPC: 0.4516 (Simulation time: 00 hr 28 min 58 sec)
Heartbeat CPU 0 instructions: 125500604 cycles: 182644597 heartbeat IPC: 0.2719 cumulative IPC: 0.4496 (Simulation time: 00 hr 29 min 12 sec)
Heartbeat CPU 0 instructions: 126000608 cycles: 184114040 heartbeat IPC: 0.3403 cumulative IPC: 0.4487 (Simulation time: 00 hr 29 min 23 sec)
Heartbeat CPU 0 instructions: 126500608 cycles: 185637626 heartbeat IPC: 0.3282 cumulative IPC: 0.4476 (Simulation time: 00 hr 29 min 35 sec)
Heartbeat CPU 0 instructions: 127000610 cycles: 186501039 heartbeat IPC: 0.5791 cumulative IPC: 0.4482 (Simulation time: 00 hr 29 min 43 sec)
Heartbeat CPU 0 instructions: 127500612 cycles: 187087760 heartbeat IPC: 0.8522 cumulative IPC: 0.4496 (Simulation time: 00 hr 29 min 49 sec)
Heartbeat CPU 0 instructions: 128000614 cycles: 189031348 heartbeat IPC: 0.2573 cumulative IPC: 0.4475 (Simulation time: 00 hr 30 min 04 sec)
Heartbeat CPU 0 instructions: 128500614 cycles: 190982970 heartbeat IPC: 0.2562 cumulative IPC: 0.4454 (Simulation time: 00 hr 30 min 19 sec)
Heartbeat CPU 0 instructions: 129000615 cycles: 191725116 heartbeat IPC: 0.6737 cumulative IPC: 0.4463 (Simulation time: 00 hr 30 min 26 sec)
Heartbeat CPU 0 instructions: 129500621 cycles: 192509650 heartbeat IPC: 0.6373 cumulative IPC: 0.4472 (Simulation time: 00 hr 30 min 33 sec)
Heartbeat CPU 0 instructions: 130000624 cycles: 192859040 heartbeat IPC: 1.431 cumulative IPC: 0.4491 (Simulation time: 00 hr 30 min 38 sec)
Heartbeat CPU 0 instructions: 130500630 cycles: 194164731 heartbeat IPC: 0.3829 cumulative IPC: 0.4486 (Simulation time: 00 hr 30 min 48 sec)
Heartbeat CPU 0 instructions: 131000630 cycles: 194499814 heartbeat IPC: 1.492 cumulative IPC: 0.4506 (Simulation time: 00 hr 30 min 53 sec)
Heartbeat CPU 0 instructions: 131500633 cycles: 194931969 heartbeat IPC: 1.157 cumulative IPC: 0.4522 (Simulation time: 00 hr 30 min 58 sec)
Heartbeat CPU 0 instructions: 132000634 cycles: 195438225 heartbeat IPC: 0.9876 cumulative IPC: 0.4537 (Simulation time: 00 hr 31 min 03 sec)
Heartbeat CPU 0 instructions: 132500640 cycles: 196013117 heartbeat IPC: 0.8697 cumulative IPC: 0.4551 (Simulation time: 00 hr 31 min 09 sec)
Heartbeat CPU 0 instructions: 133000641 cycles: 197253172 heartbeat IPC: 0.4032 cumulative IPC: 0.4547 (Simulation time: 00 hr 31 min 20 sec)
Heartbeat CPU 0 instructions: 133500646 cycles: 199856390 heartbeat IPC: 0.1921 cumulative IPC: 0.451 (Simulation time: 00 hr 31 min 39 sec)
Heartbeat CPU 0 instructions: 134000649 cycles: 200502267 heartbeat IPC: 0.7741 cumulative IPC: 0.4521 (Simulation time: 00 hr 31 min 46 sec)
Heartbeat CPU 0 instructions: 134500652 cycles: 201266360 heartbeat IPC: 0.6544 cumulative IPC: 0.453 (Simulation time: 00 hr 31 min 53 sec)
Heartbeat CPU 0 instructions: 135000655 cycles: 201598289 heartbeat IPC: 1.506 cumulative IPC: 0.4548 (Simulation time: 00 hr 31 min 57 sec)
Heartbeat CPU 0 instructions: 135500655 cycles: 201921077 heartbeat IPC: 1.549 cumulative IPC: 0.4567 (Simulation time: 00 hr 32 min 01 sec)
Heartbeat CPU 0 instructions: 136000656 cycles: 202634340 heartbeat IPC: 0.701 cumulative IPC: 0.4577 (Simulation time: 00 hr 32 min 08 sec)
Heartbeat CPU 0 instructions: 136500656 cycles: 205058644 heartbeat IPC: 0.2062 cumulative IPC: 0.4545 (Simulation time: 00 hr 32 min 26 sec)
Heartbeat CPU 0 instructions: 137000657 cycles: 207121847 heartbeat IPC: 0.2423 cumulative IPC: 0.4522 (Simulation time: 00 hr 32 min 42 sec)
Heartbeat CPU 0 instructions: 137500660 cycles: 208181880 heartbeat IPC: 0.4717 cumulative IPC: 0.4523 (Simulation time: 00 hr 32 min 50 sec)
Heartbeat CPU 0 instructions: 138000660 cycles: 211026195 heartbeat IPC: 0.1758 cumulative IPC: 0.4483 (Simulation time: 00 hr 33 min 12 sec)
Heartbeat CPU 0 instructions: 138500663 cycles: 213851599 heartbeat IPC: 0.177 cumulative IPC: 0.4444 (Simulation time: 00 hr 33 min 32 sec)
Heartbeat CPU 0 instructions: 139000666 cycles: 214958891 heartbeat IPC: 0.4516 cumulative IPC: 0.4445 (Simulation time: 00 hr 33 min 43 sec)
Heartbeat CPU 0 instructions: 139500666 cycles: 216437328 heartbeat IPC: 0.3382 cumulative IPC: 0.4437 (Simulation time: 00 hr 33 min 55 sec)
Heartbeat CPU 0 instructions: 140000666 cycles: 217987590 heartbeat IPC: 0.3225 cumulative IPC: 0.4428 (Simulation time: 00 hr 34 min 07 sec)
Heartbeat CPU 0 instructions: 140500666 cycles: 220105735 heartbeat IPC: 0.2361 cumulative IPC: 0.4406 (Simulation time: 00 hr 34 min 23 sec)
Heartbeat CPU 0 instructions: 141000666 cycles: 222064047 heartbeat IPC: 0.2553 cumulative IPC: 0.4389 (Simulation time: 00 hr 34 min 38 sec)
Heartbeat CPU 0 instructions: 141500667 cycles: 222715850 heartbeat IPC: 0.7671 cumulative IPC: 0.4399 (Simulation time: 00 hr 34 min 45 sec)
Heartbeat CPU 0 instructions: 142000674 cycles: 223547688 heartbeat IPC: 0.6011 cumulative IPC: 0.4406 (Simulation time: 00 hr 34 min 53 sec)
Heartbeat CPU 0 instructions: 142500678 cycles: 223845046 heartbeat IPC: 1.681 cumulative IPC: 0.4423 (Simulation time: 00 hr 34 min 57 sec)
Heartbeat CPU 0 instructions: 143000680 cycles: 225644544 heartbeat IPC: 0.2779 cumulative IPC: 0.4409 (Simulation time: 00 hr 35 min 10 sec)
Heartbeat CPU 0 instructions: 143500686 cycles: 226426076 heartbeat IPC: 0.6398 cumulative IPC: 0.4417 (Simulation time: 00 hr 35 min 17 sec)
Heartbeat CPU 0 instructions: 144000686 cycles: 228613221 heartbeat IPC: 0.2286 cumulative IPC: 0.4395 (Simulation time: 00 hr 35 min 33 sec)
Heartbeat CPU 0 instructions: 144500688 cycles: 230399256 heartbeat IPC: 0.28 cumulative IPC: 0.4382 (Simulation time: 00 hr 35 min 47 sec)
Heartbeat CPU 0 instructions: 145000688 cycles: 233160088 heartbeat IPC: 0.1811 cumulative IPC: 0.4349 (Simulation time: 00 hr 36 min 07 sec)
Heartbeat CPU 0 instructions: 145500689 cycles: 235886274 heartbeat IPC: 0.1834 cumulative IPC: 0.4318 (Simulation time: 00 hr 36 min 27 sec)
Heartbeat CPU 0 instructions: 146000691 cycles: 237220325 heartbeat IPC: 0.3748 cumulative IPC: 0.4315 (Simulation time: 00 hr 36 min 37 sec)
Heartbeat CPU 0 instructions: 146500695 cycles: 237596589 heartbeat IPC: 1.329 cumulative IPC: 0.433 (Simulation time: 00 hr 36 min 42 sec)
Heartbeat CPU 0 instructions: 147000700 cycles: 238328578 heartbeat IPC: 0.6831 cumulative IPC: 0.4338 (Simulation time: 00 hr 36 min 48 sec)
Heartbeat CPU 0 instructions: 147500701 cycles: 238885411 heartbeat IPC: 0.8979 cumulative IPC: 0.4349 (Simulation time: 00 hr 36 min 53 sec)
Heartbeat CPU 0 instructions: 148000702 cycles: 239463425 heartbeat IPC: 0.865 cumulative IPC: 0.4361 (Simulation time: 00 hr 36 min 58 sec)
Heartbeat CPU 0 instructions: 148500706 cycles: 240085551 heartbeat IPC: 0.8037 cumulative IPC: 0.4371 (Simulation time: 00 hr 37 min 04 sec)
Heartbeat CPU 0 instructions: 149000706 cycles: 241434763 heartbeat IPC: 0.3706 cumulative IPC: 0.4367 (Simulation time: 00 hr 37 min 15 sec)
Heartbeat CPU 0 instructions: 149500708 cycles: 243219161 heartbeat IPC: 0.2802 cumulative IPC: 0.4355 (Simulation time: 00 hr 37 min 30 sec)
Heartbeat CPU 0 instructions: 150000713 cycles: 244788832 heartbeat IPC: 0.3185 cumulative IPC: 0.4347 (Simulation time: 00 hr 37 min 42 sec)
Heartbeat CPU 0 instructions: 150500714 cycles: 245897613 heartbeat IPC: 0.4509 cumulative IPC: 0.4347 (Simulation time: 00 hr 37 min 52 sec)
Heartbeat CPU 0 instructions: 151000716 cycles: 247181866 heartbeat IPC: 0.3893 cumulative IPC: 0.4345 (Simulation time: 00 hr 38 min 02 sec)
Heartbeat CPU 0 instructions: 151500717 cycles: 247874036 heartbeat IPC: 0.7224 cumulative IPC: 0.4353 (Simulation time: 00 hr 38 min 09 sec)
Heartbeat CPU 0 instructions: 152000717 cycles: 248877510 heartbeat IPC: 0.4983 cumulative IPC: 0.4356 (Simulation time: 00 hr 38 min 18 sec)
Heartbeat CPU 0 instructions: 152500723 cycles: 250859333 heartbeat IPC: 0.2523 cumulative IPC: 0.4341 (Simulation time: 00 hr 38 min 33 sec)
Heartbeat CPU 0 instructions: 153000723 cycles: 252127476 heartbeat IPC: 0.3943 cumulative IPC: 0.4339 (Simulation time: 00 hr 38 min 43 sec)
Heartbeat CPU 0 instructions: 153500725 cycles: 252538784 heartbeat IPC: 1.216 cumulative IPC: 0.4352 (Simulation time: 00 hr 38 min 47 sec)
Heartbeat CPU 0 instructions: 154000725 cycles: 253251574 heartbeat IPC: 0.7015 cumulative IPC: 0.436 (Simulation time: 00 hr 38 min 53 sec)
Heartbeat CPU 0 instructions: 154500725 cycles: 253819226 heartbeat IPC: 0.8808 cumulative IPC: 0.4371 (Simulation time: 00 hr 38 min 59 sec)
Heartbeat CPU 0 instructions: 155000726 cycles: 254407790 heartbeat IPC: 0.8495 cumulative IPC: 0.4381 (Simulation time: 00 hr 39 min 04 sec)
Heartbeat CPU 0 instructions: 155500729 cycles: 254910704 heartbeat IPC: 0.9942 cumulative IPC: 0.4392 (Simulation time: 00 hr 39 min 09 sec)
Heartbeat CPU 0 instructions: 156000734 cycles: 255361695 heartbeat IPC: 1.109 cumulative IPC: 0.4405 (Simulation time: 00 hr 39 min 14 sec)
Heartbeat CPU 0 instructions: 156500738 cycles: 256003532 heartbeat IPC: 0.779 cumulative IPC: 0.4414 (Simulation time: 00 hr 39 min 20 sec)
Heartbeat CPU 0 instructions: 157000739 cycles: 257655697 heartbeat IPC: 0.3026 cumulative IPC: 0.4404 (Simulation time: 00 hr 39 min 33 sec)
Heartbeat CPU 0 instructions: 157500739 cycles: 260821638 heartbeat IPC: 0.1579 cumulative IPC: 0.4368 (Simulation time: 00 hr 39 min 56 sec)
Heartbeat CPU 0 instructions: 158000739 cycles: 262699464 heartbeat IPC: 0.2663 cumulative IPC: 0.4355 (Simulation time: 00 hr 40 min 10 sec)
Heartbeat CPU 0 instructions: 158500745 cycles: 264243183 heartbeat IPC: 0.3239 cumulative IPC: 0.4348 (Simulation time: 00 hr 40 min 23 sec)
Heartbeat CPU 0 instructions: 159000745 cycles: 266797461 heartbeat IPC: 0.1958 cumulative IPC: 0.4324 (Simulation time: 00 hr 40 min 41 sec)
Heartbeat CPU 0 instructions: 159500745 cycles: 267972574 heartbeat IPC: 0.4255 cumulative IPC: 0.4324 (Simulation time: 00 hr 40 min 51 sec)
Heartbeat CPU 0 instructions: 160000747 cycles: 269752707 heartbeat IPC: 0.2809 cumulative IPC: 0.4313 (Simulation time: 00 hr 41 min 05 sec)
Heartbeat CPU 0 instructions: 160500750 cycles: 270010931 heartbeat IPC: 1.936 cumulative IPC: 0.4328 (Simulation time: 00 hr 41 min 09 sec)
Heartbeat CPU 0 instructions: 161000754 cycles: 270214240 heartbeat IPC: 2.459 cumulative IPC: 0.4345 (Simulation time: 00 hr 41 min 12 sec)
Heartbeat CPU 0 instructions: 161500756 cycles: 270602014 heartbeat IPC: 1.289 cumulative IPC: 0.4357 (Simulation time: 00 hr 41 min 16 sec)
Heartbeat CPU 0 instructions: 162000758 cycles: 273009063 heartbeat IPC: 0.2077 cumulative IPC: 0.4336 (Simulation time: 00 hr 41 min 34 sec)
Heartbeat CPU 0 instructions: 162500760 cycles: 274395837 heartbeat IPC: 0.3606 cumulative IPC: 0.4332 (Simulation time: 00 hr 41 min 46 sec)
Heartbeat CPU 0 instructions: 163000763 cycles: 275568625 heartbeat IPC: 0.4263 cumulative IPC: 0.4332 (Simulation time: 00 hr 41 min 56 sec)
Heartbeat CPU 0 instructions: 163500763 cycles: 276250460 heartbeat IPC: 0.7333 cumulative IPC: 0.434 (Simulation time: 00 hr 42 min 03 sec)
Heartbeat CPU 0 instructions: 164000767 cycles: 277550618 heartbeat IPC: 0.3846 cumulative IPC: 0.4337 (Simulation time: 00 hr 42 min 13 sec)
Heartbeat CPU 0 instructions: 164500770 cycles: 279083713 heartbeat IPC: 0.3261 cumulative IPC: 0.4331 (Simulation time: 00 hr 42 min 25 sec)
Heartbeat CPU 0 instructions: 165000773 cycles: 280450753 heartbeat IPC: 0.3658 cumulative IPC: 0.4328 (Simulation time: 00 hr 42 min 36 sec)
Heartbeat CPU 0 instructions: 165500773 cycles: 281591853 heartbeat IPC: 0.4382 cumulative IPC: 0.4328 (Simulation time: 00 hr 42 min 46 sec)
Heartbeat CPU 0 instructions: 166000774 cycles: 283838499 heartbeat IPC: 0.2226 cumulative IPC: 0.431 (Simulation time: 00 hr 43 min 02 sec)
Heartbeat CPU 0 instructions: 166500774 cycles: 284691455 heartbeat IPC: 0.5862 cumulative IPC: 0.4315 (Simulation time: 00 hr 43 min 10 sec)
Heartbeat CPU 0 instructions: 167000774 cycles: 285900246 heartbeat IPC: 0.4136 cumulative IPC: 0.4314 (Simulation time: 00 hr 43 min 20 sec)
Heartbeat CPU 0 instructions: 167500775 cycles: 287068296 heartbeat IPC: 0.4281 cumulative IPC: 0.4314 (Simulation time: 00 hr 43 min 29 sec)
Heartbeat CPU 0 instructions: 168000778 cycles: 288079755 heartbeat IPC: 0.4943 cumulative IPC: 0.4317 (Simulation time: 00 hr 43 min 38 sec)
Heartbeat CPU 0 instructions: 168500780 cycles: 288576027 heartbeat IPC: 1.008 cumulative IPC: 0.4327 (Simulation time: 00 hr 43 min 43 sec)
Heartbeat CPU 0 instructions: 169000780 cycles: 288729481 heartbeat IPC: 3.258 cumulative IPC: 0.4343 (Simulation time: 00 hr 43 min 46 sec)
Heartbeat CPU 0 instructions: 169500781 cycles: 288882265 heartbeat IPC: 3.273 cumulative IPC: 0.4359 (Simulation time: 00 hr 43 min 49 sec)
Heartbeat CPU 0 instructions: 170000782 cycles: 289039206 heartbeat IPC: 3.186 cumulative IPC: 0.4374 (Simulation time: 00 hr 43 min 52 sec)
Heartbeat CPU 0 instructions: 170500782 cycles: 289198012 heartbeat IPC: 3.148 cumulative IPC: 0.439 (Simulation time: 00 hr 43 min 55 sec)
Heartbeat CPU 0 instructions: 171000782 cycles: 289364078 heartbeat IPC: 3.011 cumulative IPC: 0.4406 (Simulation time: 00 hr 43 min 57 sec)
Heartbeat CPU 0 instructions: 171500784 cycles: 289532646 heartbeat IPC: 2.966 cumulative IPC: 0.4421 (Simulation time: 00 hr 44 min 00 sec)
Heartbeat CPU 0 instructions: 172000786 cycles: 291637603 heartbeat IPC: 0.2375 cumulative IPC: 0.4406 (Simulation time: 00 hr 44 min 16 sec)
Heartbeat CPU 0 instructions: 172500790 cycles: 292166523 heartbeat IPC: 0.9453 cumulative IPC: 0.4415 (Simulation time: 00 hr 44 min 22 sec)
Heartbeat CPU 0 instructions: 173000794 cycles: 293392108 heartbeat IPC: 0.408 cumulative IPC: 0.4414 (Simulation time: 00 hr 44 min 32 sec)
Heartbeat CPU 0 instructions: 173500796 cycles: 294880209 heartbeat IPC: 0.336 cumulative IPC: 0.4408 (Simulation time: 00 hr 44 min 44 sec)
Heartbeat CPU 0 instructions: 174000800 cycles: 295712610 heartbeat IPC: 0.6007 cumulative IPC: 0.4413 (Simulation time: 00 hr 44 min 52 sec)
Heartbeat CPU 0 instructions: 174500804 cycles: 296111719 heartbeat IPC: 1.253 cumulative IPC: 0.4424 (Simulation time: 00 hr 44 min 56 sec)
Heartbeat CPU 0 instructions: 175000805 cycles: 298049314 heartbeat IPC: 0.2581 cumulative IPC: 0.4412 (Simulation time: 00 hr 45 min 11 sec)
Heartbeat CPU 0 instructions: 175500805 cycles: 299606617 heartbeat IPC: 0.3211 cumulative IPC: 0.4405 (Simulation time: 00 hr 45 min 23 sec)
Heartbeat CPU 0 instructions: 176000807 cycles: 300289247 heartbeat IPC: 0.7325 cumulative IPC: 0.4412 (Simulation time: 00 hr 45 min 30 sec)
Heartbeat CPU 0 instructions: 176500809 cycles: 300766155 heartbeat IPC: 1.048 cumulative IPC: 0.4422 (Simulation time: 00 hr 45 min 35 sec)
Heartbeat CPU 0 instructions: 177000813 cycles: 302774074 heartbeat IPC: 0.249 cumulative IPC: 0.4409 (Simulation time: 00 hr 45 min 50 sec)
Heartbeat CPU 0 instructions: 177500817 cycles: 306046295 heartbeat IPC: 0.1528 cumulative IPC: 0.4377 (Simulation time: 00 hr 46 min 14 sec)
Heartbeat CPU 0 instructions: 178000818 cycles: 308231662 heartbeat IPC: 0.2288 cumulative IPC: 0.4361 (Simulation time: 00 hr 46 min 30 sec)
Heartbeat CPU 0 instructions: 178500820 cycles: 309414509 heartbeat IPC: 0.4227 cumulative IPC: 0.436 (Simulation time: 00 hr 46 min 39 sec)
Heartbeat CPU 0 instructions: 179000820 cycles: 310008281 heartbeat IPC: 0.8421 cumulative IPC: 0.4369 (Simulation time: 00 hr 46 min 45 sec)
Heartbeat CPU 0 instructions: 179500827 cycles: 310671704 heartbeat IPC: 0.7537 cumulative IPC: 0.4376 (Simulation time: 00 hr 46 min 51 sec)
Heartbeat CPU 0 instructions: 180000832 cycles: 311119370 heartbeat IPC: 1.117 cumulative IPC: 0.4386 (Simulation time: 00 hr 46 min 56 sec)
Heartbeat CPU 0 instructions: 180500832 cycles: 311678927 heartbeat IPC: 0.8936 cumulative IPC: 0.4395 (Simulation time: 00 hr 47 min 01 sec)
Heartbeat CPU 0 instructions: 181000833 cycles: 312287226 heartbeat IPC: 0.822 cumulative IPC: 0.4402 (Simulation time: 00 hr 47 min 06 sec)
Heartbeat CPU 0 instructions: 181500834 cycles: 312783930 heartbeat IPC: 1.007 cumulative IPC: 0.4412 (Simulation time: 00 hr 47 min 11 sec)
Heartbeat CPU 0 instructions: 182000835 cycles: 313296600 heartbeat IPC: 0.9753 cumulative IPC: 0.4421 (Simulation time: 00 hr 47 min 16 sec)
Heartbeat CPU 0 instructions: 182500836 cycles: 313912896 heartbeat IPC: 0.8113 cumulative IPC: 0.4429 (Simulation time: 00 hr 47 min 22 sec)
Heartbeat CPU 0 instructions: 183000837 cycles: 315528954 heartbeat IPC: 0.3094 cumulative IPC: 0.4421 (Simulation time: 00 hr 47 min 35 sec)
Heartbeat CPU 0 instructions: 183500837 cycles: 317574889 heartbeat IPC: 0.2444 cumulative IPC: 0.4408 (Simulation time: 00 hr 47 min 51 sec)
Heartbeat CPU 0 instructions: 184000840 cycles: 319171189 heartbeat IPC: 0.3132 cumulative IPC: 0.4401 (Simulation time: 00 hr 48 min 04 sec)
Heartbeat CPU 0 instructions: 184500845 cycles: 320651673 heartbeat IPC: 0.3377 cumulative IPC: 0.4396 (Simulation time: 00 hr 48 min 16 sec)
Heartbeat CPU 0 instructions: 185000847 cycles: 322156709 heartbeat IPC: 0.3322 cumulative IPC: 0.4391 (Simulation time: 00 hr 48 min 28 sec)
Heartbeat CPU 0 instructions: 185500849 cycles: 323246342 heartbeat IPC: 0.4589 cumulative IPC: 0.4392 (Simulation time: 00 hr 48 min 37 sec)
Heartbeat CPU 0 instructions: 186000849 cycles: 324060947 heartbeat IPC: 0.6138 cumulative IPC: 0.4396 (Simulation time: 00 hr 48 min 44 sec)
Heartbeat CPU 0 instructions: 186500849 cycles: 325050697 heartbeat IPC: 0.5052 cumulative IPC: 0.4399 (Simulation time: 00 hr 48 min 53 sec)
Heartbeat CPU 0 instructions: 187000849 cycles: 325595494 heartbeat IPC: 0.9178 cumulative IPC: 0.4407 (Simulation time: 00 hr 48 min 58 sec)
Heartbeat CPU 0 instructions: 187500850 cycles: 325928126 heartbeat IPC: 1.503 cumulative IPC: 0.4418 (Simulation time: 00 hr 49 min 03 sec)
Heartbeat CPU 0 instructions: 188000852 cycles: 326635995 heartbeat IPC: 0.7063 cumulative IPC: 0.4424 (Simulation time: 00 hr 49 min 09 sec)
Heartbeat CPU 0 instructions: 188500852 cycles: 328730666 heartbeat IPC: 0.2387 cumulative IPC: 0.4411 (Simulation time: 00 hr 49 min 25 sec)
Heartbeat CPU 0 instructions: 189000852 cycles: 330317899 heartbeat IPC: 0.315 cumulative IPC: 0.4404 (Simulation time: 00 hr 49 min 38 sec)
Heartbeat CPU 0 instructions: 189500856 cycles: 332371314 heartbeat IPC: 0.2435 cumulative IPC: 0.4392 (Simulation time: 00 hr 49 min 54 sec)
Heartbeat CPU 0 instructions: 190000862 cycles: 333270459 heartbeat IPC: 0.5561 cumulative IPC: 0.4395 (Simulation time: 00 hr 50 min 02 sec)
Heartbeat CPU 0 instructions: 190500862 cycles: 333750080 heartbeat IPC: 1.042 cumulative IPC: 0.4404 (Simulation time: 00 hr 50 min 07 sec)
Heartbeat CPU 0 instructions: 191000864 cycles: 335232164 heartbeat IPC: 0.3374 cumulative IPC: 0.4399 (Simulation time: 00 hr 50 min 18 sec)
Heartbeat CPU 0 instructions: 191500867 cycles: 336771874 heartbeat IPC: 0.3247 cumulative IPC: 0.4394 (Simulation time: 00 hr 50 min 30 sec)
Heartbeat CPU 0 instructions: 192000870 cycles: 338659838 heartbeat IPC: 0.2648 cumulative IPC: 0.4384 (Simulation time: 00 hr 50 min 45 sec)
Heartbeat CPU 0 instructions: 192500876 cycles: 340231872 heartbeat IPC: 0.3181 cumulative IPC: 0.4378 (Simulation time: 00 hr 50 min 57 sec)
Heartbeat CPU 0 instructions: 193000876 cycles: 341642158 heartbeat IPC: 0.3545 cumulative IPC: 0.4374 (Simulation time: 00 hr 51 min 10 sec)
Heartbeat CPU 0 instructions: 193500876 cycles: 342988361 heartbeat IPC: 0.3714 cumulative IPC: 0.4371 (Simulation time: 00 hr 51 min 20 sec)
Heartbeat CPU 0 instructions: 194000876 cycles: 344604429 heartbeat IPC: 0.3094 cumulative IPC: 0.4365 (Simulation time: 00 hr 51 min 33 sec)
Heartbeat CPU 0 instructions: 194500876 cycles: 345892482 heartbeat IPC: 0.3882 cumulative IPC: 0.4363 (Simulation time: 00 hr 51 min 44 sec)
Heartbeat CPU 0 instructions: 195000877 cycles: 346838505 heartbeat IPC: 0.5285 cumulative IPC: 0.4366 (Simulation time: 00 hr 51 min 52 sec)
Heartbeat CPU 0 instructions: 195500880 cycles: 348243161 heartbeat IPC: 0.356 cumulative IPC: 0.4363 (Simulation time: 00 hr 52 min 03 sec)
Heartbeat CPU 0 instructions: 196000880 cycles: 349209461 heartbeat IPC: 0.5174 cumulative IPC: 0.4365 (Simulation time: 00 hr 52 min 11 sec)
Heartbeat CPU 0 instructions: 196500881 cycles: 350911252 heartbeat IPC: 0.2938 cumulative IPC: 0.4358 (Simulation time: 00 hr 52 min 24 sec)
Heartbeat CPU 0 instructions: 197000883 cycles: 352563426 heartbeat IPC: 0.3026 cumulative IPC: 0.4351 (Simulation time: 00 hr 52 min 37 sec)
Heartbeat CPU 0 instructions: 197500886 cycles: 354278456 heartbeat IPC: 0.2915 cumulative IPC: 0.4344 (Simulation time: 00 hr 52 min 51 sec)
Heartbeat CPU 0 instructions: 198000886 cycles: 355757749 heartbeat IPC: 0.338 cumulative IPC: 0.434 (Simulation time: 00 hr 53 min 03 sec)
Heartbeat CPU 0 instructions: 198500887 cycles: 357741491 heartbeat IPC: 0.252 cumulative IPC: 0.4329 (Simulation time: 00 hr 53 min 18 sec)
Heartbeat CPU 0 instructions: 199000894 cycles: 359526036 heartbeat IPC: 0.2802 cumulative IPC: 0.4321 (Simulation time: 00 hr 53 min 32 sec)
Heartbeat CPU 0 instructions: 199500895 cycles: 360973925 heartbeat IPC: 0.3453 cumulative IPC: 0.4318 (Simulation time: 00 hr 53 min 43 sec)
Heartbeat CPU 0 instructions: 200000895 cycles: 362129428 heartbeat IPC: 0.4327 cumulative IPC: 0.4318 (Simulation time: 00 hr 53 min 53 sec)
Heartbeat CPU 0 instructions: 200500899 cycles: 363093248 heartbeat IPC: 0.5188 cumulative IPC: 0.432 (Simulation time: 00 hr 54 min 01 sec)
Heartbeat CPU 0 instructions: 201000901 cycles: 364882422 heartbeat IPC: 0.2795 cumulative IPC: 0.4312 (Simulation time: 00 hr 54 min 15 sec)
Heartbeat CPU 0 instructions: 201500903 cycles: 365493560 heartbeat IPC: 0.8181 cumulative IPC: 0.4319 (Simulation time: 00 hr 54 min 21 sec)
Heartbeat CPU 0 instructions: 202000903 cycles: 366208860 heartbeat IPC: 0.699 cumulative IPC: 0.4324 (Simulation time: 00 hr 54 min 27 sec)
Heartbeat CPU 0 instructions: 202500905 cycles: 367626588 heartbeat IPC: 0.3527 cumulative IPC: 0.4321 (Simulation time: 00 hr 54 min 39 sec)
Heartbeat CPU 0 instructions: 203000907 cycles: 369081035 heartbeat IPC: 0.3438 cumulative IPC: 0.4318 (Simulation time: 00 hr 54 min 51 sec)
Heartbeat CPU 0 instructions: 203500912 cycles: 370369850 heartbeat IPC: 0.388 cumulative IPC: 0.4316 (Simulation time: 00 hr 55 min 02 sec)
Heartbeat CPU 0 instructions: 204000912 cycles: 370969049 heartbeat IPC: 0.8344 cumulative IPC: 0.4323 (Simulation time: 00 hr 55 min 09 sec)
Heartbeat CPU 0 instructions: 204500919 cycles: 371329280 heartbeat IPC: 1.388 cumulative IPC: 0.4332 (Simulation time: 00 hr 55 min 14 sec)
Heartbeat CPU 0 instructions: 205000926 cycles: 371682051 heartbeat IPC: 1.417 cumulative IPC: 0.4342 (Simulation time: 00 hr 55 min 19 sec)
Heartbeat CPU 0 instructions: 205500926 cycles: 372080363 heartbeat IPC: 1.255 cumulative IPC: 0.4351 (Simulation time: 00 hr 55 min 25 sec)
Heartbeat CPU 0 instructions: 206000929 cycles: 374679909 heartbeat IPC: 0.1923 cumulative IPC: 0.4334 (Simulation time: 00 hr 55 min 44 sec)
Heartbeat CPU 0 instructions: 206500932 cycles: 376199981 heartbeat IPC: 0.3289 cumulative IPC: 0.4329 (Simulation time: 00 hr 55 min 56 sec)
Heartbeat CPU 0 instructions: 207000933 cycles: 377069833 heartbeat IPC: 0.5748 cumulative IPC: 0.4333 (Simulation time: 00 hr 56 min 03 sec)
Heartbeat CPU 0 instructions: 207500936 cycles: 378210449 heartbeat IPC: 0.4384 cumulative IPC: 0.4333 (Simulation time: 00 hr 56 min 13 sec)
Heartbeat CPU 0 instructions: 208000942 cycles: 379953070 heartbeat IPC: 0.2869 cumulative IPC: 0.4326 (Simulation time: 00 hr 56 min 26 sec)
Heartbeat CPU 0 instructions: 208500944 cycles: 381307093 heartbeat IPC: 0.3693 cumulative IPC: 0.4324 (Simulation time: 00 hr 56 min 37 sec)
Heartbeat CPU 0 instructions: 209000946 cycles: 382371277 heartbeat IPC: 0.4698 cumulative IPC: 0.4325 (Simulation time: 00 hr 56 min 45 sec)
Heartbeat CPU 0 instructions: 209500948 cycles: 382924960 heartbeat IPC: 0.903 cumulative IPC: 0.4332 (Simulation time: 00 hr 56 min 51 sec)
Heartbeat CPU 0 instructions: 210000951 cycles: 383987953 heartbeat IPC: 0.4704 cumulative IPC: 0.4333 (Simulation time: 00 hr 57 min 00 sec)
Heartbeat CPU 0 instructions: 210500952 cycles: 385474196 heartbeat IPC: 0.3364 cumulative IPC: 0.4329 (Simulation time: 00 hr 57 min 12 sec)
Heartbeat CPU 0 instructions: 211000952 cycles: 386315792 heartbeat IPC: 0.5941 cumulative IPC: 0.4333 (Simulation time: 00 hr 57 min 19 sec)
Heartbeat CPU 0 instructions: 211500955 cycles: 386992000 heartbeat IPC: 0.7394 cumulative IPC: 0.4338 (Simulation time: 00 hr 57 min 25 sec)
Heartbeat CPU 0 instructions: 212000955 cycles: 387660964 heartbeat IPC: 0.7474 cumulative IPC: 0.4344 (Simulation time: 00 hr 57 min 31 sec)
Heartbeat CPU 0 instructions: 212500959 cycles: 388123519 heartbeat IPC: 1.081 cumulative IPC: 0.4352 (Simulation time: 00 hr 57 min 36 sec)
Heartbeat CPU 0 instructions: 213000963 cycles: 388739751 heartbeat IPC: 0.8114 cumulative IPC: 0.4358 (Simulation time: 00 hr 57 min 41 sec)
Heartbeat CPU 0 instructions: 213500968 cycles: 389244725 heartbeat IPC: 0.9902 cumulative IPC: 0.4366 (Simulation time: 00 hr 57 min 46 sec)
Heartbeat CPU 0 instructions: 214000970 cycles: 389783464 heartbeat IPC: 0.9281 cumulative IPC: 0.4373 (Simulation time: 00 hr 57 min 51 sec)
Heartbeat CPU 0 instructions: 214500976 cycles: 390275839 heartbeat IPC: 1.015 cumulative IPC: 0.438 (Simulation time: 00 hr 57 min 56 sec)
Heartbeat CPU 0 instructions: 215000978 cycles: 391514650 heartbeat IPC: 0.4036 cumulative IPC: 0.4379 (Simulation time: 00 hr 58 min 07 sec)
Heartbeat CPU 0 instructions: 215500979 cycles: 393260955 heartbeat IPC: 0.2863 cumulative IPC: 0.4372 (Simulation time: 00 hr 58 min 21 sec)
Heartbeat CPU 0 instructions: 216000979 cycles: 394899459 heartbeat IPC: 0.3052 cumulative IPC: 0.4366 (Simulation time: 00 hr 58 min 34 sec)
Heartbeat CPU 0 instructions: 216500979 cycles: 395688137 heartbeat IPC: 0.634 cumulative IPC: 0.437 (Simulation time: 00 hr 58 min 41 sec)
Heartbeat CPU 0 instructions: 217000982 cycles: 397023850 heartbeat IPC: 0.3743 cumulative IPC: 0.4368 (Simulation time: 00 hr 58 min 52 sec)
Heartbeat CPU 0 instructions: 217500982 cycles: 398297691 heartbeat IPC: 0.3925 cumulative IPC: 0.4367 (Simulation time: 00 hr 59 min 02 sec)
Heartbeat CPU 0 instructions: 218000982 cycles: 399754316 heartbeat IPC: 0.3433 cumulative IPC: 0.4363 (Simulation time: 00 hr 59 min 15 sec)
Heartbeat CPU 0 instructions: 218500983 cycles: 401987872 heartbeat IPC: 0.2239 cumulative IPC: 0.4351 (Simulation time: 00 hr 59 min 32 sec)
Heartbeat CPU 0 instructions: 219000987 cycles: 403912155 heartbeat IPC: 0.2598 cumulative IPC: 0.4342 (Simulation time: 00 hr 59 min 47 sec)
Heartbeat CPU 0 instructions: 219500990 cycles: 404584169 heartbeat IPC: 0.744 cumulative IPC: 0.4348 (Simulation time: 00 hr 59 min 54 sec)
Heartbeat CPU 0 instructions: 220000995 cycles: 405093375 heartbeat IPC: 0.9819 cumulative IPC: 0.4355 (Simulation time: 01 hr 00 min 01 sec)
Heartbeat CPU 0 instructions: 220500998 cycles: 407243980 heartbeat IPC: 0.2325 cumulative IPC: 0.4344 (Simulation time: 01 hr 00 min 18 sec)
Heartbeat CPU 0 instructions: 221001003 cycles: 408638317 heartbeat IPC: 0.3586 cumulative IPC: 0.4341 (Simulation time: 01 hr 00 min 29 sec)
Heartbeat CPU 0 instructions: 221501006 cycles: 410118598 heartbeat IPC: 0.3378 cumulative IPC: 0.4337 (Simulation time: 01 hr 00 min 41 sec)
Heartbeat CPU 0 instructions: 222001007 cycles: 410663102 heartbeat IPC: 0.9183 cumulative IPC: 0.4344 (Simulation time: 01 hr 00 min 46 sec)
Heartbeat CPU 0 instructions: 222501014 cycles: 411253927 heartbeat IPC: 0.8463 cumulative IPC: 0.435 (Simulation time: 01 hr 00 min 52 sec)
Heartbeat CPU 0 instructions: 223001014 cycles: 411834169 heartbeat IPC: 0.8617 cumulative IPC: 0.4356 (Simulation time: 01 hr 00 min 57 sec)
Heartbeat CPU 0 instructions: 223501016 cycles: 412327931 heartbeat IPC: 1.013 cumulative IPC: 0.4364 (Simulation time: 01 hr 01 min 02 sec)
Heartbeat CPU 0 instructions: 224001019 cycles: 412937176 heartbeat IPC: 0.8207 cumulative IPC: 0.4369 (Simulation time: 01 hr 01 min 07 sec)
Heartbeat CPU 0 instructions: 224501020 cycles: 413445412 heartbeat IPC: 0.9838 cumulative IPC: 0.4376 (Simulation time: 01 hr 01 min 12 sec)
Heartbeat CPU 0 instructions: 225001020 cycles: 413965718 heartbeat IPC: 0.961 cumulative IPC: 0.4383 (Simulation time: 01 hr 01 min 17 sec)
Heartbeat CPU 0 instructions: 225501026 cycles: 414516818 heartbeat IPC: 0.9073 cumulative IPC: 0.439 (Simulation time: 01 hr 01 min 23 sec)
Heartbeat CPU 0 instructions: 226001026 cycles: 416198872 heartbeat IPC: 0.2973 cumulative IPC: 0.4384 (Simulation time: 01 hr 01 min 36 sec)
Heartbeat CPU 0 instructions: 226501027 cycles: 417829802 heartbeat IPC: 0.3066 cumulative IPC: 0.4378 (Simulation time: 01 hr 01 min 49 sec)
Heartbeat CPU 0 instructions: 227001030 cycles: 418681047 heartbeat IPC: 0.5874 cumulative IPC: 0.4382 (Simulation time: 01 hr 01 min 57 sec)
Heartbeat CPU 0 instructions: 227501030 cycles: 421113689 heartbeat IPC: 0.2055 cumulative IPC: 0.4368 (Simulation time: 01 hr 02 min 15 sec)
Heartbeat CPU 0 instructions: 228001033 cycles: 422265965 heartbeat IPC: 0.4339 cumulative IPC: 0.4368 (Simulation time: 01 hr 02 min 25 sec)
Heartbeat CPU 0 instructions: 228501033 cycles: 423454199 heartbeat IPC: 0.4208 cumulative IPC: 0.4367 (Simulation time: 01 hr 02 min 35 sec)
Heartbeat CPU 0 instructions: 229001033 cycles: 424589427 heartbeat IPC: 0.4404 cumulative IPC: 0.4367 (Simulation time: 01 hr 02 min 44 sec)
Heartbeat CPU 0 instructions: 229501034 cycles: 426312853 heartbeat IPC: 0.2901 cumulative IPC: 0.4361 (Simulation time: 01 hr 02 min 58 sec)
Heartbeat CPU 0 instructions: 230001034 cycles: 427545001 heartbeat IPC: 0.4058 cumulative IPC: 0.436 (Simulation time: 01 hr 03 min 08 sec)
Heartbeat CPU 0 instructions: 230501036 cycles: 429377635 heartbeat IPC: 0.2728 cumulative IPC: 0.4353 (Simulation time: 01 hr 03 min 22 sec)
Heartbeat CPU 0 instructions: 231001038 cycles: 430875851 heartbeat IPC: 0.3337 cumulative IPC: 0.4349 (Simulation time: 01 hr 03 min 34 sec)
Heartbeat CPU 0 instructions: 231501045 cycles: 432735118 heartbeat IPC: 0.2689 cumulative IPC: 0.4342 (Simulation time: 01 hr 03 min 49 sec)
Heartbeat CPU 0 instructions: 232001046 cycles: 434038888 heartbeat IPC: 0.3835 cumulative IPC: 0.434 (Simulation time: 01 hr 04 min 00 sec)
Heartbeat CPU 0 instructions: 232501048 cycles: 435561933 heartbeat IPC: 0.3283 cumulative IPC: 0.4337 (Simulation time: 01 hr 04 min 12 sec)
Heartbeat CPU 0 instructions: 233001053 cycles: 436340606 heartbeat IPC: 0.6421 cumulative IPC: 0.434 (Simulation time: 01 hr 04 min 19 sec)
Heartbeat CPU 0 instructions: 233501058 cycles: 437109971 heartbeat IPC: 0.6499 cumulative IPC: 0.4344 (Simulation time: 01 hr 04 min 26 sec)
Heartbeat CPU 0 instructions: 234001058 cycles: 437276446 heartbeat IPC: 3.003 cumulative IPC: 0.4354 (Simulation time: 01 hr 04 min 29 sec)
Heartbeat CPU 0 instructions: 234501059 cycles: 437433292 heartbeat IPC: 3.188 cumulative IPC: 0.4365 (Simulation time: 01 hr 04 min 32 sec)
Heartbeat CPU 0 instructions: 235001061 cycles: 437583753 heartbeat IPC: 3.323 cumulative IPC: 0.4375 (Simulation time: 01 hr 04 min 35 sec)
Heartbeat CPU 0 instructions: 235501061 cycles: 437754494 heartbeat IPC: 2.928 cumulative IPC: 0.4385 (Simulation time: 01 hr 04 min 38 sec)
Heartbeat CPU 0 instructions: 236001066 cycles: 437960530 heartbeat IPC: 2.427 cumulative IPC: 0.4395 (Simulation time: 01 hr 04 min 41 sec)
Heartbeat CPU 0 instructions: 236501068 cycles: 438682746 heartbeat IPC: 0.6923 cumulative IPC: 0.4399 (Simulation time: 01 hr 04 min 48 sec)
Heartbeat CPU 0 instructions: 237001073 cycles: 439256051 heartbeat IPC: 0.8721 cumulative IPC: 0.4405 (Simulation time: 01 hr 04 min 54 sec)
Heartbeat CPU 0 instructions: 237501073 cycles: 440933181 heartbeat IPC: 0.2981 cumulative IPC: 0.4399 (Simulation time: 01 hr 05 min 07 sec)
Heartbeat CPU 0 instructions: 238001073 cycles: 442832742 heartbeat IPC: 0.2632 cumulative IPC: 0.4391 (Simulation time: 01 hr 05 min 22 sec)
Heartbeat CPU 0 instructions: 238501073 cycles: 443730205 heartbeat IPC: 0.5571 cumulative IPC: 0.4394 (Simulation time: 01 hr 05 min 30 sec)
Heartbeat CPU 0 instructions: 239001076 cycles: 444405715 heartbeat IPC: 0.7402 cumulative IPC: 0.4399 (Simulation time: 01 hr 05 min 37 sec)
Heartbeat CPU 0 instructions: 239501076 cycles: 445164788 heartbeat IPC: 0.6587 cumulative IPC: 0.4402 (Simulation time: 01 hr 05 min 44 sec)
Heartbeat CPU 0 instructions: 240001081 cycles: 446032292 heartbeat IPC: 0.5764 cumulative IPC: 0.4405 (Simulation time: 01 hr 05 min 53 sec)
Heartbeat CPU 0 instructions: 240501081 cycles: 448486456 heartbeat IPC: 0.2037 cumulative IPC: 0.4392 (Simulation time: 01 hr 06 min 12 sec)
Heartbeat CPU 0 instructions: 241001081 cycles: 450094057 heartbeat IPC: 0.311 cumulative IPC: 0.4387 (Simulation time: 01 hr 06 min 25 sec)
Heartbeat CPU 0 instructions: 241501084 cycles: 451095363 heartbeat IPC: 0.4994 cumulative IPC: 0.4388 (Simulation time: 01 hr 06 min 34 sec)
Heartbeat CPU 0 instructions: 242001090 cycles: 452137684 heartbeat IPC: 0.4797 cumulative IPC: 0.4389 (Simulation time: 01 hr 06 min 43 sec)
Heartbeat CPU 0 instructions: 242501090 cycles: 453831440 heartbeat IPC: 0.2952 cumulative IPC: 0.4384 (Simulation time: 01 hr 06 min 56 sec)
Heartbeat CPU 0 instructions: 243001093 cycles: 455029505 heartbeat IPC: 0.4173 cumulative IPC: 0.4383 (Simulation time: 01 hr 07 min 07 sec)
Heartbeat CPU 0 instructions: 243501094 cycles: 456478614 heartbeat IPC: 0.345 cumulative IPC: 0.438 (Simulation time: 01 hr 07 min 19 sec)
Heartbeat CPU 0 instructions: 244001096 cycles: 458301382 heartbeat IPC: 0.2743 cumulative IPC: 0.4374 (Simulation time: 01 hr 07 min 33 sec)
Heartbeat CPU 0 instructions: 244501096 cycles: 459706000 heartbeat IPC: 0.356 cumulative IPC: 0.4371 (Simulation time: 01 hr 07 min 45 sec)
Heartbeat CPU 0 instructions: 245001100 cycles: 461520861 heartbeat IPC: 0.2755 cumulative IPC: 0.4364 (Simulation time: 01 hr 07 min 59 sec)
Heartbeat CPU 0 instructions: 245501102 cycles: 462645194 heartbeat IPC: 0.4447 cumulative IPC: 0.4365 (Simulation time: 01 hr 08 min 09 sec)
Heartbeat CPU 0 instructions: 246001107 cycles: 463951661 heartbeat IPC: 0.3827 cumulative IPC: 0.4363 (Simulation time: 01 hr 08 min 20 sec)
Heartbeat CPU 0 instructions: 246501107 cycles: 464981321 heartbeat IPC: 0.4856 cumulative IPC: 0.4364 (Simulation time: 01 hr 08 min 30 sec)
Heartbeat CPU 0 instructions: 247001107 cycles: 466319289 heartbeat IPC: 0.3737 cumulative IPC: 0.4362 (Simulation time: 01 hr 08 min 42 sec)
Heartbeat CPU 0 instructions: 247501109 cycles: 467598510 heartbeat IPC: 0.3909 cumulative IPC: 0.4361 (Simulation time: 01 hr 08 min 52 sec)
Heartbeat CPU 0 instructions: 248001109 cycles: 469352277 heartbeat IPC: 0.2851 cumulative IPC: 0.4355 (Simulation time: 01 hr 09 min 06 sec)
Heartbeat CPU 0 instructions: 248501115 cycles: 470499291 heartbeat IPC: 0.4359 cumulative IPC: 0.4355 (Simulation time: 01 hr 09 min 16 sec)
Heartbeat CPU 0 instructions: 249001115 cycles: 472040852 heartbeat IPC: 0.3243 cumulative IPC: 0.4351 (Simulation time: 01 hr 09 min 28 sec)
Heartbeat CPU 0 instructions: 249501118 cycles: 473328823 heartbeat IPC: 0.3882 cumulative IPC: 0.435 (Simulation time: 01 hr 09 min 39 sec)
Simulation finished CPU 0 instructions: 200000006 cycles: 459419212 cumulative IPC: 0.4353 (Simulation time: 01 hr 09 min 47 sec)
Simulation complete CPU 0 instructions: 200000006 cycles: 459419212 cumulative IPC: 0.4353 (Simulation time: 01 hr 09 min 47 sec)

ChampSim completed all CPUs

=== Simulation ===
CPU 0 runs /local-ssd/ben/dpc4-traces/gtraces_v2/tahoe_0003.champsim.gz

Region of Interest Statistics

CPU 0 cumulative IPC: 0.4353 instructions: 200000006 cycles: 459419212
CPU 0 Branch Prediction Accuracy: 89.18% MPKI: 20.62 Average ROB Occupancy at Mispredict: 21.36
Branch type MPKI
BRANCH_DIRECT_JUMP: 0.8222
BRANCH_INDIRECT: 0.405
BRANCH_CONDITIONAL: 16.94
BRANCH_DIRECT_CALL: 0.9834
BRANCH_INDIRECT_CALL: 0.5151
BRANCH_RETURN: 0.9529

cpu0->cpu0_STLB TOTAL        ACCESS:    2277735 HIT:    1591602 MISS:     686133 MSHR_MERGE:          0
cpu0->cpu0_STLB LOAD         ACCESS:    2277735 HIT:    1591602 MISS:     686133 MSHR_MERGE:          0
cpu0->cpu0_STLB RFO          ACCESS:          0 HIT:          0 MISS:          0 MSHR_MERGE:          0
cpu0->cpu0_STLB PREFETCH     ACCESS:          0 HIT:          0 MISS:          0 MSHR_MERGE:          0
cpu0->cpu0_STLB WRITE        ACCESS:          0 HIT:          0 MISS:          0 MSHR_MERGE:          0
cpu0->cpu0_STLB TRANSLATION  ACCESS:          0 HIT:          0 MISS:          0 MSHR_MERGE:          0
cpu0->cpu0_STLB PREFETCH REQUESTED:          0 ISSUED:          0 USEFUL:          0 USELESS:          0
cpu0->cpu0_STLB AVERAGE MISS LATENCY: 161.3 cycles
cpu0->cpu0_L2C TOTAL        ACCESS:   14899752 HIT:    8918377 MISS:    5981375 MSHR_MERGE:    1035227
cpu0->cpu0_L2C LOAD         ACCESS:    3981203 HIT:    2207663 MISS:    1773540 MSHR_MERGE:      52771
cpu0->cpu0_L2C RFO          ACCESS:     706811 HIT:     216860 MISS:     489951 MSHR_MERGE:       3036
cpu0->cpu0_L2C PREFETCH     ACCESS:    8280811 HIT:    4893661 MISS:    3387150 MSHR_MERGE:     979420
cpu0->cpu0_L2C WRITE        ACCESS:    1173655 HIT:    1173630 MISS:         25 MSHR_MERGE:          0
cpu0->cpu0_L2C TRANSLATION  ACCESS:     757272 HIT:     426563 MISS:     330709 MSHR_MERGE:          0
cpu0->cpu0_L2C PREFETCH REQUESTED:    7054663 ISSUED:    6688610 USEFUL:     569665 USELESS:    1186755
cpu0->cpu0_L2C AVERAGE MISS LATENCY: 221.5 cycles
cpu0->cpu0_L1I TOTAL        ACCESS:   15735291 HIT:   13023923 MISS:    2711368 MSHR_MERGE:     502516
cpu0->cpu0_L1I LOAD         ACCESS:   15735291 HIT:   13023923 MISS:    2711368 MSHR_MERGE:     502516
cpu0->cpu0_L1I RFO          ACCESS:          0 HIT:          0 MISS:          0 MSHR_MERGE:          0
cpu0->cpu0_L1I PREFETCH     ACCESS:          0 HIT:          0 MISS:          0 MSHR_MERGE:          0
cpu0->cpu0_L1I WRITE        ACCESS:          0 HIT:          0 MISS:          0 MSHR_MERGE:          0
cpu0->cpu0_L1I TRANSLATION  ACCESS:          0 HIT:          0 MISS:          0 MSHR_MERGE:          0
cpu0->cpu0_L1I PREFETCH REQUESTED:          0 ISSUED:          0 USEFUL:          0 USELESS:          0
cpu0->cpu0_L1I AVERAGE MISS LATENCY: 120.2 cycles
cpu0->cpu0_L1D TOTAL        ACCESS:   79592304 HIT:   71774419 MISS:    7817885 MSHR_MERGE:    2989205
cpu0->cpu0_L1D LOAD         ACCESS:   34256215 HIT:   31901422 MISS:    2354793 MSHR_MERGE:     582435
cpu0->cpu0_L1D RFO          ACCESS:          0 HIT:          0 MISS:          0 MSHR_MERGE:          0
cpu0->cpu0_L1D PREFETCH     ACCESS:   19322542 HIT:   17072476 MISS:    2250066 MSHR_MERGE:     657859
cpu0->cpu0_L1D WRITE        ACCESS:   24247606 HIT:   21797013 MISS:    2450593 MSHR_MERGE:    1743750
cpu0->cpu0_L1D TRANSLATION  ACCESS:    1765941 HIT:    1003508 MISS:     762433 MSHR_MERGE:       5161
cpu0->cpu0_L1D PREFETCH REQUESTED:   21882669 ISSUED:   19322536 USEFUL:     502076 USELESS:    1090005
cpu0->cpu0_L1D AVERAGE MISS LATENCY: 109.2 cycles
cpu0->cpu0_ITLB TOTAL        ACCESS:   13162529 HIT:   12728241 MISS:     434288 MSHR_MERGE:     186606
cpu0->cpu0_ITLB LOAD         ACCESS:   13162529 HIT:   12728241 MISS:     434288 MSHR_MERGE:     186606
cpu0->cpu0_ITLB RFO          ACCESS:          0 HIT:          0 MISS:          0 MSHR_MERGE:          0
cpu0->cpu0_ITLB PREFETCH     ACCESS:          0 HIT:          0 MISS:          0 MSHR_MERGE:          0
cpu0->cpu0_ITLB WRITE        ACCESS:          0 HIT:          0 MISS:          0 MSHR_MERGE:          0
cpu0->cpu0_ITLB TRANSLATION  ACCESS:          0 HIT:          0 MISS:          0 MSHR_MERGE:          0
cpu0->cpu0_ITLB PREFETCH REQUESTED:          0 ISSUED:          0 USEFUL:          0 USELESS:          0
cpu0->cpu0_ITLB AVERAGE MISS LATENCY: 43.67 cycles
cpu0->cpu0_DTLB TOTAL        ACCESS:   71683298 HIT:   68466365 MISS:    3216933 MSHR_MERGE:    1186880
cpu0->cpu0_DTLB LOAD         ACCESS:   71683298 HIT:   68466365 MISS:    3216933 MSHR_MERGE:    1186880
cpu0->cpu0_DTLB RFO          ACCESS:          0 HIT:          0 MISS:          0 MSHR_MERGE:          0
cpu0->cpu0_DTLB PREFETCH     ACCESS:          0 HIT:          0 MISS:          0 MSHR_MERGE:          0
cpu0->cpu0_DTLB WRITE        ACCESS:          0 HIT:          0 MISS:          0 MSHR_MERGE:          0
cpu0->cpu0_DTLB TRANSLATION  ACCESS:          0 HIT:          0 MISS:          0 MSHR_MERGE:          0
cpu0->cpu0_DTLB PREFETCH REQUESTED:          0 ISSUED:          0 USEFUL:          0 USELESS:          0
cpu0->cpu0_DTLB AVERAGE MISS LATENCY: 55.15 cycles
cpu0->LLC TOTAL        ACCESS:    7265424 HIT:    1104346 MISS:    6161078 MSHR_MERGE:     398477
cpu0->LLC LOAD         ACCESS:    1720769 HIT:     229333 MISS:    1491436 MSHR_MERGE:       2625
cpu0->LLC RFO          ACCESS:     486915 HIT:      19567 MISS:     467348 MSHR_MERGE:        153
cpu0->LLC PREFETCH     ACCESS:    3955670 HIT:     672238 MISS:    3283432 MSHR_MERGE:     395699
cpu0->LLC WRITE        ACCESS:     771361 HIT:     151784 MISS:     619577 MSHR_MERGE:          0
cpu0->LLC TRANSLATION  ACCESS:     330709 HIT:      31424 MISS:     299285 MSHR_MERGE:          0
cpu0->LLC PREFETCH REQUESTED:    1708162 ISSUED:    1547940 USEFUL:     146729 USELESS:     804646
cpu0->LLC AVERAGE MISS LATENCY: 180.5 cycles

DRAM Statistics

Channel 0 RQ ROW_BUFFER_HIT:     149160
  ROW_BUFFER_MISS:    4993808
  AVG DBUS CONGESTED CYCLE: 20.79
Channel 0 WQ ROW_BUFFER_HIT:     190571
  ROW_BUFFER_MISS:     537886
  FULL:        141
Channel 0 REFRESHES ISSUED:      38283
