[VMEM] WARNING: physical memory size is smaller than virtual memory size.

*** ChampSim Multicore Out-of-Order Simulator ***
Warmup Instructions: 50000000
Simulation Instructions: 200000000
Number of CPUs: 1
Page size: 4096
Core 0: /local-ssd/ben/dpc4-traces/SPEC17/603.bwaves_s-891B.champsimtrace.xz
Off-chip DRAM Size: 64 GiB Channels: 1 Width: 64-bit Data Rate: 4807 MT/s
Heartbeat CPU 0 instructions: 500006 cycles: 107178 heartbeat IPC: 4.665 cumulative IPC: 4.665 (Simulation time: 00 hr 00 min 02 sec)
Heartbeat CPU 0 instructions: 1000011 cycles: 212308 heartbeat IPC: 4.756 cumulative IPC: 4.71 (Simulation time: 00 hr 00 min 04 sec)
Heartbeat CPU 0 instructions: 1500014 cycles: 317055 heartbeat IPC: 4.773 cumulative IPC: 4.731 (Simulation time: 00 hr 00 min 06 sec)
Heartbeat CPU 0 instructions: 2000018 cycles: 421376 heartbeat IPC: 4.793 cumulative IPC: 4.746 (Simulation time: 00 hr 00 min 07 sec)
Heartbeat CPU 0 instructions: 2500024 cycles: 525839 heartbeat IPC: 4.786 cumulative IPC: 4.754 (Simulation time: 00 hr 00 min 09 sec)
Heartbeat CPU 0 instructions: 3000027 cycles: 629992 heartbeat IPC: 4.801 cumulative IPC: 4.762 (Simulation time: 00 hr 00 min 11 sec)
Heartbeat CPU 0 instructions: 3500027 cycles: 734688 heartbeat IPC: 4.776 cumulative IPC: 4.764 (Simulation time: 00 hr 00 min 13 sec)
Heartbeat CPU 0 instructions: 4000030 cycles: 839382 heartbeat IPC: 4.776 cumulative IPC: 4.765 (Simulation time: 00 hr 00 min 15 sec)
Heartbeat CPU 0 instructions: 4500030 cycles: 943960 heartbeat IPC: 4.781 cumulative IPC: 4.767 (Simulation time: 00 hr 00 min 17 sec)
Heartbeat CPU 0 instructions: 5000036 cycles: 1048416 heartbeat IPC: 4.787 cumulative IPC: 4.769 (Simulation time: 00 hr 00 min 19 sec)
Heartbeat CPU 0 instructions: 5500042 cycles: 1152990 heartbeat IPC: 4.781 cumulative IPC: 4.77 (Simulation time: 00 hr 00 min 20 sec)
Heartbeat CPU 0 instructions: 6000047 cycles: 1257608 heartbeat IPC: 4.779 cumulative IPC: 4.771 (Simulation time: 00 hr 00 min 22 sec)
Heartbeat CPU 0 instructions: 6500050 cycles: 1362426 heartbeat IPC: 4.77 cumulative IPC: 4.771 (Simulation time: 00 hr 00 min 24 sec)
Heartbeat CPU 0 instructions: 7000052 cycles: 1466607 heartbeat IPC: 4.799 cumulative IPC: 4.773 (Simulation time: 00 hr 00 min 26 sec)
Heartbeat CPU 0 instructions: 7500052 cycles: 1570927 heartbeat IPC: 4.793 cumulative IPC: 4.774 (Simulation time: 00 hr 00 min 28 sec)
Heartbeat CPU 0 instructions: 8000054 cycles: 1675463 heartbeat IPC: 4.783 cumulative IPC: 4.775 (Simulation time: 00 hr 00 min 30 sec)
Heartbeat CPU 0 instructions: 8500059 cycles: 1779801 heartbeat IPC: 4.792 cumulative IPC: 4.776 (Simulation time: 00 hr 00 min 31 sec)
Heartbeat CPU 0 instructions: 9000059 cycles: 1884435 heartbeat IPC: 4.779 cumulative IPC: 4.776 (Simulation time: 00 hr 00 min 33 sec)
Heartbeat CPU 0 instructions: 9500060 cycles: 1988849 heartbeat IPC: 4.789 cumulative IPC: 4.777 (Simulation time: 00 hr 00 min 35 sec)
Heartbeat CPU 0 instructions: 10000064 cycles: 2093137 heartbeat IPC: 4.794 cumulative IPC: 4.778 (Simulation time: 00 hr 00 min 37 sec)
Heartbeat CPU 0 instructions: 10500069 cycles: 2197865 heartbeat IPC: 4.774 cumulative IPC: 4.777 (Simulation time: 00 hr 00 min 39 sec)
Heartbeat CPU 0 instructions: 11000075 cycles: 2302516 heartbeat IPC: 4.778 cumulative IPC: 4.777 (Simulation time: 00 hr 00 min 41 sec)
Heartbeat CPU 0 instructions: 11500075 cycles: 2407398 heartbeat IPC: 4.767 cumulative IPC: 4.777 (Simulation time: 00 hr 00 min 43 sec)
Heartbeat CPU 0 instructions: 12000077 cycles: 2511789 heartbeat IPC: 4.79 cumulative IPC: 4.778 (Simulation time: 00 hr 00 min 44 sec)
Heartbeat CPU 0 instructions: 12500080 cycles: 2616106 heartbeat IPC: 4.793 cumulative IPC: 4.778 (Simulation time: 00 hr 00 min 46 sec)
Heartbeat CPU 0 instructions: 13000087 cycles: 2720631 heartbeat IPC: 4.784 cumulative IPC: 4.778 (Simulation time: 00 hr 00 min 48 sec)
Heartbeat CPU 0 instructions: 13500087 cycles: 2825009 heartbeat IPC: 4.79 cumulative IPC: 4.779 (Simulation time: 00 hr 00 min 50 sec)
Heartbeat CPU 0 instructions: 14000092 cycles: 2929635 heartbeat IPC: 4.779 cumulative IPC: 4.779 (Simulation time: 00 hr 00 min 52 sec)
Heartbeat CPU 0 instructions: 14500092 cycles: 3033899 heartbeat IPC: 4.796 cumulative IPC: 4.779 (Simulation time: 00 hr 00 min 54 sec)
Heartbeat CPU 0 instructions: 15000092 cycles: 3138639 heartbeat IPC: 4.774 cumulative IPC: 4.779 (Simulation time: 00 hr 00 min 56 sec)
Heartbeat CPU 0 instructions: 15500094 cycles: 3242858 heartbeat IPC: 4.798 cumulative IPC: 4.78 (Simulation time: 00 hr 00 min 57 sec)
Heartbeat CPU 0 instructions: 16000095 cycles: 3347449 heartbeat IPC: 4.781 cumulative IPC: 4.78 (Simulation time: 00 hr 00 min 59 sec)
Heartbeat CPU 0 instructions: 16500097 cycles: 3452118 heartbeat IPC: 4.777 cumulative IPC: 4.78 (Simulation time: 00 hr 01 min 01 sec)
Heartbeat CPU 0 instructions: 17000100 cycles: 3556070 heartbeat IPC: 4.81 cumulative IPC: 4.781 (Simulation time: 00 hr 01 min 03 sec)
Heartbeat CPU 0 instructions: 17500104 cycles: 3660366 heartbeat IPC: 4.794 cumulative IPC: 4.781 (Simulation time: 00 hr 01 min 05 sec)
Heartbeat CPU 0 instructions: 18000104 cycles: 3764641 heartbeat IPC: 4.795 cumulative IPC: 4.781 (Simulation time: 00 hr 01 min 07 sec)
Heartbeat CPU 0 instructions: 18500107 cycles: 3869257 heartbeat IPC: 4.779 cumulative IPC: 4.781 (Simulation time: 00 hr 01 min 09 sec)
Heartbeat CPU 0 instructions: 19000108 cycles: 3973351 heartbeat IPC: 4.803 cumulative IPC: 4.782 (Simulation time: 00 hr 01 min 11 sec)
Heartbeat CPU 0 instructions: 19500112 cycles: 4077911 heartbeat IPC: 4.782 cumulative IPC: 4.782 (Simulation time: 00 hr 01 min 12 sec)
Heartbeat CPU 0 instructions: 20000114 cycles: 4182513 heartbeat IPC: 4.78 cumulative IPC: 4.782 (Simulation time: 00 hr 01 min 14 sec)
Heartbeat CPU 0 instructions: 20500120 cycles: 4287037 heartbeat IPC: 4.784 cumulative IPC: 4.782 (Simulation time: 00 hr 01 min 16 sec)
Heartbeat CPU 0 instructions: 21000127 cycles: 4391912 heartbeat IPC: 4.768 cumulative IPC: 4.782 (Simulation time: 00 hr 01 min 18 sec)
Heartbeat CPU 0 instructions: 21500133 cycles: 4497018 heartbeat IPC: 4.757 cumulative IPC: 4.781 (Simulation time: 00 hr 01 min 20 sec)
Heartbeat CPU 0 instructions: 22000135 cycles: 4601539 heartbeat IPC: 4.784 cumulative IPC: 4.781 (Simulation time: 00 hr 01 min 22 sec)
Heartbeat CPU 0 instructions: 22500136 cycles: 4705774 heartbeat IPC: 4.797 cumulative IPC: 4.781 (Simulation time: 00 hr 01 min 24 sec)
Heartbeat CPU 0 instructions: 23000136 cycles: 4810274 heartbeat IPC: 4.785 cumulative IPC: 4.781 (Simulation time: 00 hr 01 min 26 sec)
Heartbeat CPU 0 instructions: 23500138 cycles: 4915383 heartbeat IPC: 4.757 cumulative IPC: 4.781 (Simulation time: 00 hr 01 min 28 sec)
Heartbeat CPU 0 instructions: 24000145 cycles: 5019730 heartbeat IPC: 4.792 cumulative IPC: 4.781 (Simulation time: 00 hr 01 min 29 sec)
Heartbeat CPU 0 instructions: 24500148 cycles: 5124413 heartbeat IPC: 4.776 cumulative IPC: 4.781 (Simulation time: 00 hr 01 min 31 sec)
Heartbeat CPU 0 instructions: 25000151 cycles: 5228890 heartbeat IPC: 4.786 cumulative IPC: 4.781 (Simulation time: 00 hr 01 min 33 sec)
Heartbeat CPU 0 instructions: 25500156 cycles: 5333318 heartbeat IPC: 4.788 cumulative IPC: 4.781 (Simulation time: 00 hr 01 min 35 sec)
Heartbeat CPU 0 instructions: 26000162 cycles: 5437998 heartbeat IPC: 4.777 cumulative IPC: 4.781 (Simulation time: 00 hr 01 min 37 sec)
Heartbeat CPU 0 instructions: 26500165 cycles: 5542900 heartbeat IPC: 4.766 cumulative IPC: 4.781 (Simulation time: 00 hr 01 min 39 sec)
Heartbeat CPU 0 instructions: 27000172 cycles: 5646687 heartbeat IPC: 4.818 cumulative IPC: 4.782 (Simulation time: 00 hr 01 min 41 sec)
Heartbeat CPU 0 instructions: 27500175 cycles: 5751285 heartbeat IPC: 4.78 cumulative IPC: 4.782 (Simulation time: 00 hr 01 min 43 sec)
Heartbeat CPU 0 instructions: 28000180 cycles: 5856219 heartbeat IPC: 4.765 cumulative IPC: 4.781 (Simulation time: 00 hr 01 min 45 sec)
Heartbeat CPU 0 instructions: 28500182 cycles: 5960155 heartbeat IPC: 4.811 cumulative IPC: 4.782 (Simulation time: 00 hr 01 min 46 sec)
Heartbeat CPU 0 instructions: 29000185 cycles: 6064866 heartbeat IPC: 4.775 cumulative IPC: 4.782 (Simulation time: 00 hr 01 min 48 sec)
Heartbeat CPU 0 instructions: 29500189 cycles: 6169640 heartbeat IPC: 4.772 cumulative IPC: 4.782 (Simulation time: 00 hr 01 min 50 sec)
Heartbeat CPU 0 instructions: 30000192 cycles: 6273825 heartbeat IPC: 4.799 cumulative IPC: 4.782 (Simulation time: 00 hr 01 min 52 sec)
Heartbeat CPU 0 instructions: 30500195 cycles: 6378025 heartbeat IPC: 4.798 cumulative IPC: 4.782 (Simulation time: 00 hr 01 min 54 sec)
Heartbeat CPU 0 instructions: 31000198 cycles: 6482531 heartbeat IPC: 4.784 cumulative IPC: 4.782 (Simulation time: 00 hr 01 min 56 sec)
Heartbeat CPU 0 instructions: 31500205 cycles: 6586628 heartbeat IPC: 4.803 cumulative IPC: 4.782 (Simulation time: 00 hr 01 min 58 sec)
Heartbeat CPU 0 instructions: 32000208 cycles: 6691150 heartbeat IPC: 4.784 cumulative IPC: 4.782 (Simulation time: 00 hr 02 min 00 sec)
Heartbeat CPU 0 instructions: 32500213 cycles: 6795251 heartbeat IPC: 4.803 cumulative IPC: 4.783 (Simulation time: 00 hr 02 min 01 sec)
Heartbeat CPU 0 instructions: 33000216 cycles: 6899475 heartbeat IPC: 4.797 cumulative IPC: 4.783 (Simulation time: 00 hr 02 min 03 sec)
Heartbeat CPU 0 instructions: 33500217 cycles: 7003813 heartbeat IPC: 4.792 cumulative IPC: 4.783 (Simulation time: 00 hr 02 min 05 sec)
Heartbeat CPU 0 instructions: 34000221 cycles: 7108290 heartbeat IPC: 4.786 cumulative IPC: 4.783 (Simulation time: 00 hr 02 min 07 sec)
Heartbeat CPU 0 instructions: 34500224 cycles: 7212354 heartbeat IPC: 4.805 cumulative IPC: 4.783 (Simulation time: 00 hr 02 min 09 sec)
Heartbeat CPU 0 instructions: 35000225 cycles: 7316486 heartbeat IPC: 4.802 cumulative IPC: 4.784 (Simulation time: 00 hr 02 min 11 sec)
Heartbeat CPU 0 instructions: 35500230 cycles: 7420713 heartbeat IPC: 4.797 cumulative IPC: 4.784 (Simulation time: 00 hr 02 min 13 sec)
Heartbeat CPU 0 instructions: 36000233 cycles: 7525351 heartbeat IPC: 4.778 cumulative IPC: 4.784 (Simulation time: 00 hr 02 min 14 sec)
Heartbeat CPU 0 instructions: 36500233 cycles: 7629613 heartbeat IPC: 4.796 cumulative IPC: 4.784 (Simulation time: 00 hr 02 min 16 sec)
Heartbeat CPU 0 instructions: 37000233 cycles: 7733890 heartbeat IPC: 4.795 cumulative IPC: 4.784 (Simulation time: 00 hr 02 min 18 sec)
Heartbeat CPU 0 instructions: 37500233 cycles: 7838536 heartbeat IPC: 4.778 cumulative IPC: 4.784 (Simulation time: 00 hr 02 min 20 sec)
Heartbeat CPU 0 instructions: 38000235 cycles: 7942704 heartbeat IPC: 4.8 cumulative IPC: 4.784 (Simulation time: 00 hr 02 min 22 sec)
Heartbeat CPU 0 instructions: 38500237 cycles: 8047194 heartbeat IPC: 4.785 cumulative IPC: 4.784 (Simulation time: 00 hr 02 min 24 sec)
Heartbeat CPU 0 instructions: 39000242 cycles: 8151312 heartbeat IPC: 4.802 cumulative IPC: 4.785 (Simulation time: 00 hr 02 min 26 sec)
Heartbeat CPU 0 instructions: 39500245 cycles: 8256231 heartbeat IPC: 4.766 cumulative IPC: 4.784 (Simulation time: 00 hr 02 min 27 sec)
Heartbeat CPU 0 instructions: 40000245 cycles: 8360824 heartbeat IPC: 4.78 cumulative IPC: 4.784 (Simulation time: 00 hr 02 min 29 sec)
Heartbeat CPU 0 instructions: 40500250 cycles: 8465679 heartbeat IPC: 4.769 cumulative IPC: 4.784 (Simulation time: 00 hr 02 min 31 sec)
Heartbeat CPU 0 instructions: 41000254 cycles: 8570373 heartbeat IPC: 4.776 cumulative IPC: 4.784 (Simulation time: 00 hr 02 min 33 sec)
Heartbeat CPU 0 instructions: 41500258 cycles: 8675246 heartbeat IPC: 4.768 cumulative IPC: 4.784 (Simulation time: 00 hr 02 min 35 sec)
Heartbeat CPU 0 instructions: 42000261 cycles: 8780223 heartbeat IPC: 4.763 cumulative IPC: 4.784 (Simulation time: 00 hr 02 min 37 sec)
Heartbeat CPU 0 instructions: 42500263 cycles: 8884442 heartbeat IPC: 4.798 cumulative IPC: 4.784 (Simulation time: 00 hr 02 min 39 sec)
Heartbeat CPU 0 instructions: 43000267 cycles: 8989237 heartbeat IPC: 4.771 cumulative IPC: 4.784 (Simulation time: 00 hr 02 min 41 sec)
Heartbeat CPU 0 instructions: 43500268 cycles: 9093520 heartbeat IPC: 4.795 cumulative IPC: 4.784 (Simulation time: 00 hr 02 min 42 sec)
Heartbeat CPU 0 instructions: 44000272 cycles: 9197790 heartbeat IPC: 4.795 cumulative IPC: 4.784 (Simulation time: 00 hr 02 min 44 sec)
Heartbeat CPU 0 instructions: 44500279 cycles: 9302086 heartbeat IPC: 4.794 cumulative IPC: 4.784 (Simulation time: 00 hr 02 min 46 sec)
Heartbeat CPU 0 instructions: 45000282 cycles: 9406509 heartbeat IPC: 4.788 cumulative IPC: 4.784 (Simulation time: 00 hr 02 min 48 sec)
Heartbeat CPU 0 instructions: 45500282 cycles: 9510714 heartbeat IPC: 4.798 cumulative IPC: 4.784 (Simulation time: 00 hr 02 min 49 sec)
Heartbeat CPU 0 instructions: 46000286 cycles: 9615085 heartbeat IPC: 4.791 cumulative IPC: 4.784 (Simulation time: 00 hr 02 min 51 sec)
Heartbeat CPU 0 instructions: 46500293 cycles: 9719428 heartbeat IPC: 4.792 cumulative IPC: 4.784 (Simulation time: 00 hr 02 min 53 sec)
Heartbeat CPU 0 instructions: 47000297 cycles: 9823669 heartbeat IPC: 4.797 cumulative IPC: 4.784 (Simulation time: 00 hr 02 min 55 sec)
Heartbeat CPU 0 instructions: 47500299 cycles: 9928163 heartbeat IPC: 4.785 cumulative IPC: 4.784 (Simulation time: 00 hr 02 min 56 sec)
Heartbeat CPU 0 instructions: 48000305 cycles: 10032501 heartbeat IPC: 4.792 cumulative IPC: 4.784 (Simulation time: 00 hr 02 min 58 sec)
Heartbeat CPU 0 instructions: 48500311 cycles: 10136932 heartbeat IPC: 4.788 cumulative IPC: 4.785 (Simulation time: 00 hr 03 min 00 sec)
Heartbeat CPU 0 instructions: 49000316 cycles: 10241096 heartbeat IPC: 4.8 cumulative IPC: 4.785 (Simulation time: 00 hr 03 min 02 sec)
Heartbeat CPU 0 instructions: 49500321 cycles: 10345564 heartbeat IPC: 4.786 cumulative IPC: 4.785 (Simulation time: 00 hr 03 min 03 sec)
Warmup halting CPU 0 at instruction 50000007 cycle 10449881 for remainder of phase
Warmup finished CPU 0 instructions: 50000007 cycles: 10449881 cumulative IPC: 4.785 (Simulation time: 00 hr 03 min 05 sec)
Warmup complete CPU 0 instructions: 50000007 cycles: 10449881 cumulative IPC: 4.785 (Simulation time: 00 hr 03 min 05 sec)
Heartbeat CPU 0 instructions: 50000324 cycles: 10449986 heartbeat IPC: 4.788 cumulative IPC: 3.019 (Simulation time: 00 hr 03 min 05 sec)
Heartbeat CPU 0 instructions: 50500324 cycles: 10694160 heartbeat IPC: 2.048 cumulative IPC: 2.048 (Simulation time: 00 hr 03 min 08 sec)
Heartbeat CPU 0 instructions: 51000328 cycles: 10935555 heartbeat IPC: 2.071 cumulative IPC: 2.06 (Simulation time: 00 hr 03 min 11 sec)
Heartbeat CPU 0 instructions: 51500328 cycles: 11178719 heartbeat IPC: 2.056 cumulative IPC: 2.059 (Simulation time: 00 hr 03 min 13 sec)
Heartbeat CPU 0 instructions: 52000330 cycles: 11422240 heartbeat IPC: 2.053 cumulative IPC: 2.057 (Simulation time: 00 hr 03 min 16 sec)
Heartbeat CPU 0 instructions: 52500332 cycles: 11666276 heartbeat IPC: 2.049 cumulative IPC: 2.056 (Simulation time: 00 hr 03 min 19 sec)
Heartbeat CPU 0 instructions: 53000333 cycles: 11909644 heartbeat IPC: 2.055 cumulative IPC: 2.055 (Simulation time: 00 hr 03 min 21 sec)
Heartbeat CPU 0 instructions: 53500335 cycles: 12150839 heartbeat IPC: 2.073 cumulative IPC: 2.058 (Simulation time: 00 hr 03 min 24 sec)
Heartbeat CPU 0 instructions: 54000336 cycles: 12392548 heartbeat IPC: 2.069 cumulative IPC: 2.059 (Simulation time: 00 hr 03 min 27 sec)
Heartbeat CPU 0 instructions: 54500338 cycles: 12635005 heartbeat IPC: 2.062 cumulative IPC: 2.06 (Simulation time: 00 hr 03 min 30 sec)
Heartbeat CPU 0 instructions: 55000342 cycles: 12875412 heartbeat IPC: 2.08 cumulative IPC: 2.062 (Simulation time: 00 hr 03 min 32 sec)
Heartbeat CPU 0 instructions: 55500347 cycles: 13116490 heartbeat IPC: 2.074 cumulative IPC: 2.063 (Simulation time: 00 hr 03 min 35 sec)
Heartbeat CPU 0 instructions: 56000349 cycles: 13358887 heartbeat IPC: 2.063 cumulative IPC: 2.063 (Simulation time: 00 hr 03 min 38 sec)
Heartbeat CPU 0 instructions: 56500349 cycles: 13602417 heartbeat IPC: 2.053 cumulative IPC: 2.062 (Simulation time: 00 hr 03 min 40 sec)
Heartbeat CPU 0 instructions: 57000353 cycles: 13845441 heartbeat IPC: 2.057 cumulative IPC: 2.062 (Simulation time: 00 hr 03 min 43 sec)
Heartbeat CPU 0 instructions: 57500354 cycles: 14088843 heartbeat IPC: 2.054 cumulative IPC: 2.061 (Simulation time: 00 hr 03 min 46 sec)
Heartbeat CPU 0 instructions: 58000355 cycles: 14332833 heartbeat IPC: 2.049 cumulative IPC: 2.06 (Simulation time: 00 hr 03 min 48 sec)
Heartbeat CPU 0 instructions: 58500355 cycles: 14576403 heartbeat IPC: 2.053 cumulative IPC: 2.06 (Simulation time: 00 hr 03 min 51 sec)
Heartbeat CPU 0 instructions: 59000358 cycles: 14816002 heartbeat IPC: 2.087 cumulative IPC: 2.061 (Simulation time: 00 hr 03 min 54 sec)
Heartbeat CPU 0 instructions: 59500358 cycles: 15059111 heartbeat IPC: 2.057 cumulative IPC: 2.061 (Simulation time: 00 hr 03 min 56 sec)
Heartbeat CPU 0 instructions: 60000361 cycles: 15300322 heartbeat IPC: 2.073 cumulative IPC: 2.062 (Simulation time: 00 hr 03 min 59 sec)
Heartbeat CPU 0 instructions: 60500363 cycles: 15544582 heartbeat IPC: 2.047 cumulative IPC: 2.061 (Simulation time: 00 hr 04 min 02 sec)
Heartbeat CPU 0 instructions: 61000364 cycles: 15788125 heartbeat IPC: 2.053 cumulative IPC: 2.061 (Simulation time: 00 hr 04 min 05 sec)
Heartbeat CPU 0 instructions: 61500366 cycles: 16031215 heartbeat IPC: 2.057 cumulative IPC: 2.061 (Simulation time: 00 hr 04 min 07 sec)
Heartbeat CPU 0 instructions: 62000367 cycles: 16274978 heartbeat IPC: 2.051 cumulative IPC: 2.06 (Simulation time: 00 hr 04 min 10 sec)
Heartbeat CPU 0 instructions: 62500369 cycles: 16518544 heartbeat IPC: 2.053 cumulative IPC: 2.06 (Simulation time: 00 hr 04 min 13 sec)
Heartbeat CPU 0 instructions: 63000370 cycles: 16760203 heartbeat IPC: 2.069 cumulative IPC: 2.06 (Simulation time: 00 hr 04 min 15 sec)
Heartbeat CPU 0 instructions: 63500372 cycles: 17003521 heartbeat IPC: 2.055 cumulative IPC: 2.06 (Simulation time: 00 hr 04 min 18 sec)
Heartbeat CPU 0 instructions: 64000374 cycles: 17242983 heartbeat IPC: 2.088 cumulative IPC: 2.061 (Simulation time: 00 hr 04 min 21 sec)
Heartbeat CPU 0 instructions: 64500376 cycles: 17486973 heartbeat IPC: 2.049 cumulative IPC: 2.061 (Simulation time: 00 hr 04 min 23 sec)
Heartbeat CPU 0 instructions: 65000376 cycles: 17730276 heartbeat IPC: 2.055 cumulative IPC: 2.06 (Simulation time: 00 hr 04 min 26 sec)
Heartbeat CPU 0 instructions: 65500383 cycles: 17973758 heartbeat IPC: 2.054 cumulative IPC: 2.06 (Simulation time: 00 hr 04 min 29 sec)
Heartbeat CPU 0 instructions: 66000386 cycles: 18215044 heartbeat IPC: 2.072 cumulative IPC: 2.061 (Simulation time: 00 hr 04 min 31 sec)
Heartbeat CPU 0 instructions: 66500386 cycles: 18459105 heartbeat IPC: 2.049 cumulative IPC: 2.06 (Simulation time: 00 hr 04 min 34 sec)
Heartbeat CPU 0 instructions: 67000389 cycles: 18701555 heartbeat IPC: 2.062 cumulative IPC: 2.06 (Simulation time: 00 hr 04 min 37 sec)
Heartbeat CPU 0 instructions: 67500389 cycles: 18944060 heartbeat IPC: 2.062 cumulative IPC: 2.06 (Simulation time: 00 hr 04 min 39 sec)
Heartbeat CPU 0 instructions: 68000392 cycles: 19184847 heartbeat IPC: 2.077 cumulative IPC: 2.061 (Simulation time: 00 hr 04 min 42 sec)
Heartbeat CPU 0 instructions: 68500394 cycles: 19425130 heartbeat IPC: 2.081 cumulative IPC: 2.061 (Simulation time: 00 hr 04 min 45 sec)
Heartbeat CPU 0 instructions: 69000395 cycles: 19668040 heartbeat IPC: 2.058 cumulative IPC: 2.061 (Simulation time: 00 hr 04 min 47 sec)
Heartbeat CPU 0 instructions: 69500397 cycles: 19909475 heartbeat IPC: 2.071 cumulative IPC: 2.061 (Simulation time: 00 hr 04 min 50 sec)
Heartbeat CPU 0 instructions: 70000398 cycles: 20153803 heartbeat IPC: 2.046 cumulative IPC: 2.061 (Simulation time: 00 hr 04 min 53 sec)
Heartbeat CPU 0 instructions: 70500400 cycles: 20397088 heartbeat IPC: 2.055 cumulative IPC: 2.061 (Simulation time: 00 hr 04 min 55 sec)
Heartbeat CPU 0 instructions: 71000401 cycles: 20640361 heartbeat IPC: 2.055 cumulative IPC: 2.061 (Simulation time: 00 hr 04 min 58 sec)
Heartbeat CPU 0 instructions: 71500403 cycles: 20880781 heartbeat IPC: 2.08 cumulative IPC: 2.061 (Simulation time: 00 hr 05 min 01 sec)
Heartbeat CPU 0 instructions: 72000404 cycles: 21123839 heartbeat IPC: 2.057 cumulative IPC: 2.061 (Simulation time: 00 hr 05 min 04 sec)
Heartbeat CPU 0 instructions: 72500406 cycles: 21364445 heartbeat IPC: 2.078 cumulative IPC: 2.062 (Simulation time: 00 hr 05 min 06 sec)
Heartbeat CPU 0 instructions: 73000407 cycles: 21604906 heartbeat IPC: 2.079 cumulative IPC: 2.062 (Simulation time: 00 hr 05 min 09 sec)
Heartbeat CPU 0 instructions: 73500410 cycles: 21848210 heartbeat IPC: 2.055 cumulative IPC: 2.062 (Simulation time: 00 hr 05 min 12 sec)
Heartbeat CPU 0 instructions: 74000410 cycles: 22089427 heartbeat IPC: 2.073 cumulative IPC: 2.062 (Simulation time: 00 hr 05 min 14 sec)
Heartbeat CPU 0 instructions: 74500413 cycles: 22333000 heartbeat IPC: 2.053 cumulative IPC: 2.062 (Simulation time: 00 hr 05 min 17 sec)
Heartbeat CPU 0 instructions: 75000413 cycles: 22577019 heartbeat IPC: 2.049 cumulative IPC: 2.062 (Simulation time: 00 hr 05 min 20 sec)
Heartbeat CPU 0 instructions: 75500416 cycles: 22820295 heartbeat IPC: 2.055 cumulative IPC: 2.061 (Simulation time: 00 hr 05 min 22 sec)
Heartbeat CPU 0 instructions: 76000416 cycles: 23059750 heartbeat IPC: 2.088 cumulative IPC: 2.062 (Simulation time: 00 hr 05 min 25 sec)
Heartbeat CPU 0 instructions: 76500419 cycles: 23303054 heartbeat IPC: 2.055 cumulative IPC: 2.062 (Simulation time: 00 hr 05 min 28 sec)
Heartbeat CPU 0 instructions: 77000419 cycles: 23542900 heartbeat IPC: 2.085 cumulative IPC: 2.062 (Simulation time: 00 hr 05 min 30 sec)
Heartbeat CPU 0 instructions: 77500422 cycles: 23784314 heartbeat IPC: 2.071 cumulative IPC: 2.062 (Simulation time: 00 hr 05 min 33 sec)
Heartbeat CPU 0 instructions: 78000427 cycles: 24027524 heartbeat IPC: 2.056 cumulative IPC: 2.062 (Simulation time: 00 hr 05 min 36 sec)
Heartbeat CPU 0 instructions: 78500431 cycles: 24269637 heartbeat IPC: 2.065 cumulative IPC: 2.062 (Simulation time: 00 hr 05 min 38 sec)
Heartbeat CPU 0 instructions: 79000432 cycles: 24513189 heartbeat IPC: 2.053 cumulative IPC: 2.062 (Simulation time: 00 hr 05 min 41 sec)
Heartbeat CPU 0 instructions: 79500434 cycles: 24756478 heartbeat IPC: 2.055 cumulative IPC: 2.062 (Simulation time: 00 hr 05 min 44 sec)
Heartbeat CPU 0 instructions: 80000441 cycles: 24999629 heartbeat IPC: 2.056 cumulative IPC: 2.062 (Simulation time: 00 hr 05 min 47 sec)
Heartbeat CPU 0 instructions: 80500443 cycles: 25239914 heartbeat IPC: 2.081 cumulative IPC: 2.062 (Simulation time: 00 hr 05 min 49 sec)
Heartbeat CPU 0 instructions: 81000444 cycles: 25483235 heartbeat IPC: 2.055 cumulative IPC: 2.062 (Simulation time: 00 hr 05 min 52 sec)
Heartbeat CPU 0 instructions: 81500445 cycles: 25723070 heartbeat IPC: 2.085 cumulative IPC: 2.062 (Simulation time: 00 hr 05 min 55 sec)
Heartbeat CPU 0 instructions: 82000449 cycles: 25964179 heartbeat IPC: 2.074 cumulative IPC: 2.063 (Simulation time: 00 hr 05 min 57 sec)
Heartbeat CPU 0 instructions: 82500450 cycles: 26206577 heartbeat IPC: 2.063 cumulative IPC: 2.063 (Simulation time: 00 hr 06 min 00 sec)
Heartbeat CPU 0 instructions: 83000451 cycles: 26448853 heartbeat IPC: 2.064 cumulative IPC: 2.063 (Simulation time: 00 hr 06 min 03 sec)
Heartbeat CPU 0 instructions: 83500451 cycles: 26693330 heartbeat IPC: 2.045 cumulative IPC: 2.062 (Simulation time: 00 hr 06 min 05 sec)
Heartbeat CPU 0 instructions: 84000455 cycles: 26936616 heartbeat IPC: 2.055 cumulative IPC: 2.062 (Simulation time: 00 hr 06 min 08 sec)
Heartbeat CPU 0 instructions: 84500456 cycles: 27178070 heartbeat IPC: 2.071 cumulative IPC: 2.062 (Simulation time: 00 hr 06 min 11 sec)
Heartbeat CPU 0 instructions: 85000457 cycles: 27419129 heartbeat IPC: 2.074 cumulative IPC: 2.063 (Simulation time: 00 hr 06 min 13 sec)
Heartbeat CPU 0 instructions: 85500462 cycles: 27662989 heartbeat IPC: 2.05 cumulative IPC: 2.062 (Simulation time: 00 hr 06 min 16 sec)
Heartbeat CPU 0 instructions: 86000466 cycles: 27903012 heartbeat IPC: 2.083 cumulative IPC: 2.063 (Simulation time: 00 hr 06 min 19 sec)
Heartbeat CPU 0 instructions: 86500468 cycles: 28144265 heartbeat IPC: 2.073 cumulative IPC: 2.063 (Simulation time: 00 hr 06 min 21 sec)
Heartbeat CPU 0 instructions: 87000469 cycles: 28385741 heartbeat IPC: 2.071 cumulative IPC: 2.063 (Simulation time: 00 hr 06 min 24 sec)
Heartbeat CPU 0 instructions: 87500471 cycles: 28629024 heartbeat IPC: 2.055 cumulative IPC: 2.063 (Simulation time: 00 hr 06 min 27 sec)
Heartbeat CPU 0 instructions: 88000472 cycles: 28872571 heartbeat IPC: 2.053 cumulative IPC: 2.063 (Simulation time: 00 hr 06 min 29 sec)
Heartbeat CPU 0 instructions: 88500474 cycles: 29116385 heartbeat IPC: 2.051 cumulative IPC: 2.063 (Simulation time: 00 hr 06 min 32 sec)
Heartbeat CPU 0 instructions: 89000475 cycles: 29357852 heartbeat IPC: 2.071 cumulative IPC: 2.063 (Simulation time: 00 hr 06 min 35 sec)
Heartbeat CPU 0 instructions: 89500477 cycles: 29601173 heartbeat IPC: 2.055 cumulative IPC: 2.063 (Simulation time: 00 hr 06 min 38 sec)
Heartbeat CPU 0 instructions: 90000479 cycles: 29843583 heartbeat IPC: 2.063 cumulative IPC: 2.063 (Simulation time: 00 hr 06 min 40 sec)
Heartbeat CPU 0 instructions: 90500479 cycles: 30085942 heartbeat IPC: 2.063 cumulative IPC: 2.063 (Simulation time: 00 hr 06 min 43 sec)
Heartbeat CPU 0 instructions: 91000482 cycles: 30328117 heartbeat IPC: 2.065 cumulative IPC: 2.063 (Simulation time: 00 hr 06 min 46 sec)
Heartbeat CPU 0 instructions: 91500482 cycles: 30571378 heartbeat IPC: 2.055 cumulative IPC: 2.062 (Simulation time: 00 hr 06 min 48 sec)
Heartbeat CPU 0 instructions: 92000485 cycles: 30814719 heartbeat IPC: 2.055 cumulative IPC: 2.062 (Simulation time: 00 hr 06 min 51 sec)
Heartbeat CPU 0 instructions: 92500485 cycles: 31058252 heartbeat IPC: 2.053 cumulative IPC: 2.062 (Simulation time: 00 hr 06 min 54 sec)
Heartbeat CPU 0 instructions: 93000488 cycles: 31302076 heartbeat IPC: 2.051 cumulative IPC: 2.062 (Simulation time: 00 hr 06 min 56 sec)
Heartbeat CPU 0 instructions: 93500488 cycles: 31545378 heartbeat IPC: 2.055 cumulative IPC: 2.062 (Simulation time: 00 hr 06 min 59 sec)
Heartbeat CPU 0 instructions: 94000491 cycles: 31786838 heartbeat IPC: 2.071 cumulative IPC: 2.062 (Simulation time: 00 hr 07 min 02 sec)
Heartbeat CPU 0 instructions: 94500496 cycles: 32030098 heartbeat IPC: 2.055 cumulative IPC: 2.062 (Simulation time: 00 hr 07 min 04 sec)
Heartbeat CPU 0 instructions: 95000500 cycles: 32271532 heartbeat IPC: 2.071 cumulative IPC: 2.062 (Simulation time: 00 hr 07 min 07 sec)
Heartbeat CPU 0 instructions: 95500502 cycles: 32513812 heartbeat IPC: 2.064 cumulative IPC: 2.062 (Simulation time: 00 hr 07 min 09 sec)
Heartbeat CPU 0 instructions: 96000503 cycles: 32757113 heartbeat IPC: 2.055 cumulative IPC: 2.062 (Simulation time: 00 hr 07 min 12 sec)
Heartbeat CPU 0 instructions: 96500507 cycles: 33000296 heartbeat IPC: 2.056 cumulative IPC: 2.062 (Simulation time: 00 hr 07 min 15 sec)
Heartbeat CPU 0 instructions: 97000512 cycles: 33242694 heartbeat IPC: 2.063 cumulative IPC: 2.062 (Simulation time: 00 hr 07 min 17 sec)
Heartbeat CPU 0 instructions: 97500514 cycles: 33485924 heartbeat IPC: 2.056 cumulative IPC: 2.062 (Simulation time: 00 hr 07 min 20 sec)
Heartbeat CPU 0 instructions: 98000514 cycles: 33729181 heartbeat IPC: 2.055 cumulative IPC: 2.062 (Simulation time: 00 hr 07 min 23 sec)
Heartbeat CPU 0 instructions: 98500518 cycles: 33972590 heartbeat IPC: 2.054 cumulative IPC: 2.062 (Simulation time: 00 hr 07 min 26 sec)
Heartbeat CPU 0 instructions: 99000519 cycles: 34213808 heartbeat IPC: 2.073 cumulative IPC: 2.062 (Simulation time: 00 hr 07 min 28 sec)
Heartbeat CPU 0 instructions: 99500520 cycles: 34458267 heartbeat IPC: 2.045 cumulative IPC: 2.062 (Simulation time: 00 hr 07 min 31 sec)
Heartbeat CPU 0 instructions: 100000520 cycles: 34699514 heartbeat IPC: 2.073 cumulative IPC: 2.062 (Simulation time: 00 hr 07 min 33 sec)
Heartbeat CPU 0 instructions: 100500524 cycles: 34942826 heartbeat IPC: 2.055 cumulative IPC: 2.062 (Simulation time: 00 hr 07 min 36 sec)
Heartbeat CPU 0 instructions: 101000524 cycles: 35185910 heartbeat IPC: 2.057 cumulative IPC: 2.062 (Simulation time: 00 hr 07 min 39 sec)
Heartbeat CPU 0 instructions: 101500526 cycles: 35430059 heartbeat IPC: 2.048 cumulative IPC: 2.062 (Simulation time: 00 hr 07 min 42 sec)
Heartbeat CPU 0 instructions: 102000526 cycles: 35671895 heartbeat IPC: 2.068 cumulative IPC: 2.062 (Simulation time: 00 hr 07 min 44 sec)
Heartbeat CPU 0 instructions: 102500529 cycles: 35915166 heartbeat IPC: 2.055 cumulative IPC: 2.062 (Simulation time: 00 hr 07 min 47 sec)
Heartbeat CPU 0 instructions: 103000531 cycles: 36156158 heartbeat IPC: 2.075 cumulative IPC: 2.062 (Simulation time: 00 hr 07 min 50 sec)
Heartbeat CPU 0 instructions: 103500532 cycles: 36400457 heartbeat IPC: 2.047 cumulative IPC: 2.062 (Simulation time: 00 hr 07 min 52 sec)
Heartbeat CPU 0 instructions: 104000534 cycles: 36642137 heartbeat IPC: 2.069 cumulative IPC: 2.062 (Simulation time: 00 hr 07 min 55 sec)
Heartbeat CPU 0 instructions: 104500535 cycles: 36885420 heartbeat IPC: 2.055 cumulative IPC: 2.062 (Simulation time: 00 hr 07 min 58 sec)
Heartbeat CPU 0 instructions: 105000537 cycles: 37128263 heartbeat IPC: 2.059 cumulative IPC: 2.062 (Simulation time: 00 hr 08 min 00 sec)
Heartbeat CPU 0 instructions: 105500539 cycles: 37372558 heartbeat IPC: 2.047 cumulative IPC: 2.061 (Simulation time: 00 hr 08 min 03 sec)
Heartbeat CPU 0 instructions: 106000540 cycles: 37615827 heartbeat IPC: 2.055 cumulative IPC: 2.061 (Simulation time: 00 hr 08 min 06 sec)
Heartbeat CPU 0 instructions: 106500541 cycles: 37859406 heartbeat IPC: 2.053 cumulative IPC: 2.061 (Simulation time: 00 hr 08 min 08 sec)
Heartbeat CPU 0 instructions: 107000544 cycles: 38098832 heartbeat IPC: 2.088 cumulative IPC: 2.062 (Simulation time: 00 hr 08 min 11 sec)
Heartbeat CPU 0 instructions: 107500544 cycles: 38342082 heartbeat IPC: 2.055 cumulative IPC: 2.062 (Simulation time: 00 hr 08 min 14 sec)
Heartbeat CPU 0 instructions: 108000547 cycles: 38582503 heartbeat IPC: 2.08 cumulative IPC: 2.062 (Simulation time: 00 hr 08 min 16 sec)
Heartbeat CPU 0 instructions: 108500547 cycles: 38823905 heartbeat IPC: 2.071 cumulative IPC: 2.062 (Simulation time: 00 hr 08 min 19 sec)
Heartbeat CPU 0 instructions: 109000551 cycles: 39067143 heartbeat IPC: 2.056 cumulative IPC: 2.062 (Simulation time: 00 hr 08 min 22 sec)
Heartbeat CPU 0 instructions: 109500552 cycles: 39308494 heartbeat IPC: 2.072 cumulative IPC: 2.062 (Simulation time: 00 hr 08 min 24 sec)
Heartbeat CPU 0 instructions: 110000553 cycles: 39551773 heartbeat IPC: 2.055 cumulative IPC: 2.062 (Simulation time: 00 hr 08 min 27 sec)
Heartbeat CPU 0 instructions: 110500553 cycles: 39796018 heartbeat IPC: 2.047 cumulative IPC: 2.062 (Simulation time: 00 hr 08 min 30 sec)
Heartbeat CPU 0 instructions: 111000556 cycles: 40039153 heartbeat IPC: 2.056 cumulative IPC: 2.062 (Simulation time: 00 hr 08 min 32 sec)
Heartbeat CPU 0 instructions: 111500556 cycles: 40278769 heartbeat IPC: 2.087 cumulative IPC: 2.062 (Simulation time: 00 hr 08 min 35 sec)
Heartbeat CPU 0 instructions: 112000559 cycles: 40522057 heartbeat IPC: 2.055 cumulative IPC: 2.062 (Simulation time: 00 hr 08 min 38 sec)
Heartbeat CPU 0 instructions: 112500559 cycles: 40761684 heartbeat IPC: 2.087 cumulative IPC: 2.062 (Simulation time: 00 hr 08 min 40 sec)
Heartbeat CPU 0 instructions: 113000560 cycles: 41005272 heartbeat IPC: 2.053 cumulative IPC: 2.062 (Simulation time: 00 hr 08 min 43 sec)
Heartbeat CPU 0 instructions: 113500561 cycles: 41249030 heartbeat IPC: 2.051 cumulative IPC: 2.062 (Simulation time: 00 hr 08 min 46 sec)
Heartbeat CPU 0 instructions: 114000565 cycles: 41492289 heartbeat IPC: 2.055 cumulative IPC: 2.062 (Simulation time: 00 hr 08 min 48 sec)
Heartbeat CPU 0 instructions: 114500567 cycles: 41735624 heartbeat IPC: 2.055 cumulative IPC: 2.062 (Simulation time: 00 hr 08 min 51 sec)
Heartbeat CPU 0 instructions: 115000571 cycles: 41979905 heartbeat IPC: 2.047 cumulative IPC: 2.062 (Simulation time: 00 hr 08 min 54 sec)
Heartbeat CPU 0 instructions: 115500571 cycles: 42220316 heartbeat IPC: 2.08 cumulative IPC: 2.062 (Simulation time: 00 hr 08 min 56 sec)
Heartbeat CPU 0 instructions: 116000572 cycles: 42462612 heartbeat IPC: 2.064 cumulative IPC: 2.062 (Simulation time: 00 hr 08 min 59 sec)
Heartbeat CPU 0 instructions: 116500574 cycles: 42704062 heartbeat IPC: 2.071 cumulative IPC: 2.062 (Simulation time: 00 hr 09 min 02 sec)
Heartbeat CPU 0 instructions: 117000575 cycles: 42945483 heartbeat IPC: 2.071 cumulative IPC: 2.062 (Simulation time: 00 hr 09 min 04 sec)
Heartbeat CPU 0 instructions: 117500577 cycles: 43186791 heartbeat IPC: 2.072 cumulative IPC: 2.062 (Simulation time: 00 hr 09 min 07 sec)
Heartbeat CPU 0 instructions: 118000578 cycles: 43430332 heartbeat IPC: 2.053 cumulative IPC: 2.062 (Simulation time: 00 hr 09 min 10 sec)
Heartbeat CPU 0 instructions: 118500580 cycles: 43674333 heartbeat IPC: 2.049 cumulative IPC: 2.062 (Simulation time: 00 hr 09 min 12 sec)
Heartbeat CPU 0 instructions: 119000580 cycles: 43917656 heartbeat IPC: 2.055 cumulative IPC: 2.062 (Simulation time: 00 hr 09 min 15 sec)
Heartbeat CPU 0 instructions: 119500583 cycles: 44160758 heartbeat IPC: 2.057 cumulative IPC: 2.062 (Simulation time: 00 hr 09 min 18 sec)
Heartbeat CPU 0 instructions: 120000583 cycles: 44404992 heartbeat IPC: 2.047 cumulative IPC: 2.062 (Simulation time: 00 hr 09 min 20 sec)
Heartbeat CPU 0 instructions: 120500586 cycles: 44647475 heartbeat IPC: 2.062 cumulative IPC: 2.062 (Simulation time: 00 hr 09 min 23 sec)
Heartbeat CPU 0 instructions: 121000586 cycles: 44889761 heartbeat IPC: 2.064 cumulative IPC: 2.062 (Simulation time: 00 hr 09 min 26 sec)
Heartbeat CPU 0 instructions: 121500589 cycles: 45131021 heartbeat IPC: 2.072 cumulative IPC: 2.062 (Simulation time: 00 hr 09 min 28 sec)
Heartbeat CPU 0 instructions: 122000589 cycles: 45372443 heartbeat IPC: 2.071 cumulative IPC: 2.062 (Simulation time: 00 hr 09 min 31 sec)
Heartbeat CPU 0 instructions: 122500592 cycles: 45616742 heartbeat IPC: 2.047 cumulative IPC: 2.062 (Simulation time: 00 hr 09 min 34 sec)
Heartbeat CPU 0 instructions: 123000592 cycles: 45860030 heartbeat IPC: 2.055 cumulative IPC: 2.062 (Simulation time: 00 hr 09 min 37 sec)
Heartbeat CPU 0 instructions: 123500598 cycles: 46103261 heartbeat IPC: 2.056 cumulative IPC: 2.062 (Simulation time: 00 hr 09 min 39 sec)
Heartbeat CPU 0 instructions: 124000603 cycles: 46346441 heartbeat IPC: 2.056 cumulative IPC: 2.061 (Simulation time: 00 hr 09 min 42 sec)
Heartbeat CPU 0 instructions: 124500605 cycles: 46588846 heartbeat IPC: 2.063 cumulative IPC: 2.062 (Simulation time: 00 hr 09 min 45 sec)
Heartbeat CPU 0 instructions: 125000606 cycles: 46830285 heartbeat IPC: 2.071 cumulative IPC: 2.062 (Simulation time: 00 hr 09 min 47 sec)
Heartbeat CPU 0 instructions: 125500608 cycles: 47072716 heartbeat IPC: 2.062 cumulative IPC: 2.062 (Simulation time: 00 hr 09 min 50 sec)
Heartbeat CPU 0 instructions: 126000609 cycles: 47313041 heartbeat IPC: 2.081 cumulative IPC: 2.062 (Simulation time: 00 hr 09 min 53 sec)
Heartbeat CPU 0 instructions: 126500611 cycles: 47554476 heartbeat IPC: 2.071 cumulative IPC: 2.062 (Simulation time: 00 hr 09 min 55 sec)
Heartbeat CPU 0 instructions: 127000612 cycles: 47796388 heartbeat IPC: 2.067 cumulative IPC: 2.062 (Simulation time: 00 hr 09 min 58 sec)
Heartbeat CPU 0 instructions: 127500615 cycles: 48040272 heartbeat IPC: 2.05 cumulative IPC: 2.062 (Simulation time: 00 hr 10 min 01 sec)
Heartbeat CPU 0 instructions: 128000615 cycles: 48282485 heartbeat IPC: 2.064 cumulative IPC: 2.062 (Simulation time: 00 hr 10 min 04 sec)
Heartbeat CPU 0 instructions: 128500617 cycles: 48524759 heartbeat IPC: 2.064 cumulative IPC: 2.062 (Simulation time: 00 hr 10 min 06 sec)
Heartbeat CPU 0 instructions: 129000617 cycles: 48768306 heartbeat IPC: 2.053 cumulative IPC: 2.062 (Simulation time: 00 hr 10 min 09 sec)
Heartbeat CPU 0 instructions: 129500621 cycles: 49012350 heartbeat IPC: 2.049 cumulative IPC: 2.062 (Simulation time: 00 hr 10 min 12 sec)
Heartbeat CPU 0 instructions: 130000621 cycles: 49253594 heartbeat IPC: 2.073 cumulative IPC: 2.062 (Simulation time: 00 hr 10 min 14 sec)
Heartbeat CPU 0 instructions: 130500623 cycles: 49496891 heartbeat IPC: 2.055 cumulative IPC: 2.062 (Simulation time: 00 hr 10 min 17 sec)
Heartbeat CPU 0 instructions: 131000623 cycles: 49738340 heartbeat IPC: 2.071 cumulative IPC: 2.062 (Simulation time: 00 hr 10 min 20 sec)
Heartbeat CPU 0 instructions: 131500627 cycles: 49981823 heartbeat IPC: 2.054 cumulative IPC: 2.062 (Simulation time: 00 hr 10 min 22 sec)
Heartbeat CPU 0 instructions: 132000628 cycles: 50225711 heartbeat IPC: 2.05 cumulative IPC: 2.062 (Simulation time: 00 hr 10 min 25 sec)
Heartbeat CPU 0 instructions: 132500630 cycles: 50468995 heartbeat IPC: 2.055 cumulative IPC: 2.062 (Simulation time: 00 hr 10 min 28 sec)
Heartbeat CPU 0 instructions: 133000631 cycles: 50711439 heartbeat IPC: 2.062 cumulative IPC: 2.062 (Simulation time: 00 hr 10 min 30 sec)
Heartbeat CPU 0 instructions: 133500633 cycles: 50953979 heartbeat IPC: 2.062 cumulative IPC: 2.062 (Simulation time: 00 hr 10 min 33 sec)
Heartbeat CPU 0 instructions: 134000634 cycles: 51195272 heartbeat IPC: 2.072 cumulative IPC: 2.062 (Simulation time: 00 hr 10 min 36 sec)
Heartbeat CPU 0 instructions: 134500636 cycles: 51439246 heartbeat IPC: 2.049 cumulative IPC: 2.062 (Simulation time: 00 hr 10 min 38 sec)
Heartbeat CPU 0 instructions: 135000637 cycles: 51680750 heartbeat IPC: 2.07 cumulative IPC: 2.062 (Simulation time: 00 hr 10 min 41 sec)
Heartbeat CPU 0 instructions: 135500639 cycles: 51924034 heartbeat IPC: 2.055 cumulative IPC: 2.062 (Simulation time: 00 hr 10 min 44 sec)
Heartbeat CPU 0 instructions: 136000641 cycles: 52167385 heartbeat IPC: 2.055 cumulative IPC: 2.061 (Simulation time: 00 hr 10 min 46 sec)
Heartbeat CPU 0 instructions: 136500641 cycles: 52411399 heartbeat IPC: 2.049 cumulative IPC: 2.061 (Simulation time: 00 hr 10 min 49 sec)
Heartbeat CPU 0 instructions: 137000644 cycles: 52654688 heartbeat IPC: 2.055 cumulative IPC: 2.061 (Simulation time: 00 hr 10 min 52 sec)
Heartbeat CPU 0 instructions: 137500644 cycles: 52897985 heartbeat IPC: 2.055 cumulative IPC: 2.061 (Simulation time: 00 hr 10 min 54 sec)
Heartbeat CPU 0 instructions: 138000648 cycles: 53138812 heartbeat IPC: 2.076 cumulative IPC: 2.061 (Simulation time: 00 hr 10 min 57 sec)
Heartbeat CPU 0 instructions: 138500649 cycles: 53381672 heartbeat IPC: 2.059 cumulative IPC: 2.061 (Simulation time: 00 hr 11 min 00 sec)
Heartbeat CPU 0 instructions: 139000650 cycles: 53622307 heartbeat IPC: 2.078 cumulative IPC: 2.062 (Simulation time: 00 hr 11 min 02 sec)
Heartbeat CPU 0 instructions: 139500650 cycles: 53862717 heartbeat IPC: 2.08 cumulative IPC: 2.062 (Simulation time: 00 hr 11 min 05 sec)
Heartbeat CPU 0 instructions: 140000654 cycles: 54106019 heartbeat IPC: 2.055 cumulative IPC: 2.062 (Simulation time: 00 hr 11 min 08 sec)
Heartbeat CPU 0 instructions: 140500654 cycles: 54347387 heartbeat IPC: 2.072 cumulative IPC: 2.062 (Simulation time: 00 hr 11 min 10 sec)
Heartbeat CPU 0 instructions: 141000656 cycles: 54590821 heartbeat IPC: 2.054 cumulative IPC: 2.062 (Simulation time: 00 hr 11 min 13 sec)
Heartbeat CPU 0 instructions: 141500658 cycles: 54833021 heartbeat IPC: 2.064 cumulative IPC: 2.062 (Simulation time: 00 hr 11 min 16 sec)
Heartbeat CPU 0 instructions: 142000659 cycles: 55076250 heartbeat IPC: 2.056 cumulative IPC: 2.062 (Simulation time: 00 hr 11 min 18 sec)
Heartbeat CPU 0 instructions: 142500661 cycles: 55317556 heartbeat IPC: 2.072 cumulative IPC: 2.062 (Simulation time: 00 hr 11 min 21 sec)
Heartbeat CPU 0 instructions: 143000662 cycles: 55561125 heartbeat IPC: 2.053 cumulative IPC: 2.062 (Simulation time: 00 hr 11 min 24 sec)
Heartbeat CPU 0 instructions: 143500664 cycles: 55800743 heartbeat IPC: 2.087 cumulative IPC: 2.062 (Simulation time: 00 hr 11 min 26 sec)
Heartbeat CPU 0 instructions: 144000671 cycles: 56042006 heartbeat IPC: 2.072 cumulative IPC: 2.062 (Simulation time: 00 hr 11 min 29 sec)
Heartbeat CPU 0 instructions: 144500672 cycles: 56285373 heartbeat IPC: 2.055 cumulative IPC: 2.062 (Simulation time: 00 hr 11 min 32 sec)
Heartbeat CPU 0 instructions: 145000675 cycles: 56527725 heartbeat IPC: 2.063 cumulative IPC: 2.062 (Simulation time: 00 hr 11 min 34 sec)
Heartbeat CPU 0 instructions: 145500675 cycles: 56771006 heartbeat IPC: 2.055 cumulative IPC: 2.062 (Simulation time: 00 hr 11 min 37 sec)
Heartbeat CPU 0 instructions: 146000679 cycles: 57014262 heartbeat IPC: 2.055 cumulative IPC: 2.062 (Simulation time: 00 hr 11 min 40 sec)
Heartbeat CPU 0 instructions: 146500680 cycles: 57257313 heartbeat IPC: 2.057 cumulative IPC: 2.062 (Simulation time: 00 hr 11 min 42 sec)
Heartbeat CPU 0 instructions: 147000681 cycles: 57497744 heartbeat IPC: 2.08 cumulative IPC: 2.062 (Simulation time: 00 hr 11 min 45 sec)
Heartbeat CPU 0 instructions: 147500681 cycles: 57741284 heartbeat IPC: 2.053 cumulative IPC: 2.062 (Simulation time: 00 hr 11 min 48 sec)
Heartbeat CPU 0 instructions: 148000684 cycles: 57980666 heartbeat IPC: 2.089 cumulative IPC: 2.062 (Simulation time: 00 hr 11 min 50 sec)
Heartbeat CPU 0 instructions: 148500684 cycles: 58221964 heartbeat IPC: 2.072 cumulative IPC: 2.062 (Simulation time: 00 hr 11 min 53 sec)
Heartbeat CPU 0 instructions: 149000687 cycles: 58464382 heartbeat IPC: 2.063 cumulative IPC: 2.062 (Simulation time: 00 hr 11 min 56 sec)
Heartbeat CPU 0 instructions: 149500687 cycles: 58706936 heartbeat IPC: 2.061 cumulative IPC: 2.062 (Simulation time: 00 hr 11 min 58 sec)
Heartbeat CPU 0 instructions: 150000690 cycles: 58950943 heartbeat IPC: 2.049 cumulative IPC: 2.062 (Simulation time: 00 hr 12 min 01 sec)
Heartbeat CPU 0 instructions: 150500692 cycles: 59194026 heartbeat IPC: 2.057 cumulative IPC: 2.062 (Simulation time: 00 hr 12 min 04 sec)
Heartbeat CPU 0 instructions: 151000693 cycles: 59436528 heartbeat IPC: 2.062 cumulative IPC: 2.062 (Simulation time: 00 hr 12 min 06 sec)
Heartbeat CPU 0 instructions: 151500695 cycles: 59676964 heartbeat IPC: 2.08 cumulative IPC: 2.062 (Simulation time: 00 hr 12 min 09 sec)
Heartbeat CPU 0 instructions: 152000696 cycles: 59921219 heartbeat IPC: 2.047 cumulative IPC: 2.062 (Simulation time: 00 hr 12 min 12 sec)
Heartbeat CPU 0 instructions: 152500698 cycles: 60162679 heartbeat IPC: 2.071 cumulative IPC: 2.062 (Simulation time: 00 hr 12 min 14 sec)
Heartbeat CPU 0 instructions: 153000700 cycles: 60405802 heartbeat IPC: 2.057 cumulative IPC: 2.062 (Simulation time: 00 hr 12 min 17 sec)
Heartbeat CPU 0 instructions: 153500702 cycles: 60649086 heartbeat IPC: 2.055 cumulative IPC: 2.062 (Simulation time: 00 hr 12 min 20 sec)
Heartbeat CPU 0 instructions: 154000703 cycles: 60893349 heartbeat IPC: 2.047 cumulative IPC: 2.062 (Simulation time: 00 hr 12 min 22 sec)
Heartbeat CPU 0 instructions: 154500705 cycles: 61136597 heartbeat IPC: 2.056 cumulative IPC: 2.062 (Simulation time: 00 hr 12 min 25 sec)
Heartbeat CPU 0 instructions: 155000705 cycles: 61379735 heartbeat IPC: 2.056 cumulative IPC: 2.062 (Simulation time: 00 hr 12 min 28 sec)
Heartbeat CPU 0 instructions: 155500708 cycles: 61621181 heartbeat IPC: 2.071 cumulative IPC: 2.062 (Simulation time: 00 hr 12 min 30 sec)
Heartbeat CPU 0 instructions: 156000708 cycles: 61863666 heartbeat IPC: 2.062 cumulative IPC: 2.062 (Simulation time: 00 hr 12 min 33 sec)
Heartbeat CPU 0 instructions: 156500711 cycles: 62106836 heartbeat IPC: 2.056 cumulative IPC: 2.062 (Simulation time: 00 hr 12 min 36 sec)
Heartbeat CPU 0 instructions: 157000711 cycles: 62349980 heartbeat IPC: 2.056 cumulative IPC: 2.062 (Simulation time: 00 hr 12 min 38 sec)
Heartbeat CPU 0 instructions: 157500714 cycles: 62593334 heartbeat IPC: 2.055 cumulative IPC: 2.062 (Simulation time: 00 hr 12 min 41 sec)
Heartbeat CPU 0 instructions: 158000714 cycles: 62834782 heartbeat IPC: 2.071 cumulative IPC: 2.062 (Simulation time: 00 hr 12 min 44 sec)
Heartbeat CPU 0 instructions: 158500718 cycles: 63079298 heartbeat IPC: 2.045 cumulative IPC: 2.062 (Simulation time: 00 hr 12 min 46 sec)
Heartbeat CPU 0 instructions: 159000718 cycles: 63322100 heartbeat IPC: 2.059 cumulative IPC: 2.062 (Simulation time: 00 hr 12 min 49 sec)
Heartbeat CPU 0 instructions: 159500720 cycles: 63565673 heartbeat IPC: 2.053 cumulative IPC: 2.062 (Simulation time: 00 hr 12 min 52 sec)
Heartbeat CPU 0 instructions: 160000720 cycles: 63806875 heartbeat IPC: 2.073 cumulative IPC: 2.062 (Simulation time: 00 hr 12 min 55 sec)
Heartbeat CPU 0 instructions: 160500721 cycles: 64049320 heartbeat IPC: 2.062 cumulative IPC: 2.062 (Simulation time: 00 hr 12 min 57 sec)
Heartbeat CPU 0 instructions: 161000722 cycles: 64290968 heartbeat IPC: 2.069 cumulative IPC: 2.062 (Simulation time: 00 hr 13 min 00 sec)
Heartbeat CPU 0 instructions: 161500727 cycles: 64532022 heartbeat IPC: 2.074 cumulative IPC: 2.062 (Simulation time: 00 hr 13 min 03 sec)
Heartbeat CPU 0 instructions: 162000728 cycles: 64773493 heartbeat IPC: 2.071 cumulative IPC: 2.062 (Simulation time: 00 hr 13 min 05 sec)
Heartbeat CPU 0 instructions: 162500730 cycles: 65014945 heartbeat IPC: 2.071 cumulative IPC: 2.062 (Simulation time: 00 hr 13 min 08 sec)
Heartbeat CPU 0 instructions: 163000731 cycles: 65258056 heartbeat IPC: 2.057 cumulative IPC: 2.062 (Simulation time: 00 hr 13 min 11 sec)
Heartbeat CPU 0 instructions: 163500733 cycles: 65502316 heartbeat IPC: 2.047 cumulative IPC: 2.062 (Simulation time: 00 hr 13 min 13 sec)
Heartbeat CPU 0 instructions: 164000735 cycles: 65745602 heartbeat IPC: 2.055 cumulative IPC: 2.062 (Simulation time: 00 hr 13 min 16 sec)
Heartbeat CPU 0 instructions: 164500736 cycles: 65987063 heartbeat IPC: 2.071 cumulative IPC: 2.062 (Simulation time: 00 hr 13 min 19 sec)
Heartbeat CPU 0 instructions: 165000738 cycles: 66228265 heartbeat IPC: 2.073 cumulative IPC: 2.062 (Simulation time: 00 hr 13 min 21 sec)
Heartbeat CPU 0 instructions: 165500738 cycles: 66470042 heartbeat IPC: 2.068 cumulative IPC: 2.062 (Simulation time: 00 hr 13 min 24 sec)
Heartbeat CPU 0 instructions: 166000741 cycles: 66710971 heartbeat IPC: 2.075 cumulative IPC: 2.062 (Simulation time: 00 hr 13 min 27 sec)
Heartbeat CPU 0 instructions: 166500741 cycles: 66953653 heartbeat IPC: 2.06 cumulative IPC: 2.062 (Simulation time: 00 hr 13 min 29 sec)
Heartbeat CPU 0 instructions: 167000745 cycles: 67175200 heartbeat IPC: 2.257 cumulative IPC: 2.063 (Simulation time: 00 hr 13 min 32 sec)
Heartbeat CPU 0 instructions: 167500746 cycles: 67384497 heartbeat IPC: 2.389 cumulative IPC: 2.064 (Simulation time: 00 hr 13 min 34 sec)
Heartbeat CPU 0 instructions: 168000747 cycles: 67594884 heartbeat IPC: 2.377 cumulative IPC: 2.065 (Simulation time: 00 hr 13 min 37 sec)
Heartbeat CPU 0 instructions: 168500747 cycles: 67803965 heartbeat IPC: 2.391 cumulative IPC: 2.066 (Simulation time: 00 hr 13 min 39 sec)
Heartbeat CPU 0 instructions: 169000750 cycles: 68012739 heartbeat IPC: 2.395 cumulative IPC: 2.067 (Simulation time: 00 hr 13 min 41 sec)
Heartbeat CPU 0 instructions: 169500750 cycles: 68221382 heartbeat IPC: 2.396 cumulative IPC: 2.069 (Simulation time: 00 hr 13 min 43 sec)
Heartbeat CPU 0 instructions: 170000753 cycles: 68430464 heartbeat IPC: 2.391 cumulative IPC: 2.07 (Simulation time: 00 hr 13 min 46 sec)
Heartbeat CPU 0 instructions: 170500755 cycles: 68639070 heartbeat IPC: 2.397 cumulative IPC: 2.071 (Simulation time: 00 hr 13 min 48 sec)
Heartbeat CPU 0 instructions: 171000756 cycles: 68847695 heartbeat IPC: 2.397 cumulative IPC: 2.072 (Simulation time: 00 hr 13 min 50 sec)
Heartbeat CPU 0 instructions: 171500758 cycles: 69056480 heartbeat IPC: 2.395 cumulative IPC: 2.073 (Simulation time: 00 hr 13 min 53 sec)
Heartbeat CPU 0 instructions: 172000759 cycles: 69266673 heartbeat IPC: 2.379 cumulative IPC: 2.074 (Simulation time: 00 hr 13 min 55 sec)
Heartbeat CPU 0 instructions: 172500761 cycles: 69475829 heartbeat IPC: 2.391 cumulative IPC: 2.075 (Simulation time: 00 hr 13 min 57 sec)
Heartbeat CPU 0 instructions: 173000765 cycles: 69684462 heartbeat IPC: 2.397 cumulative IPC: 2.077 (Simulation time: 00 hr 14 min 00 sec)
Heartbeat CPU 0 instructions: 173500770 cycles: 69894913 heartbeat IPC: 2.376 cumulative IPC: 2.078 (Simulation time: 00 hr 14 min 02 sec)
Heartbeat CPU 0 instructions: 174000772 cycles: 70103450 heartbeat IPC: 2.398 cumulative IPC: 2.079 (Simulation time: 00 hr 14 min 04 sec)
Heartbeat CPU 0 instructions: 174500772 cycles: 70312353 heartbeat IPC: 2.393 cumulative IPC: 2.08 (Simulation time: 00 hr 14 min 07 sec)
Heartbeat CPU 0 instructions: 175000776 cycles: 70522915 heartbeat IPC: 2.375 cumulative IPC: 2.081 (Simulation time: 00 hr 14 min 09 sec)
Heartbeat CPU 0 instructions: 175500777 cycles: 70731541 heartbeat IPC: 2.397 cumulative IPC: 2.082 (Simulation time: 00 hr 14 min 11 sec)
Heartbeat CPU 0 instructions: 176000778 cycles: 70942733 heartbeat IPC: 2.368 cumulative IPC: 2.083 (Simulation time: 00 hr 14 min 14 sec)
Heartbeat CPU 0 instructions: 176500778 cycles: 71152141 heartbeat IPC: 2.388 cumulative IPC: 2.084 (Simulation time: 00 hr 14 min 16 sec)
Heartbeat CPU 0 instructions: 177000781 cycles: 71361354 heartbeat IPC: 2.39 cumulative IPC: 2.085 (Simulation time: 00 hr 14 min 19 sec)
Heartbeat CPU 0 instructions: 177500781 cycles: 71571608 heartbeat IPC: 2.378 cumulative IPC: 2.086 (Simulation time: 00 hr 14 min 21 sec)
Heartbeat CPU 0 instructions: 178000784 cycles: 71780460 heartbeat IPC: 2.394 cumulative IPC: 2.087 (Simulation time: 00 hr 14 min 23 sec)
Heartbeat CPU 0 instructions: 178500786 cycles: 71990675 heartbeat IPC: 2.379 cumulative IPC: 2.088 (Simulation time: 00 hr 14 min 26 sec)
Heartbeat CPU 0 instructions: 179000787 cycles: 72201467 heartbeat IPC: 2.372 cumulative IPC: 2.089 (Simulation time: 00 hr 14 min 28 sec)
Heartbeat CPU 0 instructions: 179500789 cycles: 72410016 heartbeat IPC: 2.398 cumulative IPC: 2.09 (Simulation time: 00 hr 14 min 30 sec)
Heartbeat CPU 0 instructions: 180000790 cycles: 72621295 heartbeat IPC: 2.367 cumulative IPC: 2.091 (Simulation time: 00 hr 14 min 33 sec)
Heartbeat CPU 0 instructions: 180500792 cycles: 72830898 heartbeat IPC: 2.385 cumulative IPC: 2.092 (Simulation time: 00 hr 14 min 35 sec)
Heartbeat CPU 0 instructions: 181000793 cycles: 73039733 heartbeat IPC: 2.394 cumulative IPC: 2.093 (Simulation time: 00 hr 14 min 37 sec)
Heartbeat CPU 0 instructions: 181500795 cycles: 73248557 heartbeat IPC: 2.394 cumulative IPC: 2.094 (Simulation time: 00 hr 14 min 40 sec)
Heartbeat CPU 0 instructions: 182000797 cycles: 73458904 heartbeat IPC: 2.377 cumulative IPC: 2.095 (Simulation time: 00 hr 14 min 42 sec)
Heartbeat CPU 0 instructions: 182500799 cycles: 73667498 heartbeat IPC: 2.397 cumulative IPC: 2.096 (Simulation time: 00 hr 14 min 44 sec)
Heartbeat CPU 0 instructions: 183000799 cycles: 73876269 heartbeat IPC: 2.395 cumulative IPC: 2.097 (Simulation time: 00 hr 14 min 47 sec)
Heartbeat CPU 0 instructions: 183500802 cycles: 74085278 heartbeat IPC: 2.392 cumulative IPC: 2.098 (Simulation time: 00 hr 14 min 49 sec)
Heartbeat CPU 0 instructions: 184000802 cycles: 74293900 heartbeat IPC: 2.397 cumulative IPC: 2.099 (Simulation time: 00 hr 14 min 51 sec)
Heartbeat CPU 0 instructions: 184500805 cycles: 74502646 heartbeat IPC: 2.395 cumulative IPC: 2.1 (Simulation time: 00 hr 14 min 54 sec)
Heartbeat CPU 0 instructions: 185000805 cycles: 74711189 heartbeat IPC: 2.398 cumulative IPC: 2.101 (Simulation time: 00 hr 14 min 56 sec)
Heartbeat CPU 0 instructions: 185500808 cycles: 74951437 heartbeat IPC: 2.081 cumulative IPC: 2.101 (Simulation time: 00 hr 14 min 58 sec)
Heartbeat CPU 0 instructions: 186000813 cycles: 75268861 heartbeat IPC: 1.575 cumulative IPC: 2.098 (Simulation time: 00 hr 15 min 02 sec)
Heartbeat CPU 0 instructions: 186500814 cycles: 75586478 heartbeat IPC: 1.574 cumulative IPC: 2.096 (Simulation time: 00 hr 15 min 05 sec)
Heartbeat CPU 0 instructions: 187000815 cycles: 75903803 heartbeat IPC: 1.576 cumulative IPC: 2.093 (Simulation time: 00 hr 15 min 09 sec)
Heartbeat CPU 0 instructions: 187500815 cycles: 76221488 heartbeat IPC: 1.574 cumulative IPC: 2.091 (Simulation time: 00 hr 15 min 12 sec)
Heartbeat CPU 0 instructions: 188000815 cycles: 76539064 heartbeat IPC: 1.574 cumulative IPC: 2.088 (Simulation time: 00 hr 15 min 16 sec)
Heartbeat CPU 0 instructions: 188500815 cycles: 76856157 heartbeat IPC: 1.577 cumulative IPC: 2.086 (Simulation time: 00 hr 15 min 19 sec)
Heartbeat CPU 0 instructions: 189000820 cycles: 77173692 heartbeat IPC: 1.575 cumulative IPC: 2.083 (Simulation time: 00 hr 15 min 23 sec)
Heartbeat CPU 0 instructions: 189500820 cycles: 77491132 heartbeat IPC: 1.575 cumulative IPC: 2.081 (Simulation time: 00 hr 15 min 26 sec)
Heartbeat CPU 0 instructions: 190000823 cycles: 77808591 heartbeat IPC: 1.575 cumulative IPC: 2.078 (Simulation time: 00 hr 15 min 30 sec)
Heartbeat CPU 0 instructions: 190500827 cycles: 78125825 heartbeat IPC: 1.576 cumulative IPC: 2.076 (Simulation time: 00 hr 15 min 33 sec)
Heartbeat CPU 0 instructions: 191000832 cycles: 78443335 heartbeat IPC: 1.575 cumulative IPC: 2.074 (Simulation time: 00 hr 15 min 37 sec)
Heartbeat CPU 0 instructions: 191500834 cycles: 78760760 heartbeat IPC: 1.575 cumulative IPC: 2.071 (Simulation time: 00 hr 15 min 40 sec)
Heartbeat CPU 0 instructions: 192000835 cycles: 79078127 heartbeat IPC: 1.575 cumulative IPC: 2.069 (Simulation time: 00 hr 15 min 44 sec)
Heartbeat CPU 0 instructions: 192500839 cycles: 79395692 heartbeat IPC: 1.574 cumulative IPC: 2.067 (Simulation time: 00 hr 15 min 47 sec)
Heartbeat CPU 0 instructions: 193000841 cycles: 79713116 heartbeat IPC: 1.575 cumulative IPC: 2.065 (Simulation time: 00 hr 15 min 51 sec)
Heartbeat CPU 0 instructions: 193500847 cycles: 80030394 heartbeat IPC: 1.576 cumulative IPC: 2.062 (Simulation time: 00 hr 15 min 54 sec)
Heartbeat CPU 0 instructions: 194000847 cycles: 80347938 heartbeat IPC: 1.575 cumulative IPC: 2.06 (Simulation time: 00 hr 15 min 58 sec)
Heartbeat CPU 0 instructions: 194500853 cycles: 80665395 heartbeat IPC: 1.575 cumulative IPC: 2.058 (Simulation time: 00 hr 16 min 01 sec)
Heartbeat CPU 0 instructions: 195000853 cycles: 80983077 heartbeat IPC: 1.574 cumulative IPC: 2.056 (Simulation time: 00 hr 16 min 04 sec)
Heartbeat CPU 0 instructions: 195500859 cycles: 81300373 heartbeat IPC: 1.576 cumulative IPC: 2.054 (Simulation time: 00 hr 16 min 08 sec)
Heartbeat CPU 0 instructions: 196000862 cycles: 81617384 heartbeat IPC: 1.577 cumulative IPC: 2.052 (Simulation time: 00 hr 16 min 11 sec)
Heartbeat CPU 0 instructions: 196500865 cycles: 81935074 heartbeat IPC: 1.574 cumulative IPC: 2.049 (Simulation time: 00 hr 16 min 15 sec)
Heartbeat CPU 0 instructions: 197000865 cycles: 82252428 heartbeat IPC: 1.576 cumulative IPC: 2.047 (Simulation time: 00 hr 16 min 18 sec)
Heartbeat CPU 0 instructions: 197500866 cycles: 82570132 heartbeat IPC: 1.574 cumulative IPC: 2.045 (Simulation time: 00 hr 16 min 22 sec)
Heartbeat CPU 0 instructions: 198000866 cycles: 82887481 heartbeat IPC: 1.576 cumulative IPC: 2.043 (Simulation time: 00 hr 16 min 25 sec)
Heartbeat CPU 0 instructions: 198500867 cycles: 83204941 heartbeat IPC: 1.575 cumulative IPC: 2.041 (Simulation time: 00 hr 16 min 29 sec)
Heartbeat CPU 0 instructions: 199000873 cycles: 83522282 heartbeat IPC: 1.576 cumulative IPC: 2.039 (Simulation time: 00 hr 16 min 32 sec)
Heartbeat CPU 0 instructions: 199500873 cycles: 83839910 heartbeat IPC: 1.574 cumulative IPC: 2.037 (Simulation time: 00 hr 16 min 36 sec)
Heartbeat CPU 0 instructions: 200000879 cycles: 84157372 heartbeat IPC: 1.575 cumulative IPC: 2.035 (Simulation time: 00 hr 16 min 39 sec)
Heartbeat CPU 0 instructions: 200500883 cycles: 84475031 heartbeat IPC: 1.574 cumulative IPC: 2.033 (Simulation time: 00 hr 16 min 43 sec)
Heartbeat CPU 0 instructions: 201000885 cycles: 84791871 heartbeat IPC: 1.578 cumulative IPC: 2.031 (Simulation time: 00 hr 16 min 46 sec)
Heartbeat CPU 0 instructions: 201500885 cycles: 85109319 heartbeat IPC: 1.575 cumulative IPC: 2.029 (Simulation time: 00 hr 16 min 50 sec)
Heartbeat CPU 0 instructions: 202000891 cycles: 85427081 heartbeat IPC: 1.574 cumulative IPC: 2.027 (Simulation time: 00 hr 16 min 53 sec)
Heartbeat CPU 0 instructions: 202500894 cycles: 85744442 heartbeat IPC: 1.576 cumulative IPC: 2.025 (Simulation time: 00 hr 16 min 57 sec)
Heartbeat CPU 0 instructions: 203000895 cycles: 86061834 heartbeat IPC: 1.575 cumulative IPC: 2.024 (Simulation time: 00 hr 17 min 00 sec)
Heartbeat CPU 0 instructions: 203500897 cycles: 86379048 heartbeat IPC: 1.576 cumulative IPC: 2.022 (Simulation time: 00 hr 17 min 04 sec)
Heartbeat CPU 0 instructions: 204000898 cycles: 86696749 heartbeat IPC: 1.574 cumulative IPC: 2.02 (Simulation time: 00 hr 17 min 07 sec)
Heartbeat CPU 0 instructions: 204500898 cycles: 87014239 heartbeat IPC: 1.575 cumulative IPC: 2.018 (Simulation time: 00 hr 17 min 11 sec)
Heartbeat CPU 0 instructions: 205000899 cycles: 87331660 heartbeat IPC: 1.575 cumulative IPC: 2.016 (Simulation time: 00 hr 17 min 14 sec)
Heartbeat CPU 0 instructions: 205500905 cycles: 87649033 heartbeat IPC: 1.575 cumulative IPC: 2.014 (Simulation time: 00 hr 17 min 18 sec)
Heartbeat CPU 0 instructions: 206000907 cycles: 87966449 heartbeat IPC: 1.575 cumulative IPC: 2.012 (Simulation time: 00 hr 17 min 21 sec)
Heartbeat CPU 0 instructions: 206500911 cycles: 88283755 heartbeat IPC: 1.576 cumulative IPC: 2.011 (Simulation time: 00 hr 17 min 25 sec)
Heartbeat CPU 0 instructions: 207000914 cycles: 88601099 heartbeat IPC: 1.576 cumulative IPC: 2.009 (Simulation time: 00 hr 17 min 28 sec)
Heartbeat CPU 0 instructions: 207500917 cycles: 88918787 heartbeat IPC: 1.574 cumulative IPC: 2.007 (Simulation time: 00 hr 17 min 32 sec)
Heartbeat CPU 0 instructions: 208000917 cycles: 89236189 heartbeat IPC: 1.575 cumulative IPC: 2.005 (Simulation time: 00 hr 17 min 35 sec)
Heartbeat CPU 0 instructions: 208500921 cycles: 89553632 heartbeat IPC: 1.575 cumulative IPC: 2.004 (Simulation time: 00 hr 17 min 38 sec)
Heartbeat CPU 0 instructions: 209000926 cycles: 89871018 heartbeat IPC: 1.575 cumulative IPC: 2.002 (Simulation time: 00 hr 17 min 42 sec)
Heartbeat CPU 0 instructions: 209500929 cycles: 90188518 heartbeat IPC: 1.575 cumulative IPC: 2 (Simulation time: 00 hr 17 min 45 sec)
Heartbeat CPU 0 instructions: 210000932 cycles: 90505830 heartbeat IPC: 1.576 cumulative IPC: 1.999 (Simulation time: 00 hr 17 min 49 sec)
Heartbeat CPU 0 instructions: 210500935 cycles: 90823582 heartbeat IPC: 1.574 cumulative IPC: 1.997 (Simulation time: 00 hr 17 min 52 sec)
Heartbeat CPU 0 instructions: 211000938 cycles: 91140647 heartbeat IPC: 1.577 cumulative IPC: 1.995 (Simulation time: 00 hr 17 min 56 sec)
Heartbeat CPU 0 instructions: 211500941 cycles: 91458170 heartbeat IPC: 1.575 cumulative IPC: 1.994 (Simulation time: 00 hr 17 min 59 sec)
Heartbeat CPU 0 instructions: 212000944 cycles: 91775759 heartbeat IPC: 1.574 cumulative IPC: 1.992 (Simulation time: 00 hr 18 min 03 sec)
Heartbeat CPU 0 instructions: 212500947 cycles: 92092965 heartbeat IPC: 1.576 cumulative IPC: 1.99 (Simulation time: 00 hr 18 min 06 sec)
Heartbeat CPU 0 instructions: 213000950 cycles: 92410636 heartbeat IPC: 1.574 cumulative IPC: 1.989 (Simulation time: 00 hr 18 min 10 sec)
Heartbeat CPU 0 instructions: 213500953 cycles: 92727926 heartbeat IPC: 1.576 cumulative IPC: 1.987 (Simulation time: 00 hr 18 min 13 sec)
Heartbeat CPU 0 instructions: 214000956 cycles: 93045418 heartbeat IPC: 1.575 cumulative IPC: 1.986 (Simulation time: 00 hr 18 min 17 sec)
Heartbeat CPU 0 instructions: 214500959 cycles: 93362734 heartbeat IPC: 1.576 cumulative IPC: 1.984 (Simulation time: 00 hr 18 min 20 sec)
Heartbeat CPU 0 instructions: 215000964 cycles: 93680642 heartbeat IPC: 1.573 cumulative IPC: 1.982 (Simulation time: 00 hr 18 min 24 sec)
Heartbeat CPU 0 instructions: 215500964 cycles: 93997828 heartbeat IPC: 1.576 cumulative IPC: 1.981 (Simulation time: 00 hr 18 min 27 sec)
Heartbeat CPU 0 instructions: 216000965 cycles: 94315260 heartbeat IPC: 1.575 cumulative IPC: 1.979 (Simulation time: 00 hr 18 min 31 sec)
Heartbeat CPU 0 instructions: 216500971 cycles: 94632460 heartbeat IPC: 1.576 cumulative IPC: 1.978 (Simulation time: 00 hr 18 min 34 sec)
Heartbeat CPU 0 instructions: 217000976 cycles: 94949978 heartbeat IPC: 1.575 cumulative IPC: 1.976 (Simulation time: 00 hr 18 min 37 sec)
Heartbeat CPU 0 instructions: 217500977 cycles: 95267414 heartbeat IPC: 1.575 cumulative IPC: 1.975 (Simulation time: 00 hr 18 min 41 sec)
Heartbeat CPU 0 instructions: 218000982 cycles: 95584901 heartbeat IPC: 1.575 cumulative IPC: 1.973 (Simulation time: 00 hr 18 min 44 sec)
Heartbeat CPU 0 instructions: 218500987 cycles: 95902496 heartbeat IPC: 1.574 cumulative IPC: 1.972 (Simulation time: 00 hr 18 min 48 sec)
Heartbeat CPU 0 instructions: 219000988 cycles: 96219600 heartbeat IPC: 1.577 cumulative IPC: 1.97 (Simulation time: 00 hr 18 min 51 sec)
Heartbeat CPU 0 instructions: 219500991 cycles: 96537293 heartbeat IPC: 1.574 cumulative IPC: 1.969 (Simulation time: 00 hr 18 min 55 sec)
Heartbeat CPU 0 instructions: 220000991 cycles: 96854666 heartbeat IPC: 1.575 cumulative IPC: 1.967 (Simulation time: 00 hr 18 min 58 sec)
Heartbeat CPU 0 instructions: 220500995 cycles: 97172287 heartbeat IPC: 1.574 cumulative IPC: 1.966 (Simulation time: 00 hr 19 min 02 sec)
Heartbeat CPU 0 instructions: 221000997 cycles: 97489541 heartbeat IPC: 1.576 cumulative IPC: 1.965 (Simulation time: 00 hr 19 min 05 sec)
Heartbeat CPU 0 instructions: 221501003 cycles: 97806717 heartbeat IPC: 1.576 cumulative IPC: 1.963 (Simulation time: 00 hr 19 min 09 sec)
Heartbeat CPU 0 instructions: 222001003 cycles: 98124436 heartbeat IPC: 1.574 cumulative IPC: 1.962 (Simulation time: 00 hr 19 min 12 sec)
Heartbeat CPU 0 instructions: 222501009 cycles: 98441608 heartbeat IPC: 1.576 cumulative IPC: 1.96 (Simulation time: 00 hr 19 min 15 sec)
Heartbeat CPU 0 instructions: 223001009 cycles: 98759304 heartbeat IPC: 1.574 cumulative IPC: 1.959 (Simulation time: 00 hr 19 min 19 sec)
Heartbeat CPU 0 instructions: 223501015 cycles: 99076677 heartbeat IPC: 1.575 cumulative IPC: 1.958 (Simulation time: 00 hr 19 min 22 sec)
Heartbeat CPU 0 instructions: 224001017 cycles: 99394342 heartbeat IPC: 1.574 cumulative IPC: 1.956 (Simulation time: 00 hr 19 min 26 sec)
Heartbeat CPU 0 instructions: 224501021 cycles: 99711354 heartbeat IPC: 1.577 cumulative IPC: 1.955 (Simulation time: 00 hr 19 min 29 sec)
Heartbeat CPU 0 instructions: 225001021 cycles: 100029124 heartbeat IPC: 1.573 cumulative IPC: 1.954 (Simulation time: 00 hr 19 min 33 sec)
Heartbeat CPU 0 instructions: 225501026 cycles: 100346423 heartbeat IPC: 1.576 cumulative IPC: 1.952 (Simulation time: 00 hr 19 min 36 sec)
Heartbeat CPU 0 instructions: 226001030 cycles: 100664075 heartbeat IPC: 1.574 cumulative IPC: 1.951 (Simulation time: 00 hr 19 min 40 sec)
Heartbeat CPU 0 instructions: 226501037 cycles: 100981442 heartbeat IPC: 1.575 cumulative IPC: 1.95 (Simulation time: 00 hr 19 min 43 sec)
Heartbeat CPU 0 instructions: 227001038 cycles: 101298577 heartbeat IPC: 1.577 cumulative IPC: 1.948 (Simulation time: 00 hr 19 min 47 sec)
Heartbeat CPU 0 instructions: 227501039 cycles: 101616234 heartbeat IPC: 1.574 cumulative IPC: 1.947 (Simulation time: 00 hr 19 min 50 sec)
Heartbeat CPU 0 instructions: 228001042 cycles: 101933627 heartbeat IPC: 1.575 cumulative IPC: 1.946 (Simulation time: 00 hr 19 min 54 sec)
Heartbeat CPU 0 instructions: 228501045 cycles: 102251197 heartbeat IPC: 1.574 cumulative IPC: 1.944 (Simulation time: 00 hr 19 min 57 sec)
Heartbeat CPU 0 instructions: 229001048 cycles: 102568469 heartbeat IPC: 1.576 cumulative IPC: 1.943 (Simulation time: 00 hr 20 min 00 sec)
Heartbeat CPU 0 instructions: 229501051 cycles: 102886001 heartbeat IPC: 1.575 cumulative IPC: 1.942 (Simulation time: 00 hr 20 min 04 sec)
Heartbeat CPU 0 instructions: 230001054 cycles: 103203320 heartbeat IPC: 1.576 cumulative IPC: 1.941 (Simulation time: 00 hr 20 min 07 sec)
Heartbeat CPU 0 instructions: 230501057 cycles: 103520961 heartbeat IPC: 1.574 cumulative IPC: 1.939 (Simulation time: 00 hr 20 min 11 sec)
Heartbeat CPU 0 instructions: 231001060 cycles: 103838262 heartbeat IPC: 1.576 cumulative IPC: 1.938 (Simulation time: 00 hr 20 min 14 sec)
Heartbeat CPU 0 instructions: 231501063 cycles: 104155530 heartbeat IPC: 1.576 cumulative IPC: 1.937 (Simulation time: 00 hr 20 min 18 sec)
Heartbeat CPU 0 instructions: 232001068 cycles: 104472995 heartbeat IPC: 1.575 cumulative IPC: 1.936 (Simulation time: 00 hr 20 min 21 sec)
Heartbeat CPU 0 instructions: 232501069 cycles: 104790403 heartbeat IPC: 1.575 cumulative IPC: 1.934 (Simulation time: 00 hr 20 min 25 sec)
Heartbeat CPU 0 instructions: 233001072 cycles: 105108119 heartbeat IPC: 1.574 cumulative IPC: 1.933 (Simulation time: 00 hr 20 min 28 sec)
Heartbeat CPU 0 instructions: 233501075 cycles: 105425597 heartbeat IPC: 1.575 cumulative IPC: 1.932 (Simulation time: 00 hr 20 min 32 sec)
Heartbeat CPU 0 instructions: 234001081 cycles: 105742934 heartbeat IPC: 1.576 cumulative IPC: 1.931 (Simulation time: 00 hr 20 min 35 sec)
Heartbeat CPU 0 instructions: 234501081 cycles: 106060409 heartbeat IPC: 1.575 cumulative IPC: 1.93 (Simulation time: 00 hr 20 min 38 sec)
Heartbeat CPU 0 instructions: 235001084 cycles: 106377811 heartbeat IPC: 1.575 cumulative IPC: 1.929 (Simulation time: 00 hr 20 min 42 sec)
Heartbeat CPU 0 instructions: 235501087 cycles: 106695233 heartbeat IPC: 1.575 cumulative IPC: 1.927 (Simulation time: 00 hr 20 min 45 sec)
Heartbeat CPU 0 instructions: 236001092 cycles: 107012783 heartbeat IPC: 1.575 cumulative IPC: 1.926 (Simulation time: 00 hr 20 min 49 sec)
Heartbeat CPU 0 instructions: 236501092 cycles: 107330190 heartbeat IPC: 1.575 cumulative IPC: 1.925 (Simulation time: 00 hr 20 min 52 sec)
Heartbeat CPU 0 instructions: 237001095 cycles: 107647506 heartbeat IPC: 1.576 cumulative IPC: 1.924 (Simulation time: 00 hr 20 min 56 sec)
Heartbeat CPU 0 instructions: 237501099 cycles: 107964908 heartbeat IPC: 1.575 cumulative IPC: 1.923 (Simulation time: 00 hr 20 min 59 sec)
Heartbeat CPU 0 instructions: 238001104 cycles: 108282304 heartbeat IPC: 1.575 cumulative IPC: 1.922 (Simulation time: 00 hr 21 min 03 sec)
Heartbeat CPU 0 instructions: 238501106 cycles: 108600046 heartbeat IPC: 1.574 cumulative IPC: 1.921 (Simulation time: 00 hr 21 min 06 sec)
Heartbeat CPU 0 instructions: 239001107 cycles: 108917263 heartbeat IPC: 1.576 cumulative IPC: 1.919 (Simulation time: 00 hr 21 min 10 sec)
Heartbeat CPU 0 instructions: 239501111 cycles: 109234612 heartbeat IPC: 1.576 cumulative IPC: 1.918 (Simulation time: 00 hr 21 min 13 sec)
Heartbeat CPU 0 instructions: 240001113 cycles: 109551976 heartbeat IPC: 1.575 cumulative IPC: 1.917 (Simulation time: 00 hr 21 min 16 sec)
Heartbeat CPU 0 instructions: 240501119 cycles: 109869593 heartbeat IPC: 1.574 cumulative IPC: 1.916 (Simulation time: 00 hr 21 min 20 sec)
Heartbeat CPU 0 instructions: 241001119 cycles: 110187000 heartbeat IPC: 1.575 cumulative IPC: 1.915 (Simulation time: 00 hr 21 min 23 sec)
Heartbeat CPU 0 instructions: 241501125 cycles: 110504726 heartbeat IPC: 1.574 cumulative IPC: 1.914 (Simulation time: 00 hr 21 min 27 sec)
Heartbeat CPU 0 instructions: 242001127 cycles: 110821814 heartbeat IPC: 1.577 cumulative IPC: 1.913 (Simulation time: 00 hr 21 min 30 sec)
Heartbeat CPU 0 instructions: 242501131 cycles: 111139003 heartbeat IPC: 1.576 cumulative IPC: 1.912 (Simulation time: 00 hr 21 min 34 sec)
Heartbeat CPU 0 instructions: 243001134 cycles: 111456776 heartbeat IPC: 1.573 cumulative IPC: 1.911 (Simulation time: 00 hr 21 min 37 sec)
Heartbeat CPU 0 instructions: 243501137 cycles: 111774103 heartbeat IPC: 1.576 cumulative IPC: 1.91 (Simulation time: 00 hr 21 min 41 sec)
Heartbeat CPU 0 instructions: 244001137 cycles: 112091869 heartbeat IPC: 1.573 cumulative IPC: 1.909 (Simulation time: 00 hr 21 min 44 sec)
Heartbeat CPU 0 instructions: 244501139 cycles: 112409119 heartbeat IPC: 1.576 cumulative IPC: 1.908 (Simulation time: 00 hr 21 min 48 sec)
Heartbeat CPU 0 instructions: 245001139 cycles: 112726568 heartbeat IPC: 1.575 cumulative IPC: 1.907 (Simulation time: 00 hr 21 min 51 sec)
Heartbeat CPU 0 instructions: 245501139 cycles: 113043908 heartbeat IPC: 1.576 cumulative IPC: 1.906 (Simulation time: 00 hr 21 min 55 sec)
Heartbeat CPU 0 instructions: 246001145 cycles: 113361538 heartbeat IPC: 1.574 cumulative IPC: 1.905 (Simulation time: 00 hr 21 min 58 sec)
Heartbeat CPU 0 instructions: 246501145 cycles: 113678901 heartbeat IPC: 1.575 cumulative IPC: 1.904 (Simulation time: 00 hr 22 min 02 sec)
Heartbeat CPU 0 instructions: 247001151 cycles: 113995756 heartbeat IPC: 1.578 cumulative IPC: 1.903 (Simulation time: 00 hr 22 min 05 sec)
Heartbeat CPU 0 instructions: 247501151 cycles: 114313659 heartbeat IPC: 1.573 cumulative IPC: 1.902 (Simulation time: 00 hr 22 min 09 sec)
Heartbeat CPU 0 instructions: 248001157 cycles: 114631032 heartbeat IPC: 1.575 cumulative IPC: 1.901 (Simulation time: 00 hr 22 min 12 sec)
Heartbeat CPU 0 instructions: 248501157 cycles: 114948531 heartbeat IPC: 1.575 cumulative IPC: 1.9 (Simulation time: 00 hr 22 min 16 sec)
Heartbeat CPU 0 instructions: 249001163 cycles: 115266055 heartbeat IPC: 1.575 cumulative IPC: 1.899 (Simulation time: 00 hr 22 min 19 sec)
Heartbeat CPU 0 instructions: 249501166 cycles: 115583381 heartbeat IPC: 1.576 cumulative IPC: 1.898 (Simulation time: 00 hr 22 min 23 sec)
Simulation finished CPU 0 instructions: 200000005 cycles: 105450220 cumulative IPC: 1.897 (Simulation time: 00 hr 22 min 26 sec)
Simulation complete CPU 0 instructions: 200000005 cycles: 105450220 cumulative IPC: 1.897 (Simulation time: 00 hr 22 min 26 sec)

ChampSim completed all CPUs

=== Simulation ===
CPU 0 runs /local-ssd/ben/dpc4-traces/SPEC17/603.bwaves_s-891B.champsimtrace.xz

Region of Interest Statistics

CPU 0 cumulative IPC: 1.897 instructions: 200000005 cycles: 105450220
CPU 0 Branch Prediction Accuracy: 81.48% MPKI: 31.04 Average ROB Occupancy at Mispredict: 34.68
Branch type MPKI
BRANCH_DIRECT_JUMP: 0.06483
BRANCH_INDIRECT: 0
BRANCH_CONDITIONAL: 30.97
BRANCH_DIRECT_CALL: 0
BRANCH_INDIRECT_CALL: 0
BRANCH_RETURN: 0

cpu0->cpu0_STLB TOTAL        ACCESS:      60655 HIT:        337 MISS:      60318 MSHR_MERGE:          0
cpu0->cpu0_STLB LOAD         ACCESS:      60655 HIT:        337 MISS:      60318 MSHR_MERGE:          0
cpu0->cpu0_STLB RFO          ACCESS:          0 HIT:          0 MISS:          0 MSHR_MERGE:          0
cpu0->cpu0_STLB PREFETCH     ACCESS:          0 HIT:          0 MISS:          0 MSHR_MERGE:          0
cpu0->cpu0_STLB WRITE        ACCESS:          0 HIT:          0 MISS:          0 MSHR_MERGE:          0
cpu0->cpu0_STLB TRANSLATION  ACCESS:          0 HIT:          0 MISS:          0 MSHR_MERGE:          0
cpu0->cpu0_STLB PREFETCH REQUESTED:          0 ISSUED:          0 USEFUL:          0 USELESS:          0
cpu0->cpu0_STLB AVERAGE MISS LATENCY: 212.4 cycles
cpu0->cpu0_L2C TOTAL        ACCESS:   23705713 HIT:   15276990 MISS:    8428723 MSHR_MERGE:    4560825
cpu0->cpu0_L2C LOAD         ACCESS:      16817 HIT:      14734 MISS:       2083 MSHR_MERGE:       2029
cpu0->cpu0_L2C RFO          ACCESS:       2382 HIT:       2381 MISS:          1 MSHR_MERGE:          0
cpu0->cpu0_L2C PREFETCH     ACCESS:   23675842 HIT:   15256841 MISS:    8419001 MSHR_MERGE:    4558796
cpu0->cpu0_L2C WRITE        ACCESS:       3009 HIT:       3009 MISS:          0 MSHR_MERGE:          0
cpu0->cpu0_L2C TRANSLATION  ACCESS:       7663 HIT:         25 MISS:       7638 MSHR_MERGE:          0
cpu0->cpu0_L2C PREFETCH REQUESTED:   19832609 ISSUED:   19831451 USEFUL:    2971337 USELESS:     687366
cpu0->cpu0_L2C AVERAGE MISS LATENCY: 238.1 cycles
cpu0->cpu0_L1I TOTAL        ACCESS:         16 HIT:          9 MISS:          7 MSHR_MERGE:          0
cpu0->cpu0_L1I LOAD         ACCESS:         16 HIT:          9 MISS:          7 MSHR_MERGE:          0
cpu0->cpu0_L1I RFO          ACCESS:          0 HIT:          0 MISS:          0 MSHR_MERGE:          0
cpu0->cpu0_L1I PREFETCH     ACCESS:          0 HIT:          0 MISS:          0 MSHR_MERGE:          0
cpu0->cpu0_L1I WRITE        ACCESS:          0 HIT:          0 MISS:          0 MSHR_MERGE:          0
cpu0->cpu0_L1I TRANSLATION  ACCESS:          0 HIT:          0 MISS:          0 MSHR_MERGE:          0
cpu0->cpu0_L1I PREFETCH REQUESTED:          0 ISSUED:          0 USEFUL:          0 USELESS:          0
cpu0->cpu0_L1I AVERAGE MISS LATENCY: 269.4 cycles
cpu0->cpu0_L1D TOTAL        ACCESS:   65488978 HIT:   51470450 MISS:   14018528 MSHR_MERGE:   10146656
cpu0->cpu0_L1D LOAD         ACCESS:   31309546 HIT:   30013118 MISS:    1296428 MSHR_MERGE:    1279618
cpu0->cpu0_L1D RFO          ACCESS:          0 HIT:          0 MISS:          0 MSHR_MERGE:          0
cpu0->cpu0_L1D PREFETCH     ACCESS:   30682854 HIT:   17971427 MISS:   12711427 MSHR_MERGE:    8867035
cpu0->cpu0_L1D WRITE        ACCESS:    3375822 HIT:    3372812 MISS:       3010 MSHR_MERGE:          3
cpu0->cpu0_L1D TRANSLATION  ACCESS:     120756 HIT:     113093 MISS:       7663 MSHR_MERGE:          0
cpu0->cpu0_L1D PREFETCH REQUESTED:   31267179 ISSUED:   30682847 USEFUL:    3843938 USELESS:        443
cpu0->cpu0_L1D AVERAGE MISS LATENCY: 162.3 cycles
cpu0->cpu0_ITLB TOTAL        ACCESS:         12 HIT:         11 MISS:          1 MSHR_MERGE:          0
cpu0->cpu0_ITLB LOAD         ACCESS:         12 HIT:         11 MISS:          1 MSHR_MERGE:          0
cpu0->cpu0_ITLB RFO          ACCESS:          0 HIT:          0 MISS:          0 MSHR_MERGE:          0
cpu0->cpu0_ITLB PREFETCH     ACCESS:          0 HIT:          0 MISS:          0 MSHR_MERGE:          0
cpu0->cpu0_ITLB WRITE        ACCESS:          0 HIT:          0 MISS:          0 MSHR_MERGE:          0
cpu0->cpu0_ITLB TRANSLATION  ACCESS:          0 HIT:          0 MISS:          0 MSHR_MERGE:          0
cpu0->cpu0_ITLB PREFETCH REQUESTED:          0 ISSUED:          0 USEFUL:          0 USELESS:          0
cpu0->cpu0_ITLB AVERAGE MISS LATENCY: 750 cycles
cpu0->cpu0_DTLB TOTAL        ACCESS:   53600170 HIT:   53083696 MISS:     516474 MSHR_MERGE:     455820
cpu0->cpu0_DTLB LOAD         ACCESS:   53600170 HIT:   53083696 MISS:     516474 MSHR_MERGE:     455820
cpu0->cpu0_DTLB RFO          ACCESS:          0 HIT:          0 MISS:          0 MSHR_MERGE:          0
cpu0->cpu0_DTLB PREFETCH     ACCESS:          0 HIT:          0 MISS:          0 MSHR_MERGE:          0
cpu0->cpu0_DTLB WRITE        ACCESS:          0 HIT:          0 MISS:          0 MSHR_MERGE:          0
cpu0->cpu0_DTLB TRANSLATION  ACCESS:          0 HIT:          0 MISS:          0 MSHR_MERGE:          0
cpu0->cpu0_DTLB PREFETCH REQUESTED:          0 ISSUED:          0 USEFUL:          0 USELESS:          0
cpu0->cpu0_DTLB AVERAGE MISS LATENCY: 217.2 cycles
cpu0->LLC TOTAL        ACCESS:    7607274 HIT:    2256646 MISS:    5350628 MSHR_MERGE:    1480705
cpu0->LLC LOAD         ACCESS:         54 HIT:         29 MISS:         25 MSHR_MERGE:          3
cpu0->LLC RFO          ACCESS:          1 HIT:          1 MISS:          0 MSHR_MERGE:          0
cpu0->LLC PREFETCH     ACCESS:    7599580 HIT:    2256612 MISS:    5342968 MSHR_MERGE:    1480702
cpu0->LLC WRITE        ACCESS:          1 HIT:          1 MISS:          0 MSHR_MERGE:          0
cpu0->LLC TRANSLATION  ACCESS:       7638 HIT:          3 MISS:       7635 MSHR_MERGE:          0
cpu0->LLC PREFETCH REQUESTED:    4227624 ISSUED:    3739356 USEFUL:    2255140 USELESS:    1294203
cpu0->LLC AVERAGE MISS LATENCY: 212.6 cycles

DRAM Statistics

Channel 0 RQ ROW_BUFFER_HIT:    1114398
  ROW_BUFFER_MISS:    2755525
  AVG DBUS CONGESTED CYCLE: 3.992
Channel 0 WQ ROW_BUFFER_HIT:          0
  ROW_BUFFER_MISS:         13
  FULL:          0
Channel 0 REFRESHES ISSUED:       8787
