[VMEM] WARNING: physical memory size is smaller than virtual memory size.

*** ChampSim Multicore Out-of-Order Simulator ***
Warmup Instructions: 50000000
Simulation Instructions: 200000000
Number of CPUs: 1
Page size: 4096
Core 0: /local-ssd/ben/dpc4-traces/ai-ml/llama2.c-stories110M.2.champsimtrace.gz
Off-chip DRAM Size: 64 GiB Channels: 1 Width: 64-bit Data Rate: 4807 MT/s
Heartbeat CPU 0 instructions: 500007 cycles: 128139 heartbeat IPC: 3.902 cumulative IPC: 3.902 (Simulation time: 00 hr 00 min 02 sec)
Heartbeat CPU 0 instructions: 1000012 cycles: 254679 heartbeat IPC: 3.951 cumulative IPC: 3.927 (Simulation time: 00 hr 00 min 04 sec)
Heartbeat CPU 0 instructions: 1500018 cycles: 381029 heartbeat IPC: 3.957 cumulative IPC: 3.937 (Simulation time: 00 hr 00 min 06 sec)
Heartbeat CPU 0 instructions: 2000025 cycles: 507360 heartbeat IPC: 3.958 cumulative IPC: 3.942 (Simulation time: 00 hr 00 min 07 sec)
Heartbeat CPU 0 instructions: 2500027 cycles: 633587 heartbeat IPC: 3.961 cumulative IPC: 3.946 (Simulation time: 00 hr 00 min 09 sec)
Heartbeat CPU 0 instructions: 3000030 cycles: 760019 heartbeat IPC: 3.955 cumulative IPC: 3.947 (Simulation time: 00 hr 00 min 11 sec)
Heartbeat CPU 0 instructions: 3500033 cycles: 886249 heartbeat IPC: 3.961 cumulative IPC: 3.949 (Simulation time: 00 hr 00 min 13 sec)
Heartbeat CPU 0 instructions: 4000035 cycles: 1012694 heartbeat IPC: 3.954 cumulative IPC: 3.95 (Simulation time: 00 hr 00 min 15 sec)
Heartbeat CPU 0 instructions: 4500038 cycles: 1139134 heartbeat IPC: 3.954 cumulative IPC: 3.95 (Simulation time: 00 hr 00 min 17 sec)
Heartbeat CPU 0 instructions: 5000042 cycles: 1266433 heartbeat IPC: 3.928 cumulative IPC: 3.948 (Simulation time: 00 hr 00 min 19 sec)
Heartbeat CPU 0 instructions: 5500042 cycles: 1392609 heartbeat IPC: 3.963 cumulative IPC: 3.949 (Simulation time: 00 hr 00 min 21 sec)
Heartbeat CPU 0 instructions: 6000048 cycles: 1519382 heartbeat IPC: 3.944 cumulative IPC: 3.949 (Simulation time: 00 hr 00 min 22 sec)
Heartbeat CPU 0 instructions: 6500053 cycles: 1645645 heartbeat IPC: 3.96 cumulative IPC: 3.95 (Simulation time: 00 hr 00 min 24 sec)
Heartbeat CPU 0 instructions: 7000053 cycles: 1772254 heartbeat IPC: 3.949 cumulative IPC: 3.95 (Simulation time: 00 hr 00 min 26 sec)
Heartbeat CPU 0 instructions: 7500054 cycles: 1898103 heartbeat IPC: 3.973 cumulative IPC: 3.951 (Simulation time: 00 hr 00 min 28 sec)
Heartbeat CPU 0 instructions: 8000058 cycles: 2023069 heartbeat IPC: 4.001 cumulative IPC: 3.954 (Simulation time: 00 hr 00 min 30 sec)
Heartbeat CPU 0 instructions: 8500058 cycles: 2149448 heartbeat IPC: 3.956 cumulative IPC: 3.955 (Simulation time: 00 hr 00 min 32 sec)
Heartbeat CPU 0 instructions: 9000062 cycles: 2275632 heartbeat IPC: 3.962 cumulative IPC: 3.955 (Simulation time: 00 hr 00 min 34 sec)
Heartbeat CPU 0 instructions: 9500062 cycles: 2402579 heartbeat IPC: 3.939 cumulative IPC: 3.954 (Simulation time: 00 hr 00 min 36 sec)
Heartbeat CPU 0 instructions: 10000067 cycles: 2529110 heartbeat IPC: 3.952 cumulative IPC: 3.954 (Simulation time: 00 hr 00 min 37 sec)
Heartbeat CPU 0 instructions: 10500072 cycles: 2655445 heartbeat IPC: 3.958 cumulative IPC: 3.954 (Simulation time: 00 hr 00 min 39 sec)
Heartbeat CPU 0 instructions: 11000074 cycles: 2781793 heartbeat IPC: 3.957 cumulative IPC: 3.954 (Simulation time: 00 hr 00 min 41 sec)
Heartbeat CPU 0 instructions: 11500079 cycles: 2908123 heartbeat IPC: 3.958 cumulative IPC: 3.954 (Simulation time: 00 hr 00 min 43 sec)
Heartbeat CPU 0 instructions: 12000083 cycles: 3034641 heartbeat IPC: 3.952 cumulative IPC: 3.954 (Simulation time: 00 hr 00 min 45 sec)
Heartbeat CPU 0 instructions: 12500083 cycles: 3160979 heartbeat IPC: 3.958 cumulative IPC: 3.954 (Simulation time: 00 hr 00 min 47 sec)
Heartbeat CPU 0 instructions: 13000089 cycles: 3287524 heartbeat IPC: 3.951 cumulative IPC: 3.954 (Simulation time: 00 hr 00 min 49 sec)
Heartbeat CPU 0 instructions: 13500094 cycles: 3414082 heartbeat IPC: 3.951 cumulative IPC: 3.954 (Simulation time: 00 hr 00 min 51 sec)
Heartbeat CPU 0 instructions: 14000099 cycles: 3540415 heartbeat IPC: 3.958 cumulative IPC: 3.954 (Simulation time: 00 hr 00 min 53 sec)
Heartbeat CPU 0 instructions: 14500105 cycles: 3666960 heartbeat IPC: 3.951 cumulative IPC: 3.954 (Simulation time: 00 hr 00 min 55 sec)
Heartbeat CPU 0 instructions: 15000109 cycles: 3791362 heartbeat IPC: 4.019 cumulative IPC: 3.956 (Simulation time: 00 hr 00 min 57 sec)
Heartbeat CPU 0 instructions: 15500116 cycles: 3917805 heartbeat IPC: 3.954 cumulative IPC: 3.956 (Simulation time: 00 hr 00 min 58 sec)
Heartbeat CPU 0 instructions: 16000123 cycles: 4044045 heartbeat IPC: 3.961 cumulative IPC: 3.956 (Simulation time: 00 hr 01 min 00 sec)
Heartbeat CPU 0 instructions: 16500125 cycles: 4170687 heartbeat IPC: 3.948 cumulative IPC: 3.956 (Simulation time: 00 hr 01 min 02 sec)
Heartbeat CPU 0 instructions: 17000128 cycles: 4296915 heartbeat IPC: 3.961 cumulative IPC: 3.956 (Simulation time: 00 hr 01 min 04 sec)
Heartbeat CPU 0 instructions: 17500133 cycles: 4423150 heartbeat IPC: 3.961 cumulative IPC: 3.956 (Simulation time: 00 hr 01 min 06 sec)
Heartbeat CPU 0 instructions: 18000137 cycles: 4549331 heartbeat IPC: 3.963 cumulative IPC: 3.957 (Simulation time: 00 hr 01 min 08 sec)
Heartbeat CPU 0 instructions: 18500138 cycles: 4675838 heartbeat IPC: 3.952 cumulative IPC: 3.957 (Simulation time: 00 hr 01 min 10 sec)
Heartbeat CPU 0 instructions: 19000143 cycles: 4802103 heartbeat IPC: 3.96 cumulative IPC: 3.957 (Simulation time: 00 hr 01 min 12 sec)
Heartbeat CPU 0 instructions: 19500148 cycles: 4928166 heartbeat IPC: 3.966 cumulative IPC: 3.957 (Simulation time: 00 hr 01 min 14 sec)
Heartbeat CPU 0 instructions: 20000148 cycles: 5054362 heartbeat IPC: 3.962 cumulative IPC: 3.957 (Simulation time: 00 hr 01 min 15 sec)
Heartbeat CPU 0 instructions: 20500153 cycles: 5180627 heartbeat IPC: 3.96 cumulative IPC: 3.957 (Simulation time: 00 hr 01 min 17 sec)
Heartbeat CPU 0 instructions: 21000153 cycles: 5304117 heartbeat IPC: 4.049 cumulative IPC: 3.959 (Simulation time: 00 hr 01 min 19 sec)
Heartbeat CPU 0 instructions: 21500157 cycles: 5430297 heartbeat IPC: 3.963 cumulative IPC: 3.959 (Simulation time: 00 hr 01 min 21 sec)
Heartbeat CPU 0 instructions: 22000159 cycles: 5556446 heartbeat IPC: 3.964 cumulative IPC: 3.959 (Simulation time: 00 hr 01 min 23 sec)
Heartbeat CPU 0 instructions: 22500165 cycles: 5683001 heartbeat IPC: 3.951 cumulative IPC: 3.959 (Simulation time: 00 hr 01 min 25 sec)
Heartbeat CPU 0 instructions: 23000170 cycles: 5809334 heartbeat IPC: 3.958 cumulative IPC: 3.959 (Simulation time: 00 hr 01 min 27 sec)
Heartbeat CPU 0 instructions: 23500175 cycles: 5935870 heartbeat IPC: 3.951 cumulative IPC: 3.959 (Simulation time: 00 hr 01 min 28 sec)
Heartbeat CPU 0 instructions: 24000181 cycles: 6062220 heartbeat IPC: 3.957 cumulative IPC: 3.959 (Simulation time: 00 hr 01 min 30 sec)
Heartbeat CPU 0 instructions: 24500185 cycles: 6188765 heartbeat IPC: 3.951 cumulative IPC: 3.959 (Simulation time: 00 hr 01 min 32 sec)
Heartbeat CPU 0 instructions: 25000186 cycles: 6314895 heartbeat IPC: 3.964 cumulative IPC: 3.959 (Simulation time: 00 hr 01 min 34 sec)
Heartbeat CPU 0 instructions: 25500188 cycles: 6441416 heartbeat IPC: 3.952 cumulative IPC: 3.959 (Simulation time: 00 hr 01 min 36 sec)
Heartbeat CPU 0 instructions: 26000189 cycles: 6567747 heartbeat IPC: 3.958 cumulative IPC: 3.959 (Simulation time: 00 hr 01 min 38 sec)
Heartbeat CPU 0 instructions: 26500189 cycles: 6694295 heartbeat IPC: 3.951 cumulative IPC: 3.959 (Simulation time: 00 hr 01 min 40 sec)
Heartbeat CPU 0 instructions: 27000194 cycles: 6820628 heartbeat IPC: 3.958 cumulative IPC: 3.959 (Simulation time: 00 hr 01 min 42 sec)
Heartbeat CPU 0 instructions: 27500196 cycles: 6945297 heartbeat IPC: 4.011 cumulative IPC: 3.96 (Simulation time: 00 hr 01 min 44 sec)
Heartbeat CPU 0 instructions: 28000198 cycles: 7071535 heartbeat IPC: 3.961 cumulative IPC: 3.96 (Simulation time: 00 hr 01 min 46 sec)
Heartbeat CPU 0 instructions: 28500205 cycles: 7198180 heartbeat IPC: 3.948 cumulative IPC: 3.959 (Simulation time: 00 hr 01 min 48 sec)
Heartbeat CPU 0 instructions: 29000207 cycles: 7324613 heartbeat IPC: 3.955 cumulative IPC: 3.959 (Simulation time: 00 hr 01 min 49 sec)
Heartbeat CPU 0 instructions: 29500210 cycles: 7450842 heartbeat IPC: 3.961 cumulative IPC: 3.959 (Simulation time: 00 hr 01 min 51 sec)
Heartbeat CPU 0 instructions: 30000212 cycles: 7577273 heartbeat IPC: 3.955 cumulative IPC: 3.959 (Simulation time: 00 hr 01 min 53 sec)
Heartbeat CPU 0 instructions: 30500216 cycles: 7703230 heartbeat IPC: 3.97 cumulative IPC: 3.959 (Simulation time: 00 hr 01 min 55 sec)
Heartbeat CPU 0 instructions: 31000216 cycles: 7829606 heartbeat IPC: 3.956 cumulative IPC: 3.959 (Simulation time: 00 hr 01 min 57 sec)
Heartbeat CPU 0 instructions: 31500217 cycles: 7955962 heartbeat IPC: 3.957 cumulative IPC: 3.959 (Simulation time: 00 hr 01 min 59 sec)
Heartbeat CPU 0 instructions: 32000222 cycles: 8082027 heartbeat IPC: 3.966 cumulative IPC: 3.959 (Simulation time: 00 hr 02 min 01 sec)
Heartbeat CPU 0 instructions: 32500229 cycles: 8208215 heartbeat IPC: 3.962 cumulative IPC: 3.959 (Simulation time: 00 hr 02 min 03 sec)
Heartbeat CPU 0 instructions: 33000235 cycles: 8334496 heartbeat IPC: 3.959 cumulative IPC: 3.959 (Simulation time: 00 hr 02 min 05 sec)
Heartbeat CPU 0 instructions: 33500240 cycles: 8457817 heartbeat IPC: 4.055 cumulative IPC: 3.961 (Simulation time: 00 hr 02 min 06 sec)
Heartbeat CPU 0 instructions: 34000240 cycles: 8584193 heartbeat IPC: 3.956 cumulative IPC: 3.961 (Simulation time: 00 hr 02 min 08 sec)
Heartbeat CPU 0 instructions: 34500241 cycles: 8710105 heartbeat IPC: 3.971 cumulative IPC: 3.961 (Simulation time: 00 hr 02 min 10 sec)
Heartbeat CPU 0 instructions: 35000246 cycles: 8836443 heartbeat IPC: 3.958 cumulative IPC: 3.961 (Simulation time: 00 hr 02 min 12 sec)
Heartbeat CPU 0 instructions: 35500252 cycles: 8962995 heartbeat IPC: 3.951 cumulative IPC: 3.961 (Simulation time: 00 hr 02 min 14 sec)
Heartbeat CPU 0 instructions: 36000257 cycles: 9089536 heartbeat IPC: 3.951 cumulative IPC: 3.961 (Simulation time: 00 hr 02 min 16 sec)
Heartbeat CPU 0 instructions: 36500262 cycles: 9215877 heartbeat IPC: 3.958 cumulative IPC: 3.961 (Simulation time: 00 hr 02 min 18 sec)
Heartbeat CPU 0 instructions: 37000268 cycles: 9342419 heartbeat IPC: 3.951 cumulative IPC: 3.96 (Simulation time: 00 hr 02 min 20 sec)
Heartbeat CPU 0 instructions: 37500272 cycles: 9468764 heartbeat IPC: 3.957 cumulative IPC: 3.96 (Simulation time: 00 hr 02 min 22 sec)
Heartbeat CPU 0 instructions: 38000277 cycles: 9595315 heartbeat IPC: 3.951 cumulative IPC: 3.96 (Simulation time: 00 hr 02 min 24 sec)
Heartbeat CPU 0 instructions: 38500283 cycles: 9721657 heartbeat IPC: 3.958 cumulative IPC: 3.96 (Simulation time: 00 hr 02 min 26 sec)
Heartbeat CPU 0 instructions: 39000288 cycles: 9848002 heartbeat IPC: 3.957 cumulative IPC: 3.96 (Simulation time: 00 hr 02 min 29 sec)
Heartbeat CPU 0 instructions: 39500293 cycles: 9974326 heartbeat IPC: 3.958 cumulative IPC: 3.96 (Simulation time: 00 hr 02 min 31 sec)
Heartbeat CPU 0 instructions: 40000297 cycles: 10099441 heartbeat IPC: 3.996 cumulative IPC: 3.961 (Simulation time: 00 hr 02 min 33 sec)
Heartbeat CPU 0 instructions: 40500300 cycles: 10225488 heartbeat IPC: 3.967 cumulative IPC: 3.961 (Simulation time: 00 hr 02 min 35 sec)
Heartbeat CPU 0 instructions: 41000303 cycles: 10351920 heartbeat IPC: 3.955 cumulative IPC: 3.961 (Simulation time: 00 hr 02 min 37 sec)
Heartbeat CPU 0 instructions: 41500305 cycles: 10478147 heartbeat IPC: 3.961 cumulative IPC: 3.961 (Simulation time: 00 hr 02 min 39 sec)
Heartbeat CPU 0 instructions: 42000308 cycles: 10604581 heartbeat IPC: 3.955 cumulative IPC: 3.961 (Simulation time: 00 hr 02 min 42 sec)
Heartbeat CPU 0 instructions: 42500310 cycles: 10730806 heartbeat IPC: 3.961 cumulative IPC: 3.961 (Simulation time: 00 hr 02 min 44 sec)
Heartbeat CPU 0 instructions: 43000315 cycles: 10857168 heartbeat IPC: 3.957 cumulative IPC: 3.961 (Simulation time: 00 hr 02 min 46 sec)
Heartbeat CPU 0 instructions: 43500319 cycles: 10983550 heartbeat IPC: 3.956 cumulative IPC: 3.96 (Simulation time: 00 hr 02 min 48 sec)
Heartbeat CPU 0 instructions: 44000322 cycles: 11109872 heartbeat IPC: 3.958 cumulative IPC: 3.96 (Simulation time: 00 hr 02 min 50 sec)
Heartbeat CPU 0 instructions: 44500328 cycles: 11235941 heartbeat IPC: 3.966 cumulative IPC: 3.961 (Simulation time: 00 hr 02 min 52 sec)
Heartbeat CPU 0 instructions: 45000335 cycles: 11362129 heartbeat IPC: 3.962 cumulative IPC: 3.961 (Simulation time: 00 hr 02 min 54 sec)
Heartbeat CPU 0 instructions: 45500340 cycles: 11488397 heartbeat IPC: 3.96 cumulative IPC: 3.961 (Simulation time: 00 hr 02 min 56 sec)
Heartbeat CPU 0 instructions: 46000347 cycles: 11611769 heartbeat IPC: 4.053 cumulative IPC: 3.962 (Simulation time: 00 hr 02 min 59 sec)
Heartbeat CPU 0 instructions: 46500351 cycles: 11738166 heartbeat IPC: 3.956 cumulative IPC: 3.961 (Simulation time: 00 hr 03 min 01 sec)
Heartbeat CPU 0 instructions: 47000355 cycles: 11864342 heartbeat IPC: 3.963 cumulative IPC: 3.961 (Simulation time: 00 hr 03 min 03 sec)
Heartbeat CPU 0 instructions: 47500361 cycles: 11990389 heartbeat IPC: 3.967 cumulative IPC: 3.962 (Simulation time: 00 hr 03 min 05 sec)
Heartbeat CPU 0 instructions: 48000365 cycles: 12116927 heartbeat IPC: 3.951 cumulative IPC: 3.961 (Simulation time: 00 hr 03 min 07 sec)
Heartbeat CPU 0 instructions: 48500371 cycles: 12243264 heartbeat IPC: 3.958 cumulative IPC: 3.961 (Simulation time: 00 hr 03 min 09 sec)
Heartbeat CPU 0 instructions: 49000376 cycles: 12369817 heartbeat IPC: 3.951 cumulative IPC: 3.961 (Simulation time: 00 hr 03 min 11 sec)
Heartbeat CPU 0 instructions: 49500381 cycles: 12496153 heartbeat IPC: 3.958 cumulative IPC: 3.961 (Simulation time: 00 hr 03 min 13 sec)
Warmup halting CPU 0 at instruction 50000002 cycle 12622669 for remainder of phase
Warmup finished CPU 0 instructions: 50000002 cycles: 12622669 cumulative IPC: 3.961 (Simulation time: 00 hr 03 min 16 sec)
Warmup complete CPU 0 instructions: 50000002 cycles: 12622669 cumulative IPC: 3.961 (Simulation time: 00 hr 03 min 16 sec)
Heartbeat CPU 0 instructions: 50000386 cycles: 12622717 heartbeat IPC: 3.951 cumulative IPC: 8 (Simulation time: 00 hr 03 min 16 sec)
Heartbeat CPU 0 instructions: 50500392 cycles: 13118452 heartbeat IPC: 1.009 cumulative IPC: 1.009 (Simulation time: 00 hr 03 min 21 sec)
Heartbeat CPU 0 instructions: 51000392 cycles: 13612667 heartbeat IPC: 1.012 cumulative IPC: 1.01 (Simulation time: 00 hr 03 min 27 sec)
Heartbeat CPU 0 instructions: 51500392 cycles: 14110479 heartbeat IPC: 1.004 cumulative IPC: 1.008 (Simulation time: 00 hr 03 min 33 sec)
Heartbeat CPU 0 instructions: 52000392 cycles: 14602981 heartbeat IPC: 1.015 cumulative IPC: 1.01 (Simulation time: 00 hr 03 min 39 sec)
Heartbeat CPU 0 instructions: 52500393 cycles: 15098362 heartbeat IPC: 1.009 cumulative IPC: 1.01 (Simulation time: 00 hr 03 min 45 sec)
Heartbeat CPU 0 instructions: 53000399 cycles: 15612144 heartbeat IPC: 0.9732 cumulative IPC: 1.004 (Simulation time: 00 hr 03 min 51 sec)
Heartbeat CPU 0 instructions: 53500401 cycles: 16136318 heartbeat IPC: 0.9539 cumulative IPC: 0.9962 (Simulation time: 00 hr 03 min 57 sec)
Heartbeat CPU 0 instructions: 54000404 cycles: 16659382 heartbeat IPC: 0.9559 cumulative IPC: 0.991 (Simulation time: 00 hr 04 min 04 sec)
Heartbeat CPU 0 instructions: 54500406 cycles: 17181326 heartbeat IPC: 0.958 cumulative IPC: 0.9872 (Simulation time: 00 hr 04 min 10 sec)
Heartbeat CPU 0 instructions: 55000407 cycles: 17705927 heartbeat IPC: 0.9531 cumulative IPC: 0.9837 (Simulation time: 00 hr 04 min 16 sec)
Heartbeat CPU 0 instructions: 55500407 cycles: 18227568 heartbeat IPC: 0.9585 cumulative IPC: 0.9814 (Simulation time: 00 hr 04 min 22 sec)
Heartbeat CPU 0 instructions: 56000407 cycles: 18755840 heartbeat IPC: 0.9465 cumulative IPC: 0.9784 (Simulation time: 00 hr 04 min 28 sec)
Heartbeat CPU 0 instructions: 56500408 cycles: 19282300 heartbeat IPC: 0.9497 cumulative IPC: 0.9761 (Simulation time: 00 hr 04 min 34 sec)
Heartbeat CPU 0 instructions: 57000412 cycles: 19831047 heartbeat IPC: 0.9112 cumulative IPC: 0.9711 (Simulation time: 00 hr 04 min 40 sec)
Heartbeat CPU 0 instructions: 57500412 cycles: 20381538 heartbeat IPC: 0.9083 cumulative IPC: 0.9667 (Simulation time: 00 hr 04 min 46 sec)
Heartbeat CPU 0 instructions: 58000416 cycles: 20934643 heartbeat IPC: 0.904 cumulative IPC: 0.9625 (Simulation time: 00 hr 04 min 52 sec)
Heartbeat CPU 0 instructions: 58500416 cycles: 21483149 heartbeat IPC: 0.9116 cumulative IPC: 0.9594 (Simulation time: 00 hr 04 min 58 sec)
Heartbeat CPU 0 instructions: 59000417 cycles: 22023839 heartbeat IPC: 0.9247 cumulative IPC: 0.9574 (Simulation time: 00 hr 05 min 05 sec)
Heartbeat CPU 0 instructions: 59500417 cycles: 22572845 heartbeat IPC: 0.9107 cumulative IPC: 0.9548 (Simulation time: 00 hr 05 min 11 sec)
Heartbeat CPU 0 instructions: 60000423 cycles: 23128185 heartbeat IPC: 0.9004 cumulative IPC: 0.9519 (Simulation time: 00 hr 05 min 17 sec)
Heartbeat CPU 0 instructions: 60500423 cycles: 23681215 heartbeat IPC: 0.9041 cumulative IPC: 0.9495 (Simulation time: 00 hr 05 min 23 sec)
Heartbeat CPU 0 instructions: 61000427 cycles: 24239040 heartbeat IPC: 0.8963 cumulative IPC: 0.947 (Simulation time: 00 hr 05 min 29 sec)
Heartbeat CPU 0 instructions: 61500427 cycles: 24795568 heartbeat IPC: 0.8984 cumulative IPC: 0.9448 (Simulation time: 00 hr 05 min 36 sec)
Heartbeat CPU 0 instructions: 62000427 cycles: 25351221 heartbeat IPC: 0.8998 cumulative IPC: 0.9428 (Simulation time: 00 hr 05 min 42 sec)
Heartbeat CPU 0 instructions: 62500427 cycles: 25904423 heartbeat IPC: 0.9038 cumulative IPC: 0.9412 (Simulation time: 00 hr 05 min 48 sec)
Heartbeat CPU 0 instructions: 63000430 cycles: 26463487 heartbeat IPC: 0.8944 cumulative IPC: 0.9393 (Simulation time: 00 hr 05 min 54 sec)
Heartbeat CPU 0 instructions: 63500433 cycles: 27017220 heartbeat IPC: 0.903 cumulative IPC: 0.9379 (Simulation time: 00 hr 06 min 00 sec)
Heartbeat CPU 0 instructions: 64000433 cycles: 27574839 heartbeat IPC: 0.8967 cumulative IPC: 0.9363 (Simulation time: 00 hr 06 min 07 sec)
Heartbeat CPU 0 instructions: 64500433 cycles: 28124992 heartbeat IPC: 0.9088 cumulative IPC: 0.9354 (Simulation time: 00 hr 06 min 13 sec)
Heartbeat CPU 0 instructions: 65000433 cycles: 28678400 heartbeat IPC: 0.9035 cumulative IPC: 0.9343 (Simulation time: 00 hr 06 min 19 sec)
Heartbeat CPU 0 instructions: 65500438 cycles: 29233882 heartbeat IPC: 0.9001 cumulative IPC: 0.9331 (Simulation time: 00 hr 06 min 26 sec)
Heartbeat CPU 0 instructions: 66000440 cycles: 29788809 heartbeat IPC: 0.901 cumulative IPC: 0.9321 (Simulation time: 00 hr 06 min 32 sec)
Heartbeat CPU 0 instructions: 66500446 cycles: 30342728 heartbeat IPC: 0.9027 cumulative IPC: 0.9312 (Simulation time: 00 hr 06 min 38 sec)
Heartbeat CPU 0 instructions: 67000448 cycles: 30897104 heartbeat IPC: 0.9019 cumulative IPC: 0.9303 (Simulation time: 00 hr 06 min 45 sec)
Heartbeat CPU 0 instructions: 67500454 cycles: 31451584 heartbeat IPC: 0.9018 cumulative IPC: 0.9294 (Simulation time: 00 hr 06 min 51 sec)
Heartbeat CPU 0 instructions: 68000455 cycles: 32004684 heartbeat IPC: 0.904 cumulative IPC: 0.9287 (Simulation time: 00 hr 06 min 58 sec)
Heartbeat CPU 0 instructions: 68500456 cycles: 32555692 heartbeat IPC: 0.9074 cumulative IPC: 0.9281 (Simulation time: 00 hr 07 min 04 sec)
Heartbeat CPU 0 instructions: 69000456 cycles: 33108491 heartbeat IPC: 0.9045 cumulative IPC: 0.9275 (Simulation time: 00 hr 07 min 10 sec)
Heartbeat CPU 0 instructions: 69500460 cycles: 33664743 heartbeat IPC: 0.8989 cumulative IPC: 0.9267 (Simulation time: 00 hr 07 min 16 sec)
Heartbeat CPU 0 instructions: 70000460 cycles: 34214317 heartbeat IPC: 0.9098 cumulative IPC: 0.9263 (Simulation time: 00 hr 07 min 23 sec)
Heartbeat CPU 0 instructions: 70500464 cycles: 34769766 heartbeat IPC: 0.9002 cumulative IPC: 0.9257 (Simulation time: 00 hr 07 min 29 sec)
Heartbeat CPU 0 instructions: 71000464 cycles: 35323979 heartbeat IPC: 0.9022 cumulative IPC: 0.9251 (Simulation time: 00 hr 07 min 35 sec)
Heartbeat CPU 0 instructions: 71500467 cycles: 35862275 heartbeat IPC: 0.9289 cumulative IPC: 0.9252 (Simulation time: 00 hr 07 min 41 sec)
Heartbeat CPU 0 instructions: 72000467 cycles: 36420215 heartbeat IPC: 0.8962 cumulative IPC: 0.9245 (Simulation time: 00 hr 07 min 47 sec)
Heartbeat CPU 0 instructions: 72500471 cycles: 36970909 heartbeat IPC: 0.908 cumulative IPC: 0.9241 (Simulation time: 00 hr 07 min 53 sec)
Heartbeat CPU 0 instructions: 73000471 cycles: 37527855 heartbeat IPC: 0.8978 cumulative IPC: 0.9235 (Simulation time: 00 hr 08 min 00 sec)
Heartbeat CPU 0 instructions: 73500472 cycles: 38081021 heartbeat IPC: 0.9039 cumulative IPC: 0.9231 (Simulation time: 00 hr 08 min 06 sec)
Heartbeat CPU 0 instructions: 74000475 cycles: 38634573 heartbeat IPC: 0.9033 cumulative IPC: 0.9227 (Simulation time: 00 hr 08 min 12 sec)
Heartbeat CPU 0 instructions: 74500475 cycles: 39190804 heartbeat IPC: 0.8989 cumulative IPC: 0.9222 (Simulation time: 00 hr 08 min 18 sec)
Heartbeat CPU 0 instructions: 75000475 cycles: 39748672 heartbeat IPC: 0.8963 cumulative IPC: 0.9216 (Simulation time: 00 hr 08 min 25 sec)
Heartbeat CPU 0 instructions: 75500475 cycles: 40307960 heartbeat IPC: 0.894 cumulative IPC: 0.9211 (Simulation time: 00 hr 08 min 31 sec)
Heartbeat CPU 0 instructions: 76000481 cycles: 40859657 heartbeat IPC: 0.9063 cumulative IPC: 0.9208 (Simulation time: 00 hr 08 min 37 sec)
Heartbeat CPU 0 instructions: 76500481 cycles: 41411874 heartbeat IPC: 0.9054 cumulative IPC: 0.9205 (Simulation time: 00 hr 08 min 43 sec)
Heartbeat CPU 0 instructions: 77000481 cycles: 41970293 heartbeat IPC: 0.8954 cumulative IPC: 0.92 (Simulation time: 00 hr 08 min 50 sec)
Heartbeat CPU 0 instructions: 77500481 cycles: 42522500 heartbeat IPC: 0.9055 cumulative IPC: 0.9198 (Simulation time: 00 hr 08 min 56 sec)
Heartbeat CPU 0 instructions: 78000482 cycles: 43074009 heartbeat IPC: 0.9066 cumulative IPC: 0.9195 (Simulation time: 00 hr 09 min 02 sec)
Heartbeat CPU 0 instructions: 78500486 cycles: 43627813 heartbeat IPC: 0.9029 cumulative IPC: 0.9192 (Simulation time: 00 hr 09 min 09 sec)
Heartbeat CPU 0 instructions: 79000492 cycles: 44183565 heartbeat IPC: 0.8997 cumulative IPC: 0.9189 (Simulation time: 00 hr 09 min 15 sec)
Heartbeat CPU 0 instructions: 79500494 cycles: 44737503 heartbeat IPC: 0.9026 cumulative IPC: 0.9186 (Simulation time: 00 hr 09 min 22 sec)
Heartbeat CPU 0 instructions: 80000497 cycles: 45292308 heartbeat IPC: 0.9012 cumulative IPC: 0.9183 (Simulation time: 00 hr 09 min 28 sec)
Heartbeat CPU 0 instructions: 80500499 cycles: 45846453 heartbeat IPC: 0.9023 cumulative IPC: 0.918 (Simulation time: 00 hr 09 min 35 sec)
Heartbeat CPU 0 instructions: 81000505 cycles: 46402302 heartbeat IPC: 0.8995 cumulative IPC: 0.9177 (Simulation time: 00 hr 09 min 41 sec)
Heartbeat CPU 0 instructions: 81500505 cycles: 46952572 heartbeat IPC: 0.9086 cumulative IPC: 0.9176 (Simulation time: 00 hr 09 min 47 sec)
Heartbeat CPU 0 instructions: 82000505 cycles: 47507550 heartbeat IPC: 0.9009 cumulative IPC: 0.9173 (Simulation time: 00 hr 09 min 53 sec)
Heartbeat CPU 0 instructions: 82500505 cycles: 48061862 heartbeat IPC: 0.902 cumulative IPC: 0.9171 (Simulation time: 00 hr 10 min 00 sec)
Heartbeat CPU 0 instructions: 83000505 cycles: 48612466 heartbeat IPC: 0.9081 cumulative IPC: 0.9169 (Simulation time: 00 hr 10 min 06 sec)
Heartbeat CPU 0 instructions: 83500510 cycles: 49171789 heartbeat IPC: 0.8939 cumulative IPC: 0.9166 (Simulation time: 00 hr 10 min 12 sec)
Heartbeat CPU 0 instructions: 84000510 cycles: 49726246 heartbeat IPC: 0.9018 cumulative IPC: 0.9164 (Simulation time: 00 hr 10 min 18 sec)
Heartbeat CPU 0 instructions: 84500510 cycles: 50278821 heartbeat IPC: 0.9049 cumulative IPC: 0.9162 (Simulation time: 00 hr 10 min 24 sec)
Heartbeat CPU 0 instructions: 85000510 cycles: 50831345 heartbeat IPC: 0.9049 cumulative IPC: 0.916 (Simulation time: 00 hr 10 min 31 sec)
Heartbeat CPU 0 instructions: 85500515 cycles: 51383017 heartbeat IPC: 0.9063 cumulative IPC: 0.9159 (Simulation time: 00 hr 10 min 37 sec)
Heartbeat CPU 0 instructions: 86000515 cycles: 51936890 heartbeat IPC: 0.9027 cumulative IPC: 0.9157 (Simulation time: 00 hr 10 min 43 sec)
Heartbeat CPU 0 instructions: 86500515 cycles: 52497689 heartbeat IPC: 0.8916 cumulative IPC: 0.9154 (Simulation time: 00 hr 10 min 49 sec)
Heartbeat CPU 0 instructions: 87000515 cycles: 53052346 heartbeat IPC: 0.9015 cumulative IPC: 0.9152 (Simulation time: 00 hr 10 min 55 sec)
Heartbeat CPU 0 instructions: 87500520 cycles: 53605171 heartbeat IPC: 0.9045 cumulative IPC: 0.915 (Simulation time: 00 hr 11 min 02 sec)
Heartbeat CPU 0 instructions: 88000520 cycles: 54163668 heartbeat IPC: 0.8953 cumulative IPC: 0.9148 (Simulation time: 00 hr 11 min 08 sec)
Heartbeat CPU 0 instructions: 88500520 cycles: 54715078 heartbeat IPC: 0.9068 cumulative IPC: 0.9147 (Simulation time: 00 hr 11 min 14 sec)
Heartbeat CPU 0 instructions: 89000520 cycles: 55269525 heartbeat IPC: 0.9018 cumulative IPC: 0.9145 (Simulation time: 00 hr 11 min 20 sec)
Heartbeat CPU 0 instructions: 89500527 cycles: 55823724 heartbeat IPC: 0.9022 cumulative IPC: 0.9143 (Simulation time: 00 hr 11 min 26 sec)
Heartbeat CPU 0 instructions: 90000532 cycles: 56376149 heartbeat IPC: 0.9051 cumulative IPC: 0.9142 (Simulation time: 00 hr 11 min 33 sec)
Heartbeat CPU 0 instructions: 90500532 cycles: 56928975 heartbeat IPC: 0.9044 cumulative IPC: 0.9141 (Simulation time: 00 hr 11 min 39 sec)
Heartbeat CPU 0 instructions: 91000532 cycles: 57483486 heartbeat IPC: 0.9017 cumulative IPC: 0.9139 (Simulation time: 00 hr 11 min 45 sec)
Heartbeat CPU 0 instructions: 91500532 cycles: 58048933 heartbeat IPC: 0.8843 cumulative IPC: 0.9136 (Simulation time: 00 hr 11 min 51 sec)
Heartbeat CPU 0 instructions: 92000537 cycles: 58601809 heartbeat IPC: 0.9044 cumulative IPC: 0.9135 (Simulation time: 00 hr 11 min 58 sec)
Heartbeat CPU 0 instructions: 92500537 cycles: 59159128 heartbeat IPC: 0.8972 cumulative IPC: 0.9133 (Simulation time: 00 hr 12 min 04 sec)
Heartbeat CPU 0 instructions: 93000537 cycles: 59714625 heartbeat IPC: 0.9001 cumulative IPC: 0.9131 (Simulation time: 00 hr 12 min 10 sec)
Heartbeat CPU 0 instructions: 93500537 cycles: 60271305 heartbeat IPC: 0.8982 cumulative IPC: 0.9129 (Simulation time: 00 hr 12 min 16 sec)
Heartbeat CPU 0 instructions: 94000542 cycles: 60823886 heartbeat IPC: 0.9049 cumulative IPC: 0.9129 (Simulation time: 00 hr 12 min 22 sec)
Heartbeat CPU 0 instructions: 94500542 cycles: 61379105 heartbeat IPC: 0.9005 cumulative IPC: 0.9127 (Simulation time: 00 hr 12 min 29 sec)
Heartbeat CPU 0 instructions: 95000542 cycles: 61934891 heartbeat IPC: 0.8996 cumulative IPC: 0.9126 (Simulation time: 00 hr 12 min 35 sec)
Heartbeat CPU 0 instructions: 95500542 cycles: 62493537 heartbeat IPC: 0.895 cumulative IPC: 0.9124 (Simulation time: 00 hr 12 min 41 sec)
Heartbeat CPU 0 instructions: 96000547 cycles: 63047017 heartbeat IPC: 0.9034 cumulative IPC: 0.9123 (Simulation time: 00 hr 12 min 47 sec)
Heartbeat CPU 0 instructions: 96500547 cycles: 63597637 heartbeat IPC: 0.9081 cumulative IPC: 0.9122 (Simulation time: 00 hr 12 min 54 sec)
Heartbeat CPU 0 instructions: 97000547 cycles: 64155324 heartbeat IPC: 0.8966 cumulative IPC: 0.9121 (Simulation time: 00 hr 13 min 00 sec)
Heartbeat CPU 0 instructions: 97500547 cycles: 64711225 heartbeat IPC: 0.8994 cumulative IPC: 0.9119 (Simulation time: 00 hr 13 min 06 sec)
Heartbeat CPU 0 instructions: 98000547 cycles: 65267823 heartbeat IPC: 0.8983 cumulative IPC: 0.9118 (Simulation time: 00 hr 13 min 12 sec)
Heartbeat CPU 0 instructions: 98500552 cycles: 65826198 heartbeat IPC: 0.8955 cumulative IPC: 0.9116 (Simulation time: 00 hr 13 min 19 sec)
Heartbeat CPU 0 instructions: 99000552 cycles: 66381230 heartbeat IPC: 0.9008 cumulative IPC: 0.9115 (Simulation time: 00 hr 13 min 25 sec)
Heartbeat CPU 0 instructions: 99500552 cycles: 66937705 heartbeat IPC: 0.8985 cumulative IPC: 0.9114 (Simulation time: 00 hr 13 min 31 sec)
Heartbeat CPU 0 instructions: 100000552 cycles: 67494261 heartbeat IPC: 0.8984 cumulative IPC: 0.9112 (Simulation time: 00 hr 13 min 37 sec)
Heartbeat CPU 0 instructions: 100500557 cycles: 68047380 heartbeat IPC: 0.904 cumulative IPC: 0.9112 (Simulation time: 00 hr 13 min 43 sec)
Heartbeat CPU 0 instructions: 101000557 cycles: 68610013 heartbeat IPC: 0.8887 cumulative IPC: 0.9109 (Simulation time: 00 hr 13 min 50 sec)
Heartbeat CPU 0 instructions: 101500557 cycles: 69164472 heartbeat IPC: 0.9018 cumulative IPC: 0.9108 (Simulation time: 00 hr 13 min 56 sec)
Heartbeat CPU 0 instructions: 102000557 cycles: 69718969 heartbeat IPC: 0.9017 cumulative IPC: 0.9108 (Simulation time: 00 hr 14 min 02 sec)
Heartbeat CPU 0 instructions: 102500562 cycles: 70267710 heartbeat IPC: 0.9112 cumulative IPC: 0.9108 (Simulation time: 00 hr 14 min 08 sec)
Heartbeat CPU 0 instructions: 103000562 cycles: 70826223 heartbeat IPC: 0.8952 cumulative IPC: 0.9106 (Simulation time: 00 hr 14 min 15 sec)
Heartbeat CPU 0 instructions: 103500562 cycles: 71385060 heartbeat IPC: 0.8947 cumulative IPC: 0.9105 (Simulation time: 00 hr 14 min 21 sec)
Heartbeat CPU 0 instructions: 104000562 cycles: 71946929 heartbeat IPC: 0.8899 cumulative IPC: 0.9103 (Simulation time: 00 hr 14 min 27 sec)
Heartbeat CPU 0 instructions: 104500567 cycles: 72504276 heartbeat IPC: 0.8971 cumulative IPC: 0.9101 (Simulation time: 00 hr 14 min 33 sec)
Heartbeat CPU 0 instructions: 105000567 cycles: 73058602 heartbeat IPC: 0.902 cumulative IPC: 0.9101 (Simulation time: 00 hr 14 min 40 sec)
Heartbeat CPU 0 instructions: 105500567 cycles: 73611247 heartbeat IPC: 0.9047 cumulative IPC: 0.91 (Simulation time: 00 hr 14 min 46 sec)
Heartbeat CPU 0 instructions: 106000567 cycles: 74166382 heartbeat IPC: 0.9007 cumulative IPC: 0.9099 (Simulation time: 00 hr 14 min 52 sec)
Heartbeat CPU 0 instructions: 106500571 cycles: 74723808 heartbeat IPC: 0.897 cumulative IPC: 0.9098 (Simulation time: 00 hr 14 min 58 sec)
Heartbeat CPU 0 instructions: 107000572 cycles: 75275803 heartbeat IPC: 0.9058 cumulative IPC: 0.9098 (Simulation time: 00 hr 15 min 04 sec)
Heartbeat CPU 0 instructions: 107500572 cycles: 75831887 heartbeat IPC: 0.8991 cumulative IPC: 0.9097 (Simulation time: 00 hr 15 min 11 sec)
Heartbeat CPU 0 instructions: 108000572 cycles: 76383065 heartbeat IPC: 0.9071 cumulative IPC: 0.9097 (Simulation time: 00 hr 15 min 17 sec)
Heartbeat CPU 0 instructions: 108500572 cycles: 76936561 heartbeat IPC: 0.9033 cumulative IPC: 0.9096 (Simulation time: 00 hr 15 min 23 sec)
Heartbeat CPU 0 instructions: 109000577 cycles: 77490745 heartbeat IPC: 0.9022 cumulative IPC: 0.9095 (Simulation time: 00 hr 15 min 29 sec)
Heartbeat CPU 0 instructions: 109500577 cycles: 78044746 heartbeat IPC: 0.9025 cumulative IPC: 0.9095 (Simulation time: 00 hr 15 min 36 sec)
Heartbeat CPU 0 instructions: 110000577 cycles: 78603050 heartbeat IPC: 0.8956 cumulative IPC: 0.9094 (Simulation time: 00 hr 15 min 42 sec)
Heartbeat CPU 0 instructions: 110500577 cycles: 79159023 heartbeat IPC: 0.8993 cumulative IPC: 0.9093 (Simulation time: 00 hr 15 min 48 sec)
Heartbeat CPU 0 instructions: 111000582 cycles: 79713226 heartbeat IPC: 0.9022 cumulative IPC: 0.9092 (Simulation time: 00 hr 15 min 54 sec)
Heartbeat CPU 0 instructions: 111500582 cycles: 80276085 heartbeat IPC: 0.8883 cumulative IPC: 0.9091 (Simulation time: 00 hr 16 min 01 sec)
Heartbeat CPU 0 instructions: 112000582 cycles: 80836103 heartbeat IPC: 0.8928 cumulative IPC: 0.9089 (Simulation time: 00 hr 16 min 07 sec)
Heartbeat CPU 0 instructions: 112500582 cycles: 81393328 heartbeat IPC: 0.8973 cumulative IPC: 0.9088 (Simulation time: 00 hr 16 min 13 sec)
Heartbeat CPU 0 instructions: 113000583 cycles: 81954821 heartbeat IPC: 0.8905 cumulative IPC: 0.9087 (Simulation time: 00 hr 16 min 19 sec)
Heartbeat CPU 0 instructions: 113500587 cycles: 82512160 heartbeat IPC: 0.8971 cumulative IPC: 0.9086 (Simulation time: 00 hr 16 min 26 sec)
Heartbeat CPU 0 instructions: 114000587 cycles: 83071544 heartbeat IPC: 0.8938 cumulative IPC: 0.9085 (Simulation time: 00 hr 16 min 32 sec)
Heartbeat CPU 0 instructions: 114500587 cycles: 83633401 heartbeat IPC: 0.8899 cumulative IPC: 0.9083 (Simulation time: 00 hr 16 min 38 sec)
Heartbeat CPU 0 instructions: 115000587 cycles: 84189516 heartbeat IPC: 0.8991 cumulative IPC: 0.9082 (Simulation time: 00 hr 16 min 44 sec)
Heartbeat CPU 0 instructions: 115500592 cycles: 84757272 heartbeat IPC: 0.8807 cumulative IPC: 0.908 (Simulation time: 00 hr 16 min 51 sec)
Heartbeat CPU 0 instructions: 116000592 cycles: 85324294 heartbeat IPC: 0.8818 cumulative IPC: 0.9078 (Simulation time: 00 hr 16 min 57 sec)
Heartbeat CPU 0 instructions: 116500592 cycles: 85882920 heartbeat IPC: 0.8951 cumulative IPC: 0.9077 (Simulation time: 00 hr 17 min 03 sec)
Heartbeat CPU 0 instructions: 117000592 cycles: 86443479 heartbeat IPC: 0.892 cumulative IPC: 0.9076 (Simulation time: 00 hr 17 min 10 sec)
Heartbeat CPU 0 instructions: 117500597 cycles: 87003893 heartbeat IPC: 0.8922 cumulative IPC: 0.9075 (Simulation time: 00 hr 17 min 16 sec)
Heartbeat CPU 0 instructions: 118000597 cycles: 87556733 heartbeat IPC: 0.9044 cumulative IPC: 0.9075 (Simulation time: 00 hr 17 min 22 sec)
Heartbeat CPU 0 instructions: 118500597 cycles: 88116901 heartbeat IPC: 0.8926 cumulative IPC: 0.9074 (Simulation time: 00 hr 17 min 28 sec)
Heartbeat CPU 0 instructions: 119000597 cycles: 88680472 heartbeat IPC: 0.8872 cumulative IPC: 0.9072 (Simulation time: 00 hr 17 min 35 sec)
Heartbeat CPU 0 instructions: 119500602 cycles: 89242828 heartbeat IPC: 0.8891 cumulative IPC: 0.9071 (Simulation time: 00 hr 17 min 41 sec)
Heartbeat CPU 0 instructions: 120000602 cycles: 89804628 heartbeat IPC: 0.89 cumulative IPC: 0.907 (Simulation time: 00 hr 17 min 47 sec)
Heartbeat CPU 0 instructions: 120500602 cycles: 90363995 heartbeat IPC: 0.8939 cumulative IPC: 0.9069 (Simulation time: 00 hr 17 min 54 sec)
Heartbeat CPU 0 instructions: 121000602 cycles: 90926789 heartbeat IPC: 0.8884 cumulative IPC: 0.9067 (Simulation time: 00 hr 18 min 00 sec)
Heartbeat CPU 0 instructions: 121500606 cycles: 91487686 heartbeat IPC: 0.8914 cumulative IPC: 0.9066 (Simulation time: 00 hr 18 min 06 sec)
Heartbeat CPU 0 instructions: 122000607 cycles: 92052345 heartbeat IPC: 0.8855 cumulative IPC: 0.9065 (Simulation time: 00 hr 18 min 12 sec)
Heartbeat CPU 0 instructions: 122500607 cycles: 92623329 heartbeat IPC: 0.8757 cumulative IPC: 0.9063 (Simulation time: 00 hr 18 min 19 sec)
Heartbeat CPU 0 instructions: 123000607 cycles: 93189287 heartbeat IPC: 0.8835 cumulative IPC: 0.9061 (Simulation time: 00 hr 18 min 25 sec)
Heartbeat CPU 0 instructions: 123500607 cycles: 93746308 heartbeat IPC: 0.8976 cumulative IPC: 0.906 (Simulation time: 00 hr 18 min 31 sec)
Heartbeat CPU 0 instructions: 124000612 cycles: 94310948 heartbeat IPC: 0.8855 cumulative IPC: 0.9059 (Simulation time: 00 hr 18 min 37 sec)
Heartbeat CPU 0 instructions: 124500612 cycles: 94878022 heartbeat IPC: 0.8817 cumulative IPC: 0.9057 (Simulation time: 00 hr 18 min 44 sec)
Heartbeat CPU 0 instructions: 125000614 cycles: 95512635 heartbeat IPC: 0.7879 cumulative IPC: 0.9048 (Simulation time: 00 hr 18 min 51 sec)
Heartbeat CPU 0 instructions: 125500614 cycles: 96109975 heartbeat IPC: 0.837 cumulative IPC: 0.9043 (Simulation time: 00 hr 18 min 57 sec)
Heartbeat CPU 0 instructions: 126000614 cycles: 96711292 heartbeat IPC: 0.8315 cumulative IPC: 0.9038 (Simulation time: 00 hr 19 min 04 sec)
Heartbeat CPU 0 instructions: 126500619 cycles: 97311535 heartbeat IPC: 0.833 cumulative IPC: 0.9033 (Simulation time: 00 hr 19 min 11 sec)
Heartbeat CPU 0 instructions: 127000623 cycles: 97920783 heartbeat IPC: 0.8207 cumulative IPC: 0.9027 (Simulation time: 00 hr 19 min 17 sec)
Heartbeat CPU 0 instructions: 127500623 cycles: 98528976 heartbeat IPC: 0.8221 cumulative IPC: 0.9022 (Simulation time: 00 hr 19 min 24 sec)
Heartbeat CPU 0 instructions: 128000628 cycles: 99111032 heartbeat IPC: 0.859 cumulative IPC: 0.9019 (Simulation time: 00 hr 19 min 31 sec)
Heartbeat CPU 0 instructions: 128500628 cycles: 99711519 heartbeat IPC: 0.8327 cumulative IPC: 0.9014 (Simulation time: 00 hr 19 min 37 sec)
Heartbeat CPU 0 instructions: 129000631 cycles: 100308720 heartbeat IPC: 0.8372 cumulative IPC: 0.9009 (Simulation time: 00 hr 19 min 44 sec)
Heartbeat CPU 0 instructions: 129500631 cycles: 100916252 heartbeat IPC: 0.823 cumulative IPC: 0.9004 (Simulation time: 00 hr 19 min 51 sec)
Heartbeat CPU 0 instructions: 130000631 cycles: 101522235 heartbeat IPC: 0.8251 cumulative IPC: 0.8999 (Simulation time: 00 hr 19 min 57 sec)
Heartbeat CPU 0 instructions: 130500635 cycles: 102131080 heartbeat IPC: 0.8212 cumulative IPC: 0.8994 (Simulation time: 00 hr 20 min 04 sec)
Heartbeat CPU 0 instructions: 131000635 cycles: 102740565 heartbeat IPC: 0.8204 cumulative IPC: 0.8988 (Simulation time: 00 hr 20 min 11 sec)
Heartbeat CPU 0 instructions: 131500635 cycles: 103346643 heartbeat IPC: 0.825 cumulative IPC: 0.8983 (Simulation time: 00 hr 20 min 17 sec)
Heartbeat CPU 0 instructions: 132000637 cycles: 103955356 heartbeat IPC: 0.8214 cumulative IPC: 0.8978 (Simulation time: 00 hr 20 min 24 sec)
Heartbeat CPU 0 instructions: 132500638 cycles: 104561518 heartbeat IPC: 0.8249 cumulative IPC: 0.8973 (Simulation time: 00 hr 20 min 31 sec)
Heartbeat CPU 0 instructions: 133000641 cycles: 105162605 heartbeat IPC: 0.8318 cumulative IPC: 0.8969 (Simulation time: 00 hr 20 min 38 sec)
Heartbeat CPU 0 instructions: 133500641 cycles: 105762540 heartbeat IPC: 0.8334 cumulative IPC: 0.8965 (Simulation time: 00 hr 20 min 45 sec)
Heartbeat CPU 0 instructions: 134000641 cycles: 106370186 heartbeat IPC: 0.8228 cumulative IPC: 0.896 (Simulation time: 00 hr 20 min 51 sec)
Heartbeat CPU 0 instructions: 134500645 cycles: 106974315 heartbeat IPC: 0.8276 cumulative IPC: 0.8956 (Simulation time: 00 hr 20 min 58 sec)
Heartbeat CPU 0 instructions: 135000647 cycles: 107583544 heartbeat IPC: 0.8207 cumulative IPC: 0.8951 (Simulation time: 00 hr 21 min 05 sec)
Heartbeat CPU 0 instructions: 135500653 cycles: 108191987 heartbeat IPC: 0.8218 cumulative IPC: 0.8946 (Simulation time: 00 hr 21 min 12 sec)
Heartbeat CPU 0 instructions: 136000655 cycles: 108798758 heartbeat IPC: 0.824 cumulative IPC: 0.8942 (Simulation time: 00 hr 21 min 19 sec)
Heartbeat CPU 0 instructions: 136500661 cycles: 109409841 heartbeat IPC: 0.8182 cumulative IPC: 0.8937 (Simulation time: 00 hr 21 min 26 sec)
Heartbeat CPU 0 instructions: 137000663 cycles: 110024441 heartbeat IPC: 0.8135 cumulative IPC: 0.8932 (Simulation time: 00 hr 21 min 33 sec)
Heartbeat CPU 0 instructions: 137500667 cycles: 110633396 heartbeat IPC: 0.8211 cumulative IPC: 0.8928 (Simulation time: 00 hr 21 min 40 sec)
Heartbeat CPU 0 instructions: 138000667 cycles: 111234250 heartbeat IPC: 0.8321 cumulative IPC: 0.8924 (Simulation time: 00 hr 21 min 46 sec)
Heartbeat CPU 0 instructions: 138500667 cycles: 111842304 heartbeat IPC: 0.8223 cumulative IPC: 0.892 (Simulation time: 00 hr 21 min 53 sec)
Heartbeat CPU 0 instructions: 139000668 cycles: 112448406 heartbeat IPC: 0.8249 cumulative IPC: 0.8916 (Simulation time: 00 hr 22 min 00 sec)
Heartbeat CPU 0 instructions: 139500668 cycles: 113049461 heartbeat IPC: 0.8319 cumulative IPC: 0.8912 (Simulation time: 00 hr 22 min 07 sec)
Heartbeat CPU 0 instructions: 140000672 cycles: 113653154 heartbeat IPC: 0.8282 cumulative IPC: 0.8908 (Simulation time: 00 hr 22 min 13 sec)
Heartbeat CPU 0 instructions: 140500674 cycles: 114235129 heartbeat IPC: 0.8591 cumulative IPC: 0.8906 (Simulation time: 00 hr 22 min 20 sec)
Heartbeat CPU 0 instructions: 141000675 cycles: 114837317 heartbeat IPC: 0.8303 cumulative IPC: 0.8903 (Simulation time: 00 hr 22 min 26 sec)
Heartbeat CPU 0 instructions: 141500679 cycles: 115435573 heartbeat IPC: 0.8358 cumulative IPC: 0.89 (Simulation time: 00 hr 22 min 33 sec)
Heartbeat CPU 0 instructions: 142000680 cycles: 116040757 heartbeat IPC: 0.8262 cumulative IPC: 0.8896 (Simulation time: 00 hr 22 min 40 sec)
Heartbeat CPU 0 instructions: 142500680 cycles: 116652837 heartbeat IPC: 0.8169 cumulative IPC: 0.8892 (Simulation time: 00 hr 22 min 47 sec)
Heartbeat CPU 0 instructions: 143000684 cycles: 117266773 heartbeat IPC: 0.8144 cumulative IPC: 0.8887 (Simulation time: 00 hr 22 min 53 sec)
Heartbeat CPU 0 instructions: 143500684 cycles: 117874373 heartbeat IPC: 0.8229 cumulative IPC: 0.8884 (Simulation time: 00 hr 23 min 00 sec)
Heartbeat CPU 0 instructions: 144000684 cycles: 118478316 heartbeat IPC: 0.8279 cumulative IPC: 0.888 (Simulation time: 00 hr 23 min 07 sec)
Heartbeat CPU 0 instructions: 144500686 cycles: 119085619 heartbeat IPC: 0.8233 cumulative IPC: 0.8876 (Simulation time: 00 hr 23 min 13 sec)
Heartbeat CPU 0 instructions: 145000686 cycles: 119687191 heartbeat IPC: 0.8312 cumulative IPC: 0.8873 (Simulation time: 00 hr 23 min 20 sec)
Heartbeat CPU 0 instructions: 145500687 cycles: 120292003 heartbeat IPC: 0.8267 cumulative IPC: 0.887 (Simulation time: 00 hr 23 min 27 sec)
Heartbeat CPU 0 instructions: 146000690 cycles: 120898869 heartbeat IPC: 0.8239 cumulative IPC: 0.8866 (Simulation time: 00 hr 23 min 34 sec)
Heartbeat CPU 0 instructions: 146500690 cycles: 121509753 heartbeat IPC: 0.8185 cumulative IPC: 0.8862 (Simulation time: 00 hr 23 min 41 sec)
Heartbeat CPU 0 instructions: 147000690 cycles: 122113622 heartbeat IPC: 0.828 cumulative IPC: 0.8859 (Simulation time: 00 hr 23 min 47 sec)
Heartbeat CPU 0 instructions: 147500693 cycles: 122716549 heartbeat IPC: 0.8293 cumulative IPC: 0.8856 (Simulation time: 00 hr 23 min 54 sec)
Heartbeat CPU 0 instructions: 148000697 cycles: 123327269 heartbeat IPC: 0.8187 cumulative IPC: 0.8852 (Simulation time: 00 hr 24 min 01 sec)
Heartbeat CPU 0 instructions: 148500700 cycles: 123936971 heartbeat IPC: 0.8201 cumulative IPC: 0.8849 (Simulation time: 00 hr 24 min 08 sec)
Heartbeat CPU 0 instructions: 149000702 cycles: 124541045 heartbeat IPC: 0.8277 cumulative IPC: 0.8846 (Simulation time: 00 hr 24 min 15 sec)
Heartbeat CPU 0 instructions: 149500703 cycles: 125153846 heartbeat IPC: 0.8159 cumulative IPC: 0.8842 (Simulation time: 00 hr 24 min 22 sec)
Heartbeat CPU 0 instructions: 150000703 cycles: 125770381 heartbeat IPC: 0.811 cumulative IPC: 0.8838 (Simulation time: 00 hr 24 min 29 sec)
Heartbeat CPU 0 instructions: 150500703 cycles: 126376449 heartbeat IPC: 0.825 cumulative IPC: 0.8835 (Simulation time: 00 hr 24 min 36 sec)
Heartbeat CPU 0 instructions: 151000706 cycles: 126983857 heartbeat IPC: 0.8232 cumulative IPC: 0.8832 (Simulation time: 00 hr 24 min 42 sec)
Heartbeat CPU 0 instructions: 151500706 cycles: 127584496 heartbeat IPC: 0.8324 cumulative IPC: 0.8829 (Simulation time: 00 hr 24 min 49 sec)
Heartbeat CPU 0 instructions: 152000706 cycles: 128185980 heartbeat IPC: 0.8313 cumulative IPC: 0.8826 (Simulation time: 00 hr 24 min 56 sec)
Heartbeat CPU 0 instructions: 152500707 cycles: 128787629 heartbeat IPC: 0.8311 cumulative IPC: 0.8824 (Simulation time: 00 hr 25 min 02 sec)
Heartbeat CPU 0 instructions: 153000707 cycles: 129388615 heartbeat IPC: 0.832 cumulative IPC: 0.8821 (Simulation time: 00 hr 25 min 09 sec)
Heartbeat CPU 0 instructions: 153500707 cycles: 129971154 heartbeat IPC: 0.8583 cumulative IPC: 0.882 (Simulation time: 00 hr 25 min 15 sec)
Heartbeat CPU 0 instructions: 154000708 cycles: 130573315 heartbeat IPC: 0.8303 cumulative IPC: 0.8817 (Simulation time: 00 hr 25 min 22 sec)
Heartbeat CPU 0 instructions: 154500708 cycles: 131176037 heartbeat IPC: 0.8296 cumulative IPC: 0.8815 (Simulation time: 00 hr 25 min 29 sec)
Heartbeat CPU 0 instructions: 155000708 cycles: 131776772 heartbeat IPC: 0.8323 cumulative IPC: 0.8812 (Simulation time: 00 hr 25 min 35 sec)
Heartbeat CPU 0 instructions: 155500708 cycles: 132384486 heartbeat IPC: 0.8228 cumulative IPC: 0.8809 (Simulation time: 00 hr 25 min 42 sec)
Heartbeat CPU 0 instructions: 156000712 cycles: 132996874 heartbeat IPC: 0.8165 cumulative IPC: 0.8806 (Simulation time: 00 hr 25 min 49 sec)
Heartbeat CPU 0 instructions: 156500712 cycles: 133603744 heartbeat IPC: 0.8239 cumulative IPC: 0.8803 (Simulation time: 00 hr 25 min 55 sec)
Heartbeat CPU 0 instructions: 157000714 cycles: 134202324 heartbeat IPC: 0.8353 cumulative IPC: 0.8801 (Simulation time: 00 hr 26 min 02 sec)
Heartbeat CPU 0 instructions: 157500714 cycles: 134804450 heartbeat IPC: 0.8304 cumulative IPC: 0.8798 (Simulation time: 00 hr 26 min 09 sec)
Heartbeat CPU 0 instructions: 158000715 cycles: 135410345 heartbeat IPC: 0.8252 cumulative IPC: 0.8796 (Simulation time: 00 hr 26 min 16 sec)
Heartbeat CPU 0 instructions: 158500718 cycles: 136014423 heartbeat IPC: 0.8277 cumulative IPC: 0.8793 (Simulation time: 00 hr 26 min 22 sec)
Heartbeat CPU 0 instructions: 159000718 cycles: 136620919 heartbeat IPC: 0.8244 cumulative IPC: 0.8791 (Simulation time: 00 hr 26 min 29 sec)
Heartbeat CPU 0 instructions: 159500718 cycles: 137222469 heartbeat IPC: 0.8312 cumulative IPC: 0.8788 (Simulation time: 00 hr 26 min 36 sec)
Heartbeat CPU 0 instructions: 160000718 cycles: 137826296 heartbeat IPC: 0.8281 cumulative IPC: 0.8786 (Simulation time: 00 hr 26 min 43 sec)
Heartbeat CPU 0 instructions: 160500720 cycles: 138435553 heartbeat IPC: 0.8207 cumulative IPC: 0.8783 (Simulation time: 00 hr 26 min 50 sec)
Heartbeat CPU 0 instructions: 161000726 cycles: 139039408 heartbeat IPC: 0.828 cumulative IPC: 0.8781 (Simulation time: 00 hr 26 min 57 sec)
Heartbeat CPU 0 instructions: 161500728 cycles: 139645455 heartbeat IPC: 0.825 cumulative IPC: 0.8778 (Simulation time: 00 hr 27 min 04 sec)
Heartbeat CPU 0 instructions: 162000734 cycles: 140256221 heartbeat IPC: 0.8187 cumulative IPC: 0.8775 (Simulation time: 00 hr 27 min 11 sec)
Heartbeat CPU 0 instructions: 162500736 cycles: 140872641 heartbeat IPC: 0.8111 cumulative IPC: 0.8772 (Simulation time: 00 hr 27 min 17 sec)
Heartbeat CPU 0 instructions: 163000740 cycles: 141479282 heartbeat IPC: 0.8242 cumulative IPC: 0.8769 (Simulation time: 00 hr 27 min 24 sec)
Heartbeat CPU 0 instructions: 163500740 cycles: 142078886 heartbeat IPC: 0.8339 cumulative IPC: 0.8767 (Simulation time: 00 hr 27 min 31 sec)
Heartbeat CPU 0 instructions: 164000741 cycles: 142680068 heartbeat IPC: 0.8317 cumulative IPC: 0.8765 (Simulation time: 00 hr 27 min 38 sec)
Heartbeat CPU 0 instructions: 164500745 cycles: 143281070 heartbeat IPC: 0.832 cumulative IPC: 0.8763 (Simulation time: 00 hr 27 min 44 sec)
Heartbeat CPU 0 instructions: 165000745 cycles: 143890777 heartbeat IPC: 0.8201 cumulative IPC: 0.8761 (Simulation time: 00 hr 27 min 51 sec)
Heartbeat CPU 0 instructions: 165500749 cycles: 144494741 heartbeat IPC: 0.8279 cumulative IPC: 0.8759 (Simulation time: 00 hr 27 min 58 sec)
Heartbeat CPU 0 instructions: 166000750 cycles: 145074966 heartbeat IPC: 0.8617 cumulative IPC: 0.8758 (Simulation time: 00 hr 28 min 04 sec)
Heartbeat CPU 0 instructions: 166500750 cycles: 145676417 heartbeat IPC: 0.8313 cumulative IPC: 0.8756 (Simulation time: 00 hr 28 min 11 sec)
Heartbeat CPU 0 instructions: 167000750 cycles: 146281670 heartbeat IPC: 0.8261 cumulative IPC: 0.8754 (Simulation time: 00 hr 28 min 18 sec)
Heartbeat CPU 0 instructions: 167500750 cycles: 146882064 heartbeat IPC: 0.8328 cumulative IPC: 0.8752 (Simulation time: 00 hr 28 min 24 sec)
Heartbeat CPU 0 instructions: 168000750 cycles: 147490643 heartbeat IPC: 0.8216 cumulative IPC: 0.8749 (Simulation time: 00 hr 28 min 31 sec)
Heartbeat CPU 0 instructions: 168500751 cycles: 148094140 heartbeat IPC: 0.8285 cumulative IPC: 0.8747 (Simulation time: 00 hr 28 min 38 sec)
Heartbeat CPU 0 instructions: 169000754 cycles: 148695431 heartbeat IPC: 0.8315 cumulative IPC: 0.8745 (Simulation time: 00 hr 28 min 45 sec)
Heartbeat CPU 0 instructions: 169500754 cycles: 149294527 heartbeat IPC: 0.8346 cumulative IPC: 0.8744 (Simulation time: 00 hr 28 min 51 sec)
Heartbeat CPU 0 instructions: 170000755 cycles: 149897027 heartbeat IPC: 0.8299 cumulative IPC: 0.8742 (Simulation time: 00 hr 28 min 58 sec)
Heartbeat CPU 0 instructions: 170500756 cycles: 150500781 heartbeat IPC: 0.8282 cumulative IPC: 0.874 (Simulation time: 00 hr 29 min 05 sec)
Heartbeat CPU 0 instructions: 171000760 cycles: 151101389 heartbeat IPC: 0.8325 cumulative IPC: 0.8738 (Simulation time: 00 hr 29 min 11 sec)
Heartbeat CPU 0 instructions: 171500760 cycles: 151704410 heartbeat IPC: 0.8292 cumulative IPC: 0.8736 (Simulation time: 00 hr 29 min 18 sec)
Heartbeat CPU 0 instructions: 172000760 cycles: 152305153 heartbeat IPC: 0.8323 cumulative IPC: 0.8734 (Simulation time: 00 hr 29 min 25 sec)
Heartbeat CPU 0 instructions: 172500764 cycles: 152906169 heartbeat IPC: 0.8319 cumulative IPC: 0.8732 (Simulation time: 00 hr 29 min 32 sec)
Heartbeat CPU 0 instructions: 173000768 cycles: 153511031 heartbeat IPC: 0.8266 cumulative IPC: 0.873 (Simulation time: 00 hr 29 min 39 sec)
Heartbeat CPU 0 instructions: 173500770 cycles: 154116794 heartbeat IPC: 0.8254 cumulative IPC: 0.8728 (Simulation time: 00 hr 29 min 46 sec)
Heartbeat CPU 0 instructions: 174000773 cycles: 154719034 heartbeat IPC: 0.8302 cumulative IPC: 0.8727 (Simulation time: 00 hr 29 min 53 sec)
Heartbeat CPU 0 instructions: 174500775 cycles: 155320053 heartbeat IPC: 0.8319 cumulative IPC: 0.8725 (Simulation time: 00 hr 29 min 59 sec)
Heartbeat CPU 0 instructions: 175000777 cycles: 155921610 heartbeat IPC: 0.8312 cumulative IPC: 0.8723 (Simulation time: 00 hr 30 min 06 sec)
Heartbeat CPU 0 instructions: 175500779 cycles: 156523321 heartbeat IPC: 0.831 cumulative IPC: 0.8721 (Simulation time: 00 hr 30 min 13 sec)
Heartbeat CPU 0 instructions: 176000780 cycles: 157121523 heartbeat IPC: 0.8358 cumulative IPC: 0.872 (Simulation time: 00 hr 30 min 20 sec)
Heartbeat CPU 0 instructions: 176500783 cycles: 157720380 heartbeat IPC: 0.8349 cumulative IPC: 0.8718 (Simulation time: 00 hr 30 min 26 sec)
Heartbeat CPU 0 instructions: 177000785 cycles: 158316458 heartbeat IPC: 0.8388 cumulative IPC: 0.8717 (Simulation time: 00 hr 30 min 33 sec)
Heartbeat CPU 0 instructions: 177500791 cycles: 158912068 heartbeat IPC: 0.8395 cumulative IPC: 0.8716 (Simulation time: 00 hr 30 min 40 sec)
Heartbeat CPU 0 instructions: 178000791 cycles: 159507060 heartbeat IPC: 0.8403 cumulative IPC: 0.8714 (Simulation time: 00 hr 30 min 46 sec)
Heartbeat CPU 0 instructions: 178500792 cycles: 160088554 heartbeat IPC: 0.8599 cumulative IPC: 0.8714 (Simulation time: 00 hr 30 min 53 sec)
Heartbeat CPU 0 instructions: 179000794 cycles: 160687182 heartbeat IPC: 0.8352 cumulative IPC: 0.8712 (Simulation time: 00 hr 30 min 59 sec)
Heartbeat CPU 0 instructions: 179500794 cycles: 161287028 heartbeat IPC: 0.8335 cumulative IPC: 0.8711 (Simulation time: 00 hr 31 min 06 sec)
Heartbeat CPU 0 instructions: 180000796 cycles: 161884050 heartbeat IPC: 0.8375 cumulative IPC: 0.871 (Simulation time: 00 hr 31 min 13 sec)
Heartbeat CPU 0 instructions: 180500799 cycles: 162481938 heartbeat IPC: 0.8363 cumulative IPC: 0.8708 (Simulation time: 00 hr 31 min 19 sec)
Heartbeat CPU 0 instructions: 181000799 cycles: 163083579 heartbeat IPC: 0.8311 cumulative IPC: 0.8707 (Simulation time: 00 hr 31 min 26 sec)
Heartbeat CPU 0 instructions: 181500800 cycles: 163684656 heartbeat IPC: 0.8318 cumulative IPC: 0.8705 (Simulation time: 00 hr 31 min 33 sec)
Heartbeat CPU 0 instructions: 182000803 cycles: 164287244 heartbeat IPC: 0.8298 cumulative IPC: 0.8703 (Simulation time: 00 hr 31 min 39 sec)
Heartbeat CPU 0 instructions: 182500805 cycles: 164885965 heartbeat IPC: 0.8351 cumulative IPC: 0.8702 (Simulation time: 00 hr 31 min 46 sec)
Heartbeat CPU 0 instructions: 183000805 cycles: 165486467 heartbeat IPC: 0.8326 cumulative IPC: 0.8701 (Simulation time: 00 hr 31 min 53 sec)
Heartbeat CPU 0 instructions: 183500809 cycles: 166082963 heartbeat IPC: 0.8382 cumulative IPC: 0.8699 (Simulation time: 00 hr 31 min 59 sec)
Heartbeat CPU 0 instructions: 184000809 cycles: 166680093 heartbeat IPC: 0.8373 cumulative IPC: 0.8698 (Simulation time: 00 hr 32 min 06 sec)
Heartbeat CPU 0 instructions: 184500809 cycles: 167280102 heartbeat IPC: 0.8333 cumulative IPC: 0.8697 (Simulation time: 00 hr 32 min 13 sec)
Heartbeat CPU 0 instructions: 185000809 cycles: 167876732 heartbeat IPC: 0.838 cumulative IPC: 0.8695 (Simulation time: 00 hr 32 min 20 sec)
Heartbeat CPU 0 instructions: 185500809 cycles: 168470738 heartbeat IPC: 0.8417 cumulative IPC: 0.8694 (Simulation time: 00 hr 32 min 27 sec)
Heartbeat CPU 0 instructions: 186000811 cycles: 169075075 heartbeat IPC: 0.8274 cumulative IPC: 0.8693 (Simulation time: 00 hr 32 min 33 sec)
Heartbeat CPU 0 instructions: 186500812 cycles: 169674221 heartbeat IPC: 0.8345 cumulative IPC: 0.8691 (Simulation time: 00 hr 32 min 40 sec)
Heartbeat CPU 0 instructions: 187000812 cycles: 170277335 heartbeat IPC: 0.829 cumulative IPC: 0.869 (Simulation time: 00 hr 32 min 47 sec)
Heartbeat CPU 0 instructions: 187500813 cycles: 170883105 heartbeat IPC: 0.8254 cumulative IPC: 0.8688 (Simulation time: 00 hr 32 min 54 sec)
Heartbeat CPU 0 instructions: 188000819 cycles: 171483613 heartbeat IPC: 0.8326 cumulative IPC: 0.8687 (Simulation time: 00 hr 33 min 01 sec)
Heartbeat CPU 0 instructions: 188500819 cycles: 172077485 heartbeat IPC: 0.8419 cumulative IPC: 0.8686 (Simulation time: 00 hr 33 min 08 sec)
Heartbeat CPU 0 instructions: 189000820 cycles: 172674639 heartbeat IPC: 0.8373 cumulative IPC: 0.8685 (Simulation time: 00 hr 33 min 14 sec)
Heartbeat CPU 0 instructions: 189500821 cycles: 173267080 heartbeat IPC: 0.844 cumulative IPC: 0.8684 (Simulation time: 00 hr 33 min 21 sec)
Heartbeat CPU 0 instructions: 190000822 cycles: 173864578 heartbeat IPC: 0.8368 cumulative IPC: 0.8683 (Simulation time: 00 hr 33 min 28 sec)
Heartbeat CPU 0 instructions: 190500822 cycles: 174462509 heartbeat IPC: 0.8362 cumulative IPC: 0.8681 (Simulation time: 00 hr 33 min 34 sec)
Heartbeat CPU 0 instructions: 191000826 cycles: 175058285 heartbeat IPC: 0.8392 cumulative IPC: 0.868 (Simulation time: 00 hr 33 min 41 sec)
Heartbeat CPU 0 instructions: 191500828 cycles: 175634888 heartbeat IPC: 0.8672 cumulative IPC: 0.868 (Simulation time: 00 hr 33 min 47 sec)
Heartbeat CPU 0 instructions: 192000834 cycles: 176228925 heartbeat IPC: 0.8417 cumulative IPC: 0.8679 (Simulation time: 00 hr 33 min 54 sec)
Heartbeat CPU 0 instructions: 192500834 cycles: 176822521 heartbeat IPC: 0.8423 cumulative IPC: 0.8678 (Simulation time: 00 hr 34 min 01 sec)
Heartbeat CPU 0 instructions: 193000834 cycles: 177416101 heartbeat IPC: 0.8423 cumulative IPC: 0.8678 (Simulation time: 00 hr 34 min 07 sec)
Heartbeat CPU 0 instructions: 193500834 cycles: 178015776 heartbeat IPC: 0.8338 cumulative IPC: 0.8676 (Simulation time: 00 hr 34 min 14 sec)
Heartbeat CPU 0 instructions: 194000838 cycles: 178617968 heartbeat IPC: 0.8303 cumulative IPC: 0.8675 (Simulation time: 00 hr 34 min 21 sec)
Heartbeat CPU 0 instructions: 194500838 cycles: 179212217 heartbeat IPC: 0.8414 cumulative IPC: 0.8674 (Simulation time: 00 hr 34 min 27 sec)
Heartbeat CPU 0 instructions: 195000838 cycles: 179807562 heartbeat IPC: 0.8398 cumulative IPC: 0.8673 (Simulation time: 00 hr 34 min 34 sec)
Heartbeat CPU 0 instructions: 195500840 cycles: 180408762 heartbeat IPC: 0.8317 cumulative IPC: 0.8672 (Simulation time: 00 hr 34 min 40 sec)
Heartbeat CPU 0 instructions: 196000842 cycles: 180990372 heartbeat IPC: 0.8597 cumulative IPC: 0.8672 (Simulation time: 00 hr 34 min 47 sec)
Heartbeat CPU 0 instructions: 196500843 cycles: 181593167 heartbeat IPC: 0.8295 cumulative IPC: 0.867 (Simulation time: 00 hr 34 min 54 sec)
Heartbeat CPU 0 instructions: 197000844 cycles: 182208877 heartbeat IPC: 0.8121 cumulative IPC: 0.8668 (Simulation time: 00 hr 35 min 01 sec)
Heartbeat CPU 0 instructions: 197500844 cycles: 182838028 heartbeat IPC: 0.7947 cumulative IPC: 0.8666 (Simulation time: 00 hr 35 min 08 sec)
Heartbeat CPU 0 instructions: 198000846 cycles: 183454988 heartbeat IPC: 0.8104 cumulative IPC: 0.8664 (Simulation time: 00 hr 35 min 15 sec)
Heartbeat CPU 0 instructions: 198500847 cycles: 184061902 heartbeat IPC: 0.8238 cumulative IPC: 0.8662 (Simulation time: 00 hr 35 min 22 sec)
Heartbeat CPU 0 instructions: 199000850 cycles: 184678311 heartbeat IPC: 0.8112 cumulative IPC: 0.866 (Simulation time: 00 hr 35 min 29 sec)
Heartbeat CPU 0 instructions: 199500856 cycles: 185300673 heartbeat IPC: 0.8034 cumulative IPC: 0.8658 (Simulation time: 00 hr 35 min 36 sec)
Heartbeat CPU 0 instructions: 200000858 cycles: 185924143 heartbeat IPC: 0.802 cumulative IPC: 0.8655 (Simulation time: 00 hr 35 min 43 sec)
Heartbeat CPU 0 instructions: 200500864 cycles: 186558038 heartbeat IPC: 0.7888 cumulative IPC: 0.8653 (Simulation time: 00 hr 35 min 50 sec)
Heartbeat CPU 0 instructions: 201000866 cycles: 187171077 heartbeat IPC: 0.8156 cumulative IPC: 0.8651 (Simulation time: 00 hr 35 min 57 sec)
Heartbeat CPU 0 instructions: 201500866 cycles: 187783700 heartbeat IPC: 0.8162 cumulative IPC: 0.8649 (Simulation time: 00 hr 36 min 04 sec)
Heartbeat CPU 0 instructions: 202000867 cycles: 188405276 heartbeat IPC: 0.8044 cumulative IPC: 0.8647 (Simulation time: 00 hr 36 min 11 sec)
Heartbeat CPU 0 instructions: 202500870 cycles: 189026892 heartbeat IPC: 0.8044 cumulative IPC: 0.8645 (Simulation time: 00 hr 36 min 18 sec)
Heartbeat CPU 0 instructions: 203000875 cycles: 189658923 heartbeat IPC: 0.7911 cumulative IPC: 0.8642 (Simulation time: 00 hr 36 min 25 sec)
Heartbeat CPU 0 instructions: 203500875 cycles: 190282786 heartbeat IPC: 0.8015 cumulative IPC: 0.864 (Simulation time: 00 hr 36 min 32 sec)
Heartbeat CPU 0 instructions: 204000880 cycles: 190860268 heartbeat IPC: 0.8658 cumulative IPC: 0.864 (Simulation time: 00 hr 36 min 38 sec)
Heartbeat CPU 0 instructions: 204500880 cycles: 191446788 heartbeat IPC: 0.8525 cumulative IPC: 0.864 (Simulation time: 00 hr 36 min 45 sec)
Heartbeat CPU 0 instructions: 205000883 cycles: 192043669 heartbeat IPC: 0.8377 cumulative IPC: 0.8639 (Simulation time: 00 hr 36 min 51 sec)
Heartbeat CPU 0 instructions: 205500883 cycles: 192643668 heartbeat IPC: 0.8333 cumulative IPC: 0.8638 (Simulation time: 00 hr 36 min 58 sec)
Heartbeat CPU 0 instructions: 206000883 cycles: 193255911 heartbeat IPC: 0.8167 cumulative IPC: 0.8636 (Simulation time: 00 hr 37 min 05 sec)
Heartbeat CPU 0 instructions: 206500886 cycles: 193877394 heartbeat IPC: 0.8045 cumulative IPC: 0.8634 (Simulation time: 00 hr 37 min 12 sec)
Heartbeat CPU 0 instructions: 207000887 cycles: 194503112 heartbeat IPC: 0.7991 cumulative IPC: 0.8632 (Simulation time: 00 hr 37 min 19 sec)
Heartbeat CPU 0 instructions: 207500887 cycles: 195137694 heartbeat IPC: 0.7879 cumulative IPC: 0.8629 (Simulation time: 00 hr 37 min 26 sec)
Heartbeat CPU 0 instructions: 208000888 cycles: 195775194 heartbeat IPC: 0.7843 cumulative IPC: 0.8627 (Simulation time: 00 hr 37 min 33 sec)
Heartbeat CPU 0 instructions: 208500889 cycles: 196409466 heartbeat IPC: 0.7883 cumulative IPC: 0.8624 (Simulation time: 00 hr 37 min 40 sec)
Heartbeat CPU 0 instructions: 209000893 cycles: 197044146 heartbeat IPC: 0.7878 cumulative IPC: 0.8622 (Simulation time: 00 hr 37 min 47 sec)
Heartbeat CPU 0 instructions: 209500893 cycles: 197677846 heartbeat IPC: 0.789 cumulative IPC: 0.8619 (Simulation time: 00 hr 37 min 55 sec)
Heartbeat CPU 0 instructions: 210000893 cycles: 198310408 heartbeat IPC: 0.7904 cumulative IPC: 0.8617 (Simulation time: 00 hr 38 min 02 sec)
Heartbeat CPU 0 instructions: 210500893 cycles: 198950623 heartbeat IPC: 0.781 cumulative IPC: 0.8614 (Simulation time: 00 hr 38 min 09 sec)
Heartbeat CPU 0 instructions: 211000899 cycles: 199529973 heartbeat IPC: 0.863 cumulative IPC: 0.8614 (Simulation time: 00 hr 38 min 16 sec)
Heartbeat CPU 0 instructions: 211500899 cycles: 200135084 heartbeat IPC: 0.8263 cumulative IPC: 0.8613 (Simulation time: 00 hr 38 min 23 sec)
Heartbeat CPU 0 instructions: 212000900 cycles: 200748462 heartbeat IPC: 0.8152 cumulative IPC: 0.8611 (Simulation time: 00 hr 38 min 29 sec)
Heartbeat CPU 0 instructions: 212500906 cycles: 201360251 heartbeat IPC: 0.8173 cumulative IPC: 0.861 (Simulation time: 00 hr 38 min 36 sec)
Heartbeat CPU 0 instructions: 213000908 cycles: 201979477 heartbeat IPC: 0.8075 cumulative IPC: 0.8608 (Simulation time: 00 hr 38 min 43 sec)
Heartbeat CPU 0 instructions: 213500909 cycles: 202607119 heartbeat IPC: 0.7966 cumulative IPC: 0.8606 (Simulation time: 00 hr 38 min 51 sec)
Heartbeat CPU 0 instructions: 214000913 cycles: 203224779 heartbeat IPC: 0.8095 cumulative IPC: 0.8604 (Simulation time: 00 hr 38 min 58 sec)
Heartbeat CPU 0 instructions: 214500916 cycles: 203847893 heartbeat IPC: 0.8024 cumulative IPC: 0.8602 (Simulation time: 00 hr 39 min 05 sec)
Heartbeat CPU 0 instructions: 215000916 cycles: 204473531 heartbeat IPC: 0.7992 cumulative IPC: 0.86 (Simulation time: 00 hr 39 min 11 sec)
Heartbeat CPU 0 instructions: 215500917 cycles: 205101488 heartbeat IPC: 0.7962 cumulative IPC: 0.8598 (Simulation time: 00 hr 39 min 18 sec)
Heartbeat CPU 0 instructions: 216000917 cycles: 205733304 heartbeat IPC: 0.7914 cumulative IPC: 0.8596 (Simulation time: 00 hr 39 min 26 sec)
Heartbeat CPU 0 instructions: 216500924 cycles: 206349457 heartbeat IPC: 0.8115 cumulative IPC: 0.8595 (Simulation time: 00 hr 39 min 33 sec)
Heartbeat CPU 0 instructions: 217000927 cycles: 206934410 heartbeat IPC: 0.8548 cumulative IPC: 0.8594 (Simulation time: 00 hr 39 min 39 sec)
Heartbeat CPU 0 instructions: 217500927 cycles: 207538365 heartbeat IPC: 0.8279 cumulative IPC: 0.8594 (Simulation time: 00 hr 39 min 46 sec)
Heartbeat CPU 0 instructions: 218000929 cycles: 208140981 heartbeat IPC: 0.8297 cumulative IPC: 0.8593 (Simulation time: 00 hr 39 min 52 sec)
Heartbeat CPU 0 instructions: 218500932 cycles: 208749597 heartbeat IPC: 0.8215 cumulative IPC: 0.8591 (Simulation time: 00 hr 39 min 59 sec)
Heartbeat CPU 0 instructions: 219000932 cycles: 209370653 heartbeat IPC: 0.8051 cumulative IPC: 0.859 (Simulation time: 00 hr 40 min 06 sec)
Heartbeat CPU 0 instructions: 219500933 cycles: 210004223 heartbeat IPC: 0.7892 cumulative IPC: 0.8587 (Simulation time: 00 hr 40 min 13 sec)
Heartbeat CPU 0 instructions: 220000936 cycles: 210643667 heartbeat IPC: 0.7819 cumulative IPC: 0.8585 (Simulation time: 00 hr 40 min 20 sec)
Heartbeat CPU 0 instructions: 220500938 cycles: 211278525 heartbeat IPC: 0.7876 cumulative IPC: 0.8583 (Simulation time: 00 hr 40 min 27 sec)
Heartbeat CPU 0 instructions: 221000938 cycles: 211915233 heartbeat IPC: 0.7853 cumulative IPC: 0.858 (Simulation time: 00 hr 40 min 35 sec)
Heartbeat CPU 0 instructions: 221500942 cycles: 212553506 heartbeat IPC: 0.7834 cumulative IPC: 0.8578 (Simulation time: 00 hr 40 min 42 sec)
Heartbeat CPU 0 instructions: 222000942 cycles: 213190148 heartbeat IPC: 0.7854 cumulative IPC: 0.8576 (Simulation time: 00 hr 40 min 49 sec)
Heartbeat CPU 0 instructions: 222500942 cycles: 213825994 heartbeat IPC: 0.7864 cumulative IPC: 0.8573 (Simulation time: 00 hr 40 min 56 sec)
Heartbeat CPU 0 instructions: 223000942 cycles: 214459861 heartbeat IPC: 0.7888 cumulative IPC: 0.8571 (Simulation time: 00 hr 41 min 03 sec)
Heartbeat CPU 0 instructions: 223500943 cycles: 215038013 heartbeat IPC: 0.8648 cumulative IPC: 0.8572 (Simulation time: 00 hr 41 min 10 sec)
Heartbeat CPU 0 instructions: 224000946 cycles: 215643020 heartbeat IPC: 0.8264 cumulative IPC: 0.8571 (Simulation time: 00 hr 41 min 17 sec)
Heartbeat CPU 0 instructions: 224500951 cycles: 216251450 heartbeat IPC: 0.8218 cumulative IPC: 0.857 (Simulation time: 00 hr 41 min 24 sec)
Heartbeat CPU 0 instructions: 225000957 cycles: 216867789 heartbeat IPC: 0.8113 cumulative IPC: 0.8568 (Simulation time: 00 hr 41 min 31 sec)
Heartbeat CPU 0 instructions: 225500959 cycles: 217492072 heartbeat IPC: 0.8009 cumulative IPC: 0.8566 (Simulation time: 00 hr 41 min 38 sec)
Heartbeat CPU 0 instructions: 226000959 cycles: 218116349 heartbeat IPC: 0.8009 cumulative IPC: 0.8565 (Simulation time: 00 hr 41 min 45 sec)
Heartbeat CPU 0 instructions: 226500959 cycles: 218721974 heartbeat IPC: 0.8256 cumulative IPC: 0.8564 (Simulation time: 00 hr 41 min 52 sec)
Heartbeat CPU 0 instructions: 227000960 cycles: 219339273 heartbeat IPC: 0.81 cumulative IPC: 0.8562 (Simulation time: 00 hr 41 min 59 sec)
Heartbeat CPU 0 instructions: 227500965 cycles: 219962118 heartbeat IPC: 0.8028 cumulative IPC: 0.8561 (Simulation time: 00 hr 42 min 06 sec)
Heartbeat CPU 0 instructions: 228000969 cycles: 220593886 heartbeat IPC: 0.7914 cumulative IPC: 0.8559 (Simulation time: 00 hr 42 min 13 sec)
Heartbeat CPU 0 instructions: 228500973 cycles: 221220524 heartbeat IPC: 0.7979 cumulative IPC: 0.8557 (Simulation time: 00 hr 42 min 20 sec)
Heartbeat CPU 0 instructions: 229000973 cycles: 221850358 heartbeat IPC: 0.7939 cumulative IPC: 0.8555 (Simulation time: 00 hr 42 min 27 sec)
Heartbeat CPU 0 instructions: 229500974 cycles: 222433565 heartbeat IPC: 0.8573 cumulative IPC: 0.8555 (Simulation time: 00 hr 42 min 33 sec)
Heartbeat CPU 0 instructions: 230000974 cycles: 223037204 heartbeat IPC: 0.8283 cumulative IPC: 0.8555 (Simulation time: 00 hr 42 min 40 sec)
Heartbeat CPU 0 instructions: 230500974 cycles: 223648238 heartbeat IPC: 0.8183 cumulative IPC: 0.8554 (Simulation time: 00 hr 42 min 47 sec)
Heartbeat CPU 0 instructions: 231000974 cycles: 224272073 heartbeat IPC: 0.8015 cumulative IPC: 0.8552 (Simulation time: 00 hr 42 min 54 sec)
Heartbeat CPU 0 instructions: 231500974 cycles: 224898096 heartbeat IPC: 0.7987 cumulative IPC: 0.855 (Simulation time: 00 hr 43 min 01 sec)
Heartbeat CPU 0 instructions: 232000978 cycles: 225526150 heartbeat IPC: 0.7961 cumulative IPC: 0.8549 (Simulation time: 00 hr 43 min 08 sec)
Heartbeat CPU 0 instructions: 232500978 cycles: 226159995 heartbeat IPC: 0.7888 cumulative IPC: 0.8547 (Simulation time: 00 hr 43 min 15 sec)
Heartbeat CPU 0 instructions: 233000978 cycles: 226792715 heartbeat IPC: 0.7902 cumulative IPC: 0.8545 (Simulation time: 00 hr 43 min 22 sec)
Heartbeat CPU 0 instructions: 233500980 cycles: 227421923 heartbeat IPC: 0.7947 cumulative IPC: 0.8543 (Simulation time: 00 hr 43 min 29 sec)
Heartbeat CPU 0 instructions: 234000980 cycles: 228056060 heartbeat IPC: 0.7885 cumulative IPC: 0.8541 (Simulation time: 00 hr 43 min 36 sec)
Heartbeat CPU 0 instructions: 234500984 cycles: 228684790 heartbeat IPC: 0.7953 cumulative IPC: 0.8539 (Simulation time: 00 hr 43 min 43 sec)
Heartbeat CPU 0 instructions: 235000984 cycles: 229316545 heartbeat IPC: 0.7914 cumulative IPC: 0.8537 (Simulation time: 00 hr 43 min 50 sec)
Heartbeat CPU 0 instructions: 235500984 cycles: 229944721 heartbeat IPC: 0.796 cumulative IPC: 0.8536 (Simulation time: 00 hr 43 min 57 sec)
Heartbeat CPU 0 instructions: 236000987 cycles: 230564026 heartbeat IPC: 0.8074 cumulative IPC: 0.8534 (Simulation time: 00 hr 44 min 04 sec)
Heartbeat CPU 0 instructions: 236500993 cycles: 231169508 heartbeat IPC: 0.8258 cumulative IPC: 0.8534 (Simulation time: 00 hr 44 min 11 sec)
Heartbeat CPU 0 instructions: 237000999 cycles: 231775465 heartbeat IPC: 0.8252 cumulative IPC: 0.8533 (Simulation time: 00 hr 44 min 18 sec)
Heartbeat CPU 0 instructions: 237501001 cycles: 232386728 heartbeat IPC: 0.818 cumulative IPC: 0.8532 (Simulation time: 00 hr 44 min 25 sec)
Heartbeat CPU 0 instructions: 238001007 cycles: 233008668 heartbeat IPC: 0.8039 cumulative IPC: 0.8531 (Simulation time: 00 hr 44 min 32 sec)
Heartbeat CPU 0 instructions: 238501009 cycles: 233625612 heartbeat IPC: 0.8104 cumulative IPC: 0.8529 (Simulation time: 00 hr 44 min 39 sec)
Heartbeat CPU 0 instructions: 239001013 cycles: 234237036 heartbeat IPC: 0.8178 cumulative IPC: 0.8528 (Simulation time: 00 hr 44 min 46 sec)
Heartbeat CPU 0 instructions: 239501020 cycles: 234845248 heartbeat IPC: 0.8221 cumulative IPC: 0.8528 (Simulation time: 00 hr 44 min 52 sec)
Heartbeat CPU 0 instructions: 240001021 cycles: 235459555 heartbeat IPC: 0.8139 cumulative IPC: 0.8526 (Simulation time: 00 hr 44 min 59 sec)
Heartbeat CPU 0 instructions: 240501027 cycles: 236082514 heartbeat IPC: 0.8026 cumulative IPC: 0.8525 (Simulation time: 00 hr 45 min 06 sec)
Heartbeat CPU 0 instructions: 241001029 cycles: 236711767 heartbeat IPC: 0.7946 cumulative IPC: 0.8523 (Simulation time: 00 hr 45 min 13 sec)
Heartbeat CPU 0 instructions: 241501029 cycles: 237340421 heartbeat IPC: 0.7954 cumulative IPC: 0.8522 (Simulation time: 00 hr 45 min 20 sec)
Heartbeat CPU 0 instructions: 242001034 cycles: 237925394 heartbeat IPC: 0.8547 cumulative IPC: 0.8522 (Simulation time: 00 hr 45 min 26 sec)
Heartbeat CPU 0 instructions: 242501035 cycles: 238523997 heartbeat IPC: 0.8353 cumulative IPC: 0.8521 (Simulation time: 00 hr 45 min 33 sec)
Heartbeat CPU 0 instructions: 243001037 cycles: 239128926 heartbeat IPC: 0.8265 cumulative IPC: 0.8521 (Simulation time: 00 hr 45 min 39 sec)
Heartbeat CPU 0 instructions: 243501037 cycles: 239731712 heartbeat IPC: 0.8295 cumulative IPC: 0.852 (Simulation time: 00 hr 45 min 46 sec)
Heartbeat CPU 0 instructions: 244001037 cycles: 240338517 heartbeat IPC: 0.824 cumulative IPC: 0.8519 (Simulation time: 00 hr 45 min 53 sec)
Heartbeat CPU 0 instructions: 244501043 cycles: 240960949 heartbeat IPC: 0.8033 cumulative IPC: 0.8518 (Simulation time: 00 hr 45 min 59 sec)
Heartbeat CPU 0 instructions: 245001048 cycles: 241591726 heartbeat IPC: 0.7927 cumulative IPC: 0.8516 (Simulation time: 00 hr 46 min 06 sec)
Heartbeat CPU 0 instructions: 245501048 cycles: 242225890 heartbeat IPC: 0.7884 cumulative IPC: 0.8515 (Simulation time: 00 hr 46 min 13 sec)
Heartbeat CPU 0 instructions: 246001049 cycles: 242855197 heartbeat IPC: 0.7945 cumulative IPC: 0.8513 (Simulation time: 00 hr 46 min 20 sec)
Heartbeat CPU 0 instructions: 246501050 cycles: 243492802 heartbeat IPC: 0.7842 cumulative IPC: 0.8511 (Simulation time: 00 hr 46 min 27 sec)
Heartbeat CPU 0 instructions: 247001054 cycles: 244124717 heartbeat IPC: 0.7913 cumulative IPC: 0.851 (Simulation time: 00 hr 46 min 34 sec)
Heartbeat CPU 0 instructions: 247501054 cycles: 244755543 heartbeat IPC: 0.7926 cumulative IPC: 0.8508 (Simulation time: 00 hr 46 min 41 sec)
Heartbeat CPU 0 instructions: 248001054 cycles: 245394105 heartbeat IPC: 0.783 cumulative IPC: 0.8506 (Simulation time: 00 hr 46 min 48 sec)
Heartbeat CPU 0 instructions: 248501054 cycles: 246022148 heartbeat IPC: 0.7961 cumulative IPC: 0.8505 (Simulation time: 00 hr 46 min 55 sec)
Heartbeat CPU 0 instructions: 249001058 cycles: 246626386 heartbeat IPC: 0.8275 cumulative IPC: 0.8504 (Simulation time: 00 hr 47 min 02 sec)
Heartbeat CPU 0 instructions: 249501064 cycles: 247238223 heartbeat IPC: 0.8172 cumulative IPC: 0.8503 (Simulation time: 00 hr 47 min 08 sec)
Simulation finished CPU 0 instructions: 200000000 cycles: 235225010 cumulative IPC: 0.8502 (Simulation time: 00 hr 47 min 15 sec)
Simulation complete CPU 0 instructions: 200000000 cycles: 235225010 cumulative IPC: 0.8502 (Simulation time: 00 hr 47 min 15 sec)

ChampSim completed all CPUs

=== Simulation ===
CPU 0 runs /local-ssd/ben/dpc4-traces/ai-ml/llama2.c-stories110M.2.champsimtrace.gz

Region of Interest Statistics

CPU 0 cumulative IPC: 0.8502 instructions: 200000000 cycles: 235225010
CPU 0 Branch Prediction Accuracy: 99.54% MPKI: 0.6592 Average ROB Occupancy at Mispredict: 569.7
Branch type MPKI
BRANCH_DIRECT_JUMP: 0.000105
BRANCH_INDIRECT: 5e-06
BRANCH_CONDITIONAL: 0.6588
BRANCH_DIRECT_CALL: 0.00012
BRANCH_INDIRECT_CALL: 2.5e-05
BRANCH_RETURN: 0.00014

cpu0->cpu0_STLB TOTAL        ACCESS:     110111 HIT:        129 MISS:     109982 MSHR_MERGE:          0
cpu0->cpu0_STLB LOAD         ACCESS:     110111 HIT:        129 MISS:     109982 MSHR_MERGE:          0
cpu0->cpu0_STLB RFO          ACCESS:          0 HIT:          0 MISS:          0 MSHR_MERGE:          0
cpu0->cpu0_STLB PREFETCH     ACCESS:          0 HIT:          0 MISS:          0 MSHR_MERGE:          0
cpu0->cpu0_STLB WRITE        ACCESS:          0 HIT:          0 MISS:          0 MSHR_MERGE:          0
cpu0->cpu0_STLB TRANSLATION  ACCESS:          0 HIT:          0 MISS:          0 MSHR_MERGE:          0
cpu0->cpu0_STLB PREFETCH REQUESTED:          0 ISSUED:          0 USEFUL:          0 USELESS:          0
cpu0->cpu0_STLB AVERAGE MISS LATENCY: 188 cycles
cpu0->cpu0_L2C TOTAL        ACCESS:    7053812 HIT:      29654 MISS:    7024158 MSHR_MERGE:          0
cpu0->cpu0_L2C LOAD         ACCESS:    7001103 HIT:       1791 MISS:    6999312 MSHR_MERGE:          0
cpu0->cpu0_L2C RFO          ACCESS:      16737 HIT:       8568 MISS:       8169 MSHR_MERGE:          0
cpu0->cpu0_L2C PREFETCH     ACCESS:          0 HIT:          0 MISS:          0 MSHR_MERGE:          0
cpu0->cpu0_L2C WRITE        ACCESS:      21443 HIT:      19181 MISS:       2262 MSHR_MERGE:          0
cpu0->cpu0_L2C TRANSLATION  ACCESS:      14529 HIT:        114 MISS:      14415 MSHR_MERGE:          0
cpu0->cpu0_L2C PREFETCH REQUESTED:          0 ISSUED:          0 USEFUL:          0 USELESS:          0
cpu0->cpu0_L2C AVERAGE MISS LATENCY: 197 cycles
cpu0->cpu0_L1I TOTAL        ACCESS:   28118118 HIT:   28117958 MISS:        160 MSHR_MERGE:         14
cpu0->cpu0_L1I LOAD         ACCESS:   28118118 HIT:   28117958 MISS:        160 MSHR_MERGE:         14
cpu0->cpu0_L1I RFO          ACCESS:          0 HIT:          0 MISS:          0 MSHR_MERGE:          0
cpu0->cpu0_L1I PREFETCH     ACCESS:          0 HIT:          0 MISS:          0 MSHR_MERGE:          0
cpu0->cpu0_L1I WRITE        ACCESS:          0 HIT:          0 MISS:          0 MSHR_MERGE:          0
cpu0->cpu0_L1I TRANSLATION  ACCESS:          0 HIT:          0 MISS:          0 MSHR_MERGE:          0
cpu0->cpu0_L1I PREFETCH REQUESTED:          0 ISSUED:          0 USEFUL:          0 USELESS:          0
cpu0->cpu0_L1I AVERAGE MISS LATENCY: 237 cycles
cpu0->cpu0_L1D TOTAL        ACCESS:   39713798 HIT:   20753066 MISS:   18960732 MSHR_MERGE:   11928501
cpu0->cpu0_L1D LOAD         ACCESS:   39285772 HIT:   20356708 MISS:   18929064 MSHR_MERGE:   11928108
cpu0->cpu0_L1D RFO          ACCESS:          0 HIT:          0 MISS:          0 MSHR_MERGE:          0
cpu0->cpu0_L1D PREFETCH     ACCESS:          0 HIT:          0 MISS:          0 MSHR_MERGE:          0
cpu0->cpu0_L1D WRITE        ACCESS:     207776 HIT:     190639 MISS:      17137 MSHR_MERGE:        391
cpu0->cpu0_L1D TRANSLATION  ACCESS:     220250 HIT:     205719 MISS:      14531 MSHR_MERGE:          2
cpu0->cpu0_L1D PREFETCH REQUESTED:          0 ISSUED:          0 USEFUL:          0 USELESS:          0
cpu0->cpu0_L1D AVERAGE MISS LATENCY: 205.8 cycles
cpu0->cpu0_ITLB TOTAL        ACCESS:   24314831 HIT:   24314806 MISS:         25 MSHR_MERGE:          4
cpu0->cpu0_ITLB LOAD         ACCESS:   24314831 HIT:   24314806 MISS:         25 MSHR_MERGE:          4
cpu0->cpu0_ITLB RFO          ACCESS:          0 HIT:          0 MISS:          0 MSHR_MERGE:          0
cpu0->cpu0_ITLB PREFETCH     ACCESS:          0 HIT:          0 MISS:          0 MSHR_MERGE:          0
cpu0->cpu0_ITLB WRITE        ACCESS:          0 HIT:          0 MISS:          0 MSHR_MERGE:          0
cpu0->cpu0_ITLB TRANSLATION  ACCESS:          0 HIT:          0 MISS:          0 MSHR_MERGE:          0
cpu0->cpu0_ITLB PREFETCH REQUESTED:          0 ISSUED:          0 USEFUL:          0 USELESS:          0
cpu0->cpu0_ITLB AVERAGE MISS LATENCY: 385 cycles
cpu0->cpu0_DTLB TOTAL        ACCESS:   39482036 HIT:   38015741 MISS:    1466295 MSHR_MERGE:    1356205
cpu0->cpu0_DTLB LOAD         ACCESS:   39482036 HIT:   38015741 MISS:    1466295 MSHR_MERGE:    1356205
cpu0->cpu0_DTLB RFO          ACCESS:          0 HIT:          0 MISS:          0 MSHR_MERGE:          0
cpu0->cpu0_DTLB PREFETCH     ACCESS:          0 HIT:          0 MISS:          0 MSHR_MERGE:          0
cpu0->cpu0_DTLB WRITE        ACCESS:          0 HIT:          0 MISS:          0 MSHR_MERGE:          0
cpu0->cpu0_DTLB TRANSLATION  ACCESS:          0 HIT:          0 MISS:          0 MSHR_MERGE:          0
cpu0->cpu0_DTLB PREFETCH REQUESTED:          0 ISSUED:          0 USEFUL:          0 USELESS:          0
cpu0->cpu0_DTLB AVERAGE MISS LATENCY: 193.7 cycles
cpu0->LLC TOTAL        ACCESS:    7034771 HIT:      19781 MISS:    7014990 MSHR_MERGE:          0
cpu0->LLC LOAD         ACCESS:    6999311 HIT:       5981 MISS:    6993330 MSHR_MERGE:          0
cpu0->LLC RFO          ACCESS:       8169 HIT:       4032 MISS:       4137 MSHR_MERGE:          0
cpu0->LLC PREFETCH     ACCESS:          0 HIT:          0 MISS:          0 MSHR_MERGE:          0
cpu0->LLC WRITE        ACCESS:      12876 HIT:       9435 MISS:       3441 MSHR_MERGE:          0
cpu0->LLC TRANSLATION  ACCESS:      14415 HIT:        333 MISS:      14082 MSHR_MERGE:          0
cpu0->LLC PREFETCH REQUESTED:          0 ISSUED:          0 USEFUL:          0 USELESS:          0
cpu0->LLC AVERAGE MISS LATENCY: 174.2 cycles

DRAM Statistics

Channel 0 RQ ROW_BUFFER_HIT:    2939134
  ROW_BUFFER_MISS:    4072397
  AVG DBUS CONGESTED CYCLE: 18.43
Channel 0 WQ ROW_BUFFER_HIT:       1636
  ROW_BUFFER_MISS:       2985
  FULL:          0
Channel 0 REFRESHES ISSUED:      19601
