[VMEM] WARNING: physical memory size is smaller than virtual memory size.

*** ChampSim Multicore Out-of-Order Simulator ***
Warmup Instructions: 50000000
Simulation Instructions: 200000000
Number of CPUs: 1
Page size: 4096
Core 0: /local-ssd/ben/dpc4-traces/Graph/Ligra/ligra_MIS.com-lj.ungraph.gcc_6.3.0_O3.drop_21250M.length_250M.champsimtrace.xz
Off-chip DRAM Size: 64 GiB Channels: 1 Width: 64-bit Data Rate: 4807 MT/s
Heartbeat CPU 0 instructions: 500007 cycles: 231622 heartbeat IPC: 2.159 cumulative IPC: 2.159 (Simulation time: 00 hr 00 min 03 sec)
Heartbeat CPU 0 instructions: 1000007 cycles: 461431 heartbeat IPC: 2.176 cumulative IPC: 2.167 (Simulation time: 00 hr 00 min 06 sec)
Heartbeat CPU 0 instructions: 1500007 cycles: 691938 heartbeat IPC: 2.169 cumulative IPC: 2.168 (Simulation time: 00 hr 00 min 08 sec)
Heartbeat CPU 0 instructions: 2000007 cycles: 921310 heartbeat IPC: 2.18 cumulative IPC: 2.171 (Simulation time: 00 hr 00 min 11 sec)
Heartbeat CPU 0 instructions: 2500009 cycles: 1151212 heartbeat IPC: 2.175 cumulative IPC: 2.172 (Simulation time: 00 hr 00 min 14 sec)
Heartbeat CPU 0 instructions: 3000015 cycles: 1381069 heartbeat IPC: 2.175 cumulative IPC: 2.172 (Simulation time: 00 hr 00 min 17 sec)
Heartbeat CPU 0 instructions: 3500017 cycles: 1610757 heartbeat IPC: 2.177 cumulative IPC: 2.173 (Simulation time: 00 hr 00 min 20 sec)
Heartbeat CPU 0 instructions: 4000023 cycles: 1840958 heartbeat IPC: 2.172 cumulative IPC: 2.173 (Simulation time: 00 hr 00 min 23 sec)
Heartbeat CPU 0 instructions: 4500028 cycles: 2071223 heartbeat IPC: 2.171 cumulative IPC: 2.173 (Simulation time: 00 hr 00 min 27 sec)
Heartbeat CPU 0 instructions: 5000028 cycles: 2301159 heartbeat IPC: 2.175 cumulative IPC: 2.173 (Simulation time: 00 hr 00 min 30 sec)
Heartbeat CPU 0 instructions: 5500028 cycles: 2530844 heartbeat IPC: 2.177 cumulative IPC: 2.173 (Simulation time: 00 hr 00 min 33 sec)
Heartbeat CPU 0 instructions: 6000031 cycles: 2761192 heartbeat IPC: 2.171 cumulative IPC: 2.173 (Simulation time: 00 hr 00 min 36 sec)
Heartbeat CPU 0 instructions: 6500031 cycles: 2991031 heartbeat IPC: 2.175 cumulative IPC: 2.173 (Simulation time: 00 hr 00 min 39 sec)
Heartbeat CPU 0 instructions: 7000031 cycles: 3220654 heartbeat IPC: 2.177 cumulative IPC: 2.173 (Simulation time: 00 hr 00 min 42 sec)
Heartbeat CPU 0 instructions: 7500033 cycles: 3450949 heartbeat IPC: 2.171 cumulative IPC: 2.173 (Simulation time: 00 hr 00 min 45 sec)
Heartbeat CPU 0 instructions: 8000033 cycles: 3680659 heartbeat IPC: 2.177 cumulative IPC: 2.174 (Simulation time: 00 hr 00 min 48 sec)
Heartbeat CPU 0 instructions: 8500033 cycles: 3910493 heartbeat IPC: 2.175 cumulative IPC: 2.174 (Simulation time: 00 hr 00 min 51 sec)
Heartbeat CPU 0 instructions: 9000036 cycles: 4141028 heartbeat IPC: 2.169 cumulative IPC: 2.173 (Simulation time: 00 hr 00 min 54 sec)
Heartbeat CPU 0 instructions: 9500039 cycles: 4371429 heartbeat IPC: 2.17 cumulative IPC: 2.173 (Simulation time: 00 hr 00 min 57 sec)
Heartbeat CPU 0 instructions: 10000044 cycles: 4601410 heartbeat IPC: 2.174 cumulative IPC: 2.173 (Simulation time: 00 hr 01 min 00 sec)
Heartbeat CPU 0 instructions: 10500047 cycles: 4831962 heartbeat IPC: 2.169 cumulative IPC: 2.173 (Simulation time: 00 hr 01 min 03 sec)
Heartbeat CPU 0 instructions: 11000047 cycles: 5061691 heartbeat IPC: 2.176 cumulative IPC: 2.173 (Simulation time: 00 hr 01 min 06 sec)
Heartbeat CPU 0 instructions: 11500047 cycles: 5291756 heartbeat IPC: 2.173 cumulative IPC: 2.173 (Simulation time: 00 hr 01 min 09 sec)
Heartbeat CPU 0 instructions: 12000047 cycles: 5522086 heartbeat IPC: 2.171 cumulative IPC: 2.173 (Simulation time: 00 hr 01 min 12 sec)
Heartbeat CPU 0 instructions: 12500047 cycles: 5752286 heartbeat IPC: 2.172 cumulative IPC: 2.173 (Simulation time: 00 hr 01 min 15 sec)
Heartbeat CPU 0 instructions: 13000049 cycles: 5982111 heartbeat IPC: 2.176 cumulative IPC: 2.173 (Simulation time: 00 hr 01 min 18 sec)
Heartbeat CPU 0 instructions: 13500049 cycles: 6212343 heartbeat IPC: 2.172 cumulative IPC: 2.173 (Simulation time: 00 hr 01 min 21 sec)
Heartbeat CPU 0 instructions: 14000052 cycles: 6442320 heartbeat IPC: 2.174 cumulative IPC: 2.173 (Simulation time: 00 hr 01 min 24 sec)
Heartbeat CPU 0 instructions: 14500052 cycles: 6671740 heartbeat IPC: 2.179 cumulative IPC: 2.173 (Simulation time: 00 hr 01 min 27 sec)
Heartbeat CPU 0 instructions: 15000055 cycles: 6901829 heartbeat IPC: 2.173 cumulative IPC: 2.173 (Simulation time: 00 hr 01 min 30 sec)
Heartbeat CPU 0 instructions: 15500055 cycles: 7131530 heartbeat IPC: 2.177 cumulative IPC: 2.173 (Simulation time: 00 hr 01 min 33 sec)
Heartbeat CPU 0 instructions: 16000055 cycles: 7361509 heartbeat IPC: 2.174 cumulative IPC: 2.173 (Simulation time: 00 hr 01 min 36 sec)
Heartbeat CPU 0 instructions: 16500057 cycles: 7591548 heartbeat IPC: 2.174 cumulative IPC: 2.173 (Simulation time: 00 hr 01 min 39 sec)
Heartbeat CPU 0 instructions: 17000063 cycles: 7821759 heartbeat IPC: 2.172 cumulative IPC: 2.173 (Simulation time: 00 hr 01 min 42 sec)
Heartbeat CPU 0 instructions: 17500065 cycles: 8051835 heartbeat IPC: 2.173 cumulative IPC: 2.173 (Simulation time: 00 hr 01 min 46 sec)
Heartbeat CPU 0 instructions: 18000065 cycles: 8282124 heartbeat IPC: 2.171 cumulative IPC: 2.173 (Simulation time: 00 hr 01 min 49 sec)
Heartbeat CPU 0 instructions: 18500071 cycles: 8511829 heartbeat IPC: 2.177 cumulative IPC: 2.173 (Simulation time: 00 hr 01 min 52 sec)
Heartbeat CPU 0 instructions: 19000076 cycles: 8742698 heartbeat IPC: 2.166 cumulative IPC: 2.173 (Simulation time: 00 hr 01 min 55 sec)
Heartbeat CPU 0 instructions: 19500079 cycles: 8972450 heartbeat IPC: 2.176 cumulative IPC: 2.173 (Simulation time: 00 hr 01 min 58 sec)
Heartbeat CPU 0 instructions: 20000081 cycles: 9202491 heartbeat IPC: 2.174 cumulative IPC: 2.173 (Simulation time: 00 hr 02 min 01 sec)
Heartbeat CPU 0 instructions: 20500087 cycles: 9433142 heartbeat IPC: 2.168 cumulative IPC: 2.173 (Simulation time: 00 hr 02 min 04 sec)
Heartbeat CPU 0 instructions: 21000087 cycles: 9663486 heartbeat IPC: 2.171 cumulative IPC: 2.173 (Simulation time: 00 hr 02 min 07 sec)
Heartbeat CPU 0 instructions: 21500087 cycles: 9893119 heartbeat IPC: 2.177 cumulative IPC: 2.173 (Simulation time: 00 hr 02 min 10 sec)
Heartbeat CPU 0 instructions: 22000089 cycles: 10123254 heartbeat IPC: 2.173 cumulative IPC: 2.173 (Simulation time: 00 hr 02 min 13 sec)
Heartbeat CPU 0 instructions: 22500089 cycles: 10353636 heartbeat IPC: 2.17 cumulative IPC: 2.173 (Simulation time: 00 hr 02 min 16 sec)
Heartbeat CPU 0 instructions: 23000095 cycles: 10583271 heartbeat IPC: 2.177 cumulative IPC: 2.173 (Simulation time: 00 hr 02 min 19 sec)
Heartbeat CPU 0 instructions: 23500100 cycles: 10813435 heartbeat IPC: 2.172 cumulative IPC: 2.173 (Simulation time: 00 hr 02 min 23 sec)
Heartbeat CPU 0 instructions: 24000103 cycles: 11043010 heartbeat IPC: 2.178 cumulative IPC: 2.173 (Simulation time: 00 hr 02 min 26 sec)
Heartbeat CPU 0 instructions: 24500103 cycles: 11272508 heartbeat IPC: 2.179 cumulative IPC: 2.173 (Simulation time: 00 hr 02 min 30 sec)
Heartbeat CPU 0 instructions: 25000103 cycles: 11502562 heartbeat IPC: 2.173 cumulative IPC: 2.173 (Simulation time: 00 hr 02 min 33 sec)
Heartbeat CPU 0 instructions: 25500105 cycles: 11733015 heartbeat IPC: 2.17 cumulative IPC: 2.173 (Simulation time: 00 hr 02 min 37 sec)
Heartbeat CPU 0 instructions: 26000105 cycles: 11962776 heartbeat IPC: 2.176 cumulative IPC: 2.173 (Simulation time: 00 hr 02 min 40 sec)
Heartbeat CPU 0 instructions: 26500105 cycles: 12192910 heartbeat IPC: 2.173 cumulative IPC: 2.173 (Simulation time: 00 hr 02 min 43 sec)
Heartbeat CPU 0 instructions: 27000105 cycles: 12422502 heartbeat IPC: 2.178 cumulative IPC: 2.173 (Simulation time: 00 hr 02 min 47 sec)
Heartbeat CPU 0 instructions: 27500105 cycles: 12652584 heartbeat IPC: 2.173 cumulative IPC: 2.173 (Simulation time: 00 hr 02 min 50 sec)
Heartbeat CPU 0 instructions: 28000108 cycles: 12882876 heartbeat IPC: 2.171 cumulative IPC: 2.173 (Simulation time: 00 hr 02 min 54 sec)
Heartbeat CPU 0 instructions: 28500111 cycles: 13113275 heartbeat IPC: 2.17 cumulative IPC: 2.173 (Simulation time: 00 hr 02 min 57 sec)
Heartbeat CPU 0 instructions: 29000113 cycles: 13342783 heartbeat IPC: 2.179 cumulative IPC: 2.173 (Simulation time: 00 hr 03 min 01 sec)
Heartbeat CPU 0 instructions: 29500119 cycles: 13573038 heartbeat IPC: 2.172 cumulative IPC: 2.173 (Simulation time: 00 hr 03 min 04 sec)
Heartbeat CPU 0 instructions: 30000119 cycles: 13803523 heartbeat IPC: 2.169 cumulative IPC: 2.173 (Simulation time: 00 hr 03 min 07 sec)
Heartbeat CPU 0 instructions: 30500121 cycles: 14033986 heartbeat IPC: 2.17 cumulative IPC: 2.173 (Simulation time: 00 hr 03 min 11 sec)
Heartbeat CPU 0 instructions: 31000121 cycles: 14264288 heartbeat IPC: 2.171 cumulative IPC: 2.173 (Simulation time: 00 hr 03 min 14 sec)
Heartbeat CPU 0 instructions: 31500121 cycles: 14494797 heartbeat IPC: 2.169 cumulative IPC: 2.173 (Simulation time: 00 hr 03 min 18 sec)
Heartbeat CPU 0 instructions: 32000127 cycles: 14725306 heartbeat IPC: 2.169 cumulative IPC: 2.173 (Simulation time: 00 hr 03 min 21 sec)
Heartbeat CPU 0 instructions: 32500132 cycles: 14955365 heartbeat IPC: 2.173 cumulative IPC: 2.173 (Simulation time: 00 hr 03 min 25 sec)
Heartbeat CPU 0 instructions: 33000135 cycles: 15185234 heartbeat IPC: 2.175 cumulative IPC: 2.173 (Simulation time: 00 hr 03 min 28 sec)
Heartbeat CPU 0 instructions: 33500135 cycles: 15415384 heartbeat IPC: 2.172 cumulative IPC: 2.173 (Simulation time: 00 hr 03 min 31 sec)
Heartbeat CPU 0 instructions: 34000135 cycles: 15645668 heartbeat IPC: 2.171 cumulative IPC: 2.173 (Simulation time: 00 hr 03 min 35 sec)
Heartbeat CPU 0 instructions: 34500140 cycles: 15876029 heartbeat IPC: 2.171 cumulative IPC: 2.173 (Simulation time: 00 hr 03 min 38 sec)
Heartbeat CPU 0 instructions: 35000145 cycles: 16105929 heartbeat IPC: 2.175 cumulative IPC: 2.173 (Simulation time: 00 hr 03 min 42 sec)
Heartbeat CPU 0 instructions: 35500145 cycles: 16336038 heartbeat IPC: 2.173 cumulative IPC: 2.173 (Simulation time: 00 hr 03 min 45 sec)
Heartbeat CPU 0 instructions: 36000145 cycles: 16565970 heartbeat IPC: 2.175 cumulative IPC: 2.173 (Simulation time: 00 hr 03 min 48 sec)
Heartbeat CPU 0 instructions: 36500151 cycles: 16795767 heartbeat IPC: 2.176 cumulative IPC: 2.173 (Simulation time: 00 hr 03 min 52 sec)
Heartbeat CPU 0 instructions: 37000156 cycles: 17025968 heartbeat IPC: 2.172 cumulative IPC: 2.173 (Simulation time: 00 hr 03 min 55 sec)
Heartbeat CPU 0 instructions: 37500159 cycles: 17255580 heartbeat IPC: 2.178 cumulative IPC: 2.173 (Simulation time: 00 hr 03 min 59 sec)
Heartbeat CPU 0 instructions: 38000159 cycles: 17485448 heartbeat IPC: 2.175 cumulative IPC: 2.173 (Simulation time: 00 hr 04 min 02 sec)
Heartbeat CPU 0 instructions: 38500159 cycles: 17715454 heartbeat IPC: 2.174 cumulative IPC: 2.173 (Simulation time: 00 hr 04 min 05 sec)
Heartbeat CPU 0 instructions: 39000161 cycles: 17945539 heartbeat IPC: 2.173 cumulative IPC: 2.173 (Simulation time: 00 hr 04 min 09 sec)
Heartbeat CPU 0 instructions: 39500161 cycles: 18175394 heartbeat IPC: 2.175 cumulative IPC: 2.173 (Simulation time: 00 hr 04 min 12 sec)
Heartbeat CPU 0 instructions: 40000161 cycles: 18404986 heartbeat IPC: 2.178 cumulative IPC: 2.173 (Simulation time: 00 hr 04 min 16 sec)
Heartbeat CPU 0 instructions: 40500161 cycles: 18635394 heartbeat IPC: 2.17 cumulative IPC: 2.173 (Simulation time: 00 hr 04 min 19 sec)
Heartbeat CPU 0 instructions: 41000167 cycles: 18865414 heartbeat IPC: 2.174 cumulative IPC: 2.173 (Simulation time: 00 hr 04 min 23 sec)
Heartbeat CPU 0 instructions: 41500168 cycles: 19094974 heartbeat IPC: 2.178 cumulative IPC: 2.173 (Simulation time: 00 hr 04 min 26 sec)
Heartbeat CPU 0 instructions: 42000169 cycles: 19248850 heartbeat IPC: 3.249 cumulative IPC: 2.182 (Simulation time: 00 hr 04 min 29 sec)
Heartbeat CPU 0 instructions: 42500175 cycles: 19383829 heartbeat IPC: 3.704 cumulative IPC: 2.193 (Simulation time: 00 hr 04 min 31 sec)
Heartbeat CPU 0 instructions: 43000175 cycles: 19518792 heartbeat IPC: 3.705 cumulative IPC: 2.203 (Simulation time: 00 hr 04 min 33 sec)
Heartbeat CPU 0 instructions: 43500181 cycles: 19653564 heartbeat IPC: 3.71 cumulative IPC: 2.213 (Simulation time: 00 hr 04 min 36 sec)
Heartbeat CPU 0 instructions: 44000183 cycles: 19766108 heartbeat IPC: 4.443 cumulative IPC: 2.226 (Simulation time: 00 hr 04 min 37 sec)
Heartbeat CPU 0 instructions: 44500189 cycles: 19866110 heartbeat IPC: 5 cumulative IPC: 2.24 (Simulation time: 00 hr 04 min 39 sec)
Heartbeat CPU 0 instructions: 45000193 cycles: 19966110 heartbeat IPC: 5 cumulative IPC: 2.254 (Simulation time: 00 hr 04 min 40 sec)
Heartbeat CPU 0 instructions: 45500199 cycles: 20066112 heartbeat IPC: 5 cumulative IPC: 2.268 (Simulation time: 00 hr 04 min 42 sec)
Heartbeat CPU 0 instructions: 46000199 cycles: 20166111 heartbeat IPC: 5 cumulative IPC: 2.281 (Simulation time: 00 hr 04 min 43 sec)
Heartbeat CPU 0 instructions: 46500205 cycles: 20266112 heartbeat IPC: 5 cumulative IPC: 2.294 (Simulation time: 00 hr 04 min 45 sec)
Heartbeat CPU 0 instructions: 47000210 cycles: 20368398 heartbeat IPC: 4.888 cumulative IPC: 2.308 (Simulation time: 00 hr 04 min 46 sec)
Heartbeat CPU 0 instructions: 47500211 cycles: 20473567 heartbeat IPC: 4.754 cumulative IPC: 2.32 (Simulation time: 00 hr 04 min 48 sec)
Heartbeat CPU 0 instructions: 48000211 cycles: 20578527 heartbeat IPC: 4.764 cumulative IPC: 2.333 (Simulation time: 00 hr 04 min 50 sec)
Heartbeat CPU 0 instructions: 48500213 cycles: 20683928 heartbeat IPC: 4.744 cumulative IPC: 2.345 (Simulation time: 00 hr 04 min 51 sec)
Heartbeat CPU 0 instructions: 49000217 cycles: 20789836 heartbeat IPC: 4.721 cumulative IPC: 2.357 (Simulation time: 00 hr 04 min 53 sec)
Heartbeat CPU 0 instructions: 49500217 cycles: 20895644 heartbeat IPC: 4.726 cumulative IPC: 2.369 (Simulation time: 00 hr 04 min 55 sec)
Warmup halting CPU 0 at instruction 50000003 cycle 21001718 for remainder of phase
Warmup finished CPU 0 instructions: 50000003 cycles: 21001718 cumulative IPC: 2.381 (Simulation time: 00 hr 04 min 56 sec)
Warmup complete CPU 0 instructions: 50000003 cycles: 21001718 cumulative IPC: 2.381 (Simulation time: 00 hr 04 min 56 sec)
Heartbeat CPU 0 instructions: 50000219 cycles: 21001745 heartbeat IPC: 4.713 cumulative IPC: 8 (Simulation time: 00 hr 04 min 56 sec)
Heartbeat CPU 0 instructions: 50500219 cycles: 21915473 heartbeat IPC: 0.5472 cumulative IPC: 0.5474 (Simulation time: 00 hr 05 min 04 sec)
Heartbeat CPU 0 instructions: 51000220 cycles: 22909562 heartbeat IPC: 0.503 cumulative IPC: 0.5243 (Simulation time: 00 hr 05 min 11 sec)
Heartbeat CPU 0 instructions: 51500222 cycles: 23911892 heartbeat IPC: 0.4988 cumulative IPC: 0.5155 (Simulation time: 00 hr 05 min 19 sec)
Heartbeat CPU 0 instructions: 52000222 cycles: 24830869 heartbeat IPC: 0.5441 cumulative IPC: 0.5224 (Simulation time: 00 hr 05 min 27 sec)
Heartbeat CPU 0 instructions: 52500223 cycles: 25723854 heartbeat IPC: 0.5599 cumulative IPC: 0.5295 (Simulation time: 00 hr 05 min 34 sec)
Heartbeat CPU 0 instructions: 53000224 cycles: 26500733 heartbeat IPC: 0.6436 cumulative IPC: 0.5456 (Simulation time: 00 hr 05 min 40 sec)
Heartbeat CPU 0 instructions: 53500225 cycles: 27122968 heartbeat IPC: 0.8036 cumulative IPC: 0.5718 (Simulation time: 00 hr 05 min 46 sec)
Heartbeat CPU 0 instructions: 54000226 cycles: 27792639 heartbeat IPC: 0.7466 cumulative IPC: 0.5891 (Simulation time: 00 hr 05 min 52 sec)
Heartbeat CPU 0 instructions: 54500227 cycles: 28668984 heartbeat IPC: 0.5706 cumulative IPC: 0.5869 (Simulation time: 00 hr 06 min 00 sec)
Heartbeat CPU 0 instructions: 55000229 cycles: 29468867 heartbeat IPC: 0.6251 cumulative IPC: 0.5905 (Simulation time: 00 hr 06 min 06 sec)
Heartbeat CPU 0 instructions: 55500229 cycles: 29998018 heartbeat IPC: 0.9449 cumulative IPC: 0.6114 (Simulation time: 00 hr 06 min 12 sec)
Heartbeat CPU 0 instructions: 56000231 cycles: 30538073 heartbeat IPC: 0.9258 cumulative IPC: 0.6292 (Simulation time: 00 hr 06 min 17 sec)
Heartbeat CPU 0 instructions: 56500232 cycles: 31075470 heartbeat IPC: 0.9304 cumulative IPC: 0.6453 (Simulation time: 00 hr 06 min 23 sec)
Heartbeat CPU 0 instructions: 57000232 cycles: 31635799 heartbeat IPC: 0.8923 cumulative IPC: 0.6583 (Simulation time: 00 hr 06 min 28 sec)
Heartbeat CPU 0 instructions: 57500234 cycles: 32134744 heartbeat IPC: 1.002 cumulative IPC: 0.6737 (Simulation time: 00 hr 06 min 34 sec)
Heartbeat CPU 0 instructions: 58000234 cycles: 32668748 heartbeat IPC: 0.9363 cumulative IPC: 0.6857 (Simulation time: 00 hr 06 min 39 sec)
Heartbeat CPU 0 instructions: 58500235 cycles: 33150402 heartbeat IPC: 1.038 cumulative IPC: 0.6997 (Simulation time: 00 hr 06 min 44 sec)
Heartbeat CPU 0 instructions: 59000236 cycles: 33617774 heartbeat IPC: 1.07 cumulative IPC: 0.7134 (Simulation time: 00 hr 06 min 49 sec)
Heartbeat CPU 0 instructions: 59500238 cycles: 34092164 heartbeat IPC: 1.054 cumulative IPC: 0.7257 (Simulation time: 00 hr 06 min 55 sec)
Heartbeat CPU 0 instructions: 60000238 cycles: 34616068 heartbeat IPC: 0.9544 cumulative IPC: 0.7345 (Simulation time: 00 hr 07 min 00 sec)
Heartbeat CPU 0 instructions: 60500239 cycles: 35073679 heartbeat IPC: 1.093 cumulative IPC: 0.7462 (Simulation time: 00 hr 07 min 05 sec)
Heartbeat CPU 0 instructions: 61000240 cycles: 35561929 heartbeat IPC: 1.024 cumulative IPC: 0.7555 (Simulation time: 00 hr 07 min 10 sec)
Heartbeat CPU 0 instructions: 61500242 cycles: 36073137 heartbeat IPC: 0.9781 cumulative IPC: 0.763 (Simulation time: 00 hr 07 min 16 sec)
Heartbeat CPU 0 instructions: 62000243 cycles: 36585026 heartbeat IPC: 0.9768 cumulative IPC: 0.7701 (Simulation time: 00 hr 07 min 21 sec)
Heartbeat CPU 0 instructions: 62500243 cycles: 37128808 heartbeat IPC: 0.9195 cumulative IPC: 0.7751 (Simulation time: 00 hr 07 min 26 sec)
Heartbeat CPU 0 instructions: 63000244 cycles: 37567558 heartbeat IPC: 1.14 cumulative IPC: 0.7848 (Simulation time: 00 hr 07 min 31 sec)
Heartbeat CPU 0 instructions: 63500246 cycles: 38095368 heartbeat IPC: 0.9473 cumulative IPC: 0.7898 (Simulation time: 00 hr 07 min 37 sec)
Heartbeat CPU 0 instructions: 64000246 cycles: 38574996 heartbeat IPC: 1.042 cumulative IPC: 0.7967 (Simulation time: 00 hr 07 min 42 sec)
Heartbeat CPU 0 instructions: 64500247 cycles: 39077980 heartbeat IPC: 0.9941 cumulative IPC: 0.8022 (Simulation time: 00 hr 07 min 47 sec)
Heartbeat CPU 0 instructions: 65000248 cycles: 39586408 heartbeat IPC: 0.9834 cumulative IPC: 0.8071 (Simulation time: 00 hr 07 min 53 sec)
Heartbeat CPU 0 instructions: 65500249 cycles: 40065700 heartbeat IPC: 1.043 cumulative IPC: 0.8131 (Simulation time: 00 hr 07 min 58 sec)
Heartbeat CPU 0 instructions: 66000251 cycles: 40538592 heartbeat IPC: 1.057 cumulative IPC: 0.819 (Simulation time: 00 hr 08 min 03 sec)
Heartbeat CPU 0 instructions: 66500251 cycles: 41010271 heartbeat IPC: 1.06 cumulative IPC: 0.8247 (Simulation time: 00 hr 08 min 08 sec)
Heartbeat CPU 0 instructions: 67000253 cycles: 41488464 heartbeat IPC: 1.046 cumulative IPC: 0.8298 (Simulation time: 00 hr 08 min 13 sec)
Heartbeat CPU 0 instructions: 67500253 cycles: 41969160 heartbeat IPC: 1.04 cumulative IPC: 0.8346 (Simulation time: 00 hr 08 min 18 sec)
Heartbeat CPU 0 instructions: 68000255 cycles: 42641210 heartbeat IPC: 0.744 cumulative IPC: 0.8318 (Simulation time: 00 hr 08 min 25 sec)
Heartbeat CPU 0 instructions: 68500255 cycles: 43254261 heartbeat IPC: 0.8156 cumulative IPC: 0.8314 (Simulation time: 00 hr 08 min 30 sec)
Heartbeat CPU 0 instructions: 69000255 cycles: 43785369 heartbeat IPC: 0.9414 cumulative IPC: 0.8339 (Simulation time: 00 hr 08 min 36 sec)
Heartbeat CPU 0 instructions: 69500258 cycles: 44238873 heartbeat IPC: 1.103 cumulative IPC: 0.8392 (Simulation time: 00 hr 08 min 41 sec)
Heartbeat CPU 0 instructions: 70000258 cycles: 44731809 heartbeat IPC: 1.014 cumulative IPC: 0.8428 (Simulation time: 00 hr 08 min 46 sec)
Heartbeat CPU 0 instructions: 70500259 cycles: 45221101 heartbeat IPC: 1.022 cumulative IPC: 0.8464 (Simulation time: 00 hr 08 min 51 sec)
Heartbeat CPU 0 instructions: 71000259 cycles: 45718227 heartbeat IPC: 1.006 cumulative IPC: 0.8496 (Simulation time: 00 hr 08 min 57 sec)
Heartbeat CPU 0 instructions: 71500262 cycles: 46288488 heartbeat IPC: 0.8768 cumulative IPC: 0.8503 (Simulation time: 00 hr 09 min 02 sec)
Heartbeat CPU 0 instructions: 72000262 cycles: 46823890 heartbeat IPC: 0.9339 cumulative IPC: 0.852 (Simulation time: 00 hr 09 min 08 sec)
Heartbeat CPU 0 instructions: 72500264 cycles: 47346104 heartbeat IPC: 0.9575 cumulative IPC: 0.8541 (Simulation time: 00 hr 09 min 13 sec)
Heartbeat CPU 0 instructions: 73000264 cycles: 47879593 heartbeat IPC: 0.9372 cumulative IPC: 0.8557 (Simulation time: 00 hr 09 min 19 sec)
Heartbeat CPU 0 instructions: 73500265 cycles: 48445504 heartbeat IPC: 0.8835 cumulative IPC: 0.8563 (Simulation time: 00 hr 09 min 24 sec)
Heartbeat CPU 0 instructions: 74000267 cycles: 48953830 heartbeat IPC: 0.9836 cumulative IPC: 0.8586 (Simulation time: 00 hr 09 min 30 sec)
Heartbeat CPU 0 instructions: 74500267 cycles: 49476352 heartbeat IPC: 0.9569 cumulative IPC: 0.8604 (Simulation time: 00 hr 09 min 35 sec)
Heartbeat CPU 0 instructions: 75000268 cycles: 49975316 heartbeat IPC: 1.002 cumulative IPC: 0.8629 (Simulation time: 00 hr 09 min 40 sec)
Heartbeat CPU 0 instructions: 75500269 cycles: 50516874 heartbeat IPC: 0.9233 cumulative IPC: 0.864 (Simulation time: 00 hr 09 min 46 sec)
Heartbeat CPU 0 instructions: 76000275 cycles: 51070298 heartbeat IPC: 0.9035 cumulative IPC: 0.8647 (Simulation time: 00 hr 09 min 51 sec)
Heartbeat CPU 0 instructions: 76500277 cycles: 51577805 heartbeat IPC: 0.9852 cumulative IPC: 0.8667 (Simulation time: 00 hr 09 min 57 sec)
Heartbeat CPU 0 instructions: 77000277 cycles: 52094994 heartbeat IPC: 0.9668 cumulative IPC: 0.8684 (Simulation time: 00 hr 10 min 02 sec)
Heartbeat CPU 0 instructions: 77500279 cycles: 52580493 heartbeat IPC: 1.03 cumulative IPC: 0.8708 (Simulation time: 00 hr 10 min 07 sec)
Heartbeat CPU 0 instructions: 78000281 cycles: 53079559 heartbeat IPC: 1.002 cumulative IPC: 0.8729 (Simulation time: 00 hr 10 min 13 sec)
Heartbeat CPU 0 instructions: 78500281 cycles: 53570655 heartbeat IPC: 1.018 cumulative IPC: 0.8751 (Simulation time: 00 hr 10 min 18 sec)
Heartbeat CPU 0 instructions: 79000287 cycles: 54077068 heartbeat IPC: 0.9873 cumulative IPC: 0.8768 (Simulation time: 00 hr 10 min 23 sec)
Heartbeat CPU 0 instructions: 79500289 cycles: 54586318 heartbeat IPC: 0.9818 cumulative IPC: 0.8784 (Simulation time: 00 hr 10 min 28 sec)
Heartbeat CPU 0 instructions: 80000291 cycles: 55104935 heartbeat IPC: 0.9641 cumulative IPC: 0.8797 (Simulation time: 00 hr 10 min 34 sec)
Heartbeat CPU 0 instructions: 80500291 cycles: 55627527 heartbeat IPC: 0.9568 cumulative IPC: 0.8809 (Simulation time: 00 hr 10 min 39 sec)
Heartbeat CPU 0 instructions: 81000292 cycles: 56143484 heartbeat IPC: 0.9691 cumulative IPC: 0.8821 (Simulation time: 00 hr 10 min 44 sec)
Heartbeat CPU 0 instructions: 81500293 cycles: 56693318 heartbeat IPC: 0.9094 cumulative IPC: 0.8826 (Simulation time: 00 hr 10 min 50 sec)
Heartbeat CPU 0 instructions: 82000293 cycles: 57262105 heartbeat IPC: 0.8791 cumulative IPC: 0.8825 (Simulation time: 00 hr 10 min 56 sec)
Heartbeat CPU 0 instructions: 82500296 cycles: 57837846 heartbeat IPC: 0.8685 cumulative IPC: 0.8823 (Simulation time: 00 hr 11 min 01 sec)
Heartbeat CPU 0 instructions: 83000296 cycles: 58404648 heartbeat IPC: 0.8821 cumulative IPC: 0.8823 (Simulation time: 00 hr 11 min 07 sec)
Heartbeat CPU 0 instructions: 83500296 cycles: 58957191 heartbeat IPC: 0.9049 cumulative IPC: 0.8826 (Simulation time: 00 hr 11 min 12 sec)
Heartbeat CPU 0 instructions: 84000298 cycles: 59514343 heartbeat IPC: 0.8974 cumulative IPC: 0.8828 (Simulation time: 00 hr 11 min 18 sec)
Heartbeat CPU 0 instructions: 84500299 cycles: 60152375 heartbeat IPC: 0.7837 cumulative IPC: 0.8812 (Simulation time: 00 hr 11 min 24 sec)
Heartbeat CPU 0 instructions: 85000300 cycles: 60744525 heartbeat IPC: 0.8444 cumulative IPC: 0.8807 (Simulation time: 00 hr 11 min 30 sec)
Heartbeat CPU 0 instructions: 85500301 cycles: 61301699 heartbeat IPC: 0.8974 cumulative IPC: 0.8809 (Simulation time: 00 hr 11 min 35 sec)
Heartbeat CPU 0 instructions: 86000302 cycles: 61781253 heartbeat IPC: 1.043 cumulative IPC: 0.8828 (Simulation time: 00 hr 11 min 40 sec)
Heartbeat CPU 0 instructions: 86500305 cycles: 62287477 heartbeat IPC: 0.9877 cumulative IPC: 0.8841 (Simulation time: 00 hr 11 min 46 sec)
Heartbeat CPU 0 instructions: 87000307 cycles: 62784019 heartbeat IPC: 1.007 cumulative IPC: 0.8855 (Simulation time: 00 hr 11 min 51 sec)
Heartbeat CPU 0 instructions: 87500308 cycles: 63313670 heartbeat IPC: 0.944 cumulative IPC: 0.8863 (Simulation time: 00 hr 11 min 56 sec)
Heartbeat CPU 0 instructions: 88000310 cycles: 63839853 heartbeat IPC: 0.9502 cumulative IPC: 0.8871 (Simulation time: 00 hr 12 min 02 sec)
Heartbeat CPU 0 instructions: 88500310 cycles: 64420152 heartbeat IPC: 0.8616 cumulative IPC: 0.8867 (Simulation time: 00 hr 12 min 08 sec)
Heartbeat CPU 0 instructions: 89000311 cycles: 64975619 heartbeat IPC: 0.9001 cumulative IPC: 0.8869 (Simulation time: 00 hr 12 min 13 sec)
Heartbeat CPU 0 instructions: 89500312 cycles: 65527752 heartbeat IPC: 0.9056 cumulative IPC: 0.8871 (Simulation time: 00 hr 12 min 19 sec)
Heartbeat CPU 0 instructions: 90000314 cycles: 66038499 heartbeat IPC: 0.979 cumulative IPC: 0.8882 (Simulation time: 00 hr 12 min 24 sec)
Heartbeat CPU 0 instructions: 90500314 cycles: 66525360 heartbeat IPC: 1.027 cumulative IPC: 0.8897 (Simulation time: 00 hr 12 min 29 sec)
Heartbeat CPU 0 instructions: 91000315 cycles: 67060329 heartbeat IPC: 0.9346 cumulative IPC: 0.8902 (Simulation time: 00 hr 12 min 35 sec)
Heartbeat CPU 0 instructions: 91500316 cycles: 67612388 heartbeat IPC: 0.9057 cumulative IPC: 0.8904 (Simulation time: 00 hr 12 min 40 sec)
Heartbeat CPU 0 instructions: 92000317 cycles: 68150833 heartbeat IPC: 0.9286 cumulative IPC: 0.8908 (Simulation time: 00 hr 12 min 46 sec)
Heartbeat CPU 0 instructions: 92500318 cycles: 68700037 heartbeat IPC: 0.9104 cumulative IPC: 0.891 (Simulation time: 00 hr 12 min 51 sec)
Heartbeat CPU 0 instructions: 93000319 cycles: 69250905 heartbeat IPC: 0.9077 cumulative IPC: 0.8912 (Simulation time: 00 hr 12 min 57 sec)
Heartbeat CPU 0 instructions: 93500320 cycles: 69817389 heartbeat IPC: 0.8826 cumulative IPC: 0.8911 (Simulation time: 00 hr 13 min 02 sec)
Heartbeat CPU 0 instructions: 94000321 cycles: 70368955 heartbeat IPC: 0.9065 cumulative IPC: 0.8913 (Simulation time: 00 hr 13 min 08 sec)
Heartbeat CPU 0 instructions: 94500322 cycles: 70951050 heartbeat IPC: 0.859 cumulative IPC: 0.8909 (Simulation time: 00 hr 13 min 14 sec)
Heartbeat CPU 0 instructions: 95000323 cycles: 71562847 heartbeat IPC: 0.8173 cumulative IPC: 0.89 (Simulation time: 00 hr 13 min 19 sec)
Heartbeat CPU 0 instructions: 95500324 cycles: 72162069 heartbeat IPC: 0.8344 cumulative IPC: 0.8894 (Simulation time: 00 hr 13 min 25 sec)
Heartbeat CPU 0 instructions: 96000326 cycles: 72807212 heartbeat IPC: 0.775 cumulative IPC: 0.8879 (Simulation time: 00 hr 13 min 31 sec)
Heartbeat CPU 0 instructions: 96500326 cycles: 73350612 heartbeat IPC: 0.9201 cumulative IPC: 0.8883 (Simulation time: 00 hr 13 min 37 sec)
Heartbeat CPU 0 instructions: 97000327 cycles: 73882711 heartbeat IPC: 0.9397 cumulative IPC: 0.8888 (Simulation time: 00 hr 13 min 42 sec)
Heartbeat CPU 0 instructions: 97500328 cycles: 74455502 heartbeat IPC: 0.8729 cumulative IPC: 0.8886 (Simulation time: 00 hr 13 min 48 sec)
Heartbeat CPU 0 instructions: 98000330 cycles: 75007697 heartbeat IPC: 0.9055 cumulative IPC: 0.8888 (Simulation time: 00 hr 13 min 53 sec)
Heartbeat CPU 0 instructions: 98500330 cycles: 75584900 heartbeat IPC: 0.8662 cumulative IPC: 0.8886 (Simulation time: 00 hr 13 min 59 sec)
Heartbeat CPU 0 instructions: 99000331 cycles: 76214804 heartbeat IPC: 0.7938 cumulative IPC: 0.8875 (Simulation time: 00 hr 14 min 05 sec)
Heartbeat CPU 0 instructions: 99500332 cycles: 76810579 heartbeat IPC: 0.8392 cumulative IPC: 0.887 (Simulation time: 00 hr 14 min 11 sec)
Heartbeat CPU 0 instructions: 100000334 cycles: 77486592 heartbeat IPC: 0.7396 cumulative IPC: 0.8852 (Simulation time: 00 hr 14 min 17 sec)
Heartbeat CPU 0 instructions: 100500334 cycles: 78180092 heartbeat IPC: 0.721 cumulative IPC: 0.8832 (Simulation time: 00 hr 14 min 23 sec)
Heartbeat CPU 0 instructions: 101000335 cycles: 78801278 heartbeat IPC: 0.8049 cumulative IPC: 0.8824 (Simulation time: 00 hr 14 min 29 sec)
Heartbeat CPU 0 instructions: 101500336 cycles: 79355105 heartbeat IPC: 0.9028 cumulative IPC: 0.8826 (Simulation time: 00 hr 14 min 35 sec)
Heartbeat CPU 0 instructions: 102000337 cycles: 79927708 heartbeat IPC: 0.8732 cumulative IPC: 0.8825 (Simulation time: 00 hr 14 min 40 sec)
Heartbeat CPU 0 instructions: 102500341 cycles: 80515651 heartbeat IPC: 0.8504 cumulative IPC: 0.8822 (Simulation time: 00 hr 14 min 46 sec)
Heartbeat CPU 0 instructions: 103000343 cycles: 81138617 heartbeat IPC: 0.8026 cumulative IPC: 0.8813 (Simulation time: 00 hr 14 min 52 sec)
Heartbeat CPU 0 instructions: 103500344 cycles: 81730284 heartbeat IPC: 0.8451 cumulative IPC: 0.881 (Simulation time: 00 hr 14 min 58 sec)
Heartbeat CPU 0 instructions: 104000348 cycles: 82347591 heartbeat IPC: 0.81 cumulative IPC: 0.8803 (Simulation time: 00 hr 15 min 03 sec)
Heartbeat CPU 0 instructions: 104500348 cycles: 82952104 heartbeat IPC: 0.8271 cumulative IPC: 0.8797 (Simulation time: 00 hr 15 min 09 sec)
Heartbeat CPU 0 instructions: 105000348 cycles: 83540274 heartbeat IPC: 0.8501 cumulative IPC: 0.8795 (Simulation time: 00 hr 15 min 15 sec)
Heartbeat CPU 0 instructions: 105500349 cycles: 84202482 heartbeat IPC: 0.7551 cumulative IPC: 0.8782 (Simulation time: 00 hr 15 min 21 sec)
Heartbeat CPU 0 instructions: 106000350 cycles: 84880417 heartbeat IPC: 0.7375 cumulative IPC: 0.8767 (Simulation time: 00 hr 15 min 27 sec)
Heartbeat CPU 0 instructions: 106500352 cycles: 85520292 heartbeat IPC: 0.7814 cumulative IPC: 0.8757 (Simulation time: 00 hr 15 min 33 sec)
Heartbeat CPU 0 instructions: 107000352 cycles: 86206202 heartbeat IPC: 0.729 cumulative IPC: 0.8742 (Simulation time: 00 hr 15 min 40 sec)
Heartbeat CPU 0 instructions: 107500354 cycles: 86879787 heartbeat IPC: 0.7423 cumulative IPC: 0.8728 (Simulation time: 00 hr 15 min 46 sec)
Heartbeat CPU 0 instructions: 108000355 cycles: 87559917 heartbeat IPC: 0.7352 cumulative IPC: 0.8714 (Simulation time: 00 hr 15 min 52 sec)
Heartbeat CPU 0 instructions: 108500356 cycles: 88248601 heartbeat IPC: 0.726 cumulative IPC: 0.8699 (Simulation time: 00 hr 15 min 58 sec)
Heartbeat CPU 0 instructions: 109000356 cycles: 88937253 heartbeat IPC: 0.7261 cumulative IPC: 0.8685 (Simulation time: 00 hr 16 min 04 sec)
Heartbeat CPU 0 instructions: 109500357 cycles: 89685936 heartbeat IPC: 0.6678 cumulative IPC: 0.8663 (Simulation time: 00 hr 16 min 11 sec)
Heartbeat CPU 0 instructions: 110000358 cycles: 90430851 heartbeat IPC: 0.6712 cumulative IPC: 0.8642 (Simulation time: 00 hr 16 min 18 sec)
Heartbeat CPU 0 instructions: 110500360 cycles: 91201885 heartbeat IPC: 0.6485 cumulative IPC: 0.8618 (Simulation time: 00 hr 16 min 24 sec)
Heartbeat CPU 0 instructions: 111000360 cycles: 92081975 heartbeat IPC: 0.5681 cumulative IPC: 0.8582 (Simulation time: 00 hr 16 min 32 sec)
Heartbeat CPU 0 instructions: 111500364 cycles: 93026759 heartbeat IPC: 0.5292 cumulative IPC: 0.8539 (Simulation time: 00 hr 16 min 39 sec)
Heartbeat CPU 0 instructions: 112000365 cycles: 93915301 heartbeat IPC: 0.5627 cumulative IPC: 0.8503 (Simulation time: 00 hr 16 min 46 sec)
Heartbeat CPU 0 instructions: 112500366 cycles: 94687305 heartbeat IPC: 0.6477 cumulative IPC: 0.8482 (Simulation time: 00 hr 16 min 53 sec)
Heartbeat CPU 0 instructions: 113000367 cycles: 95479468 heartbeat IPC: 0.6312 cumulative IPC: 0.8459 (Simulation time: 00 hr 17 min 00 sec)
Heartbeat CPU 0 instructions: 113500368 cycles: 96103998 heartbeat IPC: 0.8006 cumulative IPC: 0.8455 (Simulation time: 00 hr 17 min 06 sec)
Heartbeat CPU 0 instructions: 114000369 cycles: 96782840 heartbeat IPC: 0.7365 cumulative IPC: 0.8445 (Simulation time: 00 hr 17 min 12 sec)
Heartbeat CPU 0 instructions: 114500370 cycles: 97556440 heartbeat IPC: 0.6463 cumulative IPC: 0.8425 (Simulation time: 00 hr 17 min 19 sec)
Heartbeat CPU 0 instructions: 115000371 cycles: 98297152 heartbeat IPC: 0.675 cumulative IPC: 0.8409 (Simulation time: 00 hr 17 min 25 sec)
Heartbeat CPU 0 instructions: 115500372 cycles: 99084810 heartbeat IPC: 0.6348 cumulative IPC: 0.8389 (Simulation time: 00 hr 17 min 32 sec)
Heartbeat CPU 0 instructions: 116000374 cycles: 99868838 heartbeat IPC: 0.6377 cumulative IPC: 0.8369 (Simulation time: 00 hr 17 min 39 sec)
Heartbeat CPU 0 instructions: 116500374 cycles: 100665566 heartbeat IPC: 0.6276 cumulative IPC: 0.8348 (Simulation time: 00 hr 17 min 45 sec)
Heartbeat CPU 0 instructions: 117000376 cycles: 101411363 heartbeat IPC: 0.6704 cumulative IPC: 0.8332 (Simulation time: 00 hr 17 min 52 sec)
Heartbeat CPU 0 instructions: 117500376 cycles: 102227617 heartbeat IPC: 0.6126 cumulative IPC: 0.831 (Simulation time: 00 hr 17 min 59 sec)
Heartbeat CPU 0 instructions: 118000377 cycles: 103095662 heartbeat IPC: 0.576 cumulative IPC: 0.8283 (Simulation time: 00 hr 18 min 06 sec)
Heartbeat CPU 0 instructions: 118500378 cycles: 103952522 heartbeat IPC: 0.5835 cumulative IPC: 0.8258 (Simulation time: 00 hr 18 min 13 sec)
Heartbeat CPU 0 instructions: 119000379 cycles: 104741534 heartbeat IPC: 0.6337 cumulative IPC: 0.824 (Simulation time: 00 hr 18 min 20 sec)
Heartbeat CPU 0 instructions: 119500381 cycles: 105584064 heartbeat IPC: 0.5935 cumulative IPC: 0.8217 (Simulation time: 00 hr 18 min 27 sec)
Heartbeat CPU 0 instructions: 120000382 cycles: 106486632 heartbeat IPC: 0.554 cumulative IPC: 0.8189 (Simulation time: 00 hr 18 min 34 sec)
Heartbeat CPU 0 instructions: 120500383 cycles: 107368828 heartbeat IPC: 0.5668 cumulative IPC: 0.8163 (Simulation time: 00 hr 18 min 42 sec)
Heartbeat CPU 0 instructions: 121000383 cycles: 108330354 heartbeat IPC: 0.52 cumulative IPC: 0.813 (Simulation time: 00 hr 18 min 49 sec)
Heartbeat CPU 0 instructions: 121500384 cycles: 109275108 heartbeat IPC: 0.5292 cumulative IPC: 0.81 (Simulation time: 00 hr 18 min 57 sec)
Heartbeat CPU 0 instructions: 122000386 cycles: 110050028 heartbeat IPC: 0.6452 cumulative IPC: 0.8086 (Simulation time: 00 hr 19 min 04 sec)
Heartbeat CPU 0 instructions: 122500386 cycles: 110709870 heartbeat IPC: 0.7578 cumulative IPC: 0.8082 (Simulation time: 00 hr 19 min 10 sec)
Heartbeat CPU 0 instructions: 123000387 cycles: 111346359 heartbeat IPC: 0.7856 cumulative IPC: 0.808 (Simulation time: 00 hr 19 min 16 sec)
Heartbeat CPU 0 instructions: 123500389 cycles: 112041270 heartbeat IPC: 0.7195 cumulative IPC: 0.8073 (Simulation time: 00 hr 19 min 22 sec)
Heartbeat CPU 0 instructions: 124000390 cycles: 112702162 heartbeat IPC: 0.7566 cumulative IPC: 0.807 (Simulation time: 00 hr 19 min 28 sec)
Heartbeat CPU 0 instructions: 124500390 cycles: 113403224 heartbeat IPC: 0.7132 cumulative IPC: 0.8063 (Simulation time: 00 hr 19 min 35 sec)
Heartbeat CPU 0 instructions: 125000394 cycles: 114139002 heartbeat IPC: 0.6796 cumulative IPC: 0.8053 (Simulation time: 00 hr 19 min 41 sec)
Heartbeat CPU 0 instructions: 125500396 cycles: 114902660 heartbeat IPC: 0.6547 cumulative IPC: 0.804 (Simulation time: 00 hr 19 min 48 sec)
Heartbeat CPU 0 instructions: 126000396 cycles: 115653569 heartbeat IPC: 0.6659 cumulative IPC: 0.8029 (Simulation time: 00 hr 19 min 54 sec)
Heartbeat CPU 0 instructions: 126500397 cycles: 116435810 heartbeat IPC: 0.6392 cumulative IPC: 0.8016 (Simulation time: 00 hr 20 min 01 sec)
Heartbeat CPU 0 instructions: 127000398 cycles: 117075657 heartbeat IPC: 0.7814 cumulative IPC: 0.8015 (Simulation time: 00 hr 20 min 07 sec)
Heartbeat CPU 0 instructions: 127500400 cycles: 117675793 heartbeat IPC: 0.8331 cumulative IPC: 0.8017 (Simulation time: 00 hr 20 min 13 sec)
Heartbeat CPU 0 instructions: 128000400 cycles: 118267347 heartbeat IPC: 0.8452 cumulative IPC: 0.8019 (Simulation time: 00 hr 20 min 19 sec)
Heartbeat CPU 0 instructions: 128500402 cycles: 118905272 heartbeat IPC: 0.7838 cumulative IPC: 0.8018 (Simulation time: 00 hr 20 min 24 sec)
Heartbeat CPU 0 instructions: 129000402 cycles: 119729212 heartbeat IPC: 0.6068 cumulative IPC: 0.8002 (Simulation time: 00 hr 20 min 31 sec)
Heartbeat CPU 0 instructions: 129500403 cycles: 120483114 heartbeat IPC: 0.6632 cumulative IPC: 0.7991 (Simulation time: 00 hr 20 min 38 sec)
Heartbeat CPU 0 instructions: 130000405 cycles: 121251616 heartbeat IPC: 0.6506 cumulative IPC: 0.798 (Simulation time: 00 hr 20 min 45 sec)
Heartbeat CPU 0 instructions: 130500406 cycles: 122009957 heartbeat IPC: 0.6593 cumulative IPC: 0.797 (Simulation time: 00 hr 20 min 51 sec)
Heartbeat CPU 0 instructions: 131000406 cycles: 122854984 heartbeat IPC: 0.5917 cumulative IPC: 0.7953 (Simulation time: 00 hr 20 min 58 sec)
Heartbeat CPU 0 instructions: 131500407 cycles: 123661713 heartbeat IPC: 0.6198 cumulative IPC: 0.7939 (Simulation time: 00 hr 21 min 05 sec)
Heartbeat CPU 0 instructions: 132000408 cycles: 124455429 heartbeat IPC: 0.6299 cumulative IPC: 0.7926 (Simulation time: 00 hr 21 min 12 sec)
Heartbeat CPU 0 instructions: 132500409 cycles: 125268527 heartbeat IPC: 0.6149 cumulative IPC: 0.7912 (Simulation time: 00 hr 21 min 19 sec)
Heartbeat CPU 0 instructions: 133000410 cycles: 125983301 heartbeat IPC: 0.6995 cumulative IPC: 0.7906 (Simulation time: 00 hr 21 min 25 sec)
Heartbeat CPU 0 instructions: 133500411 cycles: 126700559 heartbeat IPC: 0.6971 cumulative IPC: 0.79 (Simulation time: 00 hr 21 min 32 sec)
Heartbeat CPU 0 instructions: 134000412 cycles: 127511515 heartbeat IPC: 0.6166 cumulative IPC: 0.7887 (Simulation time: 00 hr 21 min 39 sec)
Heartbeat CPU 0 instructions: 134500413 cycles: 128336061 heartbeat IPC: 0.6064 cumulative IPC: 0.7873 (Simulation time: 00 hr 21 min 45 sec)
Heartbeat CPU 0 instructions: 135000414 cycles: 129059201 heartbeat IPC: 0.6914 cumulative IPC: 0.7866 (Simulation time: 00 hr 21 min 52 sec)
Heartbeat CPU 0 instructions: 135500415 cycles: 129852322 heartbeat IPC: 0.6304 cumulative IPC: 0.7855 (Simulation time: 00 hr 21 min 59 sec)
Heartbeat CPU 0 instructions: 136000417 cycles: 130693397 heartbeat IPC: 0.5945 cumulative IPC: 0.784 (Simulation time: 00 hr 22 min 06 sec)
Heartbeat CPU 0 instructions: 136500418 cycles: 131454618 heartbeat IPC: 0.6568 cumulative IPC: 0.7831 (Simulation time: 00 hr 22 min 12 sec)
Heartbeat CPU 0 instructions: 137000418 cycles: 132193929 heartbeat IPC: 0.6763 cumulative IPC: 0.7824 (Simulation time: 00 hr 22 min 19 sec)
Heartbeat CPU 0 instructions: 137500420 cycles: 132977657 heartbeat IPC: 0.638 cumulative IPC: 0.7814 (Simulation time: 00 hr 22 min 26 sec)
Heartbeat CPU 0 instructions: 138000420 cycles: 133766050 heartbeat IPC: 0.6342 cumulative IPC: 0.7804 (Simulation time: 00 hr 22 min 32 sec)
Heartbeat CPU 0 instructions: 138500421 cycles: 134567633 heartbeat IPC: 0.6238 cumulative IPC: 0.7793 (Simulation time: 00 hr 22 min 39 sec)
Heartbeat CPU 0 instructions: 139000421 cycles: 135359091 heartbeat IPC: 0.6317 cumulative IPC: 0.7783 (Simulation time: 00 hr 22 min 46 sec)
Heartbeat CPU 0 instructions: 139500422 cycles: 136130224 heartbeat IPC: 0.6484 cumulative IPC: 0.7774 (Simulation time: 00 hr 22 min 53 sec)
Heartbeat CPU 0 instructions: 140000423 cycles: 136909455 heartbeat IPC: 0.6417 cumulative IPC: 0.7765 (Simulation time: 00 hr 23 min 00 sec)
Heartbeat CPU 0 instructions: 140500424 cycles: 137662871 heartbeat IPC: 0.6636 cumulative IPC: 0.7758 (Simulation time: 00 hr 23 min 06 sec)
Heartbeat CPU 0 instructions: 141000425 cycles: 138410833 heartbeat IPC: 0.6685 cumulative IPC: 0.7751 (Simulation time: 00 hr 23 min 13 sec)
Heartbeat CPU 0 instructions: 141500427 cycles: 139169828 heartbeat IPC: 0.6588 cumulative IPC: 0.7743 (Simulation time: 00 hr 23 min 19 sec)
Heartbeat CPU 0 instructions: 142000427 cycles: 139940081 heartbeat IPC: 0.6491 cumulative IPC: 0.7735 (Simulation time: 00 hr 23 min 26 sec)
Heartbeat CPU 0 instructions: 142500428 cycles: 140744680 heartbeat IPC: 0.6214 cumulative IPC: 0.7725 (Simulation time: 00 hr 23 min 33 sec)
Heartbeat CPU 0 instructions: 143000429 cycles: 141540997 heartbeat IPC: 0.6279 cumulative IPC: 0.7715 (Simulation time: 00 hr 23 min 40 sec)
Heartbeat CPU 0 instructions: 143500431 cycles: 142364244 heartbeat IPC: 0.6074 cumulative IPC: 0.7704 (Simulation time: 00 hr 23 min 47 sec)
Heartbeat CPU 0 instructions: 144000431 cycles: 143122786 heartbeat IPC: 0.6592 cumulative IPC: 0.7697 (Simulation time: 00 hr 23 min 53 sec)
Heartbeat CPU 0 instructions: 144500432 cycles: 143727060 heartbeat IPC: 0.8274 cumulative IPC: 0.77 (Simulation time: 00 hr 23 min 59 sec)
Heartbeat CPU 0 instructions: 145000433 cycles: 144405187 heartbeat IPC: 0.7373 cumulative IPC: 0.7698 (Simulation time: 00 hr 24 min 05 sec)
Heartbeat CPU 0 instructions: 145500435 cycles: 145203421 heartbeat IPC: 0.6264 cumulative IPC: 0.7689 (Simulation time: 00 hr 24 min 12 sec)
Heartbeat CPU 0 instructions: 146000435 cycles: 146015030 heartbeat IPC: 0.6161 cumulative IPC: 0.7679 (Simulation time: 00 hr 24 min 19 sec)
Heartbeat CPU 0 instructions: 146500436 cycles: 146824715 heartbeat IPC: 0.6175 cumulative IPC: 0.767 (Simulation time: 00 hr 24 min 26 sec)
Heartbeat CPU 0 instructions: 147000437 cycles: 147612625 heartbeat IPC: 0.6346 cumulative IPC: 0.7661 (Simulation time: 00 hr 24 min 33 sec)
Heartbeat CPU 0 instructions: 147500438 cycles: 148288507 heartbeat IPC: 0.7398 cumulative IPC: 0.766 (Simulation time: 00 hr 24 min 39 sec)
Heartbeat CPU 0 instructions: 148000439 cycles: 149071775 heartbeat IPC: 0.6384 cumulative IPC: 0.7652 (Simulation time: 00 hr 24 min 46 sec)
Heartbeat CPU 0 instructions: 148500440 cycles: 149765727 heartbeat IPC: 0.7205 cumulative IPC: 0.765 (Simulation time: 00 hr 24 min 52 sec)
Heartbeat CPU 0 instructions: 149000440 cycles: 150524293 heartbeat IPC: 0.6591 cumulative IPC: 0.7643 (Simulation time: 00 hr 24 min 59 sec)
Heartbeat CPU 0 instructions: 149500443 cycles: 151276224 heartbeat IPC: 0.665 cumulative IPC: 0.7638 (Simulation time: 00 hr 25 min 05 sec)
Heartbeat CPU 0 instructions: 150000443 cycles: 151956846 heartbeat IPC: 0.7346 cumulative IPC: 0.7636 (Simulation time: 00 hr 25 min 11 sec)
Heartbeat CPU 0 instructions: 150500444 cycles: 152664469 heartbeat IPC: 0.7066 cumulative IPC: 0.7633 (Simulation time: 00 hr 25 min 18 sec)
Heartbeat CPU 0 instructions: 151000446 cycles: 153369284 heartbeat IPC: 0.7094 cumulative IPC: 0.763 (Simulation time: 00 hr 25 min 24 sec)
Heartbeat CPU 0 instructions: 151500447 cycles: 154037247 heartbeat IPC: 0.7485 cumulative IPC: 0.763 (Simulation time: 00 hr 25 min 30 sec)
Heartbeat CPU 0 instructions: 152000447 cycles: 154679576 heartbeat IPC: 0.7784 cumulative IPC: 0.763 (Simulation time: 00 hr 25 min 36 sec)
Heartbeat CPU 0 instructions: 152500447 cycles: 155396211 heartbeat IPC: 0.6977 cumulative IPC: 0.7627 (Simulation time: 00 hr 25 min 43 sec)
Heartbeat CPU 0 instructions: 153000449 cycles: 156170947 heartbeat IPC: 0.6454 cumulative IPC: 0.762 (Simulation time: 00 hr 25 min 50 sec)
Heartbeat CPU 0 instructions: 153500450 cycles: 156956512 heartbeat IPC: 0.6365 cumulative IPC: 0.7613 (Simulation time: 00 hr 25 min 56 sec)
Heartbeat CPU 0 instructions: 154000452 cycles: 157731455 heartbeat IPC: 0.6452 cumulative IPC: 0.7606 (Simulation time: 00 hr 26 min 03 sec)
Heartbeat CPU 0 instructions: 154500452 cycles: 158401397 heartbeat IPC: 0.7463 cumulative IPC: 0.7606 (Simulation time: 00 hr 26 min 09 sec)
Heartbeat CPU 0 instructions: 155000453 cycles: 159164338 heartbeat IPC: 0.6554 cumulative IPC: 0.76 (Simulation time: 00 hr 26 min 16 sec)
Heartbeat CPU 0 instructions: 155500454 cycles: 159976652 heartbeat IPC: 0.6155 cumulative IPC: 0.7591 (Simulation time: 00 hr 26 min 23 sec)
Heartbeat CPU 0 instructions: 156000455 cycles: 160748374 heartbeat IPC: 0.6479 cumulative IPC: 0.7585 (Simulation time: 00 hr 26 min 30 sec)
Heartbeat CPU 0 instructions: 156500456 cycles: 161431456 heartbeat IPC: 0.732 cumulative IPC: 0.7584 (Simulation time: 00 hr 26 min 36 sec)
Heartbeat CPU 0 instructions: 157000458 cycles: 162044898 heartbeat IPC: 0.8151 cumulative IPC: 0.7586 (Simulation time: 00 hr 26 min 42 sec)
Heartbeat CPU 0 instructions: 157500459 cycles: 162610379 heartbeat IPC: 0.8842 cumulative IPC: 0.7591 (Simulation time: 00 hr 26 min 47 sec)
Heartbeat CPU 0 instructions: 158000459 cycles: 163296457 heartbeat IPC: 0.7288 cumulative IPC: 0.759 (Simulation time: 00 hr 26 min 54 sec)
Heartbeat CPU 0 instructions: 158500460 cycles: 164039980 heartbeat IPC: 0.6725 cumulative IPC: 0.7585 (Simulation time: 00 hr 27 min 00 sec)
Heartbeat CPU 0 instructions: 159000461 cycles: 164845780 heartbeat IPC: 0.6205 cumulative IPC: 0.7578 (Simulation time: 00 hr 27 min 07 sec)
Heartbeat CPU 0 instructions: 159500462 cycles: 165656856 heartbeat IPC: 0.6165 cumulative IPC: 0.757 (Simulation time: 00 hr 27 min 14 sec)
Heartbeat CPU 0 instructions: 160000463 cycles: 166491500 heartbeat IPC: 0.5991 cumulative IPC: 0.7561 (Simulation time: 00 hr 27 min 21 sec)
Heartbeat CPU 0 instructions: 160500464 cycles: 167297428 heartbeat IPC: 0.6204 cumulative IPC: 0.7553 (Simulation time: 00 hr 27 min 28 sec)
Heartbeat CPU 0 instructions: 161000466 cycles: 168139182 heartbeat IPC: 0.594 cumulative IPC: 0.7544 (Simulation time: 00 hr 27 min 35 sec)
Heartbeat CPU 0 instructions: 161500466 cycles: 168770284 heartbeat IPC: 0.7923 cumulative IPC: 0.7546 (Simulation time: 00 hr 27 min 41 sec)
Heartbeat CPU 0 instructions: 162000467 cycles: 169368531 heartbeat IPC: 0.8358 cumulative IPC: 0.7549 (Simulation time: 00 hr 27 min 47 sec)
Heartbeat CPU 0 instructions: 162500467 cycles: 170217535 heartbeat IPC: 0.5889 cumulative IPC: 0.7539 (Simulation time: 00 hr 27 min 54 sec)
Heartbeat CPU 0 instructions: 163000468 cycles: 170924495 heartbeat IPC: 0.7073 cumulative IPC: 0.7537 (Simulation time: 00 hr 28 min 01 sec)
Heartbeat CPU 0 instructions: 163500469 cycles: 171722940 heartbeat IPC: 0.6262 cumulative IPC: 0.753 (Simulation time: 00 hr 28 min 07 sec)
Heartbeat CPU 0 instructions: 164000470 cycles: 172528341 heartbeat IPC: 0.6208 cumulative IPC: 0.7523 (Simulation time: 00 hr 28 min 14 sec)
Heartbeat CPU 0 instructions: 164500471 cycles: 173294385 heartbeat IPC: 0.6527 cumulative IPC: 0.7518 (Simulation time: 00 hr 28 min 21 sec)
Heartbeat CPU 0 instructions: 165000472 cycles: 173985157 heartbeat IPC: 0.7238 cumulative IPC: 0.7517 (Simulation time: 00 hr 28 min 27 sec)
Heartbeat CPU 0 instructions: 165500474 cycles: 174722143 heartbeat IPC: 0.6784 cumulative IPC: 0.7514 (Simulation time: 00 hr 28 min 34 sec)
Heartbeat CPU 0 instructions: 166000474 cycles: 175455975 heartbeat IPC: 0.6814 cumulative IPC: 0.751 (Simulation time: 00 hr 28 min 40 sec)
Heartbeat CPU 0 instructions: 166500476 cycles: 176250975 heartbeat IPC: 0.6289 cumulative IPC: 0.7504 (Simulation time: 00 hr 28 min 47 sec)
Heartbeat CPU 0 instructions: 167000477 cycles: 177052701 heartbeat IPC: 0.6237 cumulative IPC: 0.7498 (Simulation time: 00 hr 28 min 54 sec)
Heartbeat CPU 0 instructions: 167500477 cycles: 177856042 heartbeat IPC: 0.6224 cumulative IPC: 0.7491 (Simulation time: 00 hr 29 min 01 sec)
Heartbeat CPU 0 instructions: 168000478 cycles: 178626327 heartbeat IPC: 0.6491 cumulative IPC: 0.7486 (Simulation time: 00 hr 29 min 08 sec)
Heartbeat CPU 0 instructions: 168500479 cycles: 179419206 heartbeat IPC: 0.6306 cumulative IPC: 0.748 (Simulation time: 00 hr 29 min 14 sec)
Heartbeat CPU 0 instructions: 169000480 cycles: 180131271 heartbeat IPC: 0.7022 cumulative IPC: 0.7478 (Simulation time: 00 hr 29 min 21 sec)
Heartbeat CPU 0 instructions: 169500482 cycles: 180878285 heartbeat IPC: 0.6693 cumulative IPC: 0.7475 (Simulation time: 00 hr 29 min 27 sec)
Heartbeat CPU 0 instructions: 170000482 cycles: 181568187 heartbeat IPC: 0.7247 cumulative IPC: 0.7474 (Simulation time: 00 hr 29 min 34 sec)
Heartbeat CPU 0 instructions: 170500483 cycles: 182289110 heartbeat IPC: 0.6936 cumulative IPC: 0.7471 (Simulation time: 00 hr 29 min 40 sec)
Heartbeat CPU 0 instructions: 171000484 cycles: 183039784 heartbeat IPC: 0.6661 cumulative IPC: 0.7467 (Simulation time: 00 hr 29 min 47 sec)
Heartbeat CPU 0 instructions: 171500486 cycles: 183907375 heartbeat IPC: 0.5763 cumulative IPC: 0.7458 (Simulation time: 00 hr 29 min 54 sec)
Heartbeat CPU 0 instructions: 172000486 cycles: 184735791 heartbeat IPC: 0.6036 cumulative IPC: 0.7451 (Simulation time: 00 hr 30 min 01 sec)
Heartbeat CPU 0 instructions: 172500488 cycles: 185385661 heartbeat IPC: 0.7694 cumulative IPC: 0.7452 (Simulation time: 00 hr 30 min 07 sec)
Heartbeat CPU 0 instructions: 173000488 cycles: 186034818 heartbeat IPC: 0.7702 cumulative IPC: 0.7453 (Simulation time: 00 hr 30 min 13 sec)
Heartbeat CPU 0 instructions: 173500488 cycles: 186676658 heartbeat IPC: 0.779 cumulative IPC: 0.7454 (Simulation time: 00 hr 30 min 19 sec)
Heartbeat CPU 0 instructions: 174000490 cycles: 187364704 heartbeat IPC: 0.7267 cumulative IPC: 0.7454 (Simulation time: 00 hr 30 min 25 sec)
Heartbeat CPU 0 instructions: 174500492 cycles: 188037510 heartbeat IPC: 0.7432 cumulative IPC: 0.7454 (Simulation time: 00 hr 30 min 31 sec)
Heartbeat CPU 0 instructions: 175000492 cycles: 188750936 heartbeat IPC: 0.7008 cumulative IPC: 0.7452 (Simulation time: 00 hr 30 min 38 sec)
Heartbeat CPU 0 instructions: 175500493 cycles: 189528117 heartbeat IPC: 0.6434 cumulative IPC: 0.7447 (Simulation time: 00 hr 30 min 45 sec)
Heartbeat CPU 0 instructions: 176000494 cycles: 190282619 heartbeat IPC: 0.6627 cumulative IPC: 0.7443 (Simulation time: 00 hr 30 min 51 sec)
Heartbeat CPU 0 instructions: 176500495 cycles: 191054990 heartbeat IPC: 0.6474 cumulative IPC: 0.7439 (Simulation time: 00 hr 30 min 58 sec)
Heartbeat CPU 0 instructions: 177000497 cycles: 191787886 heartbeat IPC: 0.6822 cumulative IPC: 0.7436 (Simulation time: 00 hr 31 min 04 sec)
Heartbeat CPU 0 instructions: 177500497 cycles: 192529786 heartbeat IPC: 0.6739 cumulative IPC: 0.7433 (Simulation time: 00 hr 31 min 11 sec)
Heartbeat CPU 0 instructions: 178000498 cycles: 193226070 heartbeat IPC: 0.7181 cumulative IPC: 0.7432 (Simulation time: 00 hr 31 min 17 sec)
Heartbeat CPU 0 instructions: 178500499 cycles: 193872324 heartbeat IPC: 0.7737 cumulative IPC: 0.7433 (Simulation time: 00 hr 31 min 23 sec)
Heartbeat CPU 0 instructions: 179000500 cycles: 194525832 heartbeat IPC: 0.7651 cumulative IPC: 0.7434 (Simulation time: 00 hr 31 min 29 sec)
Heartbeat CPU 0 instructions: 179500501 cycles: 195282898 heartbeat IPC: 0.6604 cumulative IPC: 0.7431 (Simulation time: 00 hr 31 min 36 sec)
Heartbeat CPU 0 instructions: 180000502 cycles: 196020489 heartbeat IPC: 0.6779 cumulative IPC: 0.7428 (Simulation time: 00 hr 31 min 43 sec)
Heartbeat CPU 0 instructions: 180500503 cycles: 196769160 heartbeat IPC: 0.6679 cumulative IPC: 0.7425 (Simulation time: 00 hr 31 min 49 sec)
Heartbeat CPU 0 instructions: 181000504 cycles: 197535415 heartbeat IPC: 0.6525 cumulative IPC: 0.7421 (Simulation time: 00 hr 31 min 56 sec)
Heartbeat CPU 0 instructions: 181500505 cycles: 198342148 heartbeat IPC: 0.6198 cumulative IPC: 0.7415 (Simulation time: 00 hr 32 min 03 sec)
Heartbeat CPU 0 instructions: 182000506 cycles: 199109604 heartbeat IPC: 0.6515 cumulative IPC: 0.7411 (Simulation time: 00 hr 32 min 10 sec)
Heartbeat CPU 0 instructions: 182500508 cycles: 199851668 heartbeat IPC: 0.6738 cumulative IPC: 0.7408 (Simulation time: 00 hr 32 min 16 sec)
Heartbeat CPU 0 instructions: 183000508 cycles: 200614947 heartbeat IPC: 0.6551 cumulative IPC: 0.7405 (Simulation time: 00 hr 32 min 23 sec)
Heartbeat CPU 0 instructions: 183500509 cycles: 201423012 heartbeat IPC: 0.6188 cumulative IPC: 0.7399 (Simulation time: 00 hr 32 min 30 sec)
Heartbeat CPU 0 instructions: 184000511 cycles: 202216738 heartbeat IPC: 0.6299 cumulative IPC: 0.7395 (Simulation time: 00 hr 32 min 37 sec)
Heartbeat CPU 0 instructions: 184500511 cycles: 202966653 heartbeat IPC: 0.6667 cumulative IPC: 0.7392 (Simulation time: 00 hr 32 min 43 sec)
Heartbeat CPU 0 instructions: 185000512 cycles: 203943183 heartbeat IPC: 0.512 cumulative IPC: 0.7379 (Simulation time: 00 hr 32 min 51 sec)
Heartbeat CPU 0 instructions: 185500513 cycles: 204588683 heartbeat IPC: 0.7746 cumulative IPC: 0.7381 (Simulation time: 00 hr 32 min 57 sec)
Heartbeat CPU 0 instructions: 186000514 cycles: 205116019 heartbeat IPC: 0.9482 cumulative IPC: 0.7387 (Simulation time: 00 hr 33 min 03 sec)
Heartbeat CPU 0 instructions: 186500516 cycles: 205646598 heartbeat IPC: 0.9424 cumulative IPC: 0.7393 (Simulation time: 00 hr 33 min 08 sec)
Heartbeat CPU 0 instructions: 187000516 cycles: 206252130 heartbeat IPC: 0.8257 cumulative IPC: 0.7395 (Simulation time: 00 hr 33 min 14 sec)
Heartbeat CPU 0 instructions: 187500518 cycles: 206796723 heartbeat IPC: 0.9181 cumulative IPC: 0.7401 (Simulation time: 00 hr 33 min 20 sec)
Heartbeat CPU 0 instructions: 188000518 cycles: 207340735 heartbeat IPC: 0.9191 cumulative IPC: 0.7406 (Simulation time: 00 hr 33 min 25 sec)
Heartbeat CPU 0 instructions: 188500518 cycles: 207913237 heartbeat IPC: 0.8734 cumulative IPC: 0.741 (Simulation time: 00 hr 33 min 31 sec)
Heartbeat CPU 0 instructions: 189000518 cycles: 208605386 heartbeat IPC: 0.7224 cumulative IPC: 0.7409 (Simulation time: 00 hr 33 min 37 sec)
Heartbeat CPU 0 instructions: 189500518 cycles: 209251074 heartbeat IPC: 0.7744 cumulative IPC: 0.741 (Simulation time: 00 hr 33 min 43 sec)
Heartbeat CPU 0 instructions: 190000519 cycles: 209914263 heartbeat IPC: 0.7539 cumulative IPC: 0.7411 (Simulation time: 00 hr 33 min 49 sec)
Heartbeat CPU 0 instructions: 190500520 cycles: 210566775 heartbeat IPC: 0.7663 cumulative IPC: 0.7412 (Simulation time: 00 hr 33 min 56 sec)
Heartbeat CPU 0 instructions: 191000521 cycles: 211331595 heartbeat IPC: 0.6537 cumulative IPC: 0.7408 (Simulation time: 00 hr 34 min 02 sec)
Heartbeat CPU 0 instructions: 191500522 cycles: 212107420 heartbeat IPC: 0.6445 cumulative IPC: 0.7404 (Simulation time: 00 hr 34 min 09 sec)
Heartbeat CPU 0 instructions: 192000523 cycles: 212665552 heartbeat IPC: 0.8958 cumulative IPC: 0.7409 (Simulation time: 00 hr 34 min 15 sec)
Heartbeat CPU 0 instructions: 192500524 cycles: 213294059 heartbeat IPC: 0.7955 cumulative IPC: 0.7411 (Simulation time: 00 hr 34 min 21 sec)
Heartbeat CPU 0 instructions: 193000525 cycles: 213981575 heartbeat IPC: 0.7273 cumulative IPC: 0.741 (Simulation time: 00 hr 34 min 27 sec)
Heartbeat CPU 0 instructions: 193500526 cycles: 214687030 heartbeat IPC: 0.7088 cumulative IPC: 0.7409 (Simulation time: 00 hr 34 min 33 sec)
Heartbeat CPU 0 instructions: 194000527 cycles: 215456132 heartbeat IPC: 0.6501 cumulative IPC: 0.7405 (Simulation time: 00 hr 34 min 40 sec)
Heartbeat CPU 0 instructions: 194500528 cycles: 216219331 heartbeat IPC: 0.6551 cumulative IPC: 0.7402 (Simulation time: 00 hr 34 min 47 sec)
Heartbeat CPU 0 instructions: 195000529 cycles: 216897732 heartbeat IPC: 0.737 cumulative IPC: 0.7402 (Simulation time: 00 hr 34 min 53 sec)
Heartbeat CPU 0 instructions: 195500531 cycles: 217735194 heartbeat IPC: 0.597 cumulative IPC: 0.7396 (Simulation time: 00 hr 35 min 00 sec)
Heartbeat CPU 0 instructions: 196000532 cycles: 218514669 heartbeat IPC: 0.6415 cumulative IPC: 0.7392 (Simulation time: 00 hr 35 min 07 sec)
Heartbeat CPU 0 instructions: 196500533 cycles: 219258949 heartbeat IPC: 0.6718 cumulative IPC: 0.7389 (Simulation time: 00 hr 35 min 13 sec)
Heartbeat CPU 0 instructions: 197000533 cycles: 220107609 heartbeat IPC: 0.5892 cumulative IPC: 0.7383 (Simulation time: 00 hr 35 min 20 sec)
Heartbeat CPU 0 instructions: 197500534 cycles: 220943182 heartbeat IPC: 0.5984 cumulative IPC: 0.7377 (Simulation time: 00 hr 35 min 27 sec)
Heartbeat CPU 0 instructions: 198000535 cycles: 221796282 heartbeat IPC: 0.5861 cumulative IPC: 0.7371 (Simulation time: 00 hr 35 min 35 sec)
Heartbeat CPU 0 instructions: 198500536 cycles: 222588345 heartbeat IPC: 0.6313 cumulative IPC: 0.7367 (Simulation time: 00 hr 35 min 41 sec)
Heartbeat CPU 0 instructions: 199000536 cycles: 223384023 heartbeat IPC: 0.6284 cumulative IPC: 0.7362 (Simulation time: 00 hr 35 min 48 sec)
Heartbeat CPU 0 instructions: 199500538 cycles: 224157825 heartbeat IPC: 0.6462 cumulative IPC: 0.7359 (Simulation time: 00 hr 35 min 55 sec)
Heartbeat CPU 0 instructions: 200000539 cycles: 224952244 heartbeat IPC: 0.6294 cumulative IPC: 0.7355 (Simulation time: 00 hr 36 min 02 sec)
Heartbeat CPU 0 instructions: 200500540 cycles: 225765482 heartbeat IPC: 0.6148 cumulative IPC: 0.735 (Simulation time: 00 hr 36 min 09 sec)
Heartbeat CPU 0 instructions: 201000541 cycles: 226590670 heartbeat IPC: 0.6059 cumulative IPC: 0.7345 (Simulation time: 00 hr 36 min 16 sec)
Heartbeat CPU 0 instructions: 201500542 cycles: 227373764 heartbeat IPC: 0.6385 cumulative IPC: 0.7341 (Simulation time: 00 hr 36 min 23 sec)
Heartbeat CPU 0 instructions: 202000543 cycles: 228090922 heartbeat IPC: 0.6972 cumulative IPC: 0.734 (Simulation time: 00 hr 36 min 29 sec)
Heartbeat CPU 0 instructions: 202500544 cycles: 228838692 heartbeat IPC: 0.6687 cumulative IPC: 0.7338 (Simulation time: 00 hr 36 min 36 sec)
Heartbeat CPU 0 instructions: 203000545 cycles: 229586819 heartbeat IPC: 0.6683 cumulative IPC: 0.7335 (Simulation time: 00 hr 36 min 43 sec)
Heartbeat CPU 0 instructions: 203500545 cycles: 230344793 heartbeat IPC: 0.6597 cumulative IPC: 0.7332 (Simulation time: 00 hr 36 min 49 sec)
Heartbeat CPU 0 instructions: 204000548 cycles: 231106396 heartbeat IPC: 0.6565 cumulative IPC: 0.733 (Simulation time: 00 hr 36 min 56 sec)
Heartbeat CPU 0 instructions: 204500548 cycles: 231904076 heartbeat IPC: 0.6268 cumulative IPC: 0.7326 (Simulation time: 00 hr 37 min 03 sec)
Heartbeat CPU 0 instructions: 205000550 cycles: 232675682 heartbeat IPC: 0.648 cumulative IPC: 0.7323 (Simulation time: 00 hr 37 min 10 sec)
Heartbeat CPU 0 instructions: 205500551 cycles: 233480219 heartbeat IPC: 0.6215 cumulative IPC: 0.7318 (Simulation time: 00 hr 37 min 17 sec)
Heartbeat CPU 0 instructions: 206000551 cycles: 234340679 heartbeat IPC: 0.5811 cumulative IPC: 0.7312 (Simulation time: 00 hr 37 min 24 sec)
Heartbeat CPU 0 instructions: 206500552 cycles: 235161172 heartbeat IPC: 0.6094 cumulative IPC: 0.7308 (Simulation time: 00 hr 37 min 31 sec)
Heartbeat CPU 0 instructions: 207000553 cycles: 235930097 heartbeat IPC: 0.6503 cumulative IPC: 0.7305 (Simulation time: 00 hr 37 min 37 sec)
Heartbeat CPU 0 instructions: 207500554 cycles: 236780856 heartbeat IPC: 0.5877 cumulative IPC: 0.7299 (Simulation time: 00 hr 37 min 45 sec)
Heartbeat CPU 0 instructions: 208000555 cycles: 237605505 heartbeat IPC: 0.6063 cumulative IPC: 0.7294 (Simulation time: 00 hr 37 min 52 sec)
Heartbeat CPU 0 instructions: 208500556 cycles: 238468719 heartbeat IPC: 0.5792 cumulative IPC: 0.7288 (Simulation time: 00 hr 37 min 59 sec)
Heartbeat CPU 0 instructions: 209000558 cycles: 239257982 heartbeat IPC: 0.6335 cumulative IPC: 0.7285 (Simulation time: 00 hr 38 min 06 sec)
Heartbeat CPU 0 instructions: 209500559 cycles: 240077177 heartbeat IPC: 0.6104 cumulative IPC: 0.7281 (Simulation time: 00 hr 38 min 13 sec)
Heartbeat CPU 0 instructions: 210000559 cycles: 240630350 heartbeat IPC: 0.9039 cumulative IPC: 0.7285 (Simulation time: 00 hr 38 min 18 sec)
Heartbeat CPU 0 instructions: 210500561 cycles: 241131262 heartbeat IPC: 0.9982 cumulative IPC: 0.7291 (Simulation time: 00 hr 38 min 24 sec)
Heartbeat CPU 0 instructions: 211000561 cycles: 241857507 heartbeat IPC: 0.6885 cumulative IPC: 0.729 (Simulation time: 00 hr 38 min 30 sec)
Heartbeat CPU 0 instructions: 211500561 cycles: 242618686 heartbeat IPC: 0.6569 cumulative IPC: 0.7287 (Simulation time: 00 hr 38 min 37 sec)
Heartbeat CPU 0 instructions: 212000563 cycles: 243368400 heartbeat IPC: 0.6669 cumulative IPC: 0.7285 (Simulation time: 00 hr 38 min 44 sec)
Heartbeat CPU 0 instructions: 212500564 cycles: 244171149 heartbeat IPC: 0.6229 cumulative IPC: 0.7281 (Simulation time: 00 hr 38 min 50 sec)
Heartbeat CPU 0 instructions: 213000566 cycles: 244973160 heartbeat IPC: 0.6234 cumulative IPC: 0.7278 (Simulation time: 00 hr 38 min 57 sec)
Heartbeat CPU 0 instructions: 213500566 cycles: 245819162 heartbeat IPC: 0.591 cumulative IPC: 0.7273 (Simulation time: 00 hr 39 min 04 sec)
Heartbeat CPU 0 instructions: 214000567 cycles: 246594678 heartbeat IPC: 0.6447 cumulative IPC: 0.727 (Simulation time: 00 hr 39 min 11 sec)
Heartbeat CPU 0 instructions: 214500568 cycles: 247365204 heartbeat IPC: 0.6489 cumulative IPC: 0.7267 (Simulation time: 00 hr 39 min 18 sec)
Heartbeat CPU 0 instructions: 215000568 cycles: 248107029 heartbeat IPC: 0.674 cumulative IPC: 0.7265 (Simulation time: 00 hr 39 min 25 sec)
Heartbeat CPU 0 instructions: 215500570 cycles: 248894338 heartbeat IPC: 0.6351 cumulative IPC: 0.7262 (Simulation time: 00 hr 39 min 31 sec)
Heartbeat CPU 0 instructions: 216000571 cycles: 249634280 heartbeat IPC: 0.6757 cumulative IPC: 0.7261 (Simulation time: 00 hr 39 min 38 sec)
Heartbeat CPU 0 instructions: 216500572 cycles: 250337819 heartbeat IPC: 0.7107 cumulative IPC: 0.726 (Simulation time: 00 hr 39 min 44 sec)
Heartbeat CPU 0 instructions: 217000573 cycles: 251099509 heartbeat IPC: 0.6564 cumulative IPC: 0.7258 (Simulation time: 00 hr 39 min 51 sec)
Heartbeat CPU 0 instructions: 217500574 cycles: 251927865 heartbeat IPC: 0.6036 cumulative IPC: 0.7253 (Simulation time: 00 hr 39 min 58 sec)
Heartbeat CPU 0 instructions: 218000575 cycles: 252770484 heartbeat IPC: 0.5934 cumulative IPC: 0.7249 (Simulation time: 00 hr 40 min 05 sec)
Heartbeat CPU 0 instructions: 218500577 cycles: 253683025 heartbeat IPC: 0.5479 cumulative IPC: 0.7242 (Simulation time: 00 hr 40 min 13 sec)
Heartbeat CPU 0 instructions: 219000577 cycles: 254633798 heartbeat IPC: 0.5259 cumulative IPC: 0.7234 (Simulation time: 00 hr 40 min 21 sec)
Heartbeat CPU 0 instructions: 219500578 cycles: 255632803 heartbeat IPC: 0.5005 cumulative IPC: 0.7224 (Simulation time: 00 hr 40 min 29 sec)
Heartbeat CPU 0 instructions: 220000579 cycles: 256651726 heartbeat IPC: 0.4907 cumulative IPC: 0.7214 (Simulation time: 00 hr 40 min 37 sec)
Heartbeat CPU 0 instructions: 220500581 cycles: 257595063 heartbeat IPC: 0.53 cumulative IPC: 0.7206 (Simulation time: 00 hr 40 min 44 sec)
Heartbeat CPU 0 instructions: 221000581 cycles: 258714273 heartbeat IPC: 0.4467 cumulative IPC: 0.7194 (Simulation time: 00 hr 40 min 53 sec)
Heartbeat CPU 0 instructions: 221500582 cycles: 259834691 heartbeat IPC: 0.4463 cumulative IPC: 0.7181 (Simulation time: 00 hr 41 min 01 sec)
Heartbeat CPU 0 instructions: 222000583 cycles: 260771869 heartbeat IPC: 0.5335 cumulative IPC: 0.7174 (Simulation time: 00 hr 41 min 09 sec)
Heartbeat CPU 0 instructions: 222500584 cycles: 261537766 heartbeat IPC: 0.6528 cumulative IPC: 0.7172 (Simulation time: 00 hr 41 min 16 sec)
Heartbeat CPU 0 instructions: 223000585 cycles: 262310214 heartbeat IPC: 0.6473 cumulative IPC: 0.7169 (Simulation time: 00 hr 41 min 23 sec)
Heartbeat CPU 0 instructions: 223500586 cycles: 263138687 heartbeat IPC: 0.6035 cumulative IPC: 0.7165 (Simulation time: 00 hr 41 min 30 sec)
Heartbeat CPU 0 instructions: 224000587 cycles: 263916749 heartbeat IPC: 0.6426 cumulative IPC: 0.7163 (Simulation time: 00 hr 41 min 37 sec)
Heartbeat CPU 0 instructions: 224500590 cycles: 264813984 heartbeat IPC: 0.5573 cumulative IPC: 0.7157 (Simulation time: 00 hr 41 min 44 sec)
Heartbeat CPU 0 instructions: 225000593 cycles: 265607178 heartbeat IPC: 0.6304 cumulative IPC: 0.7154 (Simulation time: 00 hr 41 min 51 sec)
Heartbeat CPU 0 instructions: 225500593 cycles: 266438506 heartbeat IPC: 0.6014 cumulative IPC: 0.7151 (Simulation time: 00 hr 41 min 58 sec)
Heartbeat CPU 0 instructions: 226000594 cycles: 267154477 heartbeat IPC: 0.6984 cumulative IPC: 0.715 (Simulation time: 00 hr 42 min 04 sec)
Heartbeat CPU 0 instructions: 226500596 cycles: 267909411 heartbeat IPC: 0.6623 cumulative IPC: 0.7148 (Simulation time: 00 hr 42 min 11 sec)
Heartbeat CPU 0 instructions: 227000596 cycles: 268688028 heartbeat IPC: 0.6422 cumulative IPC: 0.7146 (Simulation time: 00 hr 42 min 17 sec)
Heartbeat CPU 0 instructions: 227500597 cycles: 269509541 heartbeat IPC: 0.6086 cumulative IPC: 0.7143 (Simulation time: 00 hr 42 min 24 sec)
Heartbeat CPU 0 instructions: 228000599 cycles: 270306833 heartbeat IPC: 0.6271 cumulative IPC: 0.714 (Simulation time: 00 hr 42 min 31 sec)
Heartbeat CPU 0 instructions: 228500599 cycles: 271112500 heartbeat IPC: 0.6206 cumulative IPC: 0.7137 (Simulation time: 00 hr 42 min 38 sec)
Heartbeat CPU 0 instructions: 229000599 cycles: 271862604 heartbeat IPC: 0.6666 cumulative IPC: 0.7135 (Simulation time: 00 hr 42 min 45 sec)
Heartbeat CPU 0 instructions: 229500600 cycles: 272699407 heartbeat IPC: 0.5975 cumulative IPC: 0.7132 (Simulation time: 00 hr 42 min 52 sec)
Heartbeat CPU 0 instructions: 230000601 cycles: 273673994 heartbeat IPC: 0.513 cumulative IPC: 0.7124 (Simulation time: 00 hr 43 min 00 sec)
Heartbeat CPU 0 instructions: 230500602 cycles: 274899064 heartbeat IPC: 0.4081 cumulative IPC: 0.7109 (Simulation time: 00 hr 43 min 09 sec)
Heartbeat CPU 0 instructions: 231000604 cycles: 275825707 heartbeat IPC: 0.5396 cumulative IPC: 0.7103 (Simulation time: 00 hr 43 min 16 sec)
Heartbeat CPU 0 instructions: 231500604 cycles: 276615552 heartbeat IPC: 0.633 cumulative IPC: 0.7101 (Simulation time: 00 hr 43 min 23 sec)
Heartbeat CPU 0 instructions: 232000605 cycles: 277447876 heartbeat IPC: 0.6007 cumulative IPC: 0.7097 (Simulation time: 00 hr 43 min 30 sec)
Heartbeat CPU 0 instructions: 232500606 cycles: 278246741 heartbeat IPC: 0.6259 cumulative IPC: 0.7094 (Simulation time: 00 hr 43 min 37 sec)
Heartbeat CPU 0 instructions: 233000608 cycles: 278954165 heartbeat IPC: 0.7068 cumulative IPC: 0.7094 (Simulation time: 00 hr 43 min 43 sec)
Heartbeat CPU 0 instructions: 233500609 cycles: 279803853 heartbeat IPC: 0.5885 cumulative IPC: 0.709 (Simulation time: 00 hr 43 min 51 sec)
Heartbeat CPU 0 instructions: 234000609 cycles: 280673133 heartbeat IPC: 0.5752 cumulative IPC: 0.7086 (Simulation time: 00 hr 43 min 58 sec)
Heartbeat CPU 0 instructions: 234500610 cycles: 281492337 heartbeat IPC: 0.6103 cumulative IPC: 0.7083 (Simulation time: 00 hr 44 min 05 sec)
Heartbeat CPU 0 instructions: 235000612 cycles: 282303479 heartbeat IPC: 0.6164 cumulative IPC: 0.708 (Simulation time: 00 hr 44 min 12 sec)
Heartbeat CPU 0 instructions: 235500612 cycles: 283124605 heartbeat IPC: 0.6089 cumulative IPC: 0.7077 (Simulation time: 00 hr 44 min 19 sec)
Heartbeat CPU 0 instructions: 236000614 cycles: 283787540 heartbeat IPC: 0.7542 cumulative IPC: 0.7078 (Simulation time: 00 hr 44 min 25 sec)
Heartbeat CPU 0 instructions: 236500616 cycles: 284597771 heartbeat IPC: 0.6171 cumulative IPC: 0.7075 (Simulation time: 00 hr 44 min 32 sec)
Heartbeat CPU 0 instructions: 237000616 cycles: 285425463 heartbeat IPC: 0.6041 cumulative IPC: 0.7072 (Simulation time: 00 hr 44 min 39 sec)
Heartbeat CPU 0 instructions: 237500617 cycles: 286222806 heartbeat IPC: 0.6271 cumulative IPC: 0.707 (Simulation time: 00 hr 44 min 45 sec)
Heartbeat CPU 0 instructions: 238000618 cycles: 287068356 heartbeat IPC: 0.5913 cumulative IPC: 0.7066 (Simulation time: 00 hr 44 min 53 sec)
Heartbeat CPU 0 instructions: 238500620 cycles: 287908671 heartbeat IPC: 0.595 cumulative IPC: 0.7062 (Simulation time: 00 hr 45 min 00 sec)
Heartbeat CPU 0 instructions: 239000621 cycles: 288726207 heartbeat IPC: 0.6116 cumulative IPC: 0.706 (Simulation time: 00 hr 45 min 07 sec)
Heartbeat CPU 0 instructions: 239500621 cycles: 289484535 heartbeat IPC: 0.6593 cumulative IPC: 0.7058 (Simulation time: 00 hr 45 min 13 sec)
Heartbeat CPU 0 instructions: 240000623 cycles: 290257498 heartbeat IPC: 0.6469 cumulative IPC: 0.7057 (Simulation time: 00 hr 45 min 20 sec)
Heartbeat CPU 0 instructions: 240500624 cycles: 291037190 heartbeat IPC: 0.6413 cumulative IPC: 0.7055 (Simulation time: 00 hr 45 min 26 sec)
Heartbeat CPU 0 instructions: 241000624 cycles: 291810217 heartbeat IPC: 0.6468 cumulative IPC: 0.7053 (Simulation time: 00 hr 45 min 33 sec)
Heartbeat CPU 0 instructions: 241500626 cycles: 292493591 heartbeat IPC: 0.7317 cumulative IPC: 0.7054 (Simulation time: 00 hr 45 min 39 sec)
Heartbeat CPU 0 instructions: 242000626 cycles: 293240425 heartbeat IPC: 0.6695 cumulative IPC: 0.7053 (Simulation time: 00 hr 45 min 46 sec)
Heartbeat CPU 0 instructions: 242500626 cycles: 294089684 heartbeat IPC: 0.5887 cumulative IPC: 0.7049 (Simulation time: 00 hr 45 min 53 sec)
Heartbeat CPU 0 instructions: 243000628 cycles: 294896373 heartbeat IPC: 0.6198 cumulative IPC: 0.7047 (Simulation time: 00 hr 46 min 00 sec)
Heartbeat CPU 0 instructions: 243500629 cycles: 295773652 heartbeat IPC: 0.5699 cumulative IPC: 0.7042 (Simulation time: 00 hr 46 min 07 sec)
Heartbeat CPU 0 instructions: 244000630 cycles: 296540916 heartbeat IPC: 0.6517 cumulative IPC: 0.7041 (Simulation time: 00 hr 46 min 13 sec)
Heartbeat CPU 0 instructions: 244500631 cycles: 297344456 heartbeat IPC: 0.6222 cumulative IPC: 0.7038 (Simulation time: 00 hr 46 min 20 sec)
Heartbeat CPU 0 instructions: 245000632 cycles: 298146474 heartbeat IPC: 0.6234 cumulative IPC: 0.7036 (Simulation time: 00 hr 46 min 27 sec)
Heartbeat CPU 0 instructions: 245500634 cycles: 298970534 heartbeat IPC: 0.6068 cumulative IPC: 0.7033 (Simulation time: 00 hr 46 min 34 sec)
Heartbeat CPU 0 instructions: 246000635 cycles: 299870991 heartbeat IPC: 0.5553 cumulative IPC: 0.7028 (Simulation time: 00 hr 46 min 41 sec)
Heartbeat CPU 0 instructions: 246500635 cycles: 300762450 heartbeat IPC: 0.5609 cumulative IPC: 0.7024 (Simulation time: 00 hr 46 min 48 sec)
Heartbeat CPU 0 instructions: 247000636 cycles: 301545647 heartbeat IPC: 0.6384 cumulative IPC: 0.7022 (Simulation time: 00 hr 46 min 55 sec)
Heartbeat CPU 0 instructions: 247500638 cycles: 302358958 heartbeat IPC: 0.6148 cumulative IPC: 0.702 (Simulation time: 00 hr 47 min 02 sec)
Heartbeat CPU 0 instructions: 248000639 cycles: 303230964 heartbeat IPC: 0.5734 cumulative IPC: 0.7016 (Simulation time: 00 hr 47 min 09 sec)
Heartbeat CPU 0 instructions: 248500639 cycles: 304072743 heartbeat IPC: 0.594 cumulative IPC: 0.7012 (Simulation time: 00 hr 47 min 16 sec)
Heartbeat CPU 0 instructions: 249000640 cycles: 304923329 heartbeat IPC: 0.5878 cumulative IPC: 0.7009 (Simulation time: 00 hr 47 min 23 sec)
Heartbeat CPU 0 instructions: 249500641 cycles: 305679751 heartbeat IPC: 0.661 cumulative IPC: 0.7008 (Simulation time: 00 hr 47 min 29 sec)
*** Reached end of trace: (0, "/local-ssd/ben/dpc4-traces/Graph/Ligra/ligra_MIS.com-lj.ungraph.gcc_6.3.0_O3.drop_21250M.length_250M.champsimtrace.xz")
Simulation finished CPU 0 instructions: 200000003 cycles: 285489661 cumulative IPC: 0.7006 (Simulation time: 00 hr 47 min 36 sec)
Simulation complete CPU 0 instructions: 200000003 cycles: 285489661 cumulative IPC: 0.7006 (Simulation time: 00 hr 47 min 36 sec)

ChampSim completed all CPUs

=== Simulation ===
CPU 0 runs /local-ssd/ben/dpc4-traces/Graph/Ligra/ligra_MIS.com-lj.ungraph.gcc_6.3.0_O3.drop_21250M.length_250M.champsimtrace.xz

Region of Interest Statistics

CPU 0 cumulative IPC: 0.7006 instructions: 200000003 cycles: 285489661
CPU 0 Branch Prediction Accuracy: 98.59% MPKI: 4.627 Average ROB Occupancy at Mispredict: 131.2
Branch type MPKI
BRANCH_DIRECT_JUMP: 0
BRANCH_INDIRECT: 0
BRANCH_CONDITIONAL: 4.627
BRANCH_DIRECT_CALL: 0
BRANCH_INDIRECT_CALL: 0
BRANCH_RETURN: 0

cpu0->cpu0_STLB TOTAL        ACCESS:    1786029 HIT:    1764295 MISS:      21734 MSHR_MERGE:          0
cpu0->cpu0_STLB LOAD         ACCESS:    1786029 HIT:    1764295 MISS:      21734 MSHR_MERGE:          0
cpu0->cpu0_STLB RFO          ACCESS:          0 HIT:          0 MISS:          0 MSHR_MERGE:          0
cpu0->cpu0_STLB PREFETCH     ACCESS:          0 HIT:          0 MISS:          0 MSHR_MERGE:          0
cpu0->cpu0_STLB WRITE        ACCESS:          0 HIT:          0 MISS:          0 MSHR_MERGE:          0
cpu0->cpu0_STLB TRANSLATION  ACCESS:          0 HIT:          0 MISS:          0 MSHR_MERGE:          0
cpu0->cpu0_STLB PREFETCH REQUESTED:          0 ISSUED:          0 USEFUL:          0 USELESS:          0
cpu0->cpu0_STLB AVERAGE MISS LATENCY: 243.7 cycles
cpu0->cpu0_L2C TOTAL        ACCESS:    6085418 HIT:    4650095 MISS:    1435323 MSHR_MERGE:          0
cpu0->cpu0_L2C LOAD         ACCESS:    6075027 HIT:    4642477 MISS:    1432550 MSHR_MERGE:          0
cpu0->cpu0_L2C RFO          ACCESS:          0 HIT:          0 MISS:          0 MSHR_MERGE:          0
cpu0->cpu0_L2C PREFETCH     ACCESS:          0 HIT:          0 MISS:          0 MSHR_MERGE:          0
cpu0->cpu0_L2C WRITE        ACCESS:          0 HIT:          0 MISS:          0 MSHR_MERGE:          0
cpu0->cpu0_L2C TRANSLATION  ACCESS:      10391 HIT:       7618 MISS:       2773 MSHR_MERGE:          0
cpu0->cpu0_L2C PREFETCH REQUESTED:          0 ISSUED:          0 USEFUL:          0 USELESS:          0
cpu0->cpu0_L2C AVERAGE MISS LATENCY: 210 cycles
cpu0->cpu0_L1I TOTAL        ACCESS:   16553645 HIT:   16553645 MISS:          0 MSHR_MERGE:          0
cpu0->cpu0_L1I LOAD         ACCESS:   16553645 HIT:   16553645 MISS:          0 MSHR_MERGE:          0
cpu0->cpu0_L1I RFO          ACCESS:          0 HIT:          0 MISS:          0 MSHR_MERGE:          0
cpu0->cpu0_L1I PREFETCH     ACCESS:          0 HIT:          0 MISS:          0 MSHR_MERGE:          0
cpu0->cpu0_L1I WRITE        ACCESS:          0 HIT:          0 MISS:          0 MSHR_MERGE:          0
cpu0->cpu0_L1I TRANSLATION  ACCESS:          0 HIT:          0 MISS:          0 MSHR_MERGE:          0
cpu0->cpu0_L1I PREFETCH REQUESTED:          0 ISSUED:          0 USEFUL:          0 USELESS:          0
cpu0->cpu0_L1I AVERAGE MISS LATENCY: - cycles
cpu0->cpu0_L1D TOTAL        ACCESS:   48747801 HIT:   35879843 MISS:   12867958 MSHR_MERGE:    6782540
cpu0->cpu0_L1D LOAD         ACCESS:   48704290 HIT:   35846723 MISS:   12857567 MSHR_MERGE:    6782540
cpu0->cpu0_L1D RFO          ACCESS:          0 HIT:          0 MISS:          0 MSHR_MERGE:          0
cpu0->cpu0_L1D PREFETCH     ACCESS:          0 HIT:          0 MISS:          0 MSHR_MERGE:          0
cpu0->cpu0_L1D WRITE        ACCESS:          0 HIT:          0 MISS:          0 MSHR_MERGE:          0
cpu0->cpu0_L1D TRANSLATION  ACCESS:      43511 HIT:      33120 MISS:      10391 MSHR_MERGE:          0
cpu0->cpu0_L1D PREFETCH REQUESTED:          0 ISSUED:          0 USEFUL:          0 USELESS:          0
cpu0->cpu0_L1D AVERAGE MISS LATENCY: 57.81 cycles
cpu0->cpu0_ITLB TOTAL        ACCESS:   10904488 HIT:   10904488 MISS:          0 MSHR_MERGE:          0
cpu0->cpu0_ITLB LOAD         ACCESS:   10904488 HIT:   10904488 MISS:          0 MSHR_MERGE:          0
cpu0->cpu0_ITLB RFO          ACCESS:          0 HIT:          0 MISS:          0 MSHR_MERGE:          0
cpu0->cpu0_ITLB PREFETCH     ACCESS:          0 HIT:          0 MISS:          0 MSHR_MERGE:          0
cpu0->cpu0_ITLB WRITE        ACCESS:          0 HIT:          0 MISS:          0 MSHR_MERGE:          0
cpu0->cpu0_ITLB TRANSLATION  ACCESS:          0 HIT:          0 MISS:          0 MSHR_MERGE:          0
cpu0->cpu0_ITLB PREFETCH REQUESTED:          0 ISSUED:          0 USEFUL:          0 USELESS:          0
cpu0->cpu0_ITLB AVERAGE MISS LATENCY: - cycles
cpu0->cpu0_DTLB TOTAL        ACCESS:   48704289 HIT:   46494005 MISS:    2210284 MSHR_MERGE:     424255
cpu0->cpu0_DTLB LOAD         ACCESS:   48704289 HIT:   46494005 MISS:    2210284 MSHR_MERGE:     424255
cpu0->cpu0_DTLB RFO          ACCESS:          0 HIT:          0 MISS:          0 MSHR_MERGE:          0
cpu0->cpu0_DTLB PREFETCH     ACCESS:          0 HIT:          0 MISS:          0 MSHR_MERGE:          0
cpu0->cpu0_DTLB WRITE        ACCESS:          0 HIT:          0 MISS:          0 MSHR_MERGE:          0
cpu0->cpu0_DTLB TRANSLATION  ACCESS:          0 HIT:          0 MISS:          0 MSHR_MERGE:          0
cpu0->cpu0_DTLB PREFETCH REQUESTED:          0 ISSUED:          0 USEFUL:          0 USELESS:          0
cpu0->cpu0_DTLB AVERAGE MISS LATENCY: 7.978 cycles
cpu0->LLC TOTAL        ACCESS:    1435360 HIT:      10730 MISS:    1424630 MSHR_MERGE:          0
cpu0->LLC LOAD         ACCESS:    1432550 HIT:      10717 MISS:    1421833 MSHR_MERGE:          0
cpu0->LLC RFO          ACCESS:          0 HIT:          0 MISS:          0 MSHR_MERGE:          0
cpu0->LLC PREFETCH     ACCESS:          0 HIT:          0 MISS:          0 MSHR_MERGE:          0
cpu0->LLC WRITE        ACCESS:         37 HIT:          9 MISS:         28 MSHR_MERGE:          0
cpu0->LLC TRANSLATION  ACCESS:       2773 HIT:          4 MISS:       2769 MSHR_MERGE:          0
cpu0->LLC PREFETCH REQUESTED:          0 ISSUED:          0 USEFUL:          0 USELESS:          0
cpu0->LLC AVERAGE MISS LATENCY: 188.4 cycles

DRAM Statistics

Channel 0 RQ ROW_BUFFER_HIT:      96621
  ROW_BUFFER_MISS:    1327980
  AVG DBUS CONGESTED CYCLE: 27.15
Channel 0 WQ ROW_BUFFER_HIT:       1029
  ROW_BUFFER_MISS:       3304
  FULL:          0
Channel 0 REFRESHES ISSUED:      23789
