[VMEM] WARNING: physical memory size is smaller than virtual memory size.

*** ChampSim Multicore Out-of-Order Simulator ***
Warmup Instructions: 50000000
Simulation Instructions: 200000000
Number of CPUs: 1
Page size: 4096
Core 0: /local-ssd/ben/dpc4-traces/SPEC17/623.xalancbmk_s-10B.champsimtrace.xz
Off-chip DRAM Size: 64 GiB Channels: 1 Width: 64-bit Data Rate: 4807 MT/s
Heartbeat CPU 0 instructions: 500002 cycles: 205943 heartbeat IPC: 2.428 cumulative IPC: 2.428 (Simulation time: 00 hr 00 min 04 sec)
Heartbeat CPU 0 instructions: 1000002 cycles: 350415 heartbeat IPC: 3.461 cumulative IPC: 2.854 (Simulation time: 00 hr 00 min 06 sec)
Heartbeat CPU 0 instructions: 1500004 cycles: 527763 heartbeat IPC: 2.819 cumulative IPC: 2.842 (Simulation time: 00 hr 00 min 09 sec)
Heartbeat CPU 0 instructions: 2000007 cycles: 676938 heartbeat IPC: 3.352 cumulative IPC: 2.954 (Simulation time: 00 hr 00 min 11 sec)
Heartbeat CPU 0 instructions: 2500007 cycles: 786449 heartbeat IPC: 4.566 cumulative IPC: 3.179 (Simulation time: 00 hr 00 min 13 sec)
Heartbeat CPU 0 instructions: 3000010 cycles: 902221 heartbeat IPC: 4.319 cumulative IPC: 3.325 (Simulation time: 00 hr 00 min 14 sec)
Heartbeat CPU 0 instructions: 3500013 cycles: 1003002 heartbeat IPC: 4.961 cumulative IPC: 3.49 (Simulation time: 00 hr 00 min 16 sec)
Heartbeat CPU 0 instructions: 4000018 cycles: 1105636 heartbeat IPC: 4.872 cumulative IPC: 3.618 (Simulation time: 00 hr 00 min 17 sec)
Heartbeat CPU 0 instructions: 4500022 cycles: 1205637 heartbeat IPC: 5 cumulative IPC: 3.732 (Simulation time: 00 hr 00 min 19 sec)
Heartbeat CPU 0 instructions: 5000028 cycles: 1305640 heartbeat IPC: 5 cumulative IPC: 3.83 (Simulation time: 00 hr 00 min 20 sec)
Heartbeat CPU 0 instructions: 5500033 cycles: 1408268 heartbeat IPC: 4.872 cumulative IPC: 3.906 (Simulation time: 00 hr 00 min 22 sec)
Heartbeat CPU 0 instructions: 6000035 cycles: 1511710 heartbeat IPC: 4.834 cumulative IPC: 3.969 (Simulation time: 00 hr 00 min 23 sec)
Heartbeat CPU 0 instructions: 6500036 cycles: 1612143 heartbeat IPC: 4.978 cumulative IPC: 4.032 (Simulation time: 00 hr 00 min 24 sec)
Heartbeat CPU 0 instructions: 7000039 cycles: 1712389 heartbeat IPC: 4.988 cumulative IPC: 4.088 (Simulation time: 00 hr 00 min 26 sec)
Heartbeat CPU 0 instructions: 7500039 cycles: 1812387 heartbeat IPC: 5 cumulative IPC: 4.138 (Simulation time: 00 hr 00 min 27 sec)
Heartbeat CPU 0 instructions: 8000044 cycles: 1915958 heartbeat IPC: 4.828 cumulative IPC: 4.175 (Simulation time: 00 hr 00 min 29 sec)
Heartbeat CPU 0 instructions: 8500049 cycles: 2017359 heartbeat IPC: 4.931 cumulative IPC: 4.213 (Simulation time: 00 hr 00 min 30 sec)
Heartbeat CPU 0 instructions: 9000051 cycles: 2117845 heartbeat IPC: 4.976 cumulative IPC: 4.25 (Simulation time: 00 hr 00 min 32 sec)
Heartbeat CPU 0 instructions: 9500055 cycles: 2217852 heartbeat IPC: 5 cumulative IPC: 4.283 (Simulation time: 00 hr 00 min 33 sec)
Heartbeat CPU 0 instructions: 10000056 cycles: 2320686 heartbeat IPC: 4.862 cumulative IPC: 4.309 (Simulation time: 00 hr 00 min 35 sec)
Heartbeat CPU 0 instructions: 10500056 cycles: 2421265 heartbeat IPC: 4.971 cumulative IPC: 4.337 (Simulation time: 00 hr 00 min 36 sec)
Heartbeat CPU 0 instructions: 11000059 cycles: 2524132 heartbeat IPC: 4.861 cumulative IPC: 4.358 (Simulation time: 00 hr 00 min 38 sec)
Heartbeat CPU 0 instructions: 11500066 cycles: 2624136 heartbeat IPC: 5 cumulative IPC: 4.382 (Simulation time: 00 hr 00 min 39 sec)
Heartbeat CPU 0 instructions: 12000071 cycles: 2726553 heartbeat IPC: 4.882 cumulative IPC: 4.401 (Simulation time: 00 hr 00 min 41 sec)
Heartbeat CPU 0 instructions: 12500077 cycles: 2827811 heartbeat IPC: 4.938 cumulative IPC: 4.42 (Simulation time: 00 hr 00 min 42 sec)
Heartbeat CPU 0 instructions: 13000079 cycles: 2927810 heartbeat IPC: 5 cumulative IPC: 4.44 (Simulation time: 00 hr 00 min 44 sec)
Heartbeat CPU 0 instructions: 13500084 cycles: 3027811 heartbeat IPC: 5 cumulative IPC: 4.459 (Simulation time: 00 hr 00 min 45 sec)
Heartbeat CPU 0 instructions: 14000084 cycles: 3131977 heartbeat IPC: 4.8 cumulative IPC: 4.47 (Simulation time: 00 hr 00 min 47 sec)
Heartbeat CPU 0 instructions: 14500086 cycles: 3231985 heartbeat IPC: 5 cumulative IPC: 4.486 (Simulation time: 00 hr 00 min 48 sec)
Heartbeat CPU 0 instructions: 15000090 cycles: 3331985 heartbeat IPC: 5 cumulative IPC: 4.502 (Simulation time: 00 hr 00 min 50 sec)
Heartbeat CPU 0 instructions: 15500094 cycles: 3434759 heartbeat IPC: 4.865 cumulative IPC: 4.513 (Simulation time: 00 hr 00 min 51 sec)
Heartbeat CPU 0 instructions: 16000098 cycles: 3535384 heartbeat IPC: 4.969 cumulative IPC: 4.526 (Simulation time: 00 hr 00 min 53 sec)
Heartbeat CPU 0 instructions: 16500105 cycles: 3635932 heartbeat IPC: 4.973 cumulative IPC: 4.538 (Simulation time: 00 hr 00 min 54 sec)
Heartbeat CPU 0 instructions: 17000109 cycles: 3739185 heartbeat IPC: 4.843 cumulative IPC: 4.546 (Simulation time: 00 hr 00 min 56 sec)
Heartbeat CPU 0 instructions: 17500115 cycles: 3839186 heartbeat IPC: 5 cumulative IPC: 4.558 (Simulation time: 00 hr 00 min 57 sec)
Heartbeat CPU 0 instructions: 18000121 cycles: 3941331 heartbeat IPC: 4.895 cumulative IPC: 4.567 (Simulation time: 00 hr 00 min 59 sec)
Heartbeat CPU 0 instructions: 18500128 cycles: 4044266 heartbeat IPC: 4.858 cumulative IPC: 4.574 (Simulation time: 00 hr 01 min 00 sec)
Heartbeat CPU 0 instructions: 19000130 cycles: 4144787 heartbeat IPC: 4.974 cumulative IPC: 4.584 (Simulation time: 00 hr 01 min 02 sec)
Heartbeat CPU 0 instructions: 19500135 cycles: 4244787 heartbeat IPC: 5 cumulative IPC: 4.594 (Simulation time: 00 hr 01 min 03 sec)
Heartbeat CPU 0 instructions: 20000142 cycles: 4347420 heartbeat IPC: 4.872 cumulative IPC: 4.6 (Simulation time: 00 hr 01 min 05 sec)
Heartbeat CPU 0 instructions: 20500143 cycles: 4450471 heartbeat IPC: 4.852 cumulative IPC: 4.606 (Simulation time: 00 hr 01 min 06 sec)
Heartbeat CPU 0 instructions: 21000147 cycles: 4550473 heartbeat IPC: 5 cumulative IPC: 4.615 (Simulation time: 00 hr 01 min 08 sec)
Heartbeat CPU 0 instructions: 21500153 cycles: 4652508 heartbeat IPC: 4.9 cumulative IPC: 4.621 (Simulation time: 00 hr 01 min 09 sec)
Heartbeat CPU 0 instructions: 22000156 cycles: 4755543 heartbeat IPC: 4.853 cumulative IPC: 4.626 (Simulation time: 00 hr 01 min 11 sec)
Heartbeat CPU 0 instructions: 22500156 cycles: 4855543 heartbeat IPC: 5 cumulative IPC: 4.634 (Simulation time: 00 hr 01 min 12 sec)
Heartbeat CPU 0 instructions: 23000158 cycles: 4955539 heartbeat IPC: 5 cumulative IPC: 4.641 (Simulation time: 00 hr 01 min 14 sec)
Heartbeat CPU 0 instructions: 23500162 cycles: 5059985 heartbeat IPC: 4.787 cumulative IPC: 4.644 (Simulation time: 00 hr 01 min 15 sec)
Heartbeat CPU 0 instructions: 24000165 cycles: 5162119 heartbeat IPC: 4.896 cumulative IPC: 4.649 (Simulation time: 00 hr 01 min 17 sec)
Heartbeat CPU 0 instructions: 24500172 cycles: 5262110 heartbeat IPC: 5.001 cumulative IPC: 4.656 (Simulation time: 00 hr 01 min 18 sec)
Heartbeat CPU 0 instructions: 25000175 cycles: 5362112 heartbeat IPC: 5 cumulative IPC: 4.662 (Simulation time: 00 hr 01 min 20 sec)
Heartbeat CPU 0 instructions: 25500180 cycles: 5464232 heartbeat IPC: 4.896 cumulative IPC: 4.667 (Simulation time: 00 hr 01 min 21 sec)
Heartbeat CPU 0 instructions: 26000185 cycles: 5569450 heartbeat IPC: 4.752 cumulative IPC: 4.668 (Simulation time: 00 hr 01 min 23 sec)
Heartbeat CPU 0 instructions: 26500187 cycles: 5669707 heartbeat IPC: 4.987 cumulative IPC: 4.674 (Simulation time: 00 hr 01 min 24 sec)
Heartbeat CPU 0 instructions: 27000193 cycles: 5769710 heartbeat IPC: 5 cumulative IPC: 4.68 (Simulation time: 00 hr 01 min 26 sec)
Heartbeat CPU 0 instructions: 27500193 cycles: 5872806 heartbeat IPC: 4.85 cumulative IPC: 4.683 (Simulation time: 00 hr 01 min 27 sec)
Heartbeat CPU 0 instructions: 28000193 cycles: 5973737 heartbeat IPC: 4.954 cumulative IPC: 4.687 (Simulation time: 00 hr 01 min 29 sec)
Heartbeat CPU 0 instructions: 28500196 cycles: 6074200 heartbeat IPC: 4.977 cumulative IPC: 4.692 (Simulation time: 00 hr 01 min 30 sec)
Heartbeat CPU 0 instructions: 29000203 cycles: 6174201 heartbeat IPC: 5 cumulative IPC: 4.697 (Simulation time: 00 hr 01 min 31 sec)
Heartbeat CPU 0 instructions: 29500209 cycles: 6276244 heartbeat IPC: 4.9 cumulative IPC: 4.7 (Simulation time: 00 hr 01 min 33 sec)
Heartbeat CPU 0 instructions: 30000214 cycles: 6376912 heartbeat IPC: 4.967 cumulative IPC: 4.705 (Simulation time: 00 hr 01 min 34 sec)
Heartbeat CPU 0 instructions: 30500219 cycles: 6487147 heartbeat IPC: 4.536 cumulative IPC: 4.702 (Simulation time: 00 hr 01 min 36 sec)
Heartbeat CPU 0 instructions: 31000223 cycles: 6587172 heartbeat IPC: 4.999 cumulative IPC: 4.706 (Simulation time: 00 hr 01 min 38 sec)
Heartbeat CPU 0 instructions: 31500224 cycles: 6687176 heartbeat IPC: 5 cumulative IPC: 4.711 (Simulation time: 00 hr 01 min 39 sec)
Heartbeat CPU 0 instructions: 32000226 cycles: 6789322 heartbeat IPC: 4.895 cumulative IPC: 4.713 (Simulation time: 00 hr 01 min 41 sec)
Heartbeat CPU 0 instructions: 32500230 cycles: 6889544 heartbeat IPC: 4.989 cumulative IPC: 4.717 (Simulation time: 00 hr 01 min 42 sec)
Heartbeat CPU 0 instructions: 33000233 cycles: 6992608 heartbeat IPC: 4.851 cumulative IPC: 4.719 (Simulation time: 00 hr 01 min 43 sec)
Heartbeat CPU 0 instructions: 33500235 cycles: 7092601 heartbeat IPC: 5 cumulative IPC: 4.723 (Simulation time: 00 hr 01 min 45 sec)
Heartbeat CPU 0 instructions: 34000242 cycles: 7192602 heartbeat IPC: 5 cumulative IPC: 4.727 (Simulation time: 00 hr 01 min 46 sec)
Heartbeat CPU 0 instructions: 34500249 cycles: 7296855 heartbeat IPC: 4.796 cumulative IPC: 4.728 (Simulation time: 00 hr 01 min 48 sec)
Heartbeat CPU 0 instructions: 35000250 cycles: 7397103 heartbeat IPC: 4.988 cumulative IPC: 4.732 (Simulation time: 00 hr 01 min 49 sec)
Heartbeat CPU 0 instructions: 35500256 cycles: 7497649 heartbeat IPC: 4.973 cumulative IPC: 4.735 (Simulation time: 00 hr 01 min 51 sec)
Heartbeat CPU 0 instructions: 36000257 cycles: 7597656 heartbeat IPC: 5 cumulative IPC: 4.738 (Simulation time: 00 hr 01 min 52 sec)
Heartbeat CPU 0 instructions: 36500257 cycles: 7698422 heartbeat IPC: 4.962 cumulative IPC: 4.741 (Simulation time: 00 hr 01 min 54 sec)
Heartbeat CPU 0 instructions: 37000259 cycles: 7804517 heartbeat IPC: 4.713 cumulative IPC: 4.741 (Simulation time: 00 hr 01 min 55 sec)
Heartbeat CPU 0 instructions: 37500262 cycles: 7907116 heartbeat IPC: 4.873 cumulative IPC: 4.743 (Simulation time: 00 hr 01 min 57 sec)
Heartbeat CPU 0 instructions: 38000269 cycles: 8007130 heartbeat IPC: 4.999 cumulative IPC: 4.746 (Simulation time: 00 hr 01 min 58 sec)
Heartbeat CPU 0 instructions: 38500275 cycles: 8107126 heartbeat IPC: 5 cumulative IPC: 4.749 (Simulation time: 00 hr 02 min 00 sec)
Heartbeat CPU 0 instructions: 39000275 cycles: 8211474 heartbeat IPC: 4.792 cumulative IPC: 4.749 (Simulation time: 00 hr 02 min 01 sec)
Heartbeat CPU 0 instructions: 39500275 cycles: 8312657 heartbeat IPC: 4.942 cumulative IPC: 4.752 (Simulation time: 00 hr 02 min 03 sec)
Heartbeat CPU 0 instructions: 40000280 cycles: 8415709 heartbeat IPC: 4.852 cumulative IPC: 4.753 (Simulation time: 00 hr 02 min 04 sec)
Heartbeat CPU 0 instructions: 40500286 cycles: 8516487 heartbeat IPC: 4.961 cumulative IPC: 4.756 (Simulation time: 00 hr 02 min 06 sec)
Heartbeat CPU 0 instructions: 41000290 cycles: 8616489 heartbeat IPC: 5 cumulative IPC: 4.758 (Simulation time: 00 hr 02 min 07 sec)
Heartbeat CPU 0 instructions: 41500294 cycles: 8719482 heartbeat IPC: 4.855 cumulative IPC: 4.759 (Simulation time: 00 hr 02 min 09 sec)
Heartbeat CPU 0 instructions: 42000296 cycles: 8827069 heartbeat IPC: 4.647 cumulative IPC: 4.758 (Simulation time: 00 hr 02 min 11 sec)
Heartbeat CPU 0 instructions: 42500297 cycles: 8928135 heartbeat IPC: 4.947 cumulative IPC: 4.76 (Simulation time: 00 hr 02 min 12 sec)
Heartbeat CPU 0 instructions: 43000297 cycles: 9028135 heartbeat IPC: 5 cumulative IPC: 4.763 (Simulation time: 00 hr 02 min 14 sec)
Heartbeat CPU 0 instructions: 43500301 cycles: 9131482 heartbeat IPC: 4.838 cumulative IPC: 4.764 (Simulation time: 00 hr 02 min 16 sec)
Heartbeat CPU 0 instructions: 44000304 cycles: 9232052 heartbeat IPC: 4.972 cumulative IPC: 4.766 (Simulation time: 00 hr 02 min 17 sec)
Heartbeat CPU 0 instructions: 44500304 cycles: 9332056 heartbeat IPC: 5 cumulative IPC: 4.769 (Simulation time: 00 hr 02 min 19 sec)
Heartbeat CPU 0 instructions: 45000310 cycles: 9433388 heartbeat IPC: 4.934 cumulative IPC: 4.77 (Simulation time: 00 hr 02 min 21 sec)
Heartbeat CPU 0 instructions: 45500314 cycles: 9538835 heartbeat IPC: 4.742 cumulative IPC: 4.77 (Simulation time: 00 hr 02 min 23 sec)
Heartbeat CPU 0 instructions: 46000316 cycles: 9638834 heartbeat IPC: 5 cumulative IPC: 4.772 (Simulation time: 00 hr 02 min 24 sec)
Heartbeat CPU 0 instructions: 46500316 cycles: 9738834 heartbeat IPC: 5 cumulative IPC: 4.775 (Simulation time: 00 hr 02 min 26 sec)
Heartbeat CPU 0 instructions: 47000316 cycles: 9842227 heartbeat IPC: 4.836 cumulative IPC: 4.775 (Simulation time: 00 hr 02 min 28 sec)
Heartbeat CPU 0 instructions: 47500323 cycles: 9945552 heartbeat IPC: 4.839 cumulative IPC: 4.776 (Simulation time: 00 hr 02 min 29 sec)
Heartbeat CPU 0 instructions: 48000330 cycles: 10045547 heartbeat IPC: 5 cumulative IPC: 4.778 (Simulation time: 00 hr 02 min 31 sec)
Heartbeat CPU 0 instructions: 48500330 cycles: 10147292 heartbeat IPC: 4.914 cumulative IPC: 4.78 (Simulation time: 00 hr 02 min 33 sec)
Heartbeat CPU 0 instructions: 49000331 cycles: 10250551 heartbeat IPC: 4.842 cumulative IPC: 4.78 (Simulation time: 00 hr 02 min 34 sec)
Heartbeat CPU 0 instructions: 49500335 cycles: 10350554 heartbeat IPC: 5 cumulative IPC: 4.782 (Simulation time: 00 hr 02 min 36 sec)
Warmup halting CPU 0 at instruction 50000002 cycle 10451705 for remainder of phase
Warmup finished CPU 0 instructions: 50000002 cycles: 10451705 cumulative IPC: 4.784 (Simulation time: 00 hr 02 min 38 sec)
Warmup complete CPU 0 instructions: 50000002 cycles: 10451705 cumulative IPC: 4.784 (Simulation time: 00 hr 02 min 38 sec)
Heartbeat CPU 0 instructions: 50000335 cycles: 10451761 heartbeat IPC: 4.94 cumulative IPC: 5.946 (Simulation time: 00 hr 02 min 38 sec)
Heartbeat CPU 0 instructions: 50500337 cycles: 10958797 heartbeat IPC: 0.9861 cumulative IPC: 0.9867 (Simulation time: 00 hr 02 min 43 sec)
Heartbeat CPU 0 instructions: 51000340 cycles: 11311990 heartbeat IPC: 1.416 cumulative IPC: 1.163 (Simulation time: 00 hr 02 min 47 sec)
Heartbeat CPU 0 instructions: 51500340 cycles: 12023338 heartbeat IPC: 0.7029 cumulative IPC: 0.9546 (Simulation time: 00 hr 02 min 55 sec)
Heartbeat CPU 0 instructions: 52000341 cycles: 12676316 heartbeat IPC: 0.7657 cumulative IPC: 0.8992 (Simulation time: 00 hr 03 min 03 sec)
Heartbeat CPU 0 instructions: 52500341 cycles: 13244050 heartbeat IPC: 0.8807 cumulative IPC: 0.8954 (Simulation time: 00 hr 03 min 08 sec)
Heartbeat CPU 0 instructions: 53000342 cycles: 13950591 heartbeat IPC: 0.7077 cumulative IPC: 0.8575 (Simulation time: 00 hr 03 min 16 sec)
Heartbeat CPU 0 instructions: 53500343 cycles: 14723288 heartbeat IPC: 0.6471 cumulative IPC: 0.8194 (Simulation time: 00 hr 03 min 25 sec)
Heartbeat CPU 0 instructions: 54000344 cycles: 15224290 heartbeat IPC: 0.998 cumulative IPC: 0.8382 (Simulation time: 00 hr 03 min 31 sec)
Heartbeat CPU 0 instructions: 54500346 cycles: 15790216 heartbeat IPC: 0.8835 cumulative IPC: 0.843 (Simulation time: 00 hr 03 min 37 sec)
Heartbeat CPU 0 instructions: 55000350 cycles: 16545362 heartbeat IPC: 0.6621 cumulative IPC: 0.8206 (Simulation time: 00 hr 03 min 46 sec)
Heartbeat CPU 0 instructions: 55500355 cycles: 17050486 heartbeat IPC: 0.9899 cumulative IPC: 0.8335 (Simulation time: 00 hr 03 min 52 sec)
Heartbeat CPU 0 instructions: 56000356 cycles: 18048271 heartbeat IPC: 0.5011 cumulative IPC: 0.7899 (Simulation time: 00 hr 04 min 00 sec)
Heartbeat CPU 0 instructions: 56500357 cycles: 18740636 heartbeat IPC: 0.7222 cumulative IPC: 0.7842 (Simulation time: 00 hr 04 min 08 sec)
Heartbeat CPU 0 instructions: 57000359 cycles: 19512928 heartbeat IPC: 0.6474 cumulative IPC: 0.7726 (Simulation time: 00 hr 04 min 17 sec)
Heartbeat CPU 0 instructions: 57500362 cycles: 20045117 heartbeat IPC: 0.9395 cumulative IPC: 0.7818 (Simulation time: 00 hr 04 min 23 sec)
Heartbeat CPU 0 instructions: 58000364 cycles: 21040867 heartbeat IPC: 0.5021 cumulative IPC: 0.7555 (Simulation time: 00 hr 04 min 31 sec)
Heartbeat CPU 0 instructions: 58500364 cycles: 21341216 heartbeat IPC: 1.665 cumulative IPC: 0.7806 (Simulation time: 00 hr 04 min 34 sec)
Heartbeat CPU 0 instructions: 59000368 cycles: 22086840 heartbeat IPC: 0.6706 cumulative IPC: 0.7736 (Simulation time: 00 hr 04 min 41 sec)
Heartbeat CPU 0 instructions: 59500370 cycles: 22833401 heartbeat IPC: 0.6697 cumulative IPC: 0.7673 (Simulation time: 00 hr 04 min 50 sec)
Heartbeat CPU 0 instructions: 60000370 cycles: 23459670 heartbeat IPC: 0.7984 cumulative IPC: 0.7688 (Simulation time: 00 hr 04 min 57 sec)
Heartbeat CPU 0 instructions: 60500371 cycles: 23901463 heartbeat IPC: 1.132 cumulative IPC: 0.7807 (Simulation time: 00 hr 05 min 02 sec)
Heartbeat CPU 0 instructions: 61000372 cycles: 24517308 heartbeat IPC: 0.8119 cumulative IPC: 0.7821 (Simulation time: 00 hr 05 min 08 sec)
Heartbeat CPU 0 instructions: 61500378 cycles: 25276927 heartbeat IPC: 0.6582 cumulative IPC: 0.7757 (Simulation time: 00 hr 05 min 17 sec)
Heartbeat CPU 0 instructions: 62000380 cycles: 25774456 heartbeat IPC: 1.005 cumulative IPC: 0.7832 (Simulation time: 00 hr 05 min 23 sec)
Heartbeat CPU 0 instructions: 62500381 cycles: 26417558 heartbeat IPC: 0.7775 cumulative IPC: 0.7829 (Simulation time: 00 hr 05 min 29 sec)
Heartbeat CPU 0 instructions: 63000385 cycles: 26914534 heartbeat IPC: 1.006 cumulative IPC: 0.7897 (Simulation time: 00 hr 05 min 35 sec)
Heartbeat CPU 0 instructions: 63500385 cycles: 27693237 heartbeat IPC: 0.6421 cumulative IPC: 0.783 (Simulation time: 00 hr 05 min 44 sec)
Heartbeat CPU 0 instructions: 64000390 cycles: 28230978 heartbeat IPC: 0.9298 cumulative IPC: 0.7875 (Simulation time: 00 hr 05 min 50 sec)
Heartbeat CPU 0 instructions: 64500391 cycles: 28619992 heartbeat IPC: 1.285 cumulative IPC: 0.7981 (Simulation time: 00 hr 05 min 54 sec)
Heartbeat CPU 0 instructions: 65000392 cycles: 29119311 heartbeat IPC: 1.001 cumulative IPC: 0.8036 (Simulation time: 00 hr 06 min 00 sec)
Heartbeat CPU 0 instructions: 65500396 cycles: 29884380 heartbeat IPC: 0.6535 cumulative IPC: 0.7976 (Simulation time: 00 hr 06 min 08 sec)
Heartbeat CPU 0 instructions: 66000397 cycles: 30401038 heartbeat IPC: 0.9678 cumulative IPC: 0.8021 (Simulation time: 00 hr 06 min 14 sec)
Heartbeat CPU 0 instructions: 66500398 cycles: 31116812 heartbeat IPC: 0.6985 cumulative IPC: 0.7985 (Simulation time: 00 hr 06 min 21 sec)
Heartbeat CPU 0 instructions: 67000400 cycles: 31343144 heartbeat IPC: 2.209 cumulative IPC: 0.8137 (Simulation time: 00 hr 06 min 24 sec)
Heartbeat CPU 0 instructions: 67500402 cycles: 31790173 heartbeat IPC: 1.119 cumulative IPC: 0.8201 (Simulation time: 00 hr 06 min 29 sec)
Heartbeat CPU 0 instructions: 68000404 cycles: 32555308 heartbeat IPC: 0.6535 cumulative IPC: 0.8144 (Simulation time: 00 hr 06 min 38 sec)
Heartbeat CPU 0 instructions: 68500405 cycles: 33149594 heartbeat IPC: 0.8413 cumulative IPC: 0.8151 (Simulation time: 00 hr 06 min 45 sec)
Heartbeat CPU 0 instructions: 69000410 cycles: 33572239 heartbeat IPC: 1.183 cumulative IPC: 0.8218 (Simulation time: 00 hr 06 min 49 sec)
Heartbeat CPU 0 instructions: 69500410 cycles: 34237697 heartbeat IPC: 0.7514 cumulative IPC: 0.8198 (Simulation time: 00 hr 06 min 56 sec)
Heartbeat CPU 0 instructions: 70000411 cycles: 34937621 heartbeat IPC: 0.7144 cumulative IPC: 0.8168 (Simulation time: 00 hr 07 min 05 sec)
Heartbeat CPU 0 instructions: 70500418 cycles: 35565513 heartbeat IPC: 0.7963 cumulative IPC: 0.8163 (Simulation time: 00 hr 07 min 11 sec)
Heartbeat CPU 0 instructions: 71000420 cycles: 36181914 heartbeat IPC: 0.8112 cumulative IPC: 0.8162 (Simulation time: 00 hr 07 min 17 sec)
Heartbeat CPU 0 instructions: 71500424 cycles: 36593236 heartbeat IPC: 1.216 cumulative IPC: 0.8225 (Simulation time: 00 hr 07 min 21 sec)
Heartbeat CPU 0 instructions: 72000427 cycles: 37153676 heartbeat IPC: 0.8922 cumulative IPC: 0.8239 (Simulation time: 00 hr 07 min 28 sec)
Heartbeat CPU 0 instructions: 72500427 cycles: 37921744 heartbeat IPC: 0.651 cumulative IPC: 0.8191 (Simulation time: 00 hr 07 min 37 sec)
Heartbeat CPU 0 instructions: 73000429 cycles: 38426079 heartbeat IPC: 0.9914 cumulative IPC: 0.8222 (Simulation time: 00 hr 07 min 42 sec)
Heartbeat CPU 0 instructions: 73500430 cycles: 38885107 heartbeat IPC: 1.089 cumulative IPC: 0.8265 (Simulation time: 00 hr 07 min 47 sec)
Heartbeat CPU 0 instructions: 74000432 cycles: 39728326 heartbeat IPC: 0.593 cumulative IPC: 0.8198 (Simulation time: 00 hr 07 min 55 sec)
Heartbeat CPU 0 instructions: 74500435 cycles: 40479830 heartbeat IPC: 0.6653 cumulative IPC: 0.8159 (Simulation time: 00 hr 08 min 03 sec)
Heartbeat CPU 0 instructions: 75000435 cycles: 41083315 heartbeat IPC: 0.8285 cumulative IPC: 0.8162 (Simulation time: 00 hr 08 min 11 sec)
Heartbeat CPU 0 instructions: 75500437 cycles: 41612665 heartbeat IPC: 0.9446 cumulative IPC: 0.8183 (Simulation time: 00 hr 08 min 16 sec)
Heartbeat CPU 0 instructions: 76000438 cycles: 42142250 heartbeat IPC: 0.9441 cumulative IPC: 0.8204 (Simulation time: 00 hr 08 min 21 sec)
Heartbeat CPU 0 instructions: 76500442 cycles: 42904250 heartbeat IPC: 0.6562 cumulative IPC: 0.8166 (Simulation time: 00 hr 08 min 30 sec)
Heartbeat CPU 0 instructions: 77000442 cycles: 43465203 heartbeat IPC: 0.8913 cumulative IPC: 0.8179 (Simulation time: 00 hr 08 min 37 sec)
Heartbeat CPU 0 instructions: 77500448 cycles: 44074417 heartbeat IPC: 0.8207 cumulative IPC: 0.8179 (Simulation time: 00 hr 08 min 43 sec)
Heartbeat CPU 0 instructions: 78000450 cycles: 44812396 heartbeat IPC: 0.6775 cumulative IPC: 0.8149 (Simulation time: 00 hr 08 min 51 sec)
Heartbeat CPU 0 instructions: 78500454 cycles: 45396627 heartbeat IPC: 0.8558 cumulative IPC: 0.8156 (Simulation time: 00 hr 08 min 59 sec)
Heartbeat CPU 0 instructions: 79000461 cycles: 45906146 heartbeat IPC: 0.9813 cumulative IPC: 0.818 (Simulation time: 00 hr 09 min 04 sec)
Heartbeat CPU 0 instructions: 79500463 cycles: 46637161 heartbeat IPC: 0.684 cumulative IPC: 0.8153 (Simulation time: 00 hr 09 min 12 sec)
Heartbeat CPU 0 instructions: 80000464 cycles: 47206035 heartbeat IPC: 0.8789 cumulative IPC: 0.8162 (Simulation time: 00 hr 09 min 19 sec)
Heartbeat CPU 0 instructions: 80500469 cycles: 47593411 heartbeat IPC: 1.291 cumulative IPC: 0.8212 (Simulation time: 00 hr 09 min 23 sec)
Heartbeat CPU 0 instructions: 81000469 cycles: 47834289 heartbeat IPC: 2.076 cumulative IPC: 0.8293 (Simulation time: 00 hr 09 min 26 sec)
Heartbeat CPU 0 instructions: 81500469 cycles: 48484598 heartbeat IPC: 0.7689 cumulative IPC: 0.8282 (Simulation time: 00 hr 09 min 34 sec)
Heartbeat CPU 0 instructions: 82000471 cycles: 49172362 heartbeat IPC: 0.727 cumulative IPC: 0.8264 (Simulation time: 00 hr 09 min 42 sec)
Heartbeat CPU 0 instructions: 82500473 cycles: 49810066 heartbeat IPC: 0.7841 cumulative IPC: 0.8258 (Simulation time: 00 hr 09 min 48 sec)
Heartbeat CPU 0 instructions: 83000473 cycles: 50416961 heartbeat IPC: 0.8239 cumulative IPC: 0.8257 (Simulation time: 00 hr 09 min 54 sec)
Heartbeat CPU 0 instructions: 83500477 cycles: 50906866 heartbeat IPC: 1.021 cumulative IPC: 0.8281 (Simulation time: 00 hr 10 min 00 sec)
Heartbeat CPU 0 instructions: 84000481 cycles: 51685148 heartbeat IPC: 0.6424 cumulative IPC: 0.8246 (Simulation time: 00 hr 10 min 09 sec)
Heartbeat CPU 0 instructions: 84500481 cycles: 52211356 heartbeat IPC: 0.9502 cumulative IPC: 0.8262 (Simulation time: 00 hr 10 min 15 sec)
Heartbeat CPU 0 instructions: 85000488 cycles: 52561096 heartbeat IPC: 1.43 cumulative IPC: 0.8312 (Simulation time: 00 hr 10 min 18 sec)
Heartbeat CPU 0 instructions: 85500492 cycles: 53123414 heartbeat IPC: 0.8892 cumulative IPC: 0.8319 (Simulation time: 00 hr 10 min 25 sec)
Heartbeat CPU 0 instructions: 86000496 cycles: 53866850 heartbeat IPC: 0.6726 cumulative IPC: 0.8292 (Simulation time: 00 hr 10 min 33 sec)
Heartbeat CPU 0 instructions: 86500503 cycles: 54403209 heartbeat IPC: 0.9322 cumulative IPC: 0.8305 (Simulation time: 00 hr 10 min 39 sec)
Heartbeat CPU 0 instructions: 87000503 cycles: 55218792 heartbeat IPC: 0.6131 cumulative IPC: 0.8265 (Simulation time: 00 hr 10 min 47 sec)
Heartbeat CPU 0 instructions: 87500505 cycles: 55917566 heartbeat IPC: 0.7155 cumulative IPC: 0.8248 (Simulation time: 00 hr 10 min 55 sec)
Heartbeat CPU 0 instructions: 88000506 cycles: 56572905 heartbeat IPC: 0.763 cumulative IPC: 0.8239 (Simulation time: 00 hr 11 min 03 sec)
Heartbeat CPU 0 instructions: 88500506 cycles: 57005780 heartbeat IPC: 1.155 cumulative IPC: 0.827 (Simulation time: 00 hr 11 min 08 sec)
Heartbeat CPU 0 instructions: 89000509 cycles: 57919263 heartbeat IPC: 0.5474 cumulative IPC: 0.8216 (Simulation time: 00 hr 11 min 17 sec)
Heartbeat CPU 0 instructions: 89500511 cycles: 58149994 heartbeat IPC: 2.167 cumulative IPC: 0.8281 (Simulation time: 00 hr 11 min 19 sec)
Heartbeat CPU 0 instructions: 90000512 cycles: 58438413 heartbeat IPC: 1.734 cumulative IPC: 0.8336 (Simulation time: 00 hr 11 min 22 sec)
Heartbeat CPU 0 instructions: 90500514 cycles: 58765653 heartbeat IPC: 1.528 cumulative IPC: 0.8383 (Simulation time: 00 hr 11 min 26 sec)
Heartbeat CPU 0 instructions: 91000516 cycles: 59435353 heartbeat IPC: 0.7466 cumulative IPC: 0.837 (Simulation time: 00 hr 11 min 34 sec)
Heartbeat CPU 0 instructions: 91500520 cycles: 60131563 heartbeat IPC: 0.7182 cumulative IPC: 0.8354 (Simulation time: 00 hr 11 min 42 sec)
Heartbeat CPU 0 instructions: 92000521 cycles: 60859750 heartbeat IPC: 0.6866 cumulative IPC: 0.8332 (Simulation time: 00 hr 11 min 49 sec)
Heartbeat CPU 0 instructions: 92500521 cycles: 61668734 heartbeat IPC: 0.6181 cumulative IPC: 0.8298 (Simulation time: 00 hr 11 min 57 sec)
Heartbeat CPU 0 instructions: 93000523 cycles: 62441224 heartbeat IPC: 0.6473 cumulative IPC: 0.8271 (Simulation time: 00 hr 12 min 06 sec)
Heartbeat CPU 0 instructions: 93500525 cycles: 63024542 heartbeat IPC: 0.8572 cumulative IPC: 0.8274 (Simulation time: 00 hr 12 min 13 sec)
Heartbeat CPU 0 instructions: 94000525 cycles: 63505986 heartbeat IPC: 1.039 cumulative IPC: 0.8293 (Simulation time: 00 hr 12 min 18 sec)
Heartbeat CPU 0 instructions: 94500528 cycles: 64223736 heartbeat IPC: 0.6966 cumulative IPC: 0.8276 (Simulation time: 00 hr 12 min 26 sec)
Heartbeat CPU 0 instructions: 95000534 cycles: 64825453 heartbeat IPC: 0.831 cumulative IPC: 0.8276 (Simulation time: 00 hr 12 min 34 sec)
Heartbeat CPU 0 instructions: 95500540 cycles: 65231664 heartbeat IPC: 1.231 cumulative IPC: 0.8306 (Simulation time: 00 hr 12 min 38 sec)
Heartbeat CPU 0 instructions: 96000545 cycles: 66148366 heartbeat IPC: 0.5454 cumulative IPC: 0.8259 (Simulation time: 00 hr 12 min 46 sec)
Heartbeat CPU 0 instructions: 96500547 cycles: 66482670 heartbeat IPC: 1.496 cumulative IPC: 0.8299 (Simulation time: 00 hr 12 min 49 sec)
Heartbeat CPU 0 instructions: 97000553 cycles: 66858543 heartbeat IPC: 1.33 cumulative IPC: 0.8332 (Simulation time: 00 hr 12 min 53 sec)
Heartbeat CPU 0 instructions: 97500555 cycles: 67592147 heartbeat IPC: 0.6816 cumulative IPC: 0.8313 (Simulation time: 00 hr 13 min 02 sec)
Heartbeat CPU 0 instructions: 98000556 cycles: 68236645 heartbeat IPC: 0.7758 cumulative IPC: 0.8307 (Simulation time: 00 hr 13 min 10 sec)
Heartbeat CPU 0 instructions: 98500561 cycles: 68630145 heartbeat IPC: 1.271 cumulative IPC: 0.8337 (Simulation time: 00 hr 13 min 14 sec)
Heartbeat CPU 0 instructions: 99000564 cycles: 69153140 heartbeat IPC: 0.956 cumulative IPC: 0.8347 (Simulation time: 00 hr 13 min 19 sec)
Heartbeat CPU 0 instructions: 99500564 cycles: 69912928 heartbeat IPC: 0.6581 cumulative IPC: 0.8325 (Simulation time: 00 hr 13 min 28 sec)
Heartbeat CPU 0 instructions: 100000564 cycles: 70489988 heartbeat IPC: 0.8665 cumulative IPC: 0.8328 (Simulation time: 00 hr 13 min 35 sec)
Heartbeat CPU 0 instructions: 100500566 cycles: 70969916 heartbeat IPC: 1.042 cumulative IPC: 0.8345 (Simulation time: 00 hr 13 min 39 sec)
Heartbeat CPU 0 instructions: 101000566 cycles: 71268278 heartbeat IPC: 1.676 cumulative IPC: 0.8386 (Simulation time: 00 hr 13 min 42 sec)
Heartbeat CPU 0 instructions: 101500566 cycles: 71576455 heartbeat IPC: 1.622 cumulative IPC: 0.8425 (Simulation time: 00 hr 13 min 46 sec)
Heartbeat CPU 0 instructions: 102000570 cycles: 72207540 heartbeat IPC: 0.7923 cumulative IPC: 0.842 (Simulation time: 00 hr 13 min 53 sec)
Heartbeat CPU 0 instructions: 102500571 cycles: 72932690 heartbeat IPC: 0.6895 cumulative IPC: 0.8403 (Simulation time: 00 hr 14 min 01 sec)
Heartbeat CPU 0 instructions: 103000573 cycles: 73376894 heartbeat IPC: 1.126 cumulative IPC: 0.8423 (Simulation time: 00 hr 14 min 06 sec)
Heartbeat CPU 0 instructions: 103500574 cycles: 73619128 heartbeat IPC: 2.064 cumulative IPC: 0.847 (Simulation time: 00 hr 14 min 09 sec)
Heartbeat CPU 0 instructions: 104000579 cycles: 73972253 heartbeat IPC: 1.416 cumulative IPC: 0.8501 (Simulation time: 00 hr 14 min 13 sec)
Heartbeat CPU 0 instructions: 104500580 cycles: 74517150 heartbeat IPC: 0.9176 cumulative IPC: 0.8507 (Simulation time: 00 hr 14 min 19 sec)
Heartbeat CPU 0 instructions: 105000585 cycles: 75282708 heartbeat IPC: 0.6531 cumulative IPC: 0.8484 (Simulation time: 00 hr 14 min 28 sec)
Heartbeat CPU 0 instructions: 105500587 cycles: 75772917 heartbeat IPC: 1.02 cumulative IPC: 0.8497 (Simulation time: 00 hr 14 min 33 sec)
Heartbeat CPU 0 instructions: 106000590 cycles: 76325391 heartbeat IPC: 0.905 cumulative IPC: 0.8501 (Simulation time: 00 hr 14 min 38 sec)
Heartbeat CPU 0 instructions: 106500590 cycles: 76667614 heartbeat IPC: 1.461 cumulative IPC: 0.8533 (Simulation time: 00 hr 14 min 42 sec)
Heartbeat CPU 0 instructions: 107000591 cycles: 77328720 heartbeat IPC: 0.7563 cumulative IPC: 0.8523 (Simulation time: 00 hr 14 min 50 sec)
Heartbeat CPU 0 instructions: 107500593 cycles: 78019984 heartbeat IPC: 0.7233 cumulative IPC: 0.851 (Simulation time: 00 hr 14 min 58 sec)
Heartbeat CPU 0 instructions: 108000594 cycles: 78564063 heartbeat IPC: 0.919 cumulative IPC: 0.8515 (Simulation time: 00 hr 15 min 03 sec)
Heartbeat CPU 0 instructions: 108500597 cycles: 79333707 heartbeat IPC: 0.6497 cumulative IPC: 0.8493 (Simulation time: 00 hr 15 min 11 sec)
Heartbeat CPU 0 instructions: 109000598 cycles: 79799198 heartbeat IPC: 1.074 cumulative IPC: 0.8508 (Simulation time: 00 hr 15 min 16 sec)
Heartbeat CPU 0 instructions: 109500599 cycles: 80491270 heartbeat IPC: 0.7225 cumulative IPC: 0.8495 (Simulation time: 00 hr 15 min 22 sec)
Heartbeat CPU 0 instructions: 110000600 cycles: 81021314 heartbeat IPC: 0.9433 cumulative IPC: 0.8502 (Simulation time: 00 hr 15 min 28 sec)
Heartbeat CPU 0 instructions: 110500606 cycles: 81820368 heartbeat IPC: 0.6257 cumulative IPC: 0.8477 (Simulation time: 00 hr 15 min 38 sec)
Heartbeat CPU 0 instructions: 111000609 cycles: 82365159 heartbeat IPC: 0.9178 cumulative IPC: 0.8483 (Simulation time: 00 hr 15 min 44 sec)
Heartbeat CPU 0 instructions: 111500611 cycles: 83334386 heartbeat IPC: 0.5159 cumulative IPC: 0.8438 (Simulation time: 00 hr 15 min 53 sec)
Heartbeat CPU 0 instructions: 112000613 cycles: 83590961 heartbeat IPC: 1.949 cumulative IPC: 0.8477 (Simulation time: 00 hr 15 min 56 sec)
Heartbeat CPU 0 instructions: 112500613 cycles: 83827087 heartbeat IPC: 2.118 cumulative IPC: 0.8518 (Simulation time: 00 hr 15 min 58 sec)
Heartbeat CPU 0 instructions: 113000615 cycles: 84063864 heartbeat IPC: 2.112 cumulative IPC: 0.8558 (Simulation time: 00 hr 16 min 01 sec)
Heartbeat CPU 0 instructions: 113500618 cycles: 84572265 heartbeat IPC: 0.9835 cumulative IPC: 0.8567 (Simulation time: 00 hr 16 min 07 sec)
Heartbeat CPU 0 instructions: 114000620 cycles: 85361495 heartbeat IPC: 0.6335 cumulative IPC: 0.8544 (Simulation time: 00 hr 16 min 16 sec)
Heartbeat CPU 0 instructions: 114500620 cycles: 85907320 heartbeat IPC: 0.916 cumulative IPC: 0.8548 (Simulation time: 00 hr 16 min 22 sec)
Heartbeat CPU 0 instructions: 115000620 cycles: 86317156 heartbeat IPC: 1.22 cumulative IPC: 0.8568 (Simulation time: 00 hr 16 min 27 sec)
Heartbeat CPU 0 instructions: 115500620 cycles: 87668974 heartbeat IPC: 0.3699 cumulative IPC: 0.8483 (Simulation time: 00 hr 16 min 39 sec)
Heartbeat CPU 0 instructions: 116000622 cycles: 88056727 heartbeat IPC: 1.289 cumulative IPC: 0.8505 (Simulation time: 00 hr 16 min 43 sec)
Heartbeat CPU 0 instructions: 116500623 cycles: 88799797 heartbeat IPC: 0.6729 cumulative IPC: 0.8488 (Simulation time: 00 hr 16 min 52 sec)
Heartbeat CPU 0 instructions: 117000626 cycles: 89452005 heartbeat IPC: 0.7666 cumulative IPC: 0.8481 (Simulation time: 00 hr 17 min 00 sec)
Heartbeat CPU 0 instructions: 117500627 cycles: 89987194 heartbeat IPC: 0.9343 cumulative IPC: 0.8487 (Simulation time: 00 hr 17 min 05 sec)
Heartbeat CPU 0 instructions: 118000628 cycles: 90592448 heartbeat IPC: 0.8261 cumulative IPC: 0.8485 (Simulation time: 00 hr 17 min 12 sec)
Heartbeat CPU 0 instructions: 118500632 cycles: 91332520 heartbeat IPC: 0.6756 cumulative IPC: 0.8469 (Simulation time: 00 hr 17 min 21 sec)
Heartbeat CPU 0 instructions: 119000632 cycles: 91853712 heartbeat IPC: 0.9593 cumulative IPC: 0.8477 (Simulation time: 00 hr 17 min 26 sec)
Heartbeat CPU 0 instructions: 119500633 cycles: 92467723 heartbeat IPC: 0.8143 cumulative IPC: 0.8474 (Simulation time: 00 hr 17 min 32 sec)
Heartbeat CPU 0 instructions: 120000635 cycles: 92919682 heartbeat IPC: 1.106 cumulative IPC: 0.8488 (Simulation time: 00 hr 17 min 37 sec)
Heartbeat CPU 0 instructions: 120500635 cycles: 93621638 heartbeat IPC: 0.7123 cumulative IPC: 0.8477 (Simulation time: 00 hr 17 min 45 sec)
Heartbeat CPU 0 instructions: 121000642 cycles: 94287961 heartbeat IPC: 0.7504 cumulative IPC: 0.8469 (Simulation time: 00 hr 17 min 53 sec)
Heartbeat CPU 0 instructions: 121500648 cycles: 94725022 heartbeat IPC: 1.144 cumulative IPC: 0.8484 (Simulation time: 00 hr 17 min 57 sec)
Heartbeat CPU 0 instructions: 122000651 cycles: 95202830 heartbeat IPC: 1.046 cumulative IPC: 0.8496 (Simulation time: 00 hr 18 min 02 sec)
Heartbeat CPU 0 instructions: 122500656 cycles: 95681730 heartbeat IPC: 1.044 cumulative IPC: 0.8506 (Simulation time: 00 hr 18 min 08 sec)
Heartbeat CPU 0 instructions: 123000656 cycles: 96453807 heartbeat IPC: 0.6476 cumulative IPC: 0.8488 (Simulation time: 00 hr 18 min 17 sec)
Heartbeat CPU 0 instructions: 123500656 cycles: 96996735 heartbeat IPC: 0.9209 cumulative IPC: 0.8493 (Simulation time: 00 hr 18 min 23 sec)
Heartbeat CPU 0 instructions: 124000656 cycles: 97584728 heartbeat IPC: 0.8504 cumulative IPC: 0.8493 (Simulation time: 00 hr 18 min 30 sec)
Heartbeat CPU 0 instructions: 124500660 cycles: 98330473 heartbeat IPC: 0.6705 cumulative IPC: 0.8478 (Simulation time: 00 hr 18 min 38 sec)
Heartbeat CPU 0 instructions: 125000663 cycles: 98819851 heartbeat IPC: 1.022 cumulative IPC: 0.8487 (Simulation time: 00 hr 18 min 44 sec)
Heartbeat CPU 0 instructions: 125500664 cycles: 99327489 heartbeat IPC: 0.985 cumulative IPC: 0.8495 (Simulation time: 00 hr 18 min 49 sec)
Heartbeat CPU 0 instructions: 126000664 cycles: 99993384 heartbeat IPC: 0.7509 cumulative IPC: 0.8488 (Simulation time: 00 hr 18 min 57 sec)
Heartbeat CPU 0 instructions: 126500664 cycles: 100668167 heartbeat IPC: 0.741 cumulative IPC: 0.848 (Simulation time: 00 hr 19 min 05 sec)
Heartbeat CPU 0 instructions: 127000664 cycles: 101315089 heartbeat IPC: 0.7729 cumulative IPC: 0.8474 (Simulation time: 00 hr 19 min 11 sec)
Heartbeat CPU 0 instructions: 127500667 cycles: 101737565 heartbeat IPC: 1.184 cumulative IPC: 0.849 (Simulation time: 00 hr 19 min 15 sec)
Heartbeat CPU 0 instructions: 128000668 cycles: 102453305 heartbeat IPC: 0.6986 cumulative IPC: 0.8478 (Simulation time: 00 hr 19 min 23 sec)
Heartbeat CPU 0 instructions: 128500669 cycles: 103072049 heartbeat IPC: 0.8081 cumulative IPC: 0.8476 (Simulation time: 00 hr 19 min 31 sec)
Heartbeat CPU 0 instructions: 129000670 cycles: 103602180 heartbeat IPC: 0.9432 cumulative IPC: 0.8481 (Simulation time: 00 hr 19 min 37 sec)
Heartbeat CPU 0 instructions: 129500677 cycles: 104337006 heartbeat IPC: 0.6804 cumulative IPC: 0.8468 (Simulation time: 00 hr 19 min 45 sec)
Heartbeat CPU 0 instructions: 130000678 cycles: 104910217 heartbeat IPC: 0.8723 cumulative IPC: 0.8469 (Simulation time: 00 hr 19 min 55 sec)
Heartbeat CPU 0 instructions: 130500681 cycles: 105436705 heartbeat IPC: 0.9497 cumulative IPC: 0.8475 (Simulation time: 00 hr 20 min 02 sec)
Heartbeat CPU 0 instructions: 131000684 cycles: 106319477 heartbeat IPC: 0.5664 cumulative IPC: 0.8449 (Simulation time: 00 hr 20 min 14 sec)
Heartbeat CPU 0 instructions: 131500684 cycles: 107070368 heartbeat IPC: 0.6659 cumulative IPC: 0.8435 (Simulation time: 00 hr 20 min 27 sec)
Heartbeat CPU 0 instructions: 132000686 cycles: 107697405 heartbeat IPC: 0.7974 cumulative IPC: 0.8432 (Simulation time: 00 hr 20 min 36 sec)
Heartbeat CPU 0 instructions: 132500686 cycles: 108206746 heartbeat IPC: 0.9817 cumulative IPC: 0.844 (Simulation time: 00 hr 20 min 41 sec)
Heartbeat CPU 0 instructions: 133000691 cycles: 108802845 heartbeat IPC: 0.8388 cumulative IPC: 0.8439 (Simulation time: 00 hr 20 min 47 sec)
Heartbeat CPU 0 instructions: 133500692 cycles: 109553336 heartbeat IPC: 0.6662 cumulative IPC: 0.8426 (Simulation time: 00 hr 20 min 56 sec)
Heartbeat CPU 0 instructions: 134000693 cycles: 110157152 heartbeat IPC: 0.8281 cumulative IPC: 0.8425 (Simulation time: 00 hr 21 min 03 sec)
Heartbeat CPU 0 instructions: 134500693 cycles: 110634892 heartbeat IPC: 1.047 cumulative IPC: 0.8435 (Simulation time: 00 hr 21 min 07 sec)
Heartbeat CPU 0 instructions: 135000693 cycles: 111118064 heartbeat IPC: 1.035 cumulative IPC: 0.8444 (Simulation time: 00 hr 21 min 13 sec)
Heartbeat CPU 0 instructions: 135500700 cycles: 111881109 heartbeat IPC: 0.6553 cumulative IPC: 0.843 (Simulation time: 00 hr 21 min 22 sec)
Heartbeat CPU 0 instructions: 136000700 cycles: 112422939 heartbeat IPC: 0.9228 cumulative IPC: 0.8434 (Simulation time: 00 hr 21 min 28 sec)
Heartbeat CPU 0 instructions: 136500700 cycles: 113082079 heartbeat IPC: 0.7586 cumulative IPC: 0.8428 (Simulation time: 00 hr 21 min 34 sec)
Heartbeat CPU 0 instructions: 137000700 cycles: 113697284 heartbeat IPC: 0.8127 cumulative IPC: 0.8427 (Simulation time: 00 hr 21 min 41 sec)
Heartbeat CPU 0 instructions: 137500701 cycles: 114441014 heartbeat IPC: 0.6723 cumulative IPC: 0.8414 (Simulation time: 00 hr 21 min 50 sec)
Heartbeat CPU 0 instructions: 138000703 cycles: 114904796 heartbeat IPC: 1.078 cumulative IPC: 0.8425 (Simulation time: 00 hr 21 min 55 sec)
Heartbeat CPU 0 instructions: 138500709 cycles: 115406983 heartbeat IPC: 0.9957 cumulative IPC: 0.8432 (Simulation time: 00 hr 21 min 59 sec)
Heartbeat CPU 0 instructions: 139000711 cycles: 115954311 heartbeat IPC: 0.9135 cumulative IPC: 0.8436 (Simulation time: 00 hr 22 min 06 sec)
Heartbeat CPU 0 instructions: 139500711 cycles: 116720666 heartbeat IPC: 0.6524 cumulative IPC: 0.8422 (Simulation time: 00 hr 22 min 14 sec)
Heartbeat CPU 0 instructions: 140000713 cycles: 117226734 heartbeat IPC: 0.988 cumulative IPC: 0.8429 (Simulation time: 00 hr 22 min 20 sec)
Heartbeat CPU 0 instructions: 140500716 cycles: 117827544 heartbeat IPC: 0.8322 cumulative IPC: 0.8428 (Simulation time: 00 hr 22 min 26 sec)
Heartbeat CPU 0 instructions: 141000719 cycles: 118459488 heartbeat IPC: 0.7912 cumulative IPC: 0.8425 (Simulation time: 00 hr 22 min 32 sec)
Heartbeat CPU 0 instructions: 141500719 cycles: 118807352 heartbeat IPC: 1.437 cumulative IPC: 0.8444 (Simulation time: 00 hr 22 min 36 sec)
Heartbeat CPU 0 instructions: 142000720 cycles: 119094928 heartbeat IPC: 1.739 cumulative IPC: 0.8468 (Simulation time: 00 hr 22 min 39 sec)
Heartbeat CPU 0 instructions: 142500721 cycles: 119750306 heartbeat IPC: 0.7629 cumulative IPC: 0.8463 (Simulation time: 00 hr 22 min 47 sec)
Heartbeat CPU 0 instructions: 143000727 cycles: 120467954 heartbeat IPC: 0.6967 cumulative IPC: 0.8453 (Simulation time: 00 hr 22 min 55 sec)
Heartbeat CPU 0 instructions: 143500732 cycles: 120843780 heartbeat IPC: 1.33 cumulative IPC: 0.847 (Simulation time: 00 hr 22 min 59 sec)
Heartbeat CPU 0 instructions: 144000732 cycles: 121301492 heartbeat IPC: 1.092 cumulative IPC: 0.848 (Simulation time: 00 hr 23 min 04 sec)
Heartbeat CPU 0 instructions: 144500735 cycles: 122023560 heartbeat IPC: 0.6925 cumulative IPC: 0.847 (Simulation time: 00 hr 23 min 13 sec)
Heartbeat CPU 0 instructions: 145000739 cycles: 122633967 heartbeat IPC: 0.8191 cumulative IPC: 0.8468 (Simulation time: 00 hr 23 min 20 sec)
Heartbeat CPU 0 instructions: 145500740 cycles: 123180750 heartbeat IPC: 0.9144 cumulative IPC: 0.8472 (Simulation time: 00 hr 23 min 25 sec)
Heartbeat CPU 0 instructions: 146000744 cycles: 123470108 heartbeat IPC: 1.728 cumulative IPC: 0.8494 (Simulation time: 00 hr 23 min 28 sec)
Heartbeat CPU 0 instructions: 146500746 cycles: 124027208 heartbeat IPC: 0.8975 cumulative IPC: 0.8497 (Simulation time: 00 hr 23 min 35 sec)
Heartbeat CPU 0 instructions: 147000750 cycles: 124786646 heartbeat IPC: 0.6584 cumulative IPC: 0.8484 (Simulation time: 00 hr 23 min 44 sec)
Heartbeat CPU 0 instructions: 147500757 cycles: 125274492 heartbeat IPC: 1.025 cumulative IPC: 0.8491 (Simulation time: 00 hr 23 min 49 sec)
Heartbeat CPU 0 instructions: 148000760 cycles: 125859325 heartbeat IPC: 0.855 cumulative IPC: 0.8492 (Simulation time: 00 hr 23 min 54 sec)
Heartbeat CPU 0 instructions: 148500761 cycles: 127082201 heartbeat IPC: 0.4089 cumulative IPC: 0.8446 (Simulation time: 00 hr 24 min 04 sec)
Heartbeat CPU 0 instructions: 149000766 cycles: 127382979 heartbeat IPC: 1.662 cumulative IPC: 0.8467 (Simulation time: 00 hr 24 min 07 sec)
Heartbeat CPU 0 instructions: 149500766 cycles: 127672242 heartbeat IPC: 1.729 cumulative IPC: 0.8488 (Simulation time: 00 hr 24 min 10 sec)
Heartbeat CPU 0 instructions: 150000770 cycles: 128014073 heartbeat IPC: 1.463 cumulative IPC: 0.8506 (Simulation time: 00 hr 24 min 14 sec)
Heartbeat CPU 0 instructions: 150500776 cycles: 128658526 heartbeat IPC: 0.7759 cumulative IPC: 0.8502 (Simulation time: 00 hr 24 min 21 sec)
Heartbeat CPU 0 instructions: 151000777 cycles: 129400452 heartbeat IPC: 0.6739 cumulative IPC: 0.8491 (Simulation time: 00 hr 24 min 30 sec)
Heartbeat CPU 0 instructions: 151500781 cycles: 130020781 heartbeat IPC: 0.806 cumulative IPC: 0.8489 (Simulation time: 00 hr 24 min 36 sec)
Heartbeat CPU 0 instructions: 152000786 cycles: 130877280 heartbeat IPC: 0.5838 cumulative IPC: 0.847 (Simulation time: 00 hr 24 min 45 sec)
Heartbeat CPU 0 instructions: 152500789 cycles: 131628728 heartbeat IPC: 0.6654 cumulative IPC: 0.8459 (Simulation time: 00 hr 24 min 54 sec)
Heartbeat CPU 0 instructions: 153000790 cycles: 132254017 heartbeat IPC: 0.7996 cumulative IPC: 0.8456 (Simulation time: 00 hr 25 min 01 sec)
Heartbeat CPU 0 instructions: 153500792 cycles: 133079307 heartbeat IPC: 0.6059 cumulative IPC: 0.844 (Simulation time: 00 hr 25 min 08 sec)
Heartbeat CPU 0 instructions: 154000792 cycles: 133706204 heartbeat IPC: 0.7976 cumulative IPC: 0.8438 (Simulation time: 00 hr 25 min 15 sec)
Heartbeat CPU 0 instructions: 154500798 cycles: 134451559 heartbeat IPC: 0.6708 cumulative IPC: 0.8427 (Simulation time: 00 hr 25 min 24 sec)
Heartbeat CPU 0 instructions: 155000801 cycles: 134852252 heartbeat IPC: 1.248 cumulative IPC: 0.8441 (Simulation time: 00 hr 25 min 29 sec)
Heartbeat CPU 0 instructions: 155500804 cycles: 135319123 heartbeat IPC: 1.071 cumulative IPC: 0.8449 (Simulation time: 00 hr 25 min 33 sec)
Heartbeat CPU 0 instructions: 156000807 cycles: 135915060 heartbeat IPC: 0.839 cumulative IPC: 0.8449 (Simulation time: 00 hr 25 min 40 sec)
Heartbeat CPU 0 instructions: 156500811 cycles: 136671800 heartbeat IPC: 0.6607 cumulative IPC: 0.8438 (Simulation time: 00 hr 25 min 49 sec)
Heartbeat CPU 0 instructions: 157000813 cycles: 137155275 heartbeat IPC: 1.034 cumulative IPC: 0.8445 (Simulation time: 00 hr 25 min 54 sec)
Heartbeat CPU 0 instructions: 157500813 cycles: 137541187 heartbeat IPC: 1.296 cumulative IPC: 0.8459 (Simulation time: 00 hr 26 min 00 sec)
Heartbeat CPU 0 instructions: 158000813 cycles: 138050575 heartbeat IPC: 0.9816 cumulative IPC: 0.8464 (Simulation time: 00 hr 26 min 08 sec)
Heartbeat CPU 0 instructions: 158500818 cycles: 138819981 heartbeat IPC: 0.6499 cumulative IPC: 0.8452 (Simulation time: 00 hr 26 min 21 sec)
Heartbeat CPU 0 instructions: 159000821 cycles: 139348734 heartbeat IPC: 0.9456 cumulative IPC: 0.8456 (Simulation time: 00 hr 26 min 27 sec)
Heartbeat CPU 0 instructions: 159500825 cycles: 139819643 heartbeat IPC: 1.062 cumulative IPC: 0.8464 (Simulation time: 00 hr 26 min 32 sec)
Heartbeat CPU 0 instructions: 160000825 cycles: 140514917 heartbeat IPC: 0.7191 cumulative IPC: 0.8457 (Simulation time: 00 hr 26 min 40 sec)
Heartbeat CPU 0 instructions: 160500827 cycles: 141167208 heartbeat IPC: 0.7665 cumulative IPC: 0.8454 (Simulation time: 00 hr 26 min 48 sec)
Heartbeat CPU 0 instructions: 161000832 cycles: 141698199 heartbeat IPC: 0.9416 cumulative IPC: 0.8457 (Simulation time: 00 hr 26 min 53 sec)
Heartbeat CPU 0 instructions: 161500835 cycles: 142205855 heartbeat IPC: 0.9849 cumulative IPC: 0.8463 (Simulation time: 00 hr 26 min 59 sec)
Heartbeat CPU 0 instructions: 162000840 cycles: 142975368 heartbeat IPC: 0.6498 cumulative IPC: 0.8451 (Simulation time: 00 hr 27 min 08 sec)
Heartbeat CPU 0 instructions: 162500842 cycles: 143492234 heartbeat IPC: 0.9674 cumulative IPC: 0.8456 (Simulation time: 00 hr 27 min 14 sec)
Heartbeat CPU 0 instructions: 163000846 cycles: 143991679 heartbeat IPC: 1.001 cumulative IPC: 0.8462 (Simulation time: 00 hr 27 min 19 sec)
Heartbeat CPU 0 instructions: 163500846 cycles: 144631609 heartbeat IPC: 0.7813 cumulative IPC: 0.8459 (Simulation time: 00 hr 27 min 26 sec)
Heartbeat CPU 0 instructions: 164000849 cycles: 145382128 heartbeat IPC: 0.6662 cumulative IPC: 0.8449 (Simulation time: 00 hr 27 min 35 sec)
Heartbeat CPU 0 instructions: 164500851 cycles: 145913670 heartbeat IPC: 0.9407 cumulative IPC: 0.8453 (Simulation time: 00 hr 27 min 40 sec)
Heartbeat CPU 0 instructions: 165000852 cycles: 146509181 heartbeat IPC: 0.8396 cumulative IPC: 0.8452 (Simulation time: 00 hr 27 min 46 sec)
Heartbeat CPU 0 instructions: 165500852 cycles: 147027593 heartbeat IPC: 0.9645 cumulative IPC: 0.8457 (Simulation time: 00 hr 27 min 52 sec)
Heartbeat CPU 0 instructions: 166000854 cycles: 147800888 heartbeat IPC: 0.6466 cumulative IPC: 0.8446 (Simulation time: 00 hr 28 min 01 sec)
Heartbeat CPU 0 instructions: 166500856 cycles: 148333169 heartbeat IPC: 0.9394 cumulative IPC: 0.8449 (Simulation time: 00 hr 28 min 07 sec)
Heartbeat CPU 0 instructions: 167000857 cycles: 149150999 heartbeat IPC: 0.6114 cumulative IPC: 0.8436 (Simulation time: 00 hr 28 min 14 sec)
Heartbeat CPU 0 instructions: 167500864 cycles: 149528594 heartbeat IPC: 1.324 cumulative IPC: 0.8449 (Simulation time: 00 hr 28 min 18 sec)
Heartbeat CPU 0 instructions: 168000866 cycles: 149770015 heartbeat IPC: 2.071 cumulative IPC: 0.847 (Simulation time: 00 hr 28 min 20 sec)
Heartbeat CPU 0 instructions: 168500866 cycles: 150042115 heartbeat IPC: 1.838 cumulative IPC: 0.8489 (Simulation time: 00 hr 28 min 23 sec)
Heartbeat CPU 0 instructions: 169000867 cycles: 150665535 heartbeat IPC: 0.802 cumulative IPC: 0.8487 (Simulation time: 00 hr 28 min 31 sec)
Heartbeat CPU 0 instructions: 169500872 cycles: 151401366 heartbeat IPC: 0.6795 cumulative IPC: 0.8478 (Simulation time: 00 hr 28 min 39 sec)
Heartbeat CPU 0 instructions: 170000872 cycles: 151995282 heartbeat IPC: 0.8419 cumulative IPC: 0.8478 (Simulation time: 00 hr 28 min 45 sec)
Heartbeat CPU 0 instructions: 170500875 cycles: 152412079 heartbeat IPC: 1.2 cumulative IPC: 0.8488 (Simulation time: 00 hr 28 min 50 sec)
Heartbeat CPU 0 instructions: 171000875 cycles: 152987061 heartbeat IPC: 0.8696 cumulative IPC: 0.8489 (Simulation time: 00 hr 28 min 56 sec)
Heartbeat CPU 0 instructions: 171500879 cycles: 153745656 heartbeat IPC: 0.6591 cumulative IPC: 0.8479 (Simulation time: 00 hr 29 min 05 sec)
Heartbeat CPU 0 instructions: 172000880 cycles: 154278928 heartbeat IPC: 0.9376 cumulative IPC: 0.8482 (Simulation time: 00 hr 29 min 11 sec)
Heartbeat CPU 0 instructions: 172500886 cycles: 154892369 heartbeat IPC: 0.8151 cumulative IPC: 0.8481 (Simulation time: 00 hr 29 min 17 sec)
Heartbeat CPU 0 instructions: 173000888 cycles: 155157443 heartbeat IPC: 1.886 cumulative IPC: 0.85 (Simulation time: 00 hr 29 min 20 sec)
Heartbeat CPU 0 instructions: 173500891 cycles: 155765561 heartbeat IPC: 0.8222 cumulative IPC: 0.8499 (Simulation time: 00 hr 29 min 27 sec)
Heartbeat CPU 0 instructions: 174000895 cycles: 156508420 heartbeat IPC: 0.6731 cumulative IPC: 0.849 (Simulation time: 00 hr 29 min 35 sec)
Heartbeat CPU 0 instructions: 174500900 cycles: 157033743 heartbeat IPC: 0.9518 cumulative IPC: 0.8494 (Simulation time: 00 hr 29 min 41 sec)
Heartbeat CPU 0 instructions: 175000900 cycles: 157331283 heartbeat IPC: 1.68 cumulative IPC: 0.851 (Simulation time: 00 hr 29 min 44 sec)
Heartbeat CPU 0 instructions: 175500901 cycles: 157710334 heartbeat IPC: 1.319 cumulative IPC: 0.8522 (Simulation time: 00 hr 29 min 48 sec)
Heartbeat CPU 0 instructions: 176000905 cycles: 158417567 heartbeat IPC: 0.707 cumulative IPC: 0.8516 (Simulation time: 00 hr 29 min 56 sec)
Heartbeat CPU 0 instructions: 176500911 cycles: 159076060 heartbeat IPC: 0.7593 cumulative IPC: 0.8511 (Simulation time: 00 hr 30 min 04 sec)
Heartbeat CPU 0 instructions: 177000917 cycles: 159710577 heartbeat IPC: 0.788 cumulative IPC: 0.8509 (Simulation time: 00 hr 30 min 10 sec)
Heartbeat CPU 0 instructions: 177500920 cycles: 160165068 heartbeat IPC: 1.1 cumulative IPC: 0.8516 (Simulation time: 00 hr 30 min 15 sec)
Heartbeat CPU 0 instructions: 178000920 cycles: 160419303 heartbeat IPC: 1.967 cumulative IPC: 0.8535 (Simulation time: 00 hr 30 min 18 sec)
Heartbeat CPU 0 instructions: 178500922 cycles: 161041568 heartbeat IPC: 0.8035 cumulative IPC: 0.8533 (Simulation time: 00 hr 30 min 25 sec)
Heartbeat CPU 0 instructions: 179000922 cycles: 161779001 heartbeat IPC: 0.678 cumulative IPC: 0.8525 (Simulation time: 00 hr 30 min 34 sec)
Heartbeat CPU 0 instructions: 179500923 cycles: 162284939 heartbeat IPC: 0.9883 cumulative IPC: 0.8529 (Simulation time: 00 hr 30 min 39 sec)
Heartbeat CPU 0 instructions: 180000925 cycles: 162927145 heartbeat IPC: 0.7786 cumulative IPC: 0.8526 (Simulation time: 00 hr 30 min 45 sec)
Heartbeat CPU 0 instructions: 180500926 cycles: 163412338 heartbeat IPC: 1.031 cumulative IPC: 0.8532 (Simulation time: 00 hr 30 min 50 sec)
Heartbeat CPU 0 instructions: 181000933 cycles: 163968766 heartbeat IPC: 0.8986 cumulative IPC: 0.8533 (Simulation time: 00 hr 30 min 55 sec)
Heartbeat CPU 0 instructions: 181500934 cycles: 164461591 heartbeat IPC: 1.015 cumulative IPC: 0.8538 (Simulation time: 00 hr 31 min 01 sec)
Heartbeat CPU 0 instructions: 182000935 cycles: 165240710 heartbeat IPC: 0.6418 cumulative IPC: 0.8528 (Simulation time: 00 hr 31 min 10 sec)
Heartbeat CPU 0 instructions: 182500936 cycles: 165810943 heartbeat IPC: 0.8768 cumulative IPC: 0.8529 (Simulation time: 00 hr 31 min 16 sec)
Heartbeat CPU 0 instructions: 183000937 cycles: 166948873 heartbeat IPC: 0.4394 cumulative IPC: 0.8499 (Simulation time: 00 hr 31 min 26 sec)
Heartbeat CPU 0 instructions: 183500941 cycles: 167670054 heartbeat IPC: 0.6933 cumulative IPC: 0.8491 (Simulation time: 00 hr 31 min 32 sec)
Heartbeat CPU 0 instructions: 184000943 cycles: 167993294 heartbeat IPC: 1.547 cumulative IPC: 0.8506 (Simulation time: 00 hr 31 min 36 sec)
Heartbeat CPU 0 instructions: 184500945 cycles: 168667948 heartbeat IPC: 0.7411 cumulative IPC: 0.8501 (Simulation time: 00 hr 31 min 43 sec)
Heartbeat CPU 0 instructions: 185000946 cycles: 169369080 heartbeat IPC: 0.7131 cumulative IPC: 0.8495 (Simulation time: 00 hr 31 min 52 sec)
Heartbeat CPU 0 instructions: 185500947 cycles: 169808535 heartbeat IPC: 1.138 cumulative IPC: 0.8503 (Simulation time: 00 hr 31 min 56 sec)
Heartbeat CPU 0 instructions: 186000947 cycles: 170101842 heartbeat IPC: 1.705 cumulative IPC: 0.8519 (Simulation time: 00 hr 31 min 59 sec)
Heartbeat CPU 0 instructions: 186500951 cycles: 170735024 heartbeat IPC: 0.7897 cumulative IPC: 0.8516 (Simulation time: 00 hr 32 min 07 sec)
Heartbeat CPU 0 instructions: 187000958 cycles: 171454667 heartbeat IPC: 0.6948 cumulative IPC: 0.8509 (Simulation time: 00 hr 32 min 15 sec)
Heartbeat CPU 0 instructions: 187500959 cycles: 172020558 heartbeat IPC: 0.8836 cumulative IPC: 0.851 (Simulation time: 00 hr 32 min 21 sec)
Heartbeat CPU 0 instructions: 188000962 cycles: 172675293 heartbeat IPC: 0.7637 cumulative IPC: 0.8507 (Simulation time: 00 hr 32 min 27 sec)
Heartbeat CPU 0 instructions: 188500965 cycles: 172971294 heartbeat IPC: 1.689 cumulative IPC: 0.8522 (Simulation time: 00 hr 32 min 30 sec)
Heartbeat CPU 0 instructions: 189000967 cycles: 173365940 heartbeat IPC: 1.267 cumulative IPC: 0.8532 (Simulation time: 00 hr 32 min 34 sec)
Heartbeat CPU 0 instructions: 189500972 cycles: 174089954 heartbeat IPC: 0.6906 cumulative IPC: 0.8525 (Simulation time: 00 hr 32 min 43 sec)
Heartbeat CPU 0 instructions: 190000976 cycles: 174716592 heartbeat IPC: 0.7979 cumulative IPC: 0.8523 (Simulation time: 00 hr 32 min 50 sec)
Heartbeat CPU 0 instructions: 190500976 cycles: 175142172 heartbeat IPC: 1.175 cumulative IPC: 0.8531 (Simulation time: 00 hr 32 min 55 sec)
Heartbeat CPU 0 instructions: 191000979 cycles: 175460171 heartbeat IPC: 1.572 cumulative IPC: 0.8545 (Simulation time: 00 hr 32 min 58 sec)
Heartbeat CPU 0 instructions: 191500984 cycles: 176032905 heartbeat IPC: 0.873 cumulative IPC: 0.8546 (Simulation time: 00 hr 33 min 04 sec)
Heartbeat CPU 0 instructions: 192000988 cycles: 176783000 heartbeat IPC: 0.6666 cumulative IPC: 0.8537 (Simulation time: 00 hr 33 min 13 sec)
Heartbeat CPU 0 instructions: 192500988 cycles: 177327187 heartbeat IPC: 0.9188 cumulative IPC: 0.8539 (Simulation time: 00 hr 33 min 19 sec)
Heartbeat CPU 0 instructions: 193000989 cycles: 177962401 heartbeat IPC: 0.7871 cumulative IPC: 0.8537 (Simulation time: 00 hr 33 min 25 sec)
Heartbeat CPU 0 instructions: 193500993 cycles: 178392631 heartbeat IPC: 1.162 cumulative IPC: 0.8545 (Simulation time: 00 hr 33 min 29 sec)
Heartbeat CPU 0 instructions: 194000993 cycles: 178815581 heartbeat IPC: 1.182 cumulative IPC: 0.8553 (Simulation time: 00 hr 33 min 34 sec)
Heartbeat CPU 0 instructions: 194500994 cycles: 179576696 heartbeat IPC: 0.6569 cumulative IPC: 0.8544 (Simulation time: 00 hr 33 min 43 sec)
Heartbeat CPU 0 instructions: 195000995 cycles: 180196915 heartbeat IPC: 0.8062 cumulative IPC: 0.8542 (Simulation time: 00 hr 33 min 50 sec)
Heartbeat CPU 0 instructions: 195500997 cycles: 180845650 heartbeat IPC: 0.7707 cumulative IPC: 0.8539 (Simulation time: 00 hr 33 min 56 sec)
Heartbeat CPU 0 instructions: 196000997 cycles: 181731315 heartbeat IPC: 0.5645 cumulative IPC: 0.8524 (Simulation time: 00 hr 34 min 05 sec)
Heartbeat CPU 0 instructions: 196501000 cycles: 182318532 heartbeat IPC: 0.8515 cumulative IPC: 0.8524 (Simulation time: 00 hr 34 min 11 sec)
Heartbeat CPU 0 instructions: 197001001 cycles: 183086936 heartbeat IPC: 0.6507 cumulative IPC: 0.8515 (Simulation time: 00 hr 34 min 20 sec)
Heartbeat CPU 0 instructions: 197501003 cycles: 183630153 heartbeat IPC: 0.9204 cumulative IPC: 0.8517 (Simulation time: 00 hr 34 min 26 sec)
Heartbeat CPU 0 instructions: 198001003 cycles: 184221984 heartbeat IPC: 0.8448 cumulative IPC: 0.8517 (Simulation time: 00 hr 34 min 32 sec)
Heartbeat CPU 0 instructions: 198501007 cycles: 184753076 heartbeat IPC: 0.9415 cumulative IPC: 0.852 (Simulation time: 00 hr 34 min 38 sec)
Heartbeat CPU 0 instructions: 199001007 cycles: 185524974 heartbeat IPC: 0.6478 cumulative IPC: 0.8511 (Simulation time: 00 hr 34 min 47 sec)
Heartbeat CPU 0 instructions: 199501007 cycles: 186091054 heartbeat IPC: 0.8833 cumulative IPC: 0.8512 (Simulation time: 00 hr 34 min 53 sec)
Heartbeat CPU 0 instructions: 200001008 cycles: 186709431 heartbeat IPC: 0.8086 cumulative IPC: 0.851 (Simulation time: 00 hr 35 min 00 sec)
Heartbeat CPU 0 instructions: 200501009 cycles: 187193949 heartbeat IPC: 1.032 cumulative IPC: 0.8515 (Simulation time: 00 hr 35 min 05 sec)
Heartbeat CPU 0 instructions: 201001009 cycles: 187474127 heartbeat IPC: 1.785 cumulative IPC: 0.853 (Simulation time: 00 hr 35 min 08 sec)
Heartbeat CPU 0 instructions: 201501013 cycles: 187935149 heartbeat IPC: 1.085 cumulative IPC: 0.8536 (Simulation time: 00 hr 35 min 13 sec)
Heartbeat CPU 0 instructions: 202001013 cycles: 188708220 heartbeat IPC: 0.6468 cumulative IPC: 0.8527 (Simulation time: 00 hr 35 min 22 sec)
Heartbeat CPU 0 instructions: 202501017 cycles: 189291458 heartbeat IPC: 0.8573 cumulative IPC: 0.8527 (Simulation time: 00 hr 35 min 29 sec)
Heartbeat CPU 0 instructions: 203001024 cycles: 189924334 heartbeat IPC: 0.7901 cumulative IPC: 0.8525 (Simulation time: 00 hr 35 min 36 sec)
Heartbeat CPU 0 instructions: 203501030 cycles: 190686704 heartbeat IPC: 0.6559 cumulative IPC: 0.8517 (Simulation time: 00 hr 35 min 44 sec)
Heartbeat CPU 0 instructions: 204001037 cycles: 191246622 heartbeat IPC: 0.893 cumulative IPC: 0.8518 (Simulation time: 00 hr 35 min 51 sec)
Heartbeat CPU 0 instructions: 204501038 cycles: 191762032 heartbeat IPC: 0.9701 cumulative IPC: 0.8521 (Simulation time: 00 hr 35 min 56 sec)
Heartbeat CPU 0 instructions: 205001038 cycles: 192067360 heartbeat IPC: 1.638 cumulative IPC: 0.8535 (Simulation time: 00 hr 35 min 59 sec)
Heartbeat CPU 0 instructions: 205501039 cycles: 192687054 heartbeat IPC: 0.8069 cumulative IPC: 0.8533 (Simulation time: 00 hr 36 min 06 sec)
Heartbeat CPU 0 instructions: 206001043 cycles: 193426170 heartbeat IPC: 0.6765 cumulative IPC: 0.8526 (Simulation time: 00 hr 36 min 15 sec)
Heartbeat CPU 0 instructions: 206501043 cycles: 194040670 heartbeat IPC: 0.8137 cumulative IPC: 0.8525 (Simulation time: 00 hr 36 min 21 sec)
Heartbeat CPU 0 instructions: 207001044 cycles: 194743125 heartbeat IPC: 0.7118 cumulative IPC: 0.8519 (Simulation time: 00 hr 36 min 29 sec)
Heartbeat CPU 0 instructions: 207501046 cycles: 195514174 heartbeat IPC: 0.6485 cumulative IPC: 0.8511 (Simulation time: 00 hr 36 min 38 sec)
Heartbeat CPU 0 instructions: 208001047 cycles: 196036474 heartbeat IPC: 0.9573 cumulative IPC: 0.8514 (Simulation time: 00 hr 36 min 44 sec)
Heartbeat CPU 0 instructions: 208501047 cycles: 196610357 heartbeat IPC: 0.8713 cumulative IPC: 0.8514 (Simulation time: 00 hr 36 min 49 sec)
Heartbeat CPU 0 instructions: 209001047 cycles: 196997554 heartbeat IPC: 1.291 cumulative IPC: 0.8523 (Simulation time: 00 hr 36 min 54 sec)
Heartbeat CPU 0 instructions: 209501051 cycles: 197717009 heartbeat IPC: 0.695 cumulative IPC: 0.8517 (Simulation time: 00 hr 37 min 02 sec)
Heartbeat CPU 0 instructions: 210001052 cycles: 198334316 heartbeat IPC: 0.81 cumulative IPC: 0.8516 (Simulation time: 00 hr 37 min 10 sec)
Heartbeat CPU 0 instructions: 210501054 cycles: 198725521 heartbeat IPC: 1.278 cumulative IPC: 0.8525 (Simulation time: 00 hr 37 min 14 sec)
Heartbeat CPU 0 instructions: 211001054 cycles: 199350191 heartbeat IPC: 0.8004 cumulative IPC: 0.8523 (Simulation time: 00 hr 37 min 20 sec)
Heartbeat CPU 0 instructions: 211501058 cycles: 200072306 heartbeat IPC: 0.6924 cumulative IPC: 0.8517 (Simulation time: 00 hr 37 min 28 sec)
Heartbeat CPU 0 instructions: 212001064 cycles: 200704210 heartbeat IPC: 0.7913 cumulative IPC: 0.8515 (Simulation time: 00 hr 37 min 36 sec)
Heartbeat CPU 0 instructions: 212501066 cycles: 201323592 heartbeat IPC: 0.8073 cumulative IPC: 0.8514 (Simulation time: 00 hr 37 min 42 sec)
Heartbeat CPU 0 instructions: 213001069 cycles: 201958237 heartbeat IPC: 0.7878 cumulative IPC: 0.8512 (Simulation time: 00 hr 37 min 49 sec)
Heartbeat CPU 0 instructions: 213501071 cycles: 202683777 heartbeat IPC: 0.6891 cumulative IPC: 0.8505 (Simulation time: 00 hr 37 min 58 sec)
Heartbeat CPU 0 instructions: 214001076 cycles: 203151261 heartbeat IPC: 1.07 cumulative IPC: 0.8511 (Simulation time: 00 hr 38 min 02 sec)
Heartbeat CPU 0 instructions: 214501078 cycles: 203701668 heartbeat IPC: 0.9084 cumulative IPC: 0.8512 (Simulation time: 00 hr 38 min 07 sec)
Heartbeat CPU 0 instructions: 215001082 cycles: 204332844 heartbeat IPC: 0.7922 cumulative IPC: 0.851 (Simulation time: 00 hr 38 min 15 sec)
Heartbeat CPU 0 instructions: 215501086 cycles: 205056135 heartbeat IPC: 0.6913 cumulative IPC: 0.8504 (Simulation time: 00 hr 38 min 23 sec)
Heartbeat CPU 0 instructions: 216001091 cycles: 205520559 heartbeat IPC: 1.077 cumulative IPC: 0.851 (Simulation time: 00 hr 38 min 28 sec)
Heartbeat CPU 0 instructions: 216501091 cycles: 206148546 heartbeat IPC: 0.7962 cumulative IPC: 0.8508 (Simulation time: 00 hr 38 min 34 sec)
Heartbeat CPU 0 instructions: 217001091 cycles: 206552243 heartbeat IPC: 1.239 cumulative IPC: 0.8516 (Simulation time: 00 hr 38 min 38 sec)
Heartbeat CPU 0 instructions: 217501092 cycles: 207015065 heartbeat IPC: 1.08 cumulative IPC: 0.8521 (Simulation time: 00 hr 38 min 43 sec)
Heartbeat CPU 0 instructions: 218001099 cycles: 207780782 heartbeat IPC: 0.653 cumulative IPC: 0.8514 (Simulation time: 00 hr 38 min 52 sec)
Heartbeat CPU 0 instructions: 218501104 cycles: 208362937 heartbeat IPC: 0.8589 cumulative IPC: 0.8514 (Simulation time: 00 hr 38 min 59 sec)
Heartbeat CPU 0 instructions: 219001106 cycles: 209021111 heartbeat IPC: 0.7597 cumulative IPC: 0.8511 (Simulation time: 00 hr 39 min 04 sec)
Heartbeat CPU 0 instructions: 219501106 cycles: 209469957 heartbeat IPC: 1.114 cumulative IPC: 0.8517 (Simulation time: 00 hr 39 min 09 sec)
Heartbeat CPU 0 instructions: 220001111 cycles: 210178744 heartbeat IPC: 0.7054 cumulative IPC: 0.8512 (Simulation time: 00 hr 39 min 17 sec)
Heartbeat CPU 0 instructions: 220501115 cycles: 210826078 heartbeat IPC: 0.7724 cumulative IPC: 0.8509 (Simulation time: 00 hr 39 min 25 sec)
Heartbeat CPU 0 instructions: 221001120 cycles: 211410879 heartbeat IPC: 0.855 cumulative IPC: 0.8509 (Simulation time: 00 hr 39 min 30 sec)
Heartbeat CPU 0 instructions: 221501121 cycles: 211736019 heartbeat IPC: 1.538 cumulative IPC: 0.852 (Simulation time: 00 hr 39 min 34 sec)
Heartbeat CPU 0 instructions: 222001123 cycles: 212250586 heartbeat IPC: 0.9717 cumulative IPC: 0.8523 (Simulation time: 00 hr 39 min 39 sec)
Heartbeat CPU 0 instructions: 222501128 cycles: 212742890 heartbeat IPC: 1.016 cumulative IPC: 0.8527 (Simulation time: 00 hr 39 min 44 sec)
Heartbeat CPU 0 instructions: 223001129 cycles: 213513373 heartbeat IPC: 0.6489 cumulative IPC: 0.852 (Simulation time: 00 hr 39 min 53 sec)
Heartbeat CPU 0 instructions: 223501130 cycles: 214085165 heartbeat IPC: 0.8744 cumulative IPC: 0.852 (Simulation time: 00 hr 40 min 00 sec)
Heartbeat CPU 0 instructions: 224001130 cycles: 214349180 heartbeat IPC: 1.894 cumulative IPC: 0.8534 (Simulation time: 00 hr 40 min 03 sec)
Heartbeat CPU 0 instructions: 224501131 cycles: 214858283 heartbeat IPC: 0.9821 cumulative IPC: 0.8537 (Simulation time: 00 hr 40 min 08 sec)
Heartbeat CPU 0 instructions: 225001135 cycles: 215476560 heartbeat IPC: 0.8087 cumulative IPC: 0.8536 (Simulation time: 00 hr 40 min 15 sec)
Heartbeat CPU 0 instructions: 225501137 cycles: 216217064 heartbeat IPC: 0.6752 cumulative IPC: 0.8529 (Simulation time: 00 hr 40 min 24 sec)
Heartbeat CPU 0 instructions: 226001137 cycles: 216691531 heartbeat IPC: 1.054 cumulative IPC: 0.8534 (Simulation time: 00 hr 40 min 29 sec)
Heartbeat CPU 0 instructions: 226501139 cycles: 217323485 heartbeat IPC: 0.7912 cumulative IPC: 0.8532 (Simulation time: 00 hr 40 min 35 sec)
Heartbeat CPU 0 instructions: 227001139 cycles: 217580630 heartbeat IPC: 1.944 cumulative IPC: 0.8545 (Simulation time: 00 hr 40 min 38 sec)
Heartbeat CPU 0 instructions: 227501139 cycles: 218548786 heartbeat IPC: 0.5164 cumulative IPC: 0.853 (Simulation time: 00 hr 40 min 47 sec)
Heartbeat CPU 0 instructions: 228001140 cycles: 219117891 heartbeat IPC: 0.8786 cumulative IPC: 0.853 (Simulation time: 00 hr 40 min 53 sec)
Heartbeat CPU 0 instructions: 228501147 cycles: 219885164 heartbeat IPC: 0.6517 cumulative IPC: 0.8523 (Simulation time: 00 hr 41 min 02 sec)
Heartbeat CPU 0 instructions: 229001147 cycles: 220481555 heartbeat IPC: 0.8384 cumulative IPC: 0.8523 (Simulation time: 00 hr 41 min 09 sec)
Heartbeat CPU 0 instructions: 229501152 cycles: 220964665 heartbeat IPC: 1.035 cumulative IPC: 0.8527 (Simulation time: 00 hr 41 min 14 sec)
Heartbeat CPU 0 instructions: 230001154 cycles: 221460714 heartbeat IPC: 1.008 cumulative IPC: 0.853 (Simulation time: 00 hr 41 min 19 sec)
Heartbeat CPU 0 instructions: 230501156 cycles: 222230507 heartbeat IPC: 0.6495 cumulative IPC: 0.8523 (Simulation time: 00 hr 41 min 28 sec)
Heartbeat CPU 0 instructions: 231001156 cycles: 222806587 heartbeat IPC: 0.8679 cumulative IPC: 0.8524 (Simulation time: 00 hr 41 min 35 sec)
Heartbeat CPU 0 instructions: 231501158 cycles: 223336207 heartbeat IPC: 0.9441 cumulative IPC: 0.8526 (Simulation time: 00 hr 41 min 40 sec)
Heartbeat CPU 0 instructions: 232001160 cycles: 223919068 heartbeat IPC: 0.8578 cumulative IPC: 0.8526 (Simulation time: 00 hr 41 min 46 sec)
Heartbeat CPU 0 instructions: 232501161 cycles: 224686353 heartbeat IPC: 0.6516 cumulative IPC: 0.8519 (Simulation time: 00 hr 41 min 55 sec)
Heartbeat CPU 0 instructions: 233001161 cycles: 225256149 heartbeat IPC: 0.8775 cumulative IPC: 0.8519 (Simulation time: 00 hr 42 min 01 sec)
Heartbeat CPU 0 instructions: 233501163 cycles: 225666439 heartbeat IPC: 1.219 cumulative IPC: 0.8526 (Simulation time: 00 hr 42 min 05 sec)
Heartbeat CPU 0 instructions: 234001164 cycles: 226343299 heartbeat IPC: 0.7387 cumulative IPC: 0.8523 (Simulation time: 00 hr 42 min 13 sec)
Heartbeat CPU 0 instructions: 234501170 cycles: 226991898 heartbeat IPC: 0.7709 cumulative IPC: 0.852 (Simulation time: 00 hr 42 min 21 sec)
Heartbeat CPU 0 instructions: 235001173 cycles: 227650629 heartbeat IPC: 0.759 cumulative IPC: 0.8518 (Simulation time: 00 hr 42 min 27 sec)
Heartbeat CPU 0 instructions: 235501180 cycles: 228017566 heartbeat IPC: 1.363 cumulative IPC: 0.8526 (Simulation time: 00 hr 42 min 31 sec)
Heartbeat CPU 0 instructions: 236001180 cycles: 228341649 heartbeat IPC: 1.543 cumulative IPC: 0.8536 (Simulation time: 00 hr 42 min 35 sec)
Heartbeat CPU 0 instructions: 236501180 cycles: 229050447 heartbeat IPC: 0.7054 cumulative IPC: 0.8532 (Simulation time: 00 hr 42 min 43 sec)
Heartbeat CPU 0 instructions: 237001181 cycles: 229682547 heartbeat IPC: 0.791 cumulative IPC: 0.853 (Simulation time: 00 hr 42 min 50 sec)
Heartbeat CPU 0 instructions: 237501183 cycles: 230596743 heartbeat IPC: 0.5469 cumulative IPC: 0.8517 (Simulation time: 00 hr 42 min 58 sec)
Heartbeat CPU 0 instructions: 238001183 cycles: 231004187 heartbeat IPC: 1.227 cumulative IPC: 0.8524 (Simulation time: 00 hr 43 min 03 sec)
Heartbeat CPU 0 instructions: 238501186 cycles: 231740545 heartbeat IPC: 0.679 cumulative IPC: 0.8518 (Simulation time: 00 hr 43 min 11 sec)
Heartbeat CPU 0 instructions: 239001188 cycles: 232350561 heartbeat IPC: 0.8197 cumulative IPC: 0.8517 (Simulation time: 00 hr 43 min 19 sec)
Heartbeat CPU 0 instructions: 239501193 cycles: 232932645 heartbeat IPC: 0.859 cumulative IPC: 0.8518 (Simulation time: 00 hr 43 min 24 sec)
Heartbeat CPU 0 instructions: 240001196 cycles: 233558177 heartbeat IPC: 0.7993 cumulative IPC: 0.8516 (Simulation time: 00 hr 43 min 31 sec)
Heartbeat CPU 0 instructions: 240501196 cycles: 234284974 heartbeat IPC: 0.688 cumulative IPC: 0.8511 (Simulation time: 00 hr 43 min 40 sec)
Heartbeat CPU 0 instructions: 241001196 cycles: 234746740 heartbeat IPC: 1.083 cumulative IPC: 0.8516 (Simulation time: 00 hr 43 min 45 sec)
Heartbeat CPU 0 instructions: 241501196 cycles: 235330794 heartbeat IPC: 0.8561 cumulative IPC: 0.8516 (Simulation time: 00 hr 43 min 51 sec)
Heartbeat CPU 0 instructions: 242001200 cycles: 236074300 heartbeat IPC: 0.6725 cumulative IPC: 0.851 (Simulation time: 00 hr 44 min 00 sec)
Heartbeat CPU 0 instructions: 242501202 cycles: 236551821 heartbeat IPC: 1.047 cumulative IPC: 0.8514 (Simulation time: 00 hr 44 min 05 sec)
Heartbeat CPU 0 instructions: 243001203 cycles: 237146643 heartbeat IPC: 0.8406 cumulative IPC: 0.8514 (Simulation time: 00 hr 44 min 11 sec)
Heartbeat CPU 0 instructions: 243501203 cycles: 237618382 heartbeat IPC: 1.06 cumulative IPC: 0.8518 (Simulation time: 00 hr 44 min 16 sec)
Heartbeat CPU 0 instructions: 244001206 cycles: 238383480 heartbeat IPC: 0.6535 cumulative IPC: 0.8511 (Simulation time: 00 hr 44 min 25 sec)
Heartbeat CPU 0 instructions: 244501210 cycles: 238934625 heartbeat IPC: 0.9072 cumulative IPC: 0.8513 (Simulation time: 00 hr 44 min 31 sec)
Heartbeat CPU 0 instructions: 245001216 cycles: 239657349 heartbeat IPC: 0.6918 cumulative IPC: 0.8508 (Simulation time: 00 hr 44 min 38 sec)
Heartbeat CPU 0 instructions: 245501217 cycles: 240113177 heartbeat IPC: 1.097 cumulative IPC: 0.8513 (Simulation time: 00 hr 44 min 43 sec)
Heartbeat CPU 0 instructions: 246001218 cycles: 240873103 heartbeat IPC: 0.658 cumulative IPC: 0.8506 (Simulation time: 00 hr 44 min 51 sec)
Heartbeat CPU 0 instructions: 246501225 cycles: 241453283 heartbeat IPC: 0.8618 cumulative IPC: 0.8506 (Simulation time: 00 hr 44 min 58 sec)
Heartbeat CPU 0 instructions: 247001225 cycles: 242458697 heartbeat IPC: 0.4973 cumulative IPC: 0.8491 (Simulation time: 00 hr 45 min 07 sec)
Heartbeat CPU 0 instructions: 247501225 cycles: 242954281 heartbeat IPC: 1.009 cumulative IPC: 0.8495 (Simulation time: 00 hr 45 min 12 sec)
Heartbeat CPU 0 instructions: 248001228 cycles: 243692243 heartbeat IPC: 0.6775 cumulative IPC: 0.8489 (Simulation time: 00 hr 45 min 20 sec)
Heartbeat CPU 0 instructions: 248501229 cycles: 244321593 heartbeat IPC: 0.7945 cumulative IPC: 0.8488 (Simulation time: 00 hr 45 min 28 sec)
Heartbeat CPU 0 instructions: 249001231 cycles: 244798350 heartbeat IPC: 1.049 cumulative IPC: 0.8492 (Simulation time: 00 hr 45 min 32 sec)
Heartbeat CPU 0 instructions: 249501235 cycles: 245380475 heartbeat IPC: 0.8589 cumulative IPC: 0.8492 (Simulation time: 00 hr 45 min 37 sec)
Simulation finished CPU 0 instructions: 200000005 cycles: 235452204 cumulative IPC: 0.8494 (Simulation time: 00 hr 45 min 43 sec)
Simulation complete CPU 0 instructions: 200000005 cycles: 235452204 cumulative IPC: 0.8494 (Simulation time: 00 hr 45 min 43 sec)

ChampSim completed all CPUs

=== Simulation ===
CPU 0 runs /local-ssd/ben/dpc4-traces/SPEC17/623.xalancbmk_s-10B.champsimtrace.xz

Region of Interest Statistics

CPU 0 cumulative IPC: 0.8494 instructions: 200000005 cycles: 235452204
CPU 0 Branch Prediction Accuracy: 97.93% MPKI: 5.346 Average ROB Occupancy at Mispredict: 48.02
Branch type MPKI
BRANCH_DIRECT_JUMP: 0.09625
BRANCH_INDIRECT: 0.01832
BRANCH_CONDITIONAL: 4.715
BRANCH_DIRECT_CALL: 4.5e-05
BRANCH_INDIRECT_CALL: 0.1238
BRANCH_RETURN: 0.3921

cpu0->cpu0_STLB TOTAL        ACCESS:    1332439 HIT:     373716 MISS:     958723 MSHR_MERGE:          0
cpu0->cpu0_STLB LOAD         ACCESS:    1332439 HIT:     373716 MISS:     958723 MSHR_MERGE:          0
cpu0->cpu0_STLB RFO          ACCESS:          0 HIT:          0 MISS:          0 MSHR_MERGE:          0
cpu0->cpu0_STLB PREFETCH     ACCESS:          0 HIT:          0 MISS:          0 MSHR_MERGE:          0
cpu0->cpu0_STLB WRITE        ACCESS:          0 HIT:          0 MISS:          0 MSHR_MERGE:          0
cpu0->cpu0_STLB TRANSLATION  ACCESS:          0 HIT:          0 MISS:          0 MSHR_MERGE:          0
cpu0->cpu0_STLB PREFETCH REQUESTED:          0 ISSUED:          0 USEFUL:          0 USELESS:          0
cpu0->cpu0_STLB AVERAGE MISS LATENCY: 29.11 cycles
cpu0->cpu0_L2C TOTAL        ACCESS:    5727678 HIT:    1110046 MISS:    4617632 MSHR_MERGE:          0
cpu0->cpu0_L2C LOAD         ACCESS:    5246083 HIT:     890264 MISS:    4355819 MSHR_MERGE:          0
cpu0->cpu0_L2C RFO          ACCESS:      83456 HIT:      36527 MISS:      46929 MSHR_MERGE:          0
cpu0->cpu0_L2C PREFETCH     ACCESS:          0 HIT:          0 MISS:          0 MSHR_MERGE:          0
cpu0->cpu0_L2C WRITE        ACCESS:     158035 HIT:     157650 MISS:        385 MSHR_MERGE:          0
cpu0->cpu0_L2C TRANSLATION  ACCESS:     240104 HIT:      25605 MISS:     214499 MSHR_MERGE:          0
cpu0->cpu0_L2C PREFETCH REQUESTED:          0 ISSUED:          0 USEFUL:          0 USELESS:          0
cpu0->cpu0_L2C AVERAGE MISS LATENCY: 74.95 cycles
cpu0->cpu0_L1I TOTAL        ACCESS:   24119919 HIT:   24116569 MISS:       3350 MSHR_MERGE:        706
cpu0->cpu0_L1I LOAD         ACCESS:   24119919 HIT:   24116569 MISS:       3350 MSHR_MERGE:        706
cpu0->cpu0_L1I RFO          ACCESS:          0 HIT:          0 MISS:          0 MSHR_MERGE:          0
cpu0->cpu0_L1I PREFETCH     ACCESS:          0 HIT:          0 MISS:          0 MSHR_MERGE:          0
cpu0->cpu0_L1I WRITE        ACCESS:          0 HIT:          0 MISS:          0 MSHR_MERGE:          0
cpu0->cpu0_L1I TRANSLATION  ACCESS:          0 HIT:          0 MISS:          0 MSHR_MERGE:          0
cpu0->cpu0_L1I PREFETCH REQUESTED:          0 ISSUED:          0 USEFUL:          0 USELESS:          0
cpu0->cpu0_L1I AVERAGE MISS LATENCY: 96.95 cycles
cpu0->cpu0_L1D TOTAL        ACCESS:   53790200 HIT:   43071616 MISS:   10718584 MSHR_MERGE:    5151576
cpu0->cpu0_L1D LOAD         ACCESS:   42107879 HIT:   32079249 MISS:   10028630 MSHR_MERGE:    4785183
cpu0->cpu0_L1D RFO          ACCESS:          0 HIT:          0 MISS:          0 MSHR_MERGE:          0
cpu0->cpu0_L1D PREFETCH     ACCESS:          0 HIT:          0 MISS:          0 MSHR_MERGE:          0
cpu0->cpu0_L1D WRITE        ACCESS:    9812366 HIT:    9385546 MISS:     426820 MSHR_MERGE:     343363
cpu0->cpu0_L1D TRANSLATION  ACCESS:    1869955 HIT:    1606821 MISS:     263134 MSHR_MERGE:      23030
cpu0->cpu0_L1D PREFETCH REQUESTED:          0 ISSUED:          0 USEFUL:          0 USELESS:          0
cpu0->cpu0_L1D AVERAGE MISS LATENCY: 71.1 cycles
cpu0->cpu0_ITLB TOTAL        ACCESS:   21769584 HIT:   21744498 MISS:      25086 MSHR_MERGE:      11608
cpu0->cpu0_ITLB LOAD         ACCESS:   21769584 HIT:   21744498 MISS:      25086 MSHR_MERGE:      11608
cpu0->cpu0_ITLB RFO          ACCESS:          0 HIT:          0 MISS:          0 MSHR_MERGE:          0
cpu0->cpu0_ITLB PREFETCH     ACCESS:          0 HIT:          0 MISS:          0 MSHR_MERGE:          0
cpu0->cpu0_ITLB WRITE        ACCESS:          0 HIT:          0 MISS:          0 MSHR_MERGE:          0
cpu0->cpu0_ITLB TRANSLATION  ACCESS:          0 HIT:          0 MISS:          0 MSHR_MERGE:          0
cpu0->cpu0_ITLB PREFETCH REQUESTED:          0 ISSUED:          0 USEFUL:          0 USELESS:          0
cpu0->cpu0_ITLB AVERAGE MISS LATENCY: 26.53 cycles
cpu0->cpu0_DTLB TOTAL        ACCESS:   50528056 HIT:   47667068 MISS:    2860988 MSHR_MERGE:    1542027
cpu0->cpu0_DTLB LOAD         ACCESS:   50528056 HIT:   47667068 MISS:    2860988 MSHR_MERGE:    1542027
cpu0->cpu0_DTLB RFO          ACCESS:          0 HIT:          0 MISS:          0 MSHR_MERGE:          0
cpu0->cpu0_DTLB PREFETCH     ACCESS:          0 HIT:          0 MISS:          0 MSHR_MERGE:          0
cpu0->cpu0_DTLB WRITE        ACCESS:          0 HIT:          0 MISS:          0 MSHR_MERGE:          0
cpu0->cpu0_DTLB TRANSLATION  ACCESS:          0 HIT:          0 MISS:          0 MSHR_MERGE:          0
cpu0->cpu0_DTLB PREFETCH REQUESTED:          0 ISSUED:          0 USEFUL:          0 USELESS:          0
cpu0->cpu0_DTLB AVERAGE MISS LATENCY: 26.66 cycles
cpu0->LLC TOTAL        ACCESS:    4683722 HIT:    3491856 MISS:    1191866 MSHR_MERGE:          0
cpu0->LLC LOAD         ACCESS:    4355819 HIT:    3256927 MISS:    1098892 MSHR_MERGE:          0
cpu0->LLC RFO          ACCESS:      46929 HIT:      18207 MISS:      28722 MSHR_MERGE:          0
cpu0->LLC PREFETCH     ACCESS:          0 HIT:          0 MISS:          0 MSHR_MERGE:          0
cpu0->LLC WRITE        ACCESS:      66475 HIT:      45808 MISS:      20667 MSHR_MERGE:          0
cpu0->LLC TRANSLATION  ACCESS:     214499 HIT:     170914 MISS:      43585 MSHR_MERGE:          0
cpu0->LLC PREFETCH REQUESTED:          0 ISSUED:          0 USEFUL:          0 USELESS:          0
cpu0->LLC AVERAGE MISS LATENCY: 204.5 cycles

DRAM Statistics

Channel 0 RQ ROW_BUFFER_HIT:      12566
  ROW_BUFFER_MISS:    1158632
  AVG DBUS CONGESTED CYCLE: 25.02
Channel 0 WQ ROW_BUFFER_HIT:      11261
  ROW_BUFFER_MISS:      21700
  FULL:          0
Channel 0 REFRESHES ISSUED:      19620
