[VMEM] WARNING: physical memory size is smaller than virtual memory size.

*** ChampSim Multicore Out-of-Order Simulator ***
Warmup Instructions: 50000000
Simulation Instructions: 200000000
Number of CPUs: 1
Page size: 4096
Core 0: /local-ssd/ben/dpc4-traces/ai-ml/whisper_trace_1.champsimtrace.gz
sBerti (Smart Stride + Berti) Prefetcher Initialized
Off-chip DRAM Size: 64 GiB Channels: 1 Width: 64-bit Data Rate: 800 MT/s
Heartbeat CPU 0 instructions: 500001 cycles: 141421 heartbeat IPC: 3.536 cumulative IPC: 3.536 (Simulation time: 00 hr 00 min 05 sec)
Heartbeat CPU 0 instructions: 1000002 cycles: 277340 heartbeat IPC: 3.679 cumulative IPC: 3.606 (Simulation time: 00 hr 00 min 09 sec)
Heartbeat CPU 0 instructions: 1500009 cycles: 412306 heartbeat IPC: 3.705 cumulative IPC: 3.638 (Simulation time: 00 hr 00 min 12 sec)
Heartbeat CPU 0 instructions: 2000014 cycles: 546971 heartbeat IPC: 3.713 cumulative IPC: 3.657 (Simulation time: 00 hr 00 min 15 sec)
Heartbeat CPU 0 instructions: 2500019 cycles: 680990 heartbeat IPC: 3.731 cumulative IPC: 3.671 (Simulation time: 00 hr 00 min 18 sec)
Heartbeat CPU 0 instructions: 3000022 cycles: 816103 heartbeat IPC: 3.701 cumulative IPC: 3.676 (Simulation time: 00 hr 00 min 21 sec)
Heartbeat CPU 0 instructions: 3500022 cycles: 950936 heartbeat IPC: 3.708 cumulative IPC: 3.681 (Simulation time: 00 hr 00 min 25 sec)
Heartbeat CPU 0 instructions: 4000028 cycles: 1084883 heartbeat IPC: 3.733 cumulative IPC: 3.687 (Simulation time: 00 hr 00 min 28 sec)
Heartbeat CPU 0 instructions: 4500029 cycles: 1219364 heartbeat IPC: 3.718 cumulative IPC: 3.69 (Simulation time: 00 hr 00 min 31 sec)
Heartbeat CPU 0 instructions: 5000032 cycles: 1355011 heartbeat IPC: 3.686 cumulative IPC: 3.69 (Simulation time: 00 hr 00 min 34 sec)
Heartbeat CPU 0 instructions: 5500038 cycles: 1488797 heartbeat IPC: 3.737 cumulative IPC: 3.694 (Simulation time: 00 hr 00 min 37 sec)
Heartbeat CPU 0 instructions: 6000038 cycles: 1623129 heartbeat IPC: 3.722 cumulative IPC: 3.697 (Simulation time: 00 hr 00 min 40 sec)
Heartbeat CPU 0 instructions: 6500039 cycles: 1757520 heartbeat IPC: 3.72 cumulative IPC: 3.698 (Simulation time: 00 hr 00 min 43 sec)
Heartbeat CPU 0 instructions: 7000046 cycles: 1891722 heartbeat IPC: 3.726 cumulative IPC: 3.7 (Simulation time: 00 hr 00 min 46 sec)
Heartbeat CPU 0 instructions: 7500053 cycles: 2026498 heartbeat IPC: 3.71 cumulative IPC: 3.701 (Simulation time: 00 hr 00 min 49 sec)
Heartbeat CPU 0 instructions: 8000056 cycles: 2160977 heartbeat IPC: 3.718 cumulative IPC: 3.702 (Simulation time: 00 hr 00 min 52 sec)
Heartbeat CPU 0 instructions: 8500058 cycles: 2297521 heartbeat IPC: 3.662 cumulative IPC: 3.7 (Simulation time: 00 hr 00 min 55 sec)
Heartbeat CPU 0 instructions: 9000062 cycles: 2431537 heartbeat IPC: 3.731 cumulative IPC: 3.701 (Simulation time: 00 hr 00 min 58 sec)
Heartbeat CPU 0 instructions: 9500063 cycles: 2565487 heartbeat IPC: 3.733 cumulative IPC: 3.703 (Simulation time: 00 hr 01 min 01 sec)
Heartbeat CPU 0 instructions: 10000063 cycles: 2699299 heartbeat IPC: 3.737 cumulative IPC: 3.705 (Simulation time: 00 hr 01 min 04 sec)
Heartbeat CPU 0 instructions: 10500064 cycles: 2834134 heartbeat IPC: 3.708 cumulative IPC: 3.705 (Simulation time: 00 hr 01 min 07 sec)
Heartbeat CPU 0 instructions: 11000070 cycles: 2968875 heartbeat IPC: 3.711 cumulative IPC: 3.705 (Simulation time: 00 hr 01 min 10 sec)
Heartbeat CPU 0 instructions: 11500075 cycles: 3102987 heartbeat IPC: 3.728 cumulative IPC: 3.706 (Simulation time: 00 hr 01 min 13 sec)
Heartbeat CPU 0 instructions: 12000078 cycles: 3239070 heartbeat IPC: 3.674 cumulative IPC: 3.705 (Simulation time: 00 hr 01 min 16 sec)
Heartbeat CPU 0 instructions: 12500083 cycles: 3373216 heartbeat IPC: 3.727 cumulative IPC: 3.706 (Simulation time: 00 hr 01 min 19 sec)
Heartbeat CPU 0 instructions: 13000088 cycles: 3507000 heartbeat IPC: 3.737 cumulative IPC: 3.707 (Simulation time: 00 hr 01 min 22 sec)
Heartbeat CPU 0 instructions: 13500094 cycles: 3641392 heartbeat IPC: 3.721 cumulative IPC: 3.707 (Simulation time: 00 hr 01 min 25 sec)
Heartbeat CPU 0 instructions: 14000094 cycles: 3775702 heartbeat IPC: 3.723 cumulative IPC: 3.708 (Simulation time: 00 hr 01 min 28 sec)
Heartbeat CPU 0 instructions: 14500099 cycles: 3910370 heartbeat IPC: 3.713 cumulative IPC: 3.708 (Simulation time: 00 hr 01 min 31 sec)
Heartbeat CPU 0 instructions: 15000103 cycles: 4044678 heartbeat IPC: 3.723 cumulative IPC: 3.709 (Simulation time: 00 hr 01 min 34 sec)
Heartbeat CPU 0 instructions: 15500109 cycles: 4179068 heartbeat IPC: 3.721 cumulative IPC: 3.709 (Simulation time: 00 hr 01 min 37 sec)
Heartbeat CPU 0 instructions: 16000112 cycles: 4314778 heartbeat IPC: 3.684 cumulative IPC: 3.708 (Simulation time: 00 hr 01 min 40 sec)
Heartbeat CPU 0 instructions: 16500112 cycles: 4449340 heartbeat IPC: 3.716 cumulative IPC: 3.708 (Simulation time: 00 hr 01 min 43 sec)
Heartbeat CPU 0 instructions: 17000115 cycles: 4583200 heartbeat IPC: 3.735 cumulative IPC: 3.709 (Simulation time: 00 hr 01 min 46 sec)
Heartbeat CPU 0 instructions: 17500115 cycles: 4717255 heartbeat IPC: 3.73 cumulative IPC: 3.71 (Simulation time: 00 hr 01 min 49 sec)
Heartbeat CPU 0 instructions: 18000119 cycles: 4851792 heartbeat IPC: 3.716 cumulative IPC: 3.71 (Simulation time: 00 hr 01 min 52 sec)
Heartbeat CPU 0 instructions: 18500125 cycles: 4985833 heartbeat IPC: 3.73 cumulative IPC: 3.711 (Simulation time: 00 hr 01 min 55 sec)
Heartbeat CPU 0 instructions: 19000129 cycles: 5120238 heartbeat IPC: 3.72 cumulative IPC: 3.711 (Simulation time: 00 hr 01 min 58 sec)
Heartbeat CPU 0 instructions: 19500131 cycles: 5256028 heartbeat IPC: 3.682 cumulative IPC: 3.71 (Simulation time: 00 hr 02 min 01 sec)
Heartbeat CPU 0 instructions: 20000137 cycles: 5389810 heartbeat IPC: 3.737 cumulative IPC: 3.711 (Simulation time: 00 hr 02 min 04 sec)
Heartbeat CPU 0 instructions: 20500144 cycles: 5523744 heartbeat IPC: 3.733 cumulative IPC: 3.711 (Simulation time: 00 hr 02 min 07 sec)
Heartbeat CPU 0 instructions: 21000149 cycles: 5657950 heartbeat IPC: 3.726 cumulative IPC: 3.712 (Simulation time: 00 hr 02 min 10 sec)
Heartbeat CPU 0 instructions: 21500155 cycles: 5792885 heartbeat IPC: 3.706 cumulative IPC: 3.711 (Simulation time: 00 hr 02 min 14 sec)
Heartbeat CPU 0 instructions: 22000155 cycles: 5928063 heartbeat IPC: 3.699 cumulative IPC: 3.711 (Simulation time: 00 hr 02 min 17 sec)
Heartbeat CPU 0 instructions: 22500155 cycles: 6061910 heartbeat IPC: 3.736 cumulative IPC: 3.712 (Simulation time: 00 hr 02 min 20 sec)
Heartbeat CPU 0 instructions: 23000156 cycles: 6197601 heartbeat IPC: 3.685 cumulative IPC: 3.711 (Simulation time: 00 hr 02 min 23 sec)
Heartbeat CPU 0 instructions: 23500159 cycles: 6335895 heartbeat IPC: 3.616 cumulative IPC: 3.709 (Simulation time: 00 hr 02 min 26 sec)
Heartbeat CPU 0 instructions: 24000161 cycles: 6469849 heartbeat IPC: 3.733 cumulative IPC: 3.71 (Simulation time: 00 hr 02 min 29 sec)
Heartbeat CPU 0 instructions: 24500165 cycles: 6604587 heartbeat IPC: 3.711 cumulative IPC: 3.71 (Simulation time: 00 hr 02 min 32 sec)
Heartbeat CPU 0 instructions: 25000171 cycles: 6738875 heartbeat IPC: 3.723 cumulative IPC: 3.71 (Simulation time: 00 hr 02 min 35 sec)
Heartbeat CPU 0 instructions: 25500174 cycles: 6872627 heartbeat IPC: 3.738 cumulative IPC: 3.71 (Simulation time: 00 hr 02 min 38 sec)
Heartbeat CPU 0 instructions: 26000177 cycles: 7007335 heartbeat IPC: 3.712 cumulative IPC: 3.71 (Simulation time: 00 hr 02 min 41 sec)
Heartbeat CPU 0 instructions: 26500181 cycles: 7142074 heartbeat IPC: 3.711 cumulative IPC: 3.71 (Simulation time: 00 hr 02 min 44 sec)
Heartbeat CPU 0 instructions: 27000181 cycles: 7277239 heartbeat IPC: 3.699 cumulative IPC: 3.71 (Simulation time: 00 hr 02 min 47 sec)
Heartbeat CPU 0 instructions: 27500184 cycles: 7411848 heartbeat IPC: 3.714 cumulative IPC: 3.71 (Simulation time: 00 hr 02 min 50 sec)
Heartbeat CPU 0 instructions: 28000187 cycles: 7545720 heartbeat IPC: 3.735 cumulative IPC: 3.711 (Simulation time: 00 hr 02 min 53 sec)
Heartbeat CPU 0 instructions: 28500193 cycles: 7679578 heartbeat IPC: 3.735 cumulative IPC: 3.711 (Simulation time: 00 hr 02 min 56 sec)
Heartbeat CPU 0 instructions: 29000199 cycles: 7814011 heartbeat IPC: 3.719 cumulative IPC: 3.711 (Simulation time: 00 hr 02 min 59 sec)
Heartbeat CPU 0 instructions: 29500200 cycles: 7947675 heartbeat IPC: 3.741 cumulative IPC: 3.712 (Simulation time: 00 hr 03 min 02 sec)
Heartbeat CPU 0 instructions: 30000201 cycles: 8081877 heartbeat IPC: 3.726 cumulative IPC: 3.712 (Simulation time: 00 hr 03 min 05 sec)
Heartbeat CPU 0 instructions: 30500208 cycles: 8217869 heartbeat IPC: 3.677 cumulative IPC: 3.711 (Simulation time: 00 hr 03 min 08 sec)
Heartbeat CPU 0 instructions: 31000214 cycles: 8353023 heartbeat IPC: 3.7 cumulative IPC: 3.711 (Simulation time: 00 hr 03 min 12 sec)
Heartbeat CPU 0 instructions: 31500215 cycles: 8476420 heartbeat IPC: 4.052 cumulative IPC: 3.716 (Simulation time: 00 hr 03 min 14 sec)
Heartbeat CPU 0 instructions: 32000218 cycles: 8599917 heartbeat IPC: 4.049 cumulative IPC: 3.721 (Simulation time: 00 hr 03 min 17 sec)
Heartbeat CPU 0 instructions: 32500218 cycles: 8723258 heartbeat IPC: 4.054 cumulative IPC: 3.726 (Simulation time: 00 hr 03 min 20 sec)
Heartbeat CPU 0 instructions: 33000221 cycles: 8847374 heartbeat IPC: 4.029 cumulative IPC: 3.73 (Simulation time: 00 hr 03 min 23 sec)
Heartbeat CPU 0 instructions: 33500224 cycles: 8970732 heartbeat IPC: 4.053 cumulative IPC: 3.734 (Simulation time: 00 hr 03 min 26 sec)
Heartbeat CPU 0 instructions: 34000231 cycles: 9093999 heartbeat IPC: 4.056 cumulative IPC: 3.739 (Simulation time: 00 hr 03 min 29 sec)
Heartbeat CPU 0 instructions: 34500234 cycles: 9217507 heartbeat IPC: 4.048 cumulative IPC: 3.743 (Simulation time: 00 hr 03 min 32 sec)
Heartbeat CPU 0 instructions: 35000237 cycles: 9340499 heartbeat IPC: 4.065 cumulative IPC: 3.747 (Simulation time: 00 hr 03 min 35 sec)
Heartbeat CPU 0 instructions: 35500237 cycles: 9464042 heartbeat IPC: 4.047 cumulative IPC: 3.751 (Simulation time: 00 hr 03 min 38 sec)
Heartbeat CPU 0 instructions: 36000243 cycles: 9589886 heartbeat IPC: 3.973 cumulative IPC: 3.754 (Simulation time: 00 hr 03 min 41 sec)
Heartbeat CPU 0 instructions: 36500246 cycles: 9715001 heartbeat IPC: 3.996 cumulative IPC: 3.757 (Simulation time: 00 hr 03 min 44 sec)
Heartbeat CPU 0 instructions: 37000252 cycles: 9838677 heartbeat IPC: 4.043 cumulative IPC: 3.761 (Simulation time: 00 hr 03 min 47 sec)
Heartbeat CPU 0 instructions: 37500255 cycles: 9962398 heartbeat IPC: 4.041 cumulative IPC: 3.764 (Simulation time: 00 hr 03 min 50 sec)
Heartbeat CPU 0 instructions: 38000258 cycles: 10086009 heartbeat IPC: 4.045 cumulative IPC: 3.768 (Simulation time: 00 hr 03 min 53 sec)
Heartbeat CPU 0 instructions: 38500261 cycles: 10209538 heartbeat IPC: 4.048 cumulative IPC: 3.771 (Simulation time: 00 hr 03 min 56 sec)
Heartbeat CPU 0 instructions: 39000264 cycles: 10333016 heartbeat IPC: 4.049 cumulative IPC: 3.774 (Simulation time: 00 hr 03 min 59 sec)
Heartbeat CPU 0 instructions: 39500265 cycles: 10456308 heartbeat IPC: 4.055 cumulative IPC: 3.778 (Simulation time: 00 hr 04 min 02 sec)
Heartbeat CPU 0 instructions: 40000271 cycles: 10579983 heartbeat IPC: 4.043 cumulative IPC: 3.781 (Simulation time: 00 hr 04 min 05 sec)
Heartbeat CPU 0 instructions: 40500271 cycles: 10703331 heartbeat IPC: 4.054 cumulative IPC: 3.784 (Simulation time: 00 hr 04 min 08 sec)
Heartbeat CPU 0 instructions: 41000271 cycles: 10826842 heartbeat IPC: 4.048 cumulative IPC: 3.787 (Simulation time: 00 hr 04 min 10 sec)
Heartbeat CPU 0 instructions: 41500275 cycles: 10949973 heartbeat IPC: 4.061 cumulative IPC: 3.79 (Simulation time: 00 hr 04 min 13 sec)
Heartbeat CPU 0 instructions: 42000275 cycles: 11076375 heartbeat IPC: 3.956 cumulative IPC: 3.792 (Simulation time: 00 hr 04 min 16 sec)
Heartbeat CPU 0 instructions: 42500276 cycles: 11199822 heartbeat IPC: 4.05 cumulative IPC: 3.795 (Simulation time: 00 hr 04 min 19 sec)
Heartbeat CPU 0 instructions: 43000282 cycles: 11323347 heartbeat IPC: 4.048 cumulative IPC: 3.797 (Simulation time: 00 hr 04 min 22 sec)
Heartbeat CPU 0 instructions: 43500285 cycles: 11446585 heartbeat IPC: 4.057 cumulative IPC: 3.8 (Simulation time: 00 hr 04 min 25 sec)
Heartbeat CPU 0 instructions: 44000288 cycles: 11569702 heartbeat IPC: 4.061 cumulative IPC: 3.803 (Simulation time: 00 hr 04 min 28 sec)
Heartbeat CPU 0 instructions: 44500291 cycles: 11693099 heartbeat IPC: 4.052 cumulative IPC: 3.806 (Simulation time: 00 hr 04 min 31 sec)
Heartbeat CPU 0 instructions: 45000297 cycles: 11816430 heartbeat IPC: 4.054 cumulative IPC: 3.808 (Simulation time: 00 hr 04 min 34 sec)
Heartbeat CPU 0 instructions: 45500303 cycles: 11940008 heartbeat IPC: 4.046 cumulative IPC: 3.811 (Simulation time: 00 hr 04 min 37 sec)
Heartbeat CPU 0 instructions: 46000304 cycles: 12063077 heartbeat IPC: 4.063 cumulative IPC: 3.813 (Simulation time: 00 hr 04 min 40 sec)
Heartbeat CPU 0 instructions: 46500309 cycles: 12186245 heartbeat IPC: 4.06 cumulative IPC: 3.816 (Simulation time: 00 hr 04 min 43 sec)
Heartbeat CPU 0 instructions: 47000309 cycles: 12309868 heartbeat IPC: 4.045 cumulative IPC: 3.818 (Simulation time: 00 hr 04 min 46 sec)
Heartbeat CPU 0 instructions: 47500311 cycles: 12433053 heartbeat IPC: 4.059 cumulative IPC: 3.82 (Simulation time: 00 hr 04 min 49 sec)
Heartbeat CPU 0 instructions: 48000313 cycles: 12556522 heartbeat IPC: 4.05 cumulative IPC: 3.823 (Simulation time: 00 hr 04 min 52 sec)
Heartbeat CPU 0 instructions: 48500314 cycles: 12682773 heartbeat IPC: 3.96 cumulative IPC: 3.824 (Simulation time: 00 hr 04 min 54 sec)
Heartbeat CPU 0 instructions: 49000317 cycles: 12806049 heartbeat IPC: 4.056 cumulative IPC: 3.826 (Simulation time: 00 hr 04 min 57 sec)
Heartbeat CPU 0 instructions: 49500320 cycles: 12929483 heartbeat IPC: 4.051 cumulative IPC: 3.828 (Simulation time: 00 hr 05 min 00 sec)
Warmup halting CPU 0 at instruction 50000000 cycle 13053068 for remainder of phase
Warmup finished CPU 0 instructions: 50000000 cycles: 13053068 cumulative IPC: 3.831 (Simulation time: 00 hr 05 min 03 sec)
Warmup complete CPU 0 instructions: 50000000 cycles: 13053068 cumulative IPC: 3.831 (Simulation time: 00 hr 05 min 03 sec)
Heartbeat CPU 0 instructions: 50000320 cycles: 13053108 heartbeat IPC: 4.044 cumulative IPC: 8 (Simulation time: 00 hr 05 min 03 sec)
Heartbeat CPU 0 instructions: 50500327 cycles: 13324868 heartbeat IPC: 1.84 cumulative IPC: 1.841 (Simulation time: 00 hr 05 min 07 sec)
Heartbeat CPU 0 instructions: 51000329 cycles: 13582401 heartbeat IPC: 1.942 cumulative IPC: 1.89 (Simulation time: 00 hr 05 min 11 sec)
Heartbeat CPU 0 instructions: 51500333 cycles: 13854428 heartbeat IPC: 1.838 cumulative IPC: 1.872 (Simulation time: 00 hr 05 min 15 sec)
Heartbeat CPU 0 instructions: 52000336 cycles: 14109581 heartbeat IPC: 1.96 cumulative IPC: 1.893 (Simulation time: 00 hr 05 min 19 sec)
Heartbeat CPU 0 instructions: 52500342 cycles: 14388664 heartbeat IPC: 1.792 cumulative IPC: 1.872 (Simulation time: 00 hr 05 min 23 sec)
Heartbeat CPU 0 instructions: 53000342 cycles: 14658140 heartbeat IPC: 1.855 cumulative IPC: 1.869 (Simulation time: 00 hr 05 min 27 sec)
Heartbeat CPU 0 instructions: 53500346 cycles: 14912980 heartbeat IPC: 1.962 cumulative IPC: 1.882 (Simulation time: 00 hr 05 min 31 sec)
Heartbeat CPU 0 instructions: 54000349 cycles: 15182885 heartbeat IPC: 1.853 cumulative IPC: 1.878 (Simulation time: 00 hr 05 min 35 sec)
Heartbeat CPU 0 instructions: 54500352 cycles: 15452461 heartbeat IPC: 1.855 cumulative IPC: 1.876 (Simulation time: 00 hr 05 min 39 sec)
Heartbeat CPU 0 instructions: 55000357 cycles: 15723581 heartbeat IPC: 1.844 cumulative IPC: 1.872 (Simulation time: 00 hr 05 min 43 sec)
Heartbeat CPU 0 instructions: 55500358 cycles: 15977991 heartbeat IPC: 1.965 cumulative IPC: 1.881 (Simulation time: 00 hr 05 min 46 sec)
Heartbeat CPU 0 instructions: 56000365 cycles: 16274257 heartbeat IPC: 1.688 cumulative IPC: 1.863 (Simulation time: 00 hr 05 min 51 sec)
Heartbeat CPU 0 instructions: 56500370 cycles: 16533374 heartbeat IPC: 1.93 cumulative IPC: 1.868 (Simulation time: 00 hr 05 min 55 sec)
Heartbeat CPU 0 instructions: 57000373 cycles: 16789668 heartbeat IPC: 1.951 cumulative IPC: 1.873 (Simulation time: 00 hr 05 min 58 sec)
Heartbeat CPU 0 instructions: 57500378 cycles: 17061747 heartbeat IPC: 1.838 cumulative IPC: 1.871 (Simulation time: 00 hr 06 min 02 sec)
Heartbeat CPU 0 instructions: 58000379 cycles: 17318068 heartbeat IPC: 1.951 cumulative IPC: 1.876 (Simulation time: 00 hr 06 min 06 sec)
Heartbeat CPU 0 instructions: 58500386 cycles: 17589544 heartbeat IPC: 1.842 cumulative IPC: 1.874 (Simulation time: 00 hr 06 min 10 sec)
Heartbeat CPU 0 instructions: 59000390 cycles: 17846286 heartbeat IPC: 1.947 cumulative IPC: 1.878 (Simulation time: 00 hr 06 min 14 sec)
Heartbeat CPU 0 instructions: 59500391 cycles: 18126684 heartbeat IPC: 1.783 cumulative IPC: 1.873 (Simulation time: 00 hr 06 min 18 sec)
Heartbeat CPU 0 instructions: 60000392 cycles: 18395486 heartbeat IPC: 1.86 cumulative IPC: 1.872 (Simulation time: 00 hr 06 min 22 sec)
Heartbeat CPU 0 instructions: 60500395 cycles: 18664521 heartbeat IPC: 1.859 cumulative IPC: 1.871 (Simulation time: 00 hr 06 min 26 sec)
Heartbeat CPU 0 instructions: 61000400 cycles: 18919446 heartbeat IPC: 1.961 cumulative IPC: 1.875 (Simulation time: 00 hr 06 min 30 sec)
Heartbeat CPU 0 instructions: 61500407 cycles: 19178122 heartbeat IPC: 1.933 cumulative IPC: 1.878 (Simulation time: 00 hr 06 min 34 sec)
Heartbeat CPU 0 instructions: 62000414 cycles: 19449405 heartbeat IPC: 1.843 cumulative IPC: 1.876 (Simulation time: 00 hr 06 min 38 sec)
Heartbeat CPU 0 instructions: 62500421 cycles: 19688433 heartbeat IPC: 2.092 cumulative IPC: 1.884 (Simulation time: 00 hr 06 min 41 sec)
Heartbeat CPU 0 instructions: 63000423 cycles: 19953898 heartbeat IPC: 1.883 cumulative IPC: 1.884 (Simulation time: 00 hr 06 min 45 sec)
Heartbeat CPU 0 instructions: 63500424 cycles: 20219071 heartbeat IPC: 1.886 cumulative IPC: 1.884 (Simulation time: 00 hr 06 min 49 sec)
Heartbeat CPU 0 instructions: 64000426 cycles: 20475154 heartbeat IPC: 1.952 cumulative IPC: 1.886 (Simulation time: 00 hr 06 min 53 sec)
Heartbeat CPU 0 instructions: 64500431 cycles: 20713672 heartbeat IPC: 2.096 cumulative IPC: 1.893 (Simulation time: 00 hr 06 min 56 sec)
Heartbeat CPU 0 instructions: 65000438 cycles: 20947962 heartbeat IPC: 2.134 cumulative IPC: 1.9 (Simulation time: 00 hr 07 min 00 sec)
Heartbeat CPU 0 instructions: 65500439 cycles: 21194000 heartbeat IPC: 2.032 cumulative IPC: 1.904 (Simulation time: 00 hr 07 min 04 sec)
Heartbeat CPU 0 instructions: 66000440 cycles: 21410471 heartbeat IPC: 2.31 cumulative IPC: 1.915 (Simulation time: 00 hr 07 min 07 sec)
Heartbeat CPU 0 instructions: 66500440 cycles: 21634659 heartbeat IPC: 2.23 cumulative IPC: 1.923 (Simulation time: 00 hr 07 min 11 sec)
Heartbeat CPU 0 instructions: 67000447 cycles: 21863621 heartbeat IPC: 2.184 cumulative IPC: 1.93 (Simulation time: 00 hr 07 min 14 sec)
Heartbeat CPU 0 instructions: 67500452 cycles: 22084309 heartbeat IPC: 2.266 cumulative IPC: 1.938 (Simulation time: 00 hr 07 min 18 sec)
Heartbeat CPU 0 instructions: 68000453 cycles: 22298307 heartbeat IPC: 2.336 cumulative IPC: 1.947 (Simulation time: 00 hr 07 min 21 sec)
Heartbeat CPU 0 instructions: 68500458 cycles: 22533285 heartbeat IPC: 2.128 cumulative IPC: 1.951 (Simulation time: 00 hr 07 min 25 sec)
Heartbeat CPU 0 instructions: 69000459 cycles: 22753920 heartbeat IPC: 2.266 cumulative IPC: 1.959 (Simulation time: 00 hr 07 min 28 sec)
Heartbeat CPU 0 instructions: 69500460 cycles: 22972778 heartbeat IPC: 2.285 cumulative IPC: 1.966 (Simulation time: 00 hr 07 min 32 sec)
Heartbeat CPU 0 instructions: 70000465 cycles: 23210298 heartbeat IPC: 2.105 cumulative IPC: 1.969 (Simulation time: 00 hr 07 min 35 sec)
Heartbeat CPU 0 instructions: 70500466 cycles: 23447966 heartbeat IPC: 2.104 cumulative IPC: 1.972 (Simulation time: 00 hr 07 min 39 sec)
Heartbeat CPU 0 instructions: 71000469 cycles: 23702938 heartbeat IPC: 1.961 cumulative IPC: 1.972 (Simulation time: 00 hr 07 min 43 sec)
Heartbeat CPU 0 instructions: 71500471 cycles: 23946355 heartbeat IPC: 2.054 cumulative IPC: 1.974 (Simulation time: 00 hr 07 min 46 sec)
Heartbeat CPU 0 instructions: 72000472 cycles: 24197875 heartbeat IPC: 1.988 cumulative IPC: 1.974 (Simulation time: 00 hr 07 min 50 sec)
Heartbeat CPU 0 instructions: 72500478 cycles: 24452415 heartbeat IPC: 1.964 cumulative IPC: 1.974 (Simulation time: 00 hr 07 min 54 sec)
Heartbeat CPU 0 instructions: 73000479 cycles: 24713013 heartbeat IPC: 1.919 cumulative IPC: 1.973 (Simulation time: 00 hr 07 min 58 sec)
Heartbeat CPU 0 instructions: 73500482 cycles: 24968377 heartbeat IPC: 1.958 cumulative IPC: 1.972 (Simulation time: 00 hr 08 min 02 sec)
Heartbeat CPU 0 instructions: 74000485 cycles: 25225539 heartbeat IPC: 1.944 cumulative IPC: 1.972 (Simulation time: 00 hr 08 min 05 sec)
Heartbeat CPU 0 instructions: 74500491 cycles: 25519666 heartbeat IPC: 1.7 cumulative IPC: 1.965 (Simulation time: 00 hr 08 min 10 sec)
Heartbeat CPU 0 instructions: 75000492 cycles: 25779787 heartbeat IPC: 1.922 cumulative IPC: 1.964 (Simulation time: 00 hr 08 min 14 sec)
Heartbeat CPU 0 instructions: 75500495 cycles: 26049281 heartbeat IPC: 1.855 cumulative IPC: 1.962 (Simulation time: 00 hr 08 min 18 sec)
Heartbeat CPU 0 instructions: 76000498 cycles: 26300664 heartbeat IPC: 1.989 cumulative IPC: 1.963 (Simulation time: 00 hr 08 min 21 sec)
Heartbeat CPU 0 instructions: 76500500 cycles: 26568768 heartbeat IPC: 1.865 cumulative IPC: 1.961 (Simulation time: 00 hr 08 min 25 sec)
Heartbeat CPU 0 instructions: 77000506 cycles: 26824152 heartbeat IPC: 1.958 cumulative IPC: 1.961 (Simulation time: 00 hr 08 min 29 sec)
Heartbeat CPU 0 instructions: 77500513 cycles: 27078222 heartbeat IPC: 1.968 cumulative IPC: 1.961 (Simulation time: 00 hr 08 min 33 sec)
Heartbeat CPU 0 instructions: 78000514 cycles: 27370576 heartbeat IPC: 1.71 cumulative IPC: 1.956 (Simulation time: 00 hr 08 min 37 sec)
Heartbeat CPU 0 instructions: 78500519 cycles: 27626800 heartbeat IPC: 1.951 cumulative IPC: 1.956 (Simulation time: 00 hr 08 min 41 sec)
Heartbeat CPU 0 instructions: 79000522 cycles: 27895406 heartbeat IPC: 1.861 cumulative IPC: 1.954 (Simulation time: 00 hr 08 min 45 sec)
Heartbeat CPU 0 instructions: 79500529 cycles: 28152498 heartbeat IPC: 1.945 cumulative IPC: 1.954 (Simulation time: 00 hr 08 min 49 sec)
Heartbeat CPU 0 instructions: 80000536 cycles: 28422380 heartbeat IPC: 1.853 cumulative IPC: 1.952 (Simulation time: 00 hr 08 min 53 sec)
Heartbeat CPU 0 instructions: 80500537 cycles: 28679039 heartbeat IPC: 1.948 cumulative IPC: 1.952 (Simulation time: 00 hr 08 min 56 sec)
Heartbeat CPU 0 instructions: 81000540 cycles: 28947098 heartbeat IPC: 1.865 cumulative IPC: 1.95 (Simulation time: 00 hr 09 min 00 sec)
Heartbeat CPU 0 instructions: 81500540 cycles: 29216152 heartbeat IPC: 1.858 cumulative IPC: 1.949 (Simulation time: 00 hr 09 min 04 sec)
Heartbeat CPU 0 instructions: 82000546 cycles: 29482026 heartbeat IPC: 1.881 cumulative IPC: 1.948 (Simulation time: 00 hr 09 min 08 sec)
Heartbeat CPU 0 instructions: 82500546 cycles: 29751246 heartbeat IPC: 1.857 cumulative IPC: 1.946 (Simulation time: 00 hr 09 min 12 sec)
Heartbeat CPU 0 instructions: 83000553 cycles: 30007346 heartbeat IPC: 1.952 cumulative IPC: 1.946 (Simulation time: 00 hr 09 min 16 sec)
Heartbeat CPU 0 instructions: 83500556 cycles: 30276535 heartbeat IPC: 1.857 cumulative IPC: 1.945 (Simulation time: 00 hr 09 min 20 sec)
Heartbeat CPU 0 instructions: 84000559 cycles: 30530514 heartbeat IPC: 1.969 cumulative IPC: 1.945 (Simulation time: 00 hr 09 min 24 sec)
Heartbeat CPU 0 instructions: 84500562 cycles: 30800860 heartbeat IPC: 1.849 cumulative IPC: 1.944 (Simulation time: 00 hr 09 min 28 sec)
Heartbeat CPU 0 instructions: 85000562 cycles: 31054592 heartbeat IPC: 1.971 cumulative IPC: 1.944 (Simulation time: 00 hr 09 min 32 sec)
Heartbeat CPU 0 instructions: 85500568 cycles: 31338330 heartbeat IPC: 1.762 cumulative IPC: 1.941 (Simulation time: 00 hr 09 min 36 sec)
Heartbeat CPU 0 instructions: 86000573 cycles: 31621889 heartbeat IPC: 1.763 cumulative IPC: 1.939 (Simulation time: 00 hr 09 min 40 sec)
Heartbeat CPU 0 instructions: 86500574 cycles: 31876231 heartbeat IPC: 1.966 cumulative IPC: 1.939 (Simulation time: 00 hr 09 min 44 sec)
Heartbeat CPU 0 instructions: 87000575 cycles: 32145474 heartbeat IPC: 1.857 cumulative IPC: 1.938 (Simulation time: 00 hr 09 min 48 sec)
Heartbeat CPU 0 instructions: 87500580 cycles: 32401682 heartbeat IPC: 1.952 cumulative IPC: 1.938 (Simulation time: 00 hr 09 min 51 sec)
Heartbeat CPU 0 instructions: 88000585 cycles: 32670147 heartbeat IPC: 1.862 cumulative IPC: 1.937 (Simulation time: 00 hr 09 min 55 sec)
Heartbeat CPU 0 instructions: 88500589 cycles: 32925007 heartbeat IPC: 1.962 cumulative IPC: 1.937 (Simulation time: 00 hr 09 min 59 sec)
Heartbeat CPU 0 instructions: 89000590 cycles: 33204674 heartbeat IPC: 1.788 cumulative IPC: 1.935 (Simulation time: 00 hr 10 min 03 sec)
Heartbeat CPU 0 instructions: 89500595 cycles: 33474897 heartbeat IPC: 1.85 cumulative IPC: 1.934 (Simulation time: 00 hr 10 min 07 sec)
Heartbeat CPU 0 instructions: 90000602 cycles: 33731488 heartbeat IPC: 1.949 cumulative IPC: 1.934 (Simulation time: 00 hr 10 min 11 sec)
Heartbeat CPU 0 instructions: 90500605 cycles: 34001602 heartbeat IPC: 1.851 cumulative IPC: 1.933 (Simulation time: 00 hr 10 min 15 sec)
Heartbeat CPU 0 instructions: 91000606 cycles: 34255195 heartbeat IPC: 1.972 cumulative IPC: 1.934 (Simulation time: 00 hr 10 min 19 sec)
Heartbeat CPU 0 instructions: 91500609 cycles: 34524502 heartbeat IPC: 1.857 cumulative IPC: 1.933 (Simulation time: 00 hr 10 min 23 sec)
Heartbeat CPU 0 instructions: 92000612 cycles: 34779296 heartbeat IPC: 1.962 cumulative IPC: 1.933 (Simulation time: 00 hr 10 min 27 sec)
Heartbeat CPU 0 instructions: 92500614 cycles: 35062954 heartbeat IPC: 1.763 cumulative IPC: 1.931 (Simulation time: 00 hr 10 min 31 sec)
Heartbeat CPU 0 instructions: 93000620 cycles: 35332920 heartbeat IPC: 1.852 cumulative IPC: 1.93 (Simulation time: 00 hr 10 min 35 sec)
Heartbeat CPU 0 instructions: 93500623 cycles: 35570672 heartbeat IPC: 2.103 cumulative IPC: 1.932 (Simulation time: 00 hr 10 min 38 sec)
Heartbeat CPU 0 instructions: 94000629 cycles: 35835383 heartbeat IPC: 1.889 cumulative IPC: 1.931 (Simulation time: 00 hr 10 min 42 sec)
Heartbeat CPU 0 instructions: 94500635 cycles: 36078360 heartbeat IPC: 2.058 cumulative IPC: 1.933 (Simulation time: 00 hr 10 min 46 sec)
Heartbeat CPU 0 instructions: 95000638 cycles: 36334879 heartbeat IPC: 1.949 cumulative IPC: 1.933 (Simulation time: 00 hr 10 min 50 sec)
Heartbeat CPU 0 instructions: 95500641 cycles: 36573805 heartbeat IPC: 2.093 cumulative IPC: 1.934 (Simulation time: 00 hr 10 min 53 sec)
Heartbeat CPU 0 instructions: 96000646 cycles: 36827080 heartbeat IPC: 1.974 cumulative IPC: 1.935 (Simulation time: 00 hr 10 min 57 sec)
Heartbeat CPU 0 instructions: 96500651 cycles: 37079474 heartbeat IPC: 1.981 cumulative IPC: 1.935 (Simulation time: 00 hr 11 min 01 sec)
Heartbeat CPU 0 instructions: 97000657 cycles: 37301033 heartbeat IPC: 2.257 cumulative IPC: 1.938 (Simulation time: 00 hr 11 min 04 sec)
Heartbeat CPU 0 instructions: 97500659 cycles: 37527441 heartbeat IPC: 2.208 cumulative IPC: 1.941 (Simulation time: 00 hr 11 min 08 sec)
Heartbeat CPU 0 instructions: 98000663 cycles: 37734884 heartbeat IPC: 2.41 cumulative IPC: 1.945 (Simulation time: 00 hr 11 min 11 sec)
Heartbeat CPU 0 instructions: 98500669 cycles: 37959166 heartbeat IPC: 2.229 cumulative IPC: 1.947 (Simulation time: 00 hr 11 min 15 sec)
Heartbeat CPU 0 instructions: 99000672 cycles: 38167679 heartbeat IPC: 2.398 cumulative IPC: 1.951 (Simulation time: 00 hr 11 min 18 sec)
Heartbeat CPU 0 instructions: 99500675 cycles: 38398157 heartbeat IPC: 2.169 cumulative IPC: 1.953 (Simulation time: 00 hr 11 min 22 sec)
Heartbeat CPU 0 instructions: 100000675 cycles: 38638396 heartbeat IPC: 2.081 cumulative IPC: 1.954 (Simulation time: 00 hr 11 min 25 sec)
Heartbeat CPU 0 instructions: 100500675 cycles: 38867309 heartbeat IPC: 2.184 cumulative IPC: 1.956 (Simulation time: 00 hr 11 min 29 sec)
Heartbeat CPU 0 instructions: 101000677 cycles: 39094703 heartbeat IPC: 2.199 cumulative IPC: 1.958 (Simulation time: 00 hr 11 min 32 sec)
Heartbeat CPU 0 instructions: 101500684 cycles: 39321829 heartbeat IPC: 2.201 cumulative IPC: 1.961 (Simulation time: 00 hr 11 min 36 sec)
Heartbeat CPU 0 instructions: 102000691 cycles: 39564894 heartbeat IPC: 2.057 cumulative IPC: 1.961 (Simulation time: 00 hr 11 min 39 sec)
Heartbeat CPU 0 instructions: 102500691 cycles: 39803254 heartbeat IPC: 2.098 cumulative IPC: 1.963 (Simulation time: 00 hr 11 min 43 sec)
Heartbeat CPU 0 instructions: 103000697 cycles: 40058826 heartbeat IPC: 1.956 cumulative IPC: 1.963 (Simulation time: 00 hr 11 min 47 sec)
Heartbeat CPU 0 instructions: 103500703 cycles: 40315655 heartbeat IPC: 1.947 cumulative IPC: 1.962 (Simulation time: 00 hr 11 min 51 sec)
Heartbeat CPU 0 instructions: 104000704 cycles: 40591215 heartbeat IPC: 1.814 cumulative IPC: 1.961 (Simulation time: 00 hr 11 min 55 sec)
Heartbeat CPU 0 instructions: 104500704 cycles: 40845379 heartbeat IPC: 1.967 cumulative IPC: 1.961 (Simulation time: 00 hr 11 min 59 sec)
Heartbeat CPU 0 instructions: 105000704 cycles: 41110143 heartbeat IPC: 1.888 cumulative IPC: 1.96 (Simulation time: 00 hr 12 min 03 sec)
Heartbeat CPU 0 instructions: 105500705 cycles: 41364351 heartbeat IPC: 1.967 cumulative IPC: 1.96 (Simulation time: 00 hr 12 min 06 sec)
Heartbeat CPU 0 instructions: 106000710 cycles: 41625107 heartbeat IPC: 1.918 cumulative IPC: 1.96 (Simulation time: 00 hr 12 min 10 sec)
Heartbeat CPU 0 instructions: 106500714 cycles: 41893526 heartbeat IPC: 1.863 cumulative IPC: 1.959 (Simulation time: 00 hr 12 min 14 sec)
Heartbeat CPU 0 instructions: 107000717 cycles: 42146004 heartbeat IPC: 1.98 cumulative IPC: 1.959 (Simulation time: 00 hr 12 min 18 sec)
Heartbeat CPU 0 instructions: 107500722 cycles: 42434128 heartbeat IPC: 1.735 cumulative IPC: 1.957 (Simulation time: 00 hr 12 min 22 sec)
Heartbeat CPU 0 instructions: 108000726 cycles: 42686433 heartbeat IPC: 1.982 cumulative IPC: 1.957 (Simulation time: 00 hr 12 min 26 sec)
Heartbeat CPU 0 instructions: 108500729 cycles: 42953908 heartbeat IPC: 1.869 cumulative IPC: 1.956 (Simulation time: 00 hr 12 min 30 sec)
Heartbeat CPU 0 instructions: 109000732 cycles: 43210310 heartbeat IPC: 1.95 cumulative IPC: 1.956 (Simulation time: 00 hr 12 min 34 sec)
Heartbeat CPU 0 instructions: 109500735 cycles: 43465877 heartbeat IPC: 1.956 cumulative IPC: 1.956 (Simulation time: 00 hr 12 min 37 sec)
Heartbeat CPU 0 instructions: 110000738 cycles: 43732198 heartbeat IPC: 1.877 cumulative IPC: 1.956 (Simulation time: 00 hr 12 min 41 sec)
Heartbeat CPU 0 instructions: 110500741 cycles: 43988598 heartbeat IPC: 1.95 cumulative IPC: 1.956 (Simulation time: 00 hr 12 min 45 sec)
Heartbeat CPU 0 instructions: 111000745 cycles: 44281086 heartbeat IPC: 1.709 cumulative IPC: 1.953 (Simulation time: 00 hr 12 min 49 sec)
Heartbeat CPU 0 instructions: 111500750 cycles: 44537014 heartbeat IPC: 1.954 cumulative IPC: 1.953 (Simulation time: 00 hr 12 min 53 sec)
Heartbeat CPU 0 instructions: 112000750 cycles: 44803928 heartbeat IPC: 1.873 cumulative IPC: 1.953 (Simulation time: 00 hr 12 min 57 sec)
Heartbeat CPU 0 instructions: 112500757 cycles: 45059983 heartbeat IPC: 1.953 cumulative IPC: 1.953 (Simulation time: 00 hr 13 min 01 sec)
Heartbeat CPU 0 instructions: 113000757 cycles: 45328403 heartbeat IPC: 1.863 cumulative IPC: 1.952 (Simulation time: 00 hr 13 min 05 sec)
Heartbeat CPU 0 instructions: 113500757 cycles: 45582919 heartbeat IPC: 1.965 cumulative IPC: 1.952 (Simulation time: 00 hr 13 min 09 sec)
Heartbeat CPU 0 instructions: 114000763 cycles: 45839215 heartbeat IPC: 1.951 cumulative IPC: 1.952 (Simulation time: 00 hr 13 min 13 sec)
Heartbeat CPU 0 instructions: 114500764 cycles: 46119818 heartbeat IPC: 1.782 cumulative IPC: 1.951 (Simulation time: 00 hr 13 min 17 sec)
Heartbeat CPU 0 instructions: 115000767 cycles: 46383384 heartbeat IPC: 1.897 cumulative IPC: 1.95 (Simulation time: 00 hr 13 min 21 sec)
Heartbeat CPU 0 instructions: 115500770 cycles: 46650621 heartbeat IPC: 1.871 cumulative IPC: 1.95 (Simulation time: 00 hr 13 min 25 sec)
Heartbeat CPU 0 instructions: 116000775 cycles: 46905622 heartbeat IPC: 1.961 cumulative IPC: 1.95 (Simulation time: 00 hr 13 min 28 sec)
Heartbeat CPU 0 instructions: 116500782 cycles: 47174378 heartbeat IPC: 1.86 cumulative IPC: 1.949 (Simulation time: 00 hr 13 min 32 sec)
Heartbeat CPU 0 instructions: 117000785 cycles: 47445167 heartbeat IPC: 1.846 cumulative IPC: 1.948 (Simulation time: 00 hr 13 min 36 sec)
Heartbeat CPU 0 instructions: 117500792 cycles: 47712940 heartbeat IPC: 1.867 cumulative IPC: 1.948 (Simulation time: 00 hr 13 min 40 sec)
Heartbeat CPU 0 instructions: 118000799 cycles: 47967874 heartbeat IPC: 1.961 cumulative IPC: 1.948 (Simulation time: 00 hr 13 min 44 sec)
Heartbeat CPU 0 instructions: 118500805 cycles: 48249674 heartbeat IPC: 1.774 cumulative IPC: 1.946 (Simulation time: 00 hr 13 min 48 sec)
Heartbeat CPU 0 instructions: 119000806 cycles: 48518338 heartbeat IPC: 1.861 cumulative IPC: 1.946 (Simulation time: 00 hr 13 min 52 sec)
Heartbeat CPU 0 instructions: 119500809 cycles: 48773232 heartbeat IPC: 1.962 cumulative IPC: 1.946 (Simulation time: 00 hr 13 min 56 sec)
Heartbeat CPU 0 instructions: 120000815 cycles: 49040668 heartbeat IPC: 1.87 cumulative IPC: 1.945 (Simulation time: 00 hr 14 min 00 sec)
Heartbeat CPU 0 instructions: 120500818 cycles: 49294559 heartbeat IPC: 1.969 cumulative IPC: 1.945 (Simulation time: 00 hr 14 min 04 sec)
Heartbeat CPU 0 instructions: 121000820 cycles: 49561805 heartbeat IPC: 1.871 cumulative IPC: 1.945 (Simulation time: 00 hr 14 min 08 sec)
Heartbeat CPU 0 instructions: 121500827 cycles: 49815795 heartbeat IPC: 1.969 cumulative IPC: 1.945 (Simulation time: 00 hr 14 min 12 sec)
Heartbeat CPU 0 instructions: 122000828 cycles: 50095807 heartbeat IPC: 1.786 cumulative IPC: 1.944 (Simulation time: 00 hr 14 min 16 sec)
Heartbeat CPU 0 instructions: 122500833 cycles: 50364232 heartbeat IPC: 1.863 cumulative IPC: 1.943 (Simulation time: 00 hr 14 min 20 sec)
Heartbeat CPU 0 instructions: 123000836 cycles: 50617083 heartbeat IPC: 1.977 cumulative IPC: 1.943 (Simulation time: 00 hr 14 min 23 sec)
Heartbeat CPU 0 instructions: 123500839 cycles: 50888607 heartbeat IPC: 1.841 cumulative IPC: 1.943 (Simulation time: 00 hr 14 min 27 sec)
Heartbeat CPU 0 instructions: 124000842 cycles: 51145345 heartbeat IPC: 1.948 cumulative IPC: 1.943 (Simulation time: 00 hr 14 min 31 sec)
Heartbeat CPU 0 instructions: 124500845 cycles: 51415902 heartbeat IPC: 1.848 cumulative IPC: 1.942 (Simulation time: 00 hr 14 min 35 sec)
Heartbeat CPU 0 instructions: 125000846 cycles: 51655024 heartbeat IPC: 2.091 cumulative IPC: 1.943 (Simulation time: 00 hr 14 min 39 sec)
Heartbeat CPU 0 instructions: 125500852 cycles: 51919165 heartbeat IPC: 1.893 cumulative IPC: 1.943 (Simulation time: 00 hr 14 min 43 sec)
Heartbeat CPU 0 instructions: 126000858 cycles: 52176815 heartbeat IPC: 1.941 cumulative IPC: 1.943 (Simulation time: 00 hr 14 min 47 sec)
Heartbeat CPU 0 instructions: 126500858 cycles: 52413247 heartbeat IPC: 2.115 cumulative IPC: 1.944 (Simulation time: 00 hr 14 min 50 sec)
Heartbeat CPU 0 instructions: 127000861 cycles: 52665097 heartbeat IPC: 1.985 cumulative IPC: 1.944 (Simulation time: 00 hr 14 min 54 sec)
Heartbeat CPU 0 instructions: 127500861 cycles: 52894924 heartbeat IPC: 2.176 cumulative IPC: 1.945 (Simulation time: 00 hr 14 min 58 sec)
Heartbeat CPU 0 instructions: 128000868 cycles: 53135730 heartbeat IPC: 2.076 cumulative IPC: 1.946 (Simulation time: 00 hr 15 min 01 sec)
Heartbeat CPU 0 instructions: 128500871 cycles: 53349750 heartbeat IPC: 2.336 cumulative IPC: 1.948 (Simulation time: 00 hr 15 min 05 sec)
Heartbeat CPU 0 instructions: 129000876 cycles: 53569813 heartbeat IPC: 2.272 cumulative IPC: 1.95 (Simulation time: 00 hr 15 min 08 sec)
Heartbeat CPU 0 instructions: 129500879 cycles: 53801042 heartbeat IPC: 2.162 cumulative IPC: 1.951 (Simulation time: 00 hr 15 min 12 sec)
Heartbeat CPU 0 instructions: 130000880 cycles: 54009695 heartbeat IPC: 2.396 cumulative IPC: 1.953 (Simulation time: 00 hr 15 min 15 sec)
Heartbeat CPU 0 instructions: 130500886 cycles: 54239247 heartbeat IPC: 2.178 cumulative IPC: 1.955 (Simulation time: 00 hr 15 min 18 sec)
Heartbeat CPU 0 instructions: 131000889 cycles: 54459773 heartbeat IPC: 2.267 cumulative IPC: 1.956 (Simulation time: 00 hr 15 min 22 sec)
Heartbeat CPU 0 instructions: 131500892 cycles: 54687782 heartbeat IPC: 2.193 cumulative IPC: 1.958 (Simulation time: 00 hr 15 min 25 sec)
Heartbeat CPU 0 instructions: 132000893 cycles: 54912952 heartbeat IPC: 2.221 cumulative IPC: 1.959 (Simulation time: 00 hr 15 min 29 sec)
Heartbeat CPU 0 instructions: 132500896 cycles: 55152421 heartbeat IPC: 2.088 cumulative IPC: 1.96 (Simulation time: 00 hr 15 min 33 sec)
Heartbeat CPU 0 instructions: 133000902 cycles: 55400538 heartbeat IPC: 2.015 cumulative IPC: 1.96 (Simulation time: 00 hr 15 min 36 sec)
Heartbeat CPU 0 instructions: 133500908 cycles: 55641969 heartbeat IPC: 2.071 cumulative IPC: 1.961 (Simulation time: 00 hr 15 min 40 sec)
Heartbeat CPU 0 instructions: 134000911 cycles: 55895511 heartbeat IPC: 1.972 cumulative IPC: 1.961 (Simulation time: 00 hr 15 min 44 sec)
Heartbeat CPU 0 instructions: 134500914 cycles: 56135604 heartbeat IPC: 2.083 cumulative IPC: 1.961 (Simulation time: 00 hr 15 min 48 sec)
Heartbeat CPU 0 instructions: 135000919 cycles: 56395351 heartbeat IPC: 1.925 cumulative IPC: 1.961 (Simulation time: 00 hr 15 min 51 sec)
Heartbeat CPU 0 instructions: 135500926 cycles: 56646959 heartbeat IPC: 1.987 cumulative IPC: 1.961 (Simulation time: 00 hr 15 min 55 sec)
Heartbeat CPU 0 instructions: 136000929 cycles: 56913093 heartbeat IPC: 1.879 cumulative IPC: 1.961 (Simulation time: 00 hr 15 min 59 sec)
Heartbeat CPU 0 instructions: 136500929 cycles: 57184992 heartbeat IPC: 1.839 cumulative IPC: 1.96 (Simulation time: 00 hr 16 min 03 sec)
Heartbeat CPU 0 instructions: 137000935 cycles: 57461774 heartbeat IPC: 1.806 cumulative IPC: 1.959 (Simulation time: 00 hr 16 min 07 sec)
Heartbeat CPU 0 instructions: 137500935 cycles: 57720472 heartbeat IPC: 1.933 cumulative IPC: 1.959 (Simulation time: 00 hr 16 min 11 sec)
Heartbeat CPU 0 instructions: 138000935 cycles: 57973022 heartbeat IPC: 1.98 cumulative IPC: 1.959 (Simulation time: 00 hr 16 min 15 sec)
Heartbeat CPU 0 instructions: 138500939 cycles: 58236055 heartbeat IPC: 1.901 cumulative IPC: 1.959 (Simulation time: 00 hr 16 min 19 sec)
Heartbeat CPU 0 instructions: 139000939 cycles: 58489832 heartbeat IPC: 1.97 cumulative IPC: 1.959 (Simulation time: 00 hr 16 min 23 sec)
Heartbeat CPU 0 instructions: 139500945 cycles: 58759222 heartbeat IPC: 1.856 cumulative IPC: 1.958 (Simulation time: 00 hr 16 min 26 sec)
Heartbeat CPU 0 instructions: 140000948 cycles: 59014371 heartbeat IPC: 1.96 cumulative IPC: 1.958 (Simulation time: 00 hr 16 min 30 sec)
Heartbeat CPU 0 instructions: 140500952 cycles: 59305551 heartbeat IPC: 1.717 cumulative IPC: 1.957 (Simulation time: 00 hr 16 min 34 sec)
Heartbeat CPU 0 instructions: 141000952 cycles: 59559734 heartbeat IPC: 1.967 cumulative IPC: 1.957 (Simulation time: 00 hr 16 min 38 sec)
Heartbeat CPU 0 instructions: 141500953 cycles: 59827745 heartbeat IPC: 1.866 cumulative IPC: 1.956 (Simulation time: 00 hr 16 min 42 sec)
Heartbeat CPU 0 instructions: 142000956 cycles: 60081330 heartbeat IPC: 1.972 cumulative IPC: 1.956 (Simulation time: 00 hr 16 min 46 sec)
Heartbeat CPU 0 instructions: 142500959 cycles: 60336593 heartbeat IPC: 1.959 cumulative IPC: 1.956 (Simulation time: 00 hr 16 min 50 sec)
Heartbeat CPU 0 instructions: 143000965 cycles: 60603832 heartbeat IPC: 1.871 cumulative IPC: 1.956 (Simulation time: 00 hr 16 min 54 sec)
Heartbeat CPU 0 instructions: 143500971 cycles: 60860269 heartbeat IPC: 1.95 cumulative IPC: 1.956 (Simulation time: 00 hr 16 min 58 sec)
Heartbeat CPU 0 instructions: 144000971 cycles: 61154807 heartbeat IPC: 1.698 cumulative IPC: 1.954 (Simulation time: 00 hr 17 min 02 sec)
Heartbeat CPU 0 instructions: 144500976 cycles: 61408846 heartbeat IPC: 1.968 cumulative IPC: 1.954 (Simulation time: 00 hr 17 min 06 sec)
Heartbeat CPU 0 instructions: 145000977 cycles: 61676673 heartbeat IPC: 1.867 cumulative IPC: 1.954 (Simulation time: 00 hr 17 min 10 sec)
Heartbeat CPU 0 instructions: 145500980 cycles: 61930042 heartbeat IPC: 1.973 cumulative IPC: 1.954 (Simulation time: 00 hr 17 min 13 sec)
Heartbeat CPU 0 instructions: 146000981 cycles: 62182550 heartbeat IPC: 1.98 cumulative IPC: 1.954 (Simulation time: 00 hr 17 min 17 sec)
Heartbeat CPU 0 instructions: 146500984 cycles: 62451364 heartbeat IPC: 1.86 cumulative IPC: 1.954 (Simulation time: 00 hr 17 min 21 sec)
Heartbeat CPU 0 instructions: 147000987 cycles: 62705959 heartbeat IPC: 1.964 cumulative IPC: 1.954 (Simulation time: 00 hr 17 min 25 sec)
Heartbeat CPU 0 instructions: 147500988 cycles: 62993279 heartbeat IPC: 1.74 cumulative IPC: 1.952 (Simulation time: 00 hr 17 min 29 sec)
Heartbeat CPU 0 instructions: 148000993 cycles: 63269464 heartbeat IPC: 1.81 cumulative IPC: 1.952 (Simulation time: 00 hr 17 min 33 sec)
Heartbeat CPU 0 instructions: 148500997 cycles: 63536016 heartbeat IPC: 1.876 cumulative IPC: 1.951 (Simulation time: 00 hr 17 min 37 sec)
Heartbeat CPU 0 instructions: 149000997 cycles: 63791192 heartbeat IPC: 1.959 cumulative IPC: 1.951 (Simulation time: 00 hr 17 min 41 sec)
Heartbeat CPU 0 instructions: 149500998 cycles: 64060198 heartbeat IPC: 1.859 cumulative IPC: 1.951 (Simulation time: 00 hr 17 min 45 sec)
Heartbeat CPU 0 instructions: 150001001 cycles: 64315342 heartbeat IPC: 1.96 cumulative IPC: 1.951 (Simulation time: 00 hr 17 min 49 sec)
Heartbeat CPU 0 instructions: 150501002 cycles: 64569459 heartbeat IPC: 1.968 cumulative IPC: 1.951 (Simulation time: 00 hr 17 min 52 sec)
Heartbeat CPU 0 instructions: 151001002 cycles: 64835512 heartbeat IPC: 1.879 cumulative IPC: 1.95 (Simulation time: 00 hr 17 min 56 sec)
Heartbeat CPU 0 instructions: 151501005 cycles: 65115046 heartbeat IPC: 1.789 cumulative IPC: 1.95 (Simulation time: 00 hr 18 min 00 sec)
Heartbeat CPU 0 instructions: 152001007 cycles: 65383967 heartbeat IPC: 1.859 cumulative IPC: 1.949 (Simulation time: 00 hr 18 min 04 sec)
Heartbeat CPU 0 instructions: 152501011 cycles: 65637935 heartbeat IPC: 1.969 cumulative IPC: 1.949 (Simulation time: 00 hr 18 min 08 sec)
Heartbeat CPU 0 instructions: 153001016 cycles: 65905517 heartbeat IPC: 1.869 cumulative IPC: 1.949 (Simulation time: 00 hr 18 min 12 sec)
Heartbeat CPU 0 instructions: 153501019 cycles: 66158692 heartbeat IPC: 1.975 cumulative IPC: 1.949 (Simulation time: 00 hr 18 min 16 sec)
Heartbeat CPU 0 instructions: 154001026 cycles: 66426695 heartbeat IPC: 1.866 cumulative IPC: 1.949 (Simulation time: 00 hr 18 min 20 sec)
Heartbeat CPU 0 instructions: 154501029 cycles: 66679316 heartbeat IPC: 1.979 cumulative IPC: 1.949 (Simulation time: 00 hr 18 min 24 sec)
Heartbeat CPU 0 instructions: 155001029 cycles: 66958906 heartbeat IPC: 1.788 cumulative IPC: 1.948 (Simulation time: 00 hr 18 min 28 sec)
Heartbeat CPU 0 instructions: 155501033 cycles: 67226430 heartbeat IPC: 1.869 cumulative IPC: 1.947 (Simulation time: 00 hr 18 min 32 sec)
Heartbeat CPU 0 instructions: 156001036 cycles: 67469040 heartbeat IPC: 2.061 cumulative IPC: 1.948 (Simulation time: 00 hr 18 min 35 sec)
Heartbeat CPU 0 instructions: 156501036 cycles: 67730495 heartbeat IPC: 1.912 cumulative IPC: 1.948 (Simulation time: 00 hr 18 min 39 sec)
Heartbeat CPU 0 instructions: 157001036 cycles: 67971898 heartbeat IPC: 2.071 cumulative IPC: 1.948 (Simulation time: 00 hr 18 min 43 sec)
Heartbeat CPU 0 instructions: 157501043 cycles: 68224542 heartbeat IPC: 1.979 cumulative IPC: 1.948 (Simulation time: 00 hr 18 min 47 sec)
Heartbeat CPU 0 instructions: 158001046 cycles: 68459822 heartbeat IPC: 2.125 cumulative IPC: 1.949 (Simulation time: 00 hr 18 min 50 sec)
Heartbeat CPU 0 instructions: 158501046 cycles: 68707942 heartbeat IPC: 2.015 cumulative IPC: 1.95 (Simulation time: 00 hr 18 min 54 sec)
Heartbeat CPU 0 instructions: 159001049 cycles: 68953591 heartbeat IPC: 2.035 cumulative IPC: 1.95 (Simulation time: 00 hr 18 min 58 sec)
Heartbeat CPU 0 instructions: 159501056 cycles: 69173874 heartbeat IPC: 2.27 cumulative IPC: 1.951 (Simulation time: 00 hr 19 min 01 sec)
Heartbeat CPU 0 instructions: 160001061 cycles: 69390559 heartbeat IPC: 2.308 cumulative IPC: 1.953 (Simulation time: 00 hr 19 min 05 sec)
Heartbeat CPU 0 instructions: 160501066 cycles: 69606484 heartbeat IPC: 2.316 cumulative IPC: 1.954 (Simulation time: 00 hr 19 min 08 sec)
Heartbeat CPU 0 instructions: 161001071 cycles: 69825973 heartbeat IPC: 2.278 cumulative IPC: 1.955 (Simulation time: 00 hr 19 min 12 sec)
Heartbeat CPU 0 instructions: 161501072 cycles: 70041088 heartbeat IPC: 2.324 cumulative IPC: 1.957 (Simulation time: 00 hr 19 min 15 sec)
Heartbeat CPU 0 instructions: 162001074 cycles: 70274129 heartbeat IPC: 2.146 cumulative IPC: 1.957 (Simulation time: 00 hr 19 min 19 sec)
Heartbeat CPU 0 instructions: 162501074 cycles: 70509160 heartbeat IPC: 2.127 cumulative IPC: 1.958 (Simulation time: 00 hr 19 min 22 sec)
Heartbeat CPU 0 instructions: 163001074 cycles: 70727233 heartbeat IPC: 2.293 cumulative IPC: 1.959 (Simulation time: 00 hr 19 min 26 sec)
Heartbeat CPU 0 instructions: 163501078 cycles: 70966287 heartbeat IPC: 2.092 cumulative IPC: 1.96 (Simulation time: 00 hr 19 min 29 sec)
Heartbeat CPU 0 instructions: 164001081 cycles: 71195090 heartbeat IPC: 2.185 cumulative IPC: 1.961 (Simulation time: 00 hr 19 min 33 sec)
Heartbeat CPU 0 instructions: 164501085 cycles: 71437355 heartbeat IPC: 2.064 cumulative IPC: 1.961 (Simulation time: 00 hr 19 min 37 sec)
Heartbeat CPU 0 instructions: 165001085 cycles: 71680214 heartbeat IPC: 2.059 cumulative IPC: 1.962 (Simulation time: 00 hr 19 min 40 sec)
Heartbeat CPU 0 instructions: 165501088 cycles: 71926364 heartbeat IPC: 2.031 cumulative IPC: 1.962 (Simulation time: 00 hr 19 min 44 sec)
Heartbeat CPU 0 instructions: 166001090 cycles: 72201074 heartbeat IPC: 1.82 cumulative IPC: 1.961 (Simulation time: 00 hr 19 min 48 sec)
Heartbeat CPU 0 instructions: 166501093 cycles: 72451896 heartbeat IPC: 1.993 cumulative IPC: 1.961 (Simulation time: 00 hr 19 min 52 sec)
Heartbeat CPU 0 instructions: 167001096 cycles: 72715639 heartbeat IPC: 1.896 cumulative IPC: 1.961 (Simulation time: 00 hr 19 min 56 sec)
Heartbeat CPU 0 instructions: 167501097 cycles: 72969672 heartbeat IPC: 1.968 cumulative IPC: 1.961 (Simulation time: 00 hr 20 min 00 sec)
Heartbeat CPU 0 instructions: 168001097 cycles: 73236623 heartbeat IPC: 1.873 cumulative IPC: 1.961 (Simulation time: 00 hr 20 min 04 sec)
Heartbeat CPU 0 instructions: 168501101 cycles: 73495339 heartbeat IPC: 1.933 cumulative IPC: 1.961 (Simulation time: 00 hr 20 min 07 sec)
Heartbeat CPU 0 instructions: 169001103 cycles: 73762458 heartbeat IPC: 1.872 cumulative IPC: 1.96 (Simulation time: 00 hr 20 min 11 sec)
Heartbeat CPU 0 instructions: 169501105 cycles: 74029276 heartbeat IPC: 1.874 cumulative IPC: 1.96 (Simulation time: 00 hr 20 min 15 sec)
Heartbeat CPU 0 instructions: 170001108 cycles: 74289509 heartbeat IPC: 1.921 cumulative IPC: 1.96 (Simulation time: 00 hr 20 min 19 sec)
Heartbeat CPU 0 instructions: 170501114 cycles: 74556243 heartbeat IPC: 1.875 cumulative IPC: 1.959 (Simulation time: 00 hr 20 min 23 sec)
Heartbeat CPU 0 instructions: 171001119 cycles: 74809425 heartbeat IPC: 1.975 cumulative IPC: 1.959 (Simulation time: 00 hr 20 min 27 sec)
Heartbeat CPU 0 instructions: 171501123 cycles: 75074737 heartbeat IPC: 1.885 cumulative IPC: 1.959 (Simulation time: 00 hr 20 min 31 sec)
Heartbeat CPU 0 instructions: 172001130 cycles: 75330084 heartbeat IPC: 1.958 cumulative IPC: 1.959 (Simulation time: 00 hr 20 min 35 sec)
Heartbeat CPU 0 instructions: 172501133 cycles: 75597195 heartbeat IPC: 1.872 cumulative IPC: 1.959 (Simulation time: 00 hr 20 min 39 sec)
Heartbeat CPU 0 instructions: 173001133 cycles: 75851017 heartbeat IPC: 1.97 cumulative IPC: 1.959 (Simulation time: 00 hr 20 min 42 sec)
Heartbeat CPU 0 instructions: 173501138 cycles: 76142010 heartbeat IPC: 1.718 cumulative IPC: 1.958 (Simulation time: 00 hr 20 min 47 sec)
Heartbeat CPU 0 instructions: 174001141 cycles: 76398040 heartbeat IPC: 1.953 cumulative IPC: 1.958 (Simulation time: 00 hr 20 min 51 sec)
Heartbeat CPU 0 instructions: 174501146 cycles: 76653899 heartbeat IPC: 1.954 cumulative IPC: 1.958 (Simulation time: 00 hr 20 min 54 sec)
Heartbeat CPU 0 instructions: 175001147 cycles: 76921814 heartbeat IPC: 1.866 cumulative IPC: 1.957 (Simulation time: 00 hr 20 min 58 sec)
Heartbeat CPU 0 instructions: 175501150 cycles: 77175241 heartbeat IPC: 1.973 cumulative IPC: 1.957 (Simulation time: 00 hr 21 min 02 sec)
Heartbeat CPU 0 instructions: 176001153 cycles: 77444150 heartbeat IPC: 1.859 cumulative IPC: 1.957 (Simulation time: 00 hr 21 min 06 sec)
Heartbeat CPU 0 instructions: 176501156 cycles: 77697711 heartbeat IPC: 1.972 cumulative IPC: 1.957 (Simulation time: 00 hr 21 min 10 sec)
Heartbeat CPU 0 instructions: 177001163 cycles: 77989670 heartbeat IPC: 1.713 cumulative IPC: 1.956 (Simulation time: 00 hr 21 min 14 sec)
Heartbeat CPU 0 instructions: 177501166 cycles: 78240285 heartbeat IPC: 1.995 cumulative IPC: 1.956 (Simulation time: 00 hr 21 min 18 sec)
Heartbeat CPU 0 instructions: 178001171 cycles: 78493354 heartbeat IPC: 1.976 cumulative IPC: 1.956 (Simulation time: 00 hr 21 min 22 sec)
Heartbeat CPU 0 instructions: 178501177 cycles: 78760741 heartbeat IPC: 1.87 cumulative IPC: 1.956 (Simulation time: 00 hr 21 min 26 sec)
Heartbeat CPU 0 instructions: 179001181 cycles: 79022337 heartbeat IPC: 1.911 cumulative IPC: 1.955 (Simulation time: 00 hr 21 min 30 sec)
Heartbeat CPU 0 instructions: 179501184 cycles: 79295002 heartbeat IPC: 1.834 cumulative IPC: 1.955 (Simulation time: 00 hr 21 min 34 sec)
Heartbeat CPU 0 instructions: 180001188 cycles: 79548449 heartbeat IPC: 1.973 cumulative IPC: 1.955 (Simulation time: 00 hr 21 min 37 sec)
Heartbeat CPU 0 instructions: 180501193 cycles: 79834833 heartbeat IPC: 1.746 cumulative IPC: 1.954 (Simulation time: 00 hr 21 min 41 sec)
Heartbeat CPU 0 instructions: 181001195 cycles: 80096234 heartbeat IPC: 1.913 cumulative IPC: 1.954 (Simulation time: 00 hr 21 min 45 sec)
Heartbeat CPU 0 instructions: 181501201 cycles: 80362346 heartbeat IPC: 1.879 cumulative IPC: 1.954 (Simulation time: 00 hr 21 min 49 sec)
Heartbeat CPU 0 instructions: 182001201 cycles: 80615921 heartbeat IPC: 1.972 cumulative IPC: 1.954 (Simulation time: 00 hr 21 min 53 sec)
Heartbeat CPU 0 instructions: 182501205 cycles: 80870811 heartbeat IPC: 1.962 cumulative IPC: 1.954 (Simulation time: 00 hr 21 min 57 sec)
Heartbeat CPU 0 instructions: 183001210 cycles: 81139532 heartbeat IPC: 1.861 cumulative IPC: 1.953 (Simulation time: 00 hr 22 min 01 sec)
Heartbeat CPU 0 instructions: 183501215 cycles: 81392249 heartbeat IPC: 1.979 cumulative IPC: 1.954 (Simulation time: 00 hr 22 min 05 sec)
Heartbeat CPU 0 instructions: 184001217 cycles: 81661583 heartbeat IPC: 1.856 cumulative IPC: 1.953 (Simulation time: 00 hr 22 min 09 sec)
Heartbeat CPU 0 instructions: 184501221 cycles: 81940179 heartbeat IPC: 1.795 cumulative IPC: 1.952 (Simulation time: 00 hr 22 min 13 sec)
Heartbeat CPU 0 instructions: 185001224 cycles: 82207910 heartbeat IPC: 1.868 cumulative IPC: 1.952 (Simulation time: 00 hr 22 min 17 sec)
Heartbeat CPU 0 instructions: 185501228 cycles: 82460300 heartbeat IPC: 1.981 cumulative IPC: 1.952 (Simulation time: 00 hr 22 min 21 sec)
Heartbeat CPU 0 instructions: 186001231 cycles: 82727479 heartbeat IPC: 1.871 cumulative IPC: 1.952 (Simulation time: 00 hr 22 min 24 sec)
Heartbeat CPU 0 instructions: 186501235 cycles: 82983761 heartbeat IPC: 1.951 cumulative IPC: 1.952 (Simulation time: 00 hr 22 min 28 sec)
Heartbeat CPU 0 instructions: 187001242 cycles: 83225871 heartbeat IPC: 2.065 cumulative IPC: 1.952 (Simulation time: 00 hr 22 min 32 sec)
Heartbeat CPU 0 instructions: 187501246 cycles: 83488935 heartbeat IPC: 1.901 cumulative IPC: 1.952 (Simulation time: 00 hr 22 min 36 sec)
Heartbeat CPU 0 instructions: 188001253 cycles: 83752447 heartbeat IPC: 1.897 cumulative IPC: 1.952 (Simulation time: 00 hr 22 min 40 sec)
Heartbeat CPU 0 instructions: 188501255 cycles: 84005953 heartbeat IPC: 1.972 cumulative IPC: 1.952 (Simulation time: 00 hr 22 min 44 sec)
Heartbeat CPU 0 instructions: 189001255 cycles: 84242267 heartbeat IPC: 2.116 cumulative IPC: 1.953 (Simulation time: 00 hr 22 min 47 sec)
Heartbeat CPU 0 instructions: 189501260 cycles: 84491294 heartbeat IPC: 2.008 cumulative IPC: 1.953 (Simulation time: 00 hr 22 min 51 sec)
Heartbeat CPU 0 instructions: 190001265 cycles: 84721442 heartbeat IPC: 2.173 cumulative IPC: 1.953 (Simulation time: 00 hr 22 min 55 sec)
Heartbeat CPU 0 instructions: 190501268 cycles: 84942881 heartbeat IPC: 2.258 cumulative IPC: 1.954 (Simulation time: 00 hr 22 min 58 sec)
Heartbeat CPU 0 instructions: 191001271 cycles: 85166876 heartbeat IPC: 2.232 cumulative IPC: 1.955 (Simulation time: 00 hr 23 min 02 sec)
Heartbeat CPU 0 instructions: 191501277 cycles: 85388673 heartbeat IPC: 2.254 cumulative IPC: 1.956 (Simulation time: 00 hr 23 min 05 sec)
Heartbeat CPU 0 instructions: 192001283 cycles: 85612338 heartbeat IPC: 2.236 cumulative IPC: 1.957 (Simulation time: 00 hr 23 min 08 sec)
Heartbeat CPU 0 instructions: 192501290 cycles: 85817769 heartbeat IPC: 2.434 cumulative IPC: 1.958 (Simulation time: 00 hr 23 min 12 sec)
Heartbeat CPU 0 instructions: 193001294 cycles: 86050613 heartbeat IPC: 2.147 cumulative IPC: 1.959 (Simulation time: 00 hr 23 min 15 sec)
Heartbeat CPU 0 instructions: 193501297 cycles: 86272793 heartbeat IPC: 2.25 cumulative IPC: 1.96 (Simulation time: 00 hr 23 min 19 sec)
Heartbeat CPU 0 instructions: 194001300 cycles: 86499502 heartbeat IPC: 2.205 cumulative IPC: 1.961 (Simulation time: 00 hr 23 min 22 sec)
Heartbeat CPU 0 instructions: 194501304 cycles: 86729178 heartbeat IPC: 2.177 cumulative IPC: 1.961 (Simulation time: 00 hr 23 min 26 sec)
Heartbeat CPU 0 instructions: 195001308 cycles: 86960633 heartbeat IPC: 2.16 cumulative IPC: 1.962 (Simulation time: 00 hr 23 min 30 sec)
Heartbeat CPU 0 instructions: 195501311 cycles: 87224189 heartbeat IPC: 1.897 cumulative IPC: 1.962 (Simulation time: 00 hr 23 min 33 sec)
Heartbeat CPU 0 instructions: 196001314 cycles: 87463928 heartbeat IPC: 2.086 cumulative IPC: 1.962 (Simulation time: 00 hr 23 min 37 sec)
Heartbeat CPU 0 instructions: 196501317 cycles: 87712210 heartbeat IPC: 2.014 cumulative IPC: 1.962 (Simulation time: 00 hr 23 min 41 sec)
Heartbeat CPU 0 instructions: 197001324 cycles: 87964757 heartbeat IPC: 1.98 cumulative IPC: 1.962 (Simulation time: 00 hr 23 min 45 sec)
Heartbeat CPU 0 instructions: 197501331 cycles: 88226825 heartbeat IPC: 1.908 cumulative IPC: 1.962 (Simulation time: 00 hr 23 min 48 sec)
Heartbeat CPU 0 instructions: 198001332 cycles: 88479572 heartbeat IPC: 1.978 cumulative IPC: 1.962 (Simulation time: 00 hr 23 min 52 sec)
Heartbeat CPU 0 instructions: 198501335 cycles: 88742016 heartbeat IPC: 1.905 cumulative IPC: 1.962 (Simulation time: 00 hr 23 min 56 sec)
Heartbeat CPU 0 instructions: 199001340 cycles: 89021941 heartbeat IPC: 1.786 cumulative IPC: 1.961 (Simulation time: 00 hr 24 min 00 sec)
Heartbeat CPU 0 instructions: 199501340 cycles: 89281183 heartbeat IPC: 1.929 cumulative IPC: 1.961 (Simulation time: 00 hr 24 min 04 sec)
Heartbeat CPU 0 instructions: 200001340 cycles: 89546656 heartbeat IPC: 1.883 cumulative IPC: 1.961 (Simulation time: 00 hr 24 min 08 sec)
Heartbeat CPU 0 instructions: 200501343 cycles: 89800124 heartbeat IPC: 1.973 cumulative IPC: 1.961 (Simulation time: 00 hr 24 min 12 sec)
Heartbeat CPU 0 instructions: 201001347 cycles: 90063716 heartbeat IPC: 1.897 cumulative IPC: 1.961 (Simulation time: 00 hr 24 min 16 sec)
Heartbeat CPU 0 instructions: 201501351 cycles: 90314486 heartbeat IPC: 1.994 cumulative IPC: 1.961 (Simulation time: 00 hr 24 min 19 sec)
Heartbeat CPU 0 instructions: 202001352 cycles: 90580956 heartbeat IPC: 1.876 cumulative IPC: 1.961 (Simulation time: 00 hr 24 min 23 sec)
Heartbeat CPU 0 instructions: 202501354 cycles: 90856966 heartbeat IPC: 1.812 cumulative IPC: 1.96 (Simulation time: 00 hr 24 min 27 sec)
Heartbeat CPU 0 instructions: 203001355 cycles: 91114152 heartbeat IPC: 1.944 cumulative IPC: 1.96 (Simulation time: 00 hr 24 min 31 sec)
Heartbeat CPU 0 instructions: 203501356 cycles: 91380238 heartbeat IPC: 1.879 cumulative IPC: 1.96 (Simulation time: 00 hr 24 min 35 sec)
Heartbeat CPU 0 instructions: 204001359 cycles: 91635190 heartbeat IPC: 1.961 cumulative IPC: 1.96 (Simulation time: 00 hr 24 min 39 sec)
Heartbeat CPU 0 instructions: 204501359 cycles: 91901573 heartbeat IPC: 1.877 cumulative IPC: 1.959 (Simulation time: 00 hr 24 min 43 sec)
Heartbeat CPU 0 instructions: 205001365 cycles: 92156376 heartbeat IPC: 1.962 cumulative IPC: 1.959 (Simulation time: 00 hr 24 min 46 sec)
Heartbeat CPU 0 instructions: 205501368 cycles: 92421693 heartbeat IPC: 1.885 cumulative IPC: 1.959 (Simulation time: 00 hr 24 min 50 sec)
Heartbeat CPU 0 instructions: 206001375 cycles: 92679646 heartbeat IPC: 1.938 cumulative IPC: 1.959 (Simulation time: 00 hr 24 min 54 sec)
Heartbeat CPU 0 instructions: 206501378 cycles: 92957130 heartbeat IPC: 1.802 cumulative IPC: 1.959 (Simulation time: 00 hr 24 min 58 sec)
Heartbeat CPU 0 instructions: 207001383 cycles: 93222266 heartbeat IPC: 1.886 cumulative IPC: 1.958 (Simulation time: 00 hr 25 min 02 sec)
Heartbeat CPU 0 instructions: 207501386 cycles: 93477333 heartbeat IPC: 1.96 cumulative IPC: 1.958 (Simulation time: 00 hr 25 min 06 sec)
Heartbeat CPU 0 instructions: 208001393 cycles: 93742778 heartbeat IPC: 1.884 cumulative IPC: 1.958 (Simulation time: 00 hr 25 min 10 sec)
Heartbeat CPU 0 instructions: 208501396 cycles: 93993849 heartbeat IPC: 1.991 cumulative IPC: 1.958 (Simulation time: 00 hr 25 min 13 sec)
Heartbeat CPU 0 instructions: 209001401 cycles: 94261337 heartbeat IPC: 1.869 cumulative IPC: 1.958 (Simulation time: 00 hr 25 min 17 sec)
Heartbeat CPU 0 instructions: 209501401 cycles: 94514211 heartbeat IPC: 1.977 cumulative IPC: 1.958 (Simulation time: 00 hr 25 min 21 sec)
Heartbeat CPU 0 instructions: 210001402 cycles: 94804359 heartbeat IPC: 1.723 cumulative IPC: 1.957 (Simulation time: 00 hr 25 min 25 sec)
Heartbeat CPU 0 instructions: 210501405 cycles: 95073519 heartbeat IPC: 1.858 cumulative IPC: 1.957 (Simulation time: 00 hr 25 min 29 sec)
Heartbeat CPU 0 instructions: 211001408 cycles: 95327275 heartbeat IPC: 1.97 cumulative IPC: 1.957 (Simulation time: 00 hr 25 min 33 sec)
Heartbeat CPU 0 instructions: 211501411 cycles: 95594778 heartbeat IPC: 1.869 cumulative IPC: 1.957 (Simulation time: 00 hr 25 min 37 sec)
Heartbeat CPU 0 instructions: 212001412 cycles: 95852296 heartbeat IPC: 1.942 cumulative IPC: 1.957 (Simulation time: 00 hr 25 min 40 sec)
Heartbeat CPU 0 instructions: 212501417 cycles: 96119039 heartbeat IPC: 1.874 cumulative IPC: 1.956 (Simulation time: 00 hr 25 min 44 sec)
Heartbeat CPU 0 instructions: 213001420 cycles: 96371326 heartbeat IPC: 1.982 cumulative IPC: 1.956 (Simulation time: 00 hr 25 min 48 sec)
Heartbeat CPU 0 instructions: 213501420 cycles: 96662053 heartbeat IPC: 1.72 cumulative IPC: 1.956 (Simulation time: 00 hr 25 min 52 sec)
Heartbeat CPU 0 instructions: 214001420 cycles: 96917674 heartbeat IPC: 1.956 cumulative IPC: 1.956 (Simulation time: 00 hr 25 min 56 sec)
Heartbeat CPU 0 instructions: 214501427 cycles: 97169984 heartbeat IPC: 1.982 cumulative IPC: 1.956 (Simulation time: 00 hr 26 min 00 sec)
Heartbeat CPU 0 instructions: 215001428 cycles: 97436550 heartbeat IPC: 1.876 cumulative IPC: 1.955 (Simulation time: 00 hr 26 min 03 sec)
Heartbeat CPU 0 instructions: 215501430 cycles: 97690833 heartbeat IPC: 1.966 cumulative IPC: 1.955 (Simulation time: 00 hr 26 min 07 sec)
Heartbeat CPU 0 instructions: 216001434 cycles: 97955984 heartbeat IPC: 1.886 cumulative IPC: 1.955 (Simulation time: 00 hr 26 min 11 sec)
Heartbeat CPU 0 instructions: 216501434 cycles: 98208232 heartbeat IPC: 1.982 cumulative IPC: 1.955 (Simulation time: 00 hr 26 min 15 sec)
Heartbeat CPU 0 instructions: 217001441 cycles: 98477749 heartbeat IPC: 1.855 cumulative IPC: 1.955 (Simulation time: 00 hr 26 min 19 sec)
Heartbeat CPU 0 instructions: 217501446 cycles: 98757646 heartbeat IPC: 1.786 cumulative IPC: 1.954 (Simulation time: 00 hr 26 min 23 sec)
Heartbeat CPU 0 instructions: 218001447 cycles: 99013768 heartbeat IPC: 1.952 cumulative IPC: 1.954 (Simulation time: 00 hr 26 min 27 sec)
Heartbeat CPU 0 instructions: 218501452 cycles: 99267407 heartbeat IPC: 1.971 cumulative IPC: 1.954 (Simulation time: 00 hr 26 min 30 sec)
Heartbeat CPU 0 instructions: 219001458 cycles: 99513632 heartbeat IPC: 2.031 cumulative IPC: 1.955 (Simulation time: 00 hr 26 min 34 sec)
Heartbeat CPU 0 instructions: 219501464 cycles: 99767046 heartbeat IPC: 1.973 cumulative IPC: 1.955 (Simulation time: 00 hr 26 min 38 sec)
Heartbeat CPU 0 instructions: 220001465 cycles: 100003817 heartbeat IPC: 2.112 cumulative IPC: 1.955 (Simulation time: 00 hr 26 min 41 sec)
Heartbeat CPU 0 instructions: 220501470 cycles: 100255614 heartbeat IPC: 1.986 cumulative IPC: 1.955 (Simulation time: 00 hr 26 min 45 sec)
Heartbeat CPU 0 instructions: 221001470 cycles: 100507936 heartbeat IPC: 1.982 cumulative IPC: 1.955 (Simulation time: 00 hr 26 min 49 sec)
Heartbeat CPU 0 instructions: 221501470 cycles: 100743159 heartbeat IPC: 2.126 cumulative IPC: 1.956 (Simulation time: 00 hr 26 min 52 sec)
Heartbeat CPU 0 instructions: 222001477 cycles: 100958403 heartbeat IPC: 2.323 cumulative IPC: 1.957 (Simulation time: 00 hr 26 min 55 sec)
Heartbeat CPU 0 instructions: 222501484 cycles: 101179103 heartbeat IPC: 2.266 cumulative IPC: 1.957 (Simulation time: 00 hr 26 min 59 sec)
Heartbeat CPU 0 instructions: 223001489 cycles: 101391758 heartbeat IPC: 2.351 cumulative IPC: 1.958 (Simulation time: 00 hr 27 min 02 sec)
Heartbeat CPU 0 instructions: 223501494 cycles: 101600793 heartbeat IPC: 2.392 cumulative IPC: 1.959 (Simulation time: 00 hr 27 min 05 sec)
Heartbeat CPU 0 instructions: 224001497 cycles: 101828382 heartbeat IPC: 2.197 cumulative IPC: 1.96 (Simulation time: 00 hr 27 min 09 sec)
Heartbeat CPU 0 instructions: 224501501 cycles: 102065827 heartbeat IPC: 2.106 cumulative IPC: 1.96 (Simulation time: 00 hr 27 min 12 sec)
Heartbeat CPU 0 instructions: 225001504 cycles: 102296439 heartbeat IPC: 2.168 cumulative IPC: 1.961 (Simulation time: 00 hr 27 min 16 sec)
Heartbeat CPU 0 instructions: 225501504 cycles: 102521647 heartbeat IPC: 2.22 cumulative IPC: 1.962 (Simulation time: 00 hr 27 min 19 sec)
Heartbeat CPU 0 instructions: 226001508 cycles: 102760946 heartbeat IPC: 2.089 cumulative IPC: 1.962 (Simulation time: 00 hr 27 min 23 sec)
Heartbeat CPU 0 instructions: 226501513 cycles: 102994431 heartbeat IPC: 2.141 cumulative IPC: 1.962 (Simulation time: 00 hr 27 min 26 sec)
Heartbeat CPU 0 instructions: 227001514 cycles: 103237278 heartbeat IPC: 2.059 cumulative IPC: 1.963 (Simulation time: 00 hr 27 min 30 sec)
Heartbeat CPU 0 instructions: 227501515 cycles: 103492162 heartbeat IPC: 1.962 cumulative IPC: 1.963 (Simulation time: 00 hr 27 min 34 sec)
Heartbeat CPU 0 instructions: 228001516 cycles: 103738329 heartbeat IPC: 2.031 cumulative IPC: 1.963 (Simulation time: 00 hr 27 min 37 sec)
Heartbeat CPU 0 instructions: 228501519 cycles: 104018153 heartbeat IPC: 1.787 cumulative IPC: 1.962 (Simulation time: 00 hr 27 min 41 sec)
Heartbeat CPU 0 instructions: 229001524 cycles: 104273220 heartbeat IPC: 1.96 cumulative IPC: 1.962 (Simulation time: 00 hr 27 min 45 sec)
Heartbeat CPU 0 instructions: 229501531 cycles: 104535335 heartbeat IPC: 1.908 cumulative IPC: 1.962 (Simulation time: 00 hr 27 min 49 sec)
Heartbeat CPU 0 instructions: 230001537 cycles: 104792257 heartbeat IPC: 1.946 cumulative IPC: 1.962 (Simulation time: 00 hr 27 min 52 sec)
Heartbeat CPU 0 instructions: 230501539 cycles: 105061059 heartbeat IPC: 1.86 cumulative IPC: 1.962 (Simulation time: 00 hr 27 min 56 sec)
Heartbeat CPU 0 instructions: 231001542 cycles: 105320214 heartbeat IPC: 1.929 cumulative IPC: 1.962 (Simulation time: 00 hr 28 min 00 sec)
Heartbeat CPU 0 instructions: 231501545 cycles: 105574244 heartbeat IPC: 1.968 cumulative IPC: 1.962 (Simulation time: 00 hr 28 min 04 sec)
Heartbeat CPU 0 instructions: 232001551 cycles: 105864608 heartbeat IPC: 1.722 cumulative IPC: 1.961 (Simulation time: 00 hr 28 min 08 sec)
Heartbeat CPU 0 instructions: 232501554 cycles: 106119122 heartbeat IPC: 1.965 cumulative IPC: 1.961 (Simulation time: 00 hr 28 min 11 sec)
Heartbeat CPU 0 instructions: 233001555 cycles: 106386869 heartbeat IPC: 1.867 cumulative IPC: 1.961 (Simulation time: 00 hr 28 min 15 sec)
Heartbeat CPU 0 instructions: 233501558 cycles: 106640955 heartbeat IPC: 1.968 cumulative IPC: 1.961 (Simulation time: 00 hr 28 min 19 sec)
Heartbeat CPU 0 instructions: 234001560 cycles: 106906105 heartbeat IPC: 1.886 cumulative IPC: 1.961 (Simulation time: 00 hr 28 min 23 sec)
Heartbeat CPU 0 instructions: 234501566 cycles: 107161862 heartbeat IPC: 1.955 cumulative IPC: 1.961 (Simulation time: 00 hr 28 min 26 sec)
Heartbeat CPU 0 instructions: 235001567 cycles: 107429005 heartbeat IPC: 1.872 cumulative IPC: 1.96 (Simulation time: 00 hr 28 min 30 sec)
Heartbeat CPU 0 instructions: 235501572 cycles: 107707116 heartbeat IPC: 1.798 cumulative IPC: 1.96 (Simulation time: 00 hr 28 min 34 sec)
Heartbeat CPU 0 instructions: 236001579 cycles: 107963780 heartbeat IPC: 1.948 cumulative IPC: 1.96 (Simulation time: 00 hr 28 min 38 sec)
Heartbeat CPU 0 instructions: 236501582 cycles: 108230820 heartbeat IPC: 1.872 cumulative IPC: 1.96 (Simulation time: 00 hr 28 min 42 sec)
Heartbeat CPU 0 instructions: 237001587 cycles: 108486651 heartbeat IPC: 1.954 cumulative IPC: 1.959 (Simulation time: 00 hr 28 min 45 sec)
Heartbeat CPU 0 instructions: 237501592 cycles: 108755373 heartbeat IPC: 1.861 cumulative IPC: 1.959 (Simulation time: 00 hr 28 min 49 sec)
Heartbeat CPU 0 instructions: 238001599 cycles: 109007608 heartbeat IPC: 1.982 cumulative IPC: 1.959 (Simulation time: 00 hr 28 min 53 sec)
Heartbeat CPU 0 instructions: 238501606 cycles: 109276041 heartbeat IPC: 1.863 cumulative IPC: 1.959 (Simulation time: 00 hr 28 min 57 sec)
Heartbeat CPU 0 instructions: 239001612 cycles: 109536557 heartbeat IPC: 1.919 cumulative IPC: 1.959 (Simulation time: 00 hr 29 min 00 sec)
Heartbeat CPU 0 instructions: 239501617 cycles: 109809737 heartbeat IPC: 1.83 cumulative IPC: 1.959 (Simulation time: 00 hr 29 min 04 sec)
Heartbeat CPU 0 instructions: 240001620 cycles: 110076651 heartbeat IPC: 1.873 cumulative IPC: 1.958 (Simulation time: 00 hr 29 min 08 sec)
Heartbeat CPU 0 instructions: 240501623 cycles: 110332185 heartbeat IPC: 1.957 cumulative IPC: 1.958 (Simulation time: 00 hr 29 min 12 sec)
Heartbeat CPU 0 instructions: 241001623 cycles: 110599797 heartbeat IPC: 1.868 cumulative IPC: 1.958 (Simulation time: 00 hr 29 min 16 sec)
Heartbeat CPU 0 instructions: 241501627 cycles: 110868803 heartbeat IPC: 1.859 cumulative IPC: 1.958 (Simulation time: 00 hr 29 min 19 sec)
Heartbeat CPU 0 instructions: 242001630 cycles: 111136134 heartbeat IPC: 1.87 cumulative IPC: 1.958 (Simulation time: 00 hr 29 min 23 sec)
Heartbeat CPU 0 instructions: 242501630 cycles: 111389509 heartbeat IPC: 1.973 cumulative IPC: 1.958 (Simulation time: 00 hr 29 min 27 sec)
Heartbeat CPU 0 instructions: 243001630 cycles: 111671407 heartbeat IPC: 1.774 cumulative IPC: 1.957 (Simulation time: 00 hr 29 min 31 sec)
Heartbeat CPU 0 instructions: 243501630 cycles: 111938493 heartbeat IPC: 1.872 cumulative IPC: 1.957 (Simulation time: 00 hr 29 min 35 sec)
Heartbeat CPU 0 instructions: 244001634 cycles: 112192645 heartbeat IPC: 1.967 cumulative IPC: 1.957 (Simulation time: 00 hr 29 min 38 sec)
Heartbeat CPU 0 instructions: 244501635 cycles: 112460367 heartbeat IPC: 1.868 cumulative IPC: 1.957 (Simulation time: 00 hr 29 min 42 sec)
Heartbeat CPU 0 instructions: 245001640 cycles: 112716213 heartbeat IPC: 1.954 cumulative IPC: 1.957 (Simulation time: 00 hr 29 min 46 sec)
Heartbeat CPU 0 instructions: 245501641 cycles: 112985506 heartbeat IPC: 1.857 cumulative IPC: 1.956 (Simulation time: 00 hr 29 min 50 sec)
Heartbeat CPU 0 instructions: 246001644 cycles: 113240345 heartbeat IPC: 1.962 cumulative IPC: 1.956 (Simulation time: 00 hr 29 min 53 sec)
Heartbeat CPU 0 instructions: 246501644 cycles: 113520163 heartbeat IPC: 1.787 cumulative IPC: 1.956 (Simulation time: 00 hr 29 min 57 sec)
Heartbeat CPU 0 instructions: 247001651 cycles: 113788103 heartbeat IPC: 1.866 cumulative IPC: 1.956 (Simulation time: 00 hr 30 min 01 sec)
Heartbeat CPU 0 instructions: 247501654 cycles: 114040542 heartbeat IPC: 1.981 cumulative IPC: 1.956 (Simulation time: 00 hr 30 min 05 sec)
Heartbeat CPU 0 instructions: 248001657 cycles: 114308604 heartbeat IPC: 1.865 cumulative IPC: 1.955 (Simulation time: 00 hr 30 min 08 sec)
Heartbeat CPU 0 instructions: 248501660 cycles: 114565969 heartbeat IPC: 1.943 cumulative IPC: 1.955 (Simulation time: 00 hr 30 min 12 sec)
Heartbeat CPU 0 instructions: 249001665 cycles: 114834652 heartbeat IPC: 1.861 cumulative IPC: 1.955 (Simulation time: 00 hr 30 min 16 sec)
Heartbeat CPU 0 instructions: 249501672 cycles: 115081692 heartbeat IPC: 2.024 cumulative IPC: 1.955 (Simulation time: 00 hr 30 min 19 sec)
Simulation finished CPU 0 instructions: 200000004 cycles: 102291078 cumulative IPC: 1.955 (Simulation time: 00 hr 30 min 23 sec)
Simulation complete CPU 0 instructions: 200000004 cycles: 102291078 cumulative IPC: 1.955 (Simulation time: 00 hr 30 min 23 sec)

ChampSim completed all CPUs

=== Simulation ===
CPU 0 runs /local-ssd/ben/dpc4-traces/ai-ml/whisper_trace_1.champsimtrace.gz

Region of Interest Statistics

CPU 0 cumulative IPC: 1.955 instructions: 200000004 cycles: 102291078
CPU 0 Branch Prediction Accuracy: 96.01% MPKI: 2.804 Average ROB Occupancy at Mispredict: 240
Branch type MPKI
BRANCH_DIRECT_JUMP: 0
BRANCH_INDIRECT: 0
BRANCH_CONDITIONAL: 2.804
BRANCH_DIRECT_CALL: 0
BRANCH_INDIRECT_CALL: 0
BRANCH_RETURN: 0

cpu0->cpu0_STLB TOTAL        ACCESS:      50130 HIT:      28853 MISS:      21277 MSHR_MERGE:          0
cpu0->cpu0_STLB LOAD         ACCESS:      50130 HIT:      28853 MISS:      21277 MSHR_MERGE:          0
cpu0->cpu0_STLB RFO          ACCESS:          0 HIT:          0 MISS:          0 MSHR_MERGE:          0
cpu0->cpu0_STLB PREFETCH     ACCESS:          0 HIT:          0 MISS:          0 MSHR_MERGE:          0
cpu0->cpu0_STLB WRITE        ACCESS:          0 HIT:          0 MISS:          0 MSHR_MERGE:          0
cpu0->cpu0_STLB TRANSLATION  ACCESS:          0 HIT:          0 MISS:          0 MSHR_MERGE:          0
cpu0->cpu0_STLB PREFETCH REQUESTED:          0 ISSUED:          0 USEFUL:          0 USELESS:          0
cpu0->cpu0_STLB AVERAGE MISS LATENCY: 145.2 cycles
cpu0->cpu0_L2C TOTAL        ACCESS:   19530909 HIT:   14263435 MISS:    5267474 MSHR_MERGE:    3911410
cpu0->cpu0_L2C LOAD         ACCESS:    3839656 HIT:    3314463 MISS:     525193 MSHR_MERGE:     446307
cpu0->cpu0_L2C RFO          ACCESS:      33950 HIT:       1076 MISS:      32874 MSHR_MERGE:          0
cpu0->cpu0_L2C PREFETCH     ACCESS:   15592491 HIT:   10886108 MISS:    4706383 MSHR_MERGE:    3465103
cpu0->cpu0_L2C WRITE        ACCESS:      59801 HIT:      59801 MISS:          0 MSHR_MERGE:          0
cpu0->cpu0_L2C TRANSLATION  ACCESS:       5011 HIT:       1987 MISS:       3024 MSHR_MERGE:          0
cpu0->cpu0_L2C PREFETCH REQUESTED:   19132182 ISSUED:   14231058 USEFUL:     853962 USELESS:     179583
cpu0->cpu0_L2C AVERAGE MISS LATENCY: 554.3 cycles
cpu0->cpu0_L1I TOTAL        ACCESS:   21303844 HIT:   21303844 MISS:          0 MSHR_MERGE:          0
cpu0->cpu0_L1I LOAD         ACCESS:   21303844 HIT:   21303844 MISS:          0 MSHR_MERGE:          0
cpu0->cpu0_L1I RFO          ACCESS:          0 HIT:          0 MISS:          0 MSHR_MERGE:          0
cpu0->cpu0_L1I PREFETCH     ACCESS:          0 HIT:          0 MISS:          0 MSHR_MERGE:          0
cpu0->cpu0_L1I WRITE        ACCESS:          0 HIT:          0 MISS:          0 MSHR_MERGE:          0
cpu0->cpu0_L1I TRANSLATION  ACCESS:          0 HIT:          0 MISS:          0 MSHR_MERGE:          0
cpu0->cpu0_L1I PREFETCH REQUESTED:          0 ISSUED:          0 USEFUL:          0 USELESS:          0
cpu0->cpu0_L1I AVERAGE MISS LATENCY: - cycles
cpu0->cpu0_L1D TOTAL        ACCESS:   68702642 HIT:   62489539 MISS:    6213103 MSHR_MERGE:     972957
cpu0->cpu0_L1D LOAD         ACCESS:   51643686 HIT:   47229130 MISS:    4414556 MSHR_MERGE:     574896
cpu0->cpu0_L1D RFO          ACCESS:          0 HIT:          0 MISS:          0 MSHR_MERGE:          0
cpu0->cpu0_L1D PREFETCH     ACCESS:   14544736 HIT:   12818132 MISS:    1726604 MSHR_MERGE:     365169
cpu0->cpu0_L1D WRITE        ACCESS:    2471650 HIT:    2404718 MISS:      66932 MSHR_MERGE:      32892
cpu0->cpu0_L1D TRANSLATION  ACCESS:      42570 HIT:      37559 MISS:       5011 MSHR_MERGE:          0
cpu0->cpu0_L1D PREFETCH REQUESTED:  550502221 ISSUED:   14544728 USEFUL:    1168498 USELESS:     192903
cpu0->cpu0_L1D AVERAGE MISS LATENCY: 110.4 cycles
cpu0->cpu0_ITLB TOTAL        ACCESS:   15458602 HIT:   15458602 MISS:          0 MSHR_MERGE:          0
cpu0->cpu0_ITLB LOAD         ACCESS:   15458602 HIT:   15458602 MISS:          0 MSHR_MERGE:          0
cpu0->cpu0_ITLB RFO          ACCESS:          0 HIT:          0 MISS:          0 MSHR_MERGE:          0
cpu0->cpu0_ITLB PREFETCH     ACCESS:          0 HIT:          0 MISS:          0 MSHR_MERGE:          0
cpu0->cpu0_ITLB WRITE        ACCESS:          0 HIT:          0 MISS:          0 MSHR_MERGE:          0
cpu0->cpu0_ITLB TRANSLATION  ACCESS:          0 HIT:          0 MISS:          0 MSHR_MERGE:          0
cpu0->cpu0_ITLB PREFETCH REQUESTED:          0 ISSUED:          0 USEFUL:          0 USELESS:          0
cpu0->cpu0_ITLB AVERAGE MISS LATENCY: - cycles
cpu0->cpu0_DTLB TOTAL        ACCESS:   56444155 HIT:   56278701 MISS:     165454 MSHR_MERGE:     115324
cpu0->cpu0_DTLB LOAD         ACCESS:   56444155 HIT:   56278701 MISS:     165454 MSHR_MERGE:     115324
cpu0->cpu0_DTLB RFO          ACCESS:          0 HIT:          0 MISS:          0 MSHR_MERGE:          0
cpu0->cpu0_DTLB PREFETCH     ACCESS:          0 HIT:          0 MISS:          0 MSHR_MERGE:          0
cpu0->cpu0_DTLB WRITE        ACCESS:          0 HIT:          0 MISS:          0 MSHR_MERGE:          0
cpu0->cpu0_DTLB TRANSLATION  ACCESS:          0 HIT:          0 MISS:          0 MSHR_MERGE:          0
cpu0->cpu0_DTLB PREFETCH REQUESTED:          0 ISSUED:          0 USEFUL:          0 USELESS:          0
cpu0->cpu0_DTLB AVERAGE MISS LATENCY: 67.04 cycles
cpu0->LLC TOTAL        ACCESS:    1388904 HIT:     216539 MISS:    1172365 MSHR_MERGE:          0
cpu0->LLC LOAD         ACCESS:      78886 HIT:      17761 MISS:      61125 MSHR_MERGE:          0
cpu0->LLC RFO          ACCESS:      32874 HIT:          0 MISS:      32874 MSHR_MERGE:          0
cpu0->LLC PREFETCH     ACCESS:    1241280 HIT:     193298 MISS:    1047982 MSHR_MERGE:          0
cpu0->LLC WRITE        ACCESS:      32840 HIT:       4971 MISS:      27869 MSHR_MERGE:          0
cpu0->LLC TRANSLATION  ACCESS:       3024 HIT:        509 MISS:       2515 MSHR_MERGE:          0
cpu0->LLC PREFETCH REQUESTED:          0 ISSUED:          0 USEFUL:          0 USELESS:          0
cpu0->LLC AVERAGE MISS LATENCY: 439.9 cycles

DRAM Statistics

Channel 0 RQ ROW_BUFFER_HIT:     432437
  ROW_BUFFER_MISS:     712058
  AVG DBUS CONGESTED CYCLE: 4.07
Channel 0 WQ ROW_BUFFER_HIT:       1090
  ROW_BUFFER_MISS:      34661
  FULL:          0
Channel 0 REFRESHES ISSUED:       8525
