[VMEM] WARNING: physical memory size is smaller than virtual memory size.

*** ChampSim Multicore Out-of-Order Simulator ***
Warmup Instructions: 50000000
Simulation Instructions: 200000000
Number of CPUs: 1
Page size: 4096
Core 0: /local-ssd/ben/dpc4-traces/ai-ml/llama2.c-stories15M.1.champsimtrace.gz
sBerti (Smart Stride + Berti) Prefetcher Initialized
Off-chip DRAM Size: 64 GiB Channels: 1 Width: 64-bit Data Rate: 800 MT/s
Heartbeat CPU 0 instructions: 500005 cycles: 129044 heartbeat IPC: 3.875 cumulative IPC: 3.875 (Simulation time: 00 hr 00 min 04 sec)
Heartbeat CPU 0 instructions: 1000008 cycles: 256128 heartbeat IPC: 3.934 cumulative IPC: 3.904 (Simulation time: 00 hr 00 min 08 sec)
Heartbeat CPU 0 instructions: 1500010 cycles: 383429 heartbeat IPC: 3.928 cumulative IPC: 3.912 (Simulation time: 00 hr 00 min 11 sec)
Heartbeat CPU 0 instructions: 2000017 cycles: 510288 heartbeat IPC: 3.941 cumulative IPC: 3.919 (Simulation time: 00 hr 00 min 15 sec)
Heartbeat CPU 0 instructions: 2500019 cycles: 637570 heartbeat IPC: 3.928 cumulative IPC: 3.921 (Simulation time: 00 hr 00 min 18 sec)
Heartbeat CPU 0 instructions: 3000022 cycles: 764644 heartbeat IPC: 3.935 cumulative IPC: 3.923 (Simulation time: 00 hr 00 min 22 sec)
Heartbeat CPU 0 instructions: 3500024 cycles: 891938 heartbeat IPC: 3.928 cumulative IPC: 3.924 (Simulation time: 00 hr 00 min 25 sec)
Heartbeat CPU 0 instructions: 4000027 cycles: 1019029 heartbeat IPC: 3.934 cumulative IPC: 3.925 (Simulation time: 00 hr 00 min 29 sec)
Heartbeat CPU 0 instructions: 4500030 cycles: 1146313 heartbeat IPC: 3.928 cumulative IPC: 3.926 (Simulation time: 00 hr 00 min 32 sec)
Heartbeat CPU 0 instructions: 5000030 cycles: 1273164 heartbeat IPC: 3.942 cumulative IPC: 3.927 (Simulation time: 00 hr 00 min 35 sec)
Heartbeat CPU 0 instructions: 5500031 cycles: 1400463 heartbeat IPC: 3.928 cumulative IPC: 3.927 (Simulation time: 00 hr 00 min 39 sec)
Heartbeat CPU 0 instructions: 6000033 cycles: 1527544 heartbeat IPC: 3.935 cumulative IPC: 3.928 (Simulation time: 00 hr 00 min 42 sec)
Heartbeat CPU 0 instructions: 6500036 cycles: 1654828 heartbeat IPC: 3.928 cumulative IPC: 3.928 (Simulation time: 00 hr 00 min 46 sec)
Heartbeat CPU 0 instructions: 7000039 cycles: 1782122 heartbeat IPC: 3.928 cumulative IPC: 3.928 (Simulation time: 00 hr 00 min 49 sec)
Heartbeat CPU 0 instructions: 7500041 cycles: 1909213 heartbeat IPC: 3.934 cumulative IPC: 3.928 (Simulation time: 00 hr 00 min 53 sec)
Heartbeat CPU 0 instructions: 8000046 cycles: 2036316 heartbeat IPC: 3.934 cumulative IPC: 3.929 (Simulation time: 00 hr 00 min 56 sec)
Heartbeat CPU 0 instructions: 8500049 cycles: 2163376 heartbeat IPC: 3.935 cumulative IPC: 3.929 (Simulation time: 00 hr 01 min 00 sec)
Heartbeat CPU 0 instructions: 9000053 cycles: 2290658 heartbeat IPC: 3.928 cumulative IPC: 3.929 (Simulation time: 00 hr 01 min 03 sec)
Heartbeat CPU 0 instructions: 9500056 cycles: 2417742 heartbeat IPC: 3.934 cumulative IPC: 3.929 (Simulation time: 00 hr 01 min 07 sec)
Heartbeat CPU 0 instructions: 10000058 cycles: 2545043 heartbeat IPC: 3.928 cumulative IPC: 3.929 (Simulation time: 00 hr 01 min 10 sec)
Heartbeat CPU 0 instructions: 10500061 cycles: 2672127 heartbeat IPC: 3.934 cumulative IPC: 3.929 (Simulation time: 00 hr 01 min 14 sec)
Heartbeat CPU 0 instructions: 11000064 cycles: 2799421 heartbeat IPC: 3.928 cumulative IPC: 3.929 (Simulation time: 00 hr 01 min 17 sec)
Heartbeat CPU 0 instructions: 11500069 cycles: 2926268 heartbeat IPC: 3.942 cumulative IPC: 3.93 (Simulation time: 00 hr 01 min 21 sec)
Heartbeat CPU 0 instructions: 12000073 cycles: 3053552 heartbeat IPC: 3.928 cumulative IPC: 3.93 (Simulation time: 00 hr 01 min 24 sec)
Heartbeat CPU 0 instructions: 12500075 cycles: 3180643 heartbeat IPC: 3.934 cumulative IPC: 3.93 (Simulation time: 00 hr 01 min 27 sec)
Heartbeat CPU 0 instructions: 13000078 cycles: 3307937 heartbeat IPC: 3.928 cumulative IPC: 3.93 (Simulation time: 00 hr 01 min 31 sec)
Heartbeat CPU 0 instructions: 13500081 cycles: 3435021 heartbeat IPC: 3.934 cumulative IPC: 3.93 (Simulation time: 00 hr 01 min 34 sec)
Heartbeat CPU 0 instructions: 14000083 cycles: 3562322 heartbeat IPC: 3.928 cumulative IPC: 3.93 (Simulation time: 00 hr 01 min 38 sec)
Heartbeat CPU 0 instructions: 14500084 cycles: 3689176 heartbeat IPC: 3.942 cumulative IPC: 3.93 (Simulation time: 00 hr 01 min 41 sec)
Heartbeat CPU 0 instructions: 15000084 cycles: 3816442 heartbeat IPC: 3.929 cumulative IPC: 3.93 (Simulation time: 00 hr 01 min 43 sec)
Heartbeat CPU 0 instructions: 15500087 cycles: 3943536 heartbeat IPC: 3.934 cumulative IPC: 3.931 (Simulation time: 00 hr 01 min 45 sec)
Heartbeat CPU 0 instructions: 16000089 cycles: 4070837 heartbeat IPC: 3.928 cumulative IPC: 3.93 (Simulation time: 00 hr 01 min 47 sec)
Heartbeat CPU 0 instructions: 16500093 cycles: 4201668 heartbeat IPC: 3.822 cumulative IPC: 3.927 (Simulation time: 00 hr 01 min 50 sec)
Heartbeat CPU 0 instructions: 17000097 cycles: 4329346 heartbeat IPC: 3.916 cumulative IPC: 3.927 (Simulation time: 00 hr 01 min 52 sec)
Heartbeat CPU 0 instructions: 17500098 cycles: 4456333 heartbeat IPC: 3.937 cumulative IPC: 3.927 (Simulation time: 00 hr 01 min 54 sec)
Heartbeat CPU 0 instructions: 18000104 cycles: 4583206 heartbeat IPC: 3.941 cumulative IPC: 3.927 (Simulation time: 00 hr 01 min 57 sec)
Heartbeat CPU 0 instructions: 18500104 cycles: 4709950 heartbeat IPC: 3.945 cumulative IPC: 3.928 (Simulation time: 00 hr 01 min 59 sec)
Heartbeat CPU 0 instructions: 19000109 cycles: 4835664 heartbeat IPC: 3.977 cumulative IPC: 3.929 (Simulation time: 00 hr 02 min 01 sec)
Heartbeat CPU 0 instructions: 19500110 cycles: 4962208 heartbeat IPC: 3.951 cumulative IPC: 3.93 (Simulation time: 00 hr 02 min 03 sec)
Heartbeat CPU 0 instructions: 20000112 cycles: 5088734 heartbeat IPC: 3.952 cumulative IPC: 3.93 (Simulation time: 00 hr 02 min 06 sec)
Heartbeat CPU 0 instructions: 20500113 cycles: 5215039 heartbeat IPC: 3.959 cumulative IPC: 3.931 (Simulation time: 00 hr 02 min 08 sec)
Heartbeat CPU 0 instructions: 21000117 cycles: 5340914 heartbeat IPC: 3.972 cumulative IPC: 3.932 (Simulation time: 00 hr 02 min 10 sec)
Heartbeat CPU 0 instructions: 21500119 cycles: 5467101 heartbeat IPC: 3.962 cumulative IPC: 3.933 (Simulation time: 00 hr 02 min 13 sec)
Heartbeat CPU 0 instructions: 22000123 cycles: 5594262 heartbeat IPC: 3.932 cumulative IPC: 3.933 (Simulation time: 00 hr 02 min 15 sec)
Heartbeat CPU 0 instructions: 22500130 cycles: 5719664 heartbeat IPC: 3.987 cumulative IPC: 3.934 (Simulation time: 00 hr 02 min 17 sec)
Heartbeat CPU 0 instructions: 23000132 cycles: 5846459 heartbeat IPC: 3.943 cumulative IPC: 3.934 (Simulation time: 00 hr 02 min 19 sec)
Heartbeat CPU 0 instructions: 23500135 cycles: 5972799 heartbeat IPC: 3.958 cumulative IPC: 3.935 (Simulation time: 00 hr 02 min 22 sec)
Heartbeat CPU 0 instructions: 24000140 cycles: 6099733 heartbeat IPC: 3.939 cumulative IPC: 3.935 (Simulation time: 00 hr 02 min 24 sec)
Heartbeat CPU 0 instructions: 24500140 cycles: 6225133 heartbeat IPC: 3.987 cumulative IPC: 3.936 (Simulation time: 00 hr 02 min 26 sec)
Heartbeat CPU 0 instructions: 25000140 cycles: 6351906 heartbeat IPC: 3.944 cumulative IPC: 3.936 (Simulation time: 00 hr 02 min 29 sec)
Heartbeat CPU 0 instructions: 25500142 cycles: 6478447 heartbeat IPC: 3.951 cumulative IPC: 3.936 (Simulation time: 00 hr 02 min 31 sec)
Heartbeat CPU 0 instructions: 26000147 cycles: 6604755 heartbeat IPC: 3.959 cumulative IPC: 3.937 (Simulation time: 00 hr 02 min 33 sec)
Heartbeat CPU 0 instructions: 26500147 cycles: 6730015 heartbeat IPC: 3.992 cumulative IPC: 3.938 (Simulation time: 00 hr 02 min 35 sec)
Heartbeat CPU 0 instructions: 27000147 cycles: 6856903 heartbeat IPC: 3.94 cumulative IPC: 3.938 (Simulation time: 00 hr 02 min 38 sec)
Heartbeat CPU 0 instructions: 27500152 cycles: 6983310 heartbeat IPC: 3.956 cumulative IPC: 3.938 (Simulation time: 00 hr 02 min 40 sec)
Heartbeat CPU 0 instructions: 28000152 cycles: 7110096 heartbeat IPC: 3.944 cumulative IPC: 3.938 (Simulation time: 00 hr 02 min 42 sec)
Heartbeat CPU 0 instructions: 28500153 cycles: 7211596 heartbeat IPC: 4.926 cumulative IPC: 3.952 (Simulation time: 00 hr 02 min 44 sec)
Heartbeat CPU 0 instructions: 29000156 cycles: 7311597 heartbeat IPC: 5 cumulative IPC: 3.966 (Simulation time: 00 hr 02 min 46 sec)
Heartbeat CPU 0 instructions: 29500159 cycles: 7411597 heartbeat IPC: 5 cumulative IPC: 3.98 (Simulation time: 00 hr 02 min 47 sec)
Heartbeat CPU 0 instructions: 30000163 cycles: 7511599 heartbeat IPC: 5 cumulative IPC: 3.994 (Simulation time: 00 hr 02 min 49 sec)
Heartbeat CPU 0 instructions: 30500166 cycles: 7611599 heartbeat IPC: 5 cumulative IPC: 4.007 (Simulation time: 00 hr 02 min 50 sec)
Heartbeat CPU 0 instructions: 31000169 cycles: 7711599 heartbeat IPC: 5 cumulative IPC: 4.02 (Simulation time: 00 hr 02 min 52 sec)
Heartbeat CPU 0 instructions: 31500172 cycles: 7811600 heartbeat IPC: 5 cumulative IPC: 4.032 (Simulation time: 00 hr 02 min 54 sec)
Heartbeat CPU 0 instructions: 32000179 cycles: 7911601 heartbeat IPC: 5 cumulative IPC: 4.045 (Simulation time: 00 hr 02 min 55 sec)
Heartbeat CPU 0 instructions: 32500179 cycles: 8011601 heartbeat IPC: 5 cumulative IPC: 4.057 (Simulation time: 00 hr 02 min 57 sec)
Heartbeat CPU 0 instructions: 33000182 cycles: 8111602 heartbeat IPC: 5 cumulative IPC: 4.068 (Simulation time: 00 hr 02 min 59 sec)
Heartbeat CPU 0 instructions: 33500189 cycles: 8211603 heartbeat IPC: 5 cumulative IPC: 4.08 (Simulation time: 00 hr 03 min 00 sec)
Heartbeat CPU 0 instructions: 34000192 cycles: 8311603 heartbeat IPC: 5 cumulative IPC: 4.091 (Simulation time: 00 hr 03 min 02 sec)
Heartbeat CPU 0 instructions: 34500192 cycles: 8411604 heartbeat IPC: 5 cumulative IPC: 4.101 (Simulation time: 00 hr 03 min 03 sec)
Heartbeat CPU 0 instructions: 35000199 cycles: 8511605 heartbeat IPC: 5 cumulative IPC: 4.112 (Simulation time: 00 hr 03 min 05 sec)
Heartbeat CPU 0 instructions: 35500202 cycles: 8611605 heartbeat IPC: 5 cumulative IPC: 4.122 (Simulation time: 00 hr 03 min 07 sec)
Heartbeat CPU 0 instructions: 36000205 cycles: 8711607 heartbeat IPC: 5 cumulative IPC: 4.132 (Simulation time: 00 hr 03 min 08 sec)
Heartbeat CPU 0 instructions: 36500205 cycles: 8811611 heartbeat IPC: 5 cumulative IPC: 4.142 (Simulation time: 00 hr 03 min 10 sec)
Heartbeat CPU 0 instructions: 37000212 cycles: 8911607 heartbeat IPC: 5 cumulative IPC: 4.152 (Simulation time: 00 hr 03 min 12 sec)
Heartbeat CPU 0 instructions: 37500215 cycles: 9011609 heartbeat IPC: 5 cumulative IPC: 4.161 (Simulation time: 00 hr 03 min 13 sec)
Heartbeat CPU 0 instructions: 38000218 cycles: 9111609 heartbeat IPC: 5 cumulative IPC: 4.171 (Simulation time: 00 hr 03 min 15 sec)
Heartbeat CPU 0 instructions: 38500222 cycles: 9211609 heartbeat IPC: 5 cumulative IPC: 4.18 (Simulation time: 00 hr 03 min 16 sec)
Heartbeat CPU 0 instructions: 39000225 cycles: 9311611 heartbeat IPC: 5 cumulative IPC: 4.188 (Simulation time: 00 hr 03 min 18 sec)
Heartbeat CPU 0 instructions: 39500228 cycles: 9411611 heartbeat IPC: 5 cumulative IPC: 4.197 (Simulation time: 00 hr 03 min 20 sec)
Heartbeat CPU 0 instructions: 40000232 cycles: 9511611 heartbeat IPC: 5 cumulative IPC: 4.205 (Simulation time: 00 hr 03 min 21 sec)
Heartbeat CPU 0 instructions: 40500238 cycles: 9611613 heartbeat IPC: 5 cumulative IPC: 4.214 (Simulation time: 00 hr 03 min 23 sec)
Heartbeat CPU 0 instructions: 41000240 cycles: 9711613 heartbeat IPC: 5 cumulative IPC: 4.222 (Simulation time: 00 hr 03 min 25 sec)
Heartbeat CPU 0 instructions: 41500245 cycles: 9811618 heartbeat IPC: 5 cumulative IPC: 4.23 (Simulation time: 00 hr 03 min 26 sec)
Heartbeat CPU 0 instructions: 42000248 cycles: 9911615 heartbeat IPC: 5 cumulative IPC: 4.237 (Simulation time: 00 hr 03 min 28 sec)
Heartbeat CPU 0 instructions: 42500251 cycles: 10011617 heartbeat IPC: 5 cumulative IPC: 4.245 (Simulation time: 00 hr 03 min 29 sec)
Heartbeat CPU 0 instructions: 43000254 cycles: 10111616 heartbeat IPC: 5 cumulative IPC: 4.253 (Simulation time: 00 hr 03 min 31 sec)
Heartbeat CPU 0 instructions: 43500258 cycles: 10211617 heartbeat IPC: 5 cumulative IPC: 4.26 (Simulation time: 00 hr 03 min 33 sec)
Heartbeat CPU 0 instructions: 44000261 cycles: 10311619 heartbeat IPC: 5 cumulative IPC: 4.267 (Simulation time: 00 hr 03 min 34 sec)
Heartbeat CPU 0 instructions: 44500261 cycles: 10411808 heartbeat IPC: 4.991 cumulative IPC: 4.274 (Simulation time: 00 hr 03 min 36 sec)
Heartbeat CPU 0 instructions: 45000261 cycles: 10511810 heartbeat IPC: 5 cumulative IPC: 4.281 (Simulation time: 00 hr 03 min 38 sec)
Heartbeat CPU 0 instructions: 45500261 cycles: 10611808 heartbeat IPC: 5 cumulative IPC: 4.288 (Simulation time: 00 hr 03 min 39 sec)
Heartbeat CPU 0 instructions: 46000268 cycles: 10711810 heartbeat IPC: 5 cumulative IPC: 4.294 (Simulation time: 00 hr 03 min 41 sec)
Heartbeat CPU 0 instructions: 46500274 cycles: 10811811 heartbeat IPC: 5 cumulative IPC: 4.301 (Simulation time: 00 hr 03 min 42 sec)
Heartbeat CPU 0 instructions: 47000277 cycles: 10911812 heartbeat IPC: 5 cumulative IPC: 4.307 (Simulation time: 00 hr 03 min 44 sec)
Heartbeat CPU 0 instructions: 47500278 cycles: 11011817 heartbeat IPC: 5 cumulative IPC: 4.314 (Simulation time: 00 hr 03 min 46 sec)
Heartbeat CPU 0 instructions: 48000282 cycles: 11111817 heartbeat IPC: 5 cumulative IPC: 4.32 (Simulation time: 00 hr 03 min 47 sec)
Heartbeat CPU 0 instructions: 48500286 cycles: 11211814 heartbeat IPC: 5 cumulative IPC: 4.326 (Simulation time: 00 hr 03 min 49 sec)
Heartbeat CPU 0 instructions: 49000288 cycles: 11311814 heartbeat IPC: 5 cumulative IPC: 4.332 (Simulation time: 00 hr 03 min 51 sec)
Heartbeat CPU 0 instructions: 49500292 cycles: 11411816 heartbeat IPC: 5 cumulative IPC: 4.338 (Simulation time: 00 hr 03 min 52 sec)
Warmup halting CPU 0 at instruction 50000006 cycle 11511757 for remainder of phase
Warmup finished CPU 0 instructions: 50000006 cycles: 11511757 cumulative IPC: 4.343 (Simulation time: 00 hr 03 min 54 sec)
Warmup complete CPU 0 instructions: 50000006 cycles: 11511757 cumulative IPC: 4.343 (Simulation time: 00 hr 03 min 54 sec)
Heartbeat CPU 0 instructions: 50000295 cycles: 11512390 heartbeat IPC: 4.971 cumulative IPC: 0.4566 (Simulation time: 00 hr 03 min 54 sec)
Heartbeat CPU 0 instructions: 50500295 cycles: 12227222 heartbeat IPC: 0.6995 cumulative IPC: 0.6993 (Simulation time: 00 hr 04 min 02 sec)
Heartbeat CPU 0 instructions: 51000295 cycles: 12951607 heartbeat IPC: 0.6902 cumulative IPC: 0.6947 (Simulation time: 00 hr 04 min 09 sec)
Heartbeat CPU 0 instructions: 51500296 cycles: 13676866 heartbeat IPC: 0.6894 cumulative IPC: 0.6929 (Simulation time: 00 hr 04 min 17 sec)
Heartbeat CPU 0 instructions: 52000296 cycles: 14418644 heartbeat IPC: 0.6741 cumulative IPC: 0.6881 (Simulation time: 00 hr 04 min 25 sec)
Heartbeat CPU 0 instructions: 52500301 cycles: 15132244 heartbeat IPC: 0.7007 cumulative IPC: 0.6906 (Simulation time: 00 hr 04 min 33 sec)
Heartbeat CPU 0 instructions: 53000301 cycles: 15857079 heartbeat IPC: 0.6898 cumulative IPC: 0.6905 (Simulation time: 00 hr 04 min 40 sec)
Heartbeat CPU 0 instructions: 53500301 cycles: 16588223 heartbeat IPC: 0.6839 cumulative IPC: 0.6895 (Simulation time: 00 hr 04 min 48 sec)
Heartbeat CPU 0 instructions: 54000301 cycles: 17324253 heartbeat IPC: 0.6793 cumulative IPC: 0.6882 (Simulation time: 00 hr 04 min 56 sec)
Heartbeat CPU 0 instructions: 54500301 cycles: 18032042 heartbeat IPC: 0.7064 cumulative IPC: 0.6902 (Simulation time: 00 hr 05 min 04 sec)
Heartbeat CPU 0 instructions: 55000307 cycles: 18751646 heartbeat IPC: 0.6948 cumulative IPC: 0.6907 (Simulation time: 00 hr 05 min 11 sec)
Heartbeat CPU 0 instructions: 55500309 cycles: 19458604 heartbeat IPC: 0.7073 cumulative IPC: 0.6921 (Simulation time: 00 hr 05 min 19 sec)
Heartbeat CPU 0 instructions: 56000310 cycles: 20028132 heartbeat IPC: 0.8779 cumulative IPC: 0.7046 (Simulation time: 00 hr 05 min 25 sec)
Heartbeat CPU 0 instructions: 56500311 cycles: 20520453 heartbeat IPC: 1.016 cumulative IPC: 0.7216 (Simulation time: 00 hr 05 min 31 sec)
Heartbeat CPU 0 instructions: 57000311 cycles: 21217939 heartbeat IPC: 0.7169 cumulative IPC: 0.7212 (Simulation time: 00 hr 05 min 38 sec)
Heartbeat CPU 0 instructions: 57500312 cycles: 21910142 heartbeat IPC: 0.7223 cumulative IPC: 0.7213 (Simulation time: 00 hr 05 min 45 sec)
Heartbeat CPU 0 instructions: 58000317 cycles: 22616016 heartbeat IPC: 0.7083 cumulative IPC: 0.7205 (Simulation time: 00 hr 05 min 53 sec)
Heartbeat CPU 0 instructions: 58500321 cycles: 23336379 heartbeat IPC: 0.6941 cumulative IPC: 0.7189 (Simulation time: 00 hr 06 min 00 sec)
Heartbeat CPU 0 instructions: 59000325 cycles: 24059504 heartbeat IPC: 0.6914 cumulative IPC: 0.7173 (Simulation time: 00 hr 06 min 08 sec)
Heartbeat CPU 0 instructions: 59500327 cycles: 24785346 heartbeat IPC: 0.6889 cumulative IPC: 0.7157 (Simulation time: 00 hr 06 min 15 sec)
Heartbeat CPU 0 instructions: 60000331 cycles: 25512505 heartbeat IPC: 0.6876 cumulative IPC: 0.7143 (Simulation time: 00 hr 06 min 23 sec)
Heartbeat CPU 0 instructions: 60500335 cycles: 26238660 heartbeat IPC: 0.6886 cumulative IPC: 0.713 (Simulation time: 00 hr 06 min 31 sec)
Heartbeat CPU 0 instructions: 61000336 cycles: 26963317 heartbeat IPC: 0.69 cumulative IPC: 0.7119 (Simulation time: 00 hr 06 min 38 sec)
Heartbeat CPU 0 instructions: 61500341 cycles: 27686845 heartbeat IPC: 0.6911 cumulative IPC: 0.711 (Simulation time: 00 hr 06 min 46 sec)
Heartbeat CPU 0 instructions: 62000345 cycles: 28413634 heartbeat IPC: 0.688 cumulative IPC: 0.71 (Simulation time: 00 hr 06 min 53 sec)
Heartbeat CPU 0 instructions: 62500346 cycles: 29139007 heartbeat IPC: 0.6893 cumulative IPC: 0.7091 (Simulation time: 00 hr 07 min 01 sec)
Heartbeat CPU 0 instructions: 63000353 cycles: 29866944 heartbeat IPC: 0.6869 cumulative IPC: 0.7083 (Simulation time: 00 hr 07 min 09 sec)
Heartbeat CPU 0 instructions: 63500356 cycles: 30595633 heartbeat IPC: 0.6862 cumulative IPC: 0.7074 (Simulation time: 00 hr 07 min 16 sec)
Heartbeat CPU 0 instructions: 64000356 cycles: 31321427 heartbeat IPC: 0.6889 cumulative IPC: 0.7067 (Simulation time: 00 hr 07 min 24 sec)
Heartbeat CPU 0 instructions: 64500356 cycles: 32049825 heartbeat IPC: 0.6864 cumulative IPC: 0.706 (Simulation time: 00 hr 07 min 32 sec)
Heartbeat CPU 0 instructions: 65000360 cycles: 32778334 heartbeat IPC: 0.6863 cumulative IPC: 0.7053 (Simulation time: 00 hr 07 min 39 sec)
Heartbeat CPU 0 instructions: 65500364 cycles: 33506627 heartbeat IPC: 0.6865 cumulative IPC: 0.7047 (Simulation time: 00 hr 07 min 47 sec)
Heartbeat CPU 0 instructions: 66000366 cycles: 34234385 heartbeat IPC: 0.687 cumulative IPC: 0.7042 (Simulation time: 00 hr 07 min 54 sec)
Heartbeat CPU 0 instructions: 66500370 cycles: 34961004 heartbeat IPC: 0.6881 cumulative IPC: 0.7037 (Simulation time: 00 hr 08 min 02 sec)
Heartbeat CPU 0 instructions: 67000371 cycles: 35688481 heartbeat IPC: 0.6873 cumulative IPC: 0.7032 (Simulation time: 00 hr 08 min 10 sec)
Heartbeat CPU 0 instructions: 67500371 cycles: 36415115 heartbeat IPC: 0.6881 cumulative IPC: 0.7027 (Simulation time: 00 hr 08 min 17 sec)
Heartbeat CPU 0 instructions: 68000372 cycles: 37142942 heartbeat IPC: 0.687 cumulative IPC: 0.7023 (Simulation time: 00 hr 08 min 25 sec)
Heartbeat CPU 0 instructions: 68500377 cycles: 37868706 heartbeat IPC: 0.6889 cumulative IPC: 0.7019 (Simulation time: 00 hr 08 min 33 sec)
Heartbeat CPU 0 instructions: 69000381 cycles: 38598859 heartbeat IPC: 0.6848 cumulative IPC: 0.7015 (Simulation time: 00 hr 08 min 40 sec)
Heartbeat CPU 0 instructions: 69500385 cycles: 39327296 heartbeat IPC: 0.6864 cumulative IPC: 0.7011 (Simulation time: 00 hr 08 min 48 sec)
Heartbeat CPU 0 instructions: 70000386 cycles: 40056035 heartbeat IPC: 0.6861 cumulative IPC: 0.7007 (Simulation time: 00 hr 08 min 55 sec)
Heartbeat CPU 0 instructions: 70500391 cycles: 40783119 heartbeat IPC: 0.6877 cumulative IPC: 0.7004 (Simulation time: 00 hr 09 min 03 sec)
Heartbeat CPU 0 instructions: 71000395 cycles: 41510184 heartbeat IPC: 0.6877 cumulative IPC: 0.7 (Simulation time: 00 hr 09 min 11 sec)
Heartbeat CPU 0 instructions: 71500396 cycles: 42240257 heartbeat IPC: 0.6849 cumulative IPC: 0.6997 (Simulation time: 00 hr 09 min 18 sec)
Heartbeat CPU 0 instructions: 72000396 cycles: 42966955 heartbeat IPC: 0.688 cumulative IPC: 0.6994 (Simulation time: 00 hr 09 min 26 sec)
Heartbeat CPU 0 instructions: 72500397 cycles: 43707796 heartbeat IPC: 0.6749 cumulative IPC: 0.6989 (Simulation time: 00 hr 09 min 34 sec)
Heartbeat CPU 0 instructions: 73000403 cycles: 44423516 heartbeat IPC: 0.6986 cumulative IPC: 0.6989 (Simulation time: 00 hr 09 min 41 sec)
Heartbeat CPU 0 instructions: 73500406 cycles: 45142001 heartbeat IPC: 0.6959 cumulative IPC: 0.6988 (Simulation time: 00 hr 09 min 49 sec)
Heartbeat CPU 0 instructions: 74000411 cycles: 45860606 heartbeat IPC: 0.6958 cumulative IPC: 0.6987 (Simulation time: 00 hr 09 min 56 sec)
Heartbeat CPU 0 instructions: 74500412 cycles: 46598542 heartbeat IPC: 0.6776 cumulative IPC: 0.6983 (Simulation time: 00 hr 10 min 04 sec)
Heartbeat CPU 0 instructions: 75000414 cycles: 47308756 heartbeat IPC: 0.704 cumulative IPC: 0.6984 (Simulation time: 00 hr 10 min 12 sec)
Heartbeat CPU 0 instructions: 75500419 cycles: 48029675 heartbeat IPC: 0.6936 cumulative IPC: 0.6983 (Simulation time: 00 hr 10 min 19 sec)
Heartbeat CPU 0 instructions: 76000423 cycles: 48759180 heartbeat IPC: 0.6854 cumulative IPC: 0.698 (Simulation time: 00 hr 10 min 27 sec)
Heartbeat CPU 0 instructions: 76500424 cycles: 49486664 heartbeat IPC: 0.6873 cumulative IPC: 0.6978 (Simulation time: 00 hr 10 min 35 sec)
Heartbeat CPU 0 instructions: 77000428 cycles: 50190650 heartbeat IPC: 0.7102 cumulative IPC: 0.6981 (Simulation time: 00 hr 10 min 42 sec)
Heartbeat CPU 0 instructions: 77500433 cycles: 50911005 heartbeat IPC: 0.6941 cumulative IPC: 0.698 (Simulation time: 00 hr 10 min 50 sec)
Heartbeat CPU 0 instructions: 78000435 cycles: 51642227 heartbeat IPC: 0.6838 cumulative IPC: 0.6977 (Simulation time: 00 hr 10 min 58 sec)
Heartbeat CPU 0 instructions: 78500438 cycles: 52351906 heartbeat IPC: 0.7045 cumulative IPC: 0.6979 (Simulation time: 00 hr 11 min 05 sec)
Heartbeat CPU 0 instructions: 79000443 cycles: 53075245 heartbeat IPC: 0.6912 cumulative IPC: 0.6977 (Simulation time: 00 hr 11 min 13 sec)
Heartbeat CPU 0 instructions: 79500444 cycles: 53797675 heartbeat IPC: 0.6921 cumulative IPC: 0.6976 (Simulation time: 00 hr 11 min 20 sec)
Heartbeat CPU 0 instructions: 80000449 cycles: 54538085 heartbeat IPC: 0.6753 cumulative IPC: 0.6973 (Simulation time: 00 hr 11 min 28 sec)
Heartbeat CPU 0 instructions: 80500450 cycles: 55248604 heartbeat IPC: 0.7037 cumulative IPC: 0.6974 (Simulation time: 00 hr 11 min 36 sec)
Heartbeat CPU 0 instructions: 81000452 cycles: 55967617 heartbeat IPC: 0.6954 cumulative IPC: 0.6973 (Simulation time: 00 hr 11 min 43 sec)
Heartbeat CPU 0 instructions: 81500458 cycles: 56691894 heartbeat IPC: 0.6904 cumulative IPC: 0.6972 (Simulation time: 00 hr 11 min 51 sec)
Heartbeat CPU 0 instructions: 82000463 cycles: 57423599 heartbeat IPC: 0.6833 cumulative IPC: 0.697 (Simulation time: 00 hr 11 min 59 sec)
Heartbeat CPU 0 instructions: 82500464 cycles: 58133304 heartbeat IPC: 0.7045 cumulative IPC: 0.6971 (Simulation time: 00 hr 12 min 06 sec)
Heartbeat CPU 0 instructions: 83000469 cycles: 58850777 heartbeat IPC: 0.6969 cumulative IPC: 0.6971 (Simulation time: 00 hr 12 min 14 sec)
Heartbeat CPU 0 instructions: 83500472 cycles: 59560256 heartbeat IPC: 0.7047 cumulative IPC: 0.6972 (Simulation time: 00 hr 12 min 22 sec)
Heartbeat CPU 0 instructions: 84000475 cycles: 60157479 heartbeat IPC: 0.8372 cumulative IPC: 0.6989 (Simulation time: 00 hr 12 min 29 sec)
Heartbeat CPU 0 instructions: 84500475 cycles: 60632435 heartbeat IPC: 1.053 cumulative IPC: 0.7024 (Simulation time: 00 hr 12 min 35 sec)
Heartbeat CPU 0 instructions: 85000476 cycles: 61333852 heartbeat IPC: 0.7128 cumulative IPC: 0.7025 (Simulation time: 00 hr 12 min 43 sec)
Heartbeat CPU 0 instructions: 85500481 cycles: 62025636 heartbeat IPC: 0.7228 cumulative IPC: 0.7028 (Simulation time: 00 hr 12 min 50 sec)
Heartbeat CPU 0 instructions: 86000485 cycles: 62726875 heartbeat IPC: 0.713 cumulative IPC: 0.7029 (Simulation time: 00 hr 12 min 57 sec)
Heartbeat CPU 0 instructions: 86500489 cycles: 63442434 heartbeat IPC: 0.6988 cumulative IPC: 0.7029 (Simulation time: 00 hr 13 min 05 sec)
Heartbeat CPU 0 instructions: 87000494 cycles: 64163609 heartbeat IPC: 0.6933 cumulative IPC: 0.7027 (Simulation time: 00 hr 13 min 12 sec)
Heartbeat CPU 0 instructions: 87500495 cycles: 64884375 heartbeat IPC: 0.6937 cumulative IPC: 0.7026 (Simulation time: 00 hr 13 min 20 sec)
Heartbeat CPU 0 instructions: 88000499 cycles: 65607904 heartbeat IPC: 0.6911 cumulative IPC: 0.7025 (Simulation time: 00 hr 13 min 27 sec)
Heartbeat CPU 0 instructions: 88500503 cycles: 66329959 heartbeat IPC: 0.6925 cumulative IPC: 0.7023 (Simulation time: 00 hr 13 min 35 sec)
Heartbeat CPU 0 instructions: 89000507 cycles: 67055326 heartbeat IPC: 0.6893 cumulative IPC: 0.7022 (Simulation time: 00 hr 13 min 42 sec)
Heartbeat CPU 0 instructions: 89500509 cycles: 67777934 heartbeat IPC: 0.6919 cumulative IPC: 0.702 (Simulation time: 00 hr 13 min 50 sec)
Heartbeat CPU 0 instructions: 90000513 cycles: 68503153 heartbeat IPC: 0.6895 cumulative IPC: 0.7019 (Simulation time: 00 hr 13 min 57 sec)
Heartbeat CPU 0 instructions: 90500517 cycles: 69227836 heartbeat IPC: 0.69 cumulative IPC: 0.7017 (Simulation time: 00 hr 14 min 05 sec)
Heartbeat CPU 0 instructions: 91000521 cycles: 69951105 heartbeat IPC: 0.6913 cumulative IPC: 0.7016 (Simulation time: 00 hr 14 min 13 sec)
Heartbeat CPU 0 instructions: 91500523 cycles: 70677736 heartbeat IPC: 0.6881 cumulative IPC: 0.7014 (Simulation time: 00 hr 14 min 20 sec)
Heartbeat CPU 0 instructions: 92000527 cycles: 71402066 heartbeat IPC: 0.6903 cumulative IPC: 0.7013 (Simulation time: 00 hr 14 min 28 sec)
Heartbeat CPU 0 instructions: 92500531 cycles: 72126455 heartbeat IPC: 0.6902 cumulative IPC: 0.7012 (Simulation time: 00 hr 14 min 35 sec)
Heartbeat CPU 0 instructions: 93000535 cycles: 72850914 heartbeat IPC: 0.6902 cumulative IPC: 0.701 (Simulation time: 00 hr 14 min 42 sec)
Heartbeat CPU 0 instructions: 93500536 cycles: 73579868 heartbeat IPC: 0.6859 cumulative IPC: 0.7009 (Simulation time: 00 hr 14 min 50 sec)
Heartbeat CPU 0 instructions: 94000541 cycles: 74301475 heartbeat IPC: 0.6929 cumulative IPC: 0.7008 (Simulation time: 00 hr 14 min 57 sec)
Heartbeat CPU 0 instructions: 94500545 cycles: 75025744 heartbeat IPC: 0.6904 cumulative IPC: 0.7006 (Simulation time: 00 hr 15 min 05 sec)
Heartbeat CPU 0 instructions: 95000546 cycles: 75752057 heartbeat IPC: 0.6884 cumulative IPC: 0.7005 (Simulation time: 00 hr 15 min 12 sec)
Heartbeat CPU 0 instructions: 95500546 cycles: 76477465 heartbeat IPC: 0.6893 cumulative IPC: 0.7004 (Simulation time: 00 hr 15 min 20 sec)
Heartbeat CPU 0 instructions: 96000548 cycles: 77201567 heartbeat IPC: 0.6905 cumulative IPC: 0.7003 (Simulation time: 00 hr 15 min 27 sec)
Heartbeat CPU 0 instructions: 96500552 cycles: 77925476 heartbeat IPC: 0.6907 cumulative IPC: 0.7002 (Simulation time: 00 hr 15 min 35 sec)
Heartbeat CPU 0 instructions: 97000556 cycles: 78650015 heartbeat IPC: 0.6901 cumulative IPC: 0.7001 (Simulation time: 00 hr 15 min 42 sec)
Heartbeat CPU 0 instructions: 97500560 cycles: 79378024 heartbeat IPC: 0.6868 cumulative IPC: 0.6999 (Simulation time: 00 hr 15 min 50 sec)
Heartbeat CPU 0 instructions: 98000561 cycles: 80101515 heartbeat IPC: 0.6911 cumulative IPC: 0.6998 (Simulation time: 00 hr 15 min 57 sec)
Heartbeat CPU 0 instructions: 98500566 cycles: 80826385 heartbeat IPC: 0.6898 cumulative IPC: 0.6997 (Simulation time: 00 hr 16 min 05 sec)
Heartbeat CPU 0 instructions: 99000570 cycles: 81553734 heartbeat IPC: 0.6874 cumulative IPC: 0.6996 (Simulation time: 00 hr 16 min 12 sec)
Heartbeat CPU 0 instructions: 99500571 cycles: 82277727 heartbeat IPC: 0.6906 cumulative IPC: 0.6995 (Simulation time: 00 hr 16 min 20 sec)
Heartbeat CPU 0 instructions: 100000571 cycles: 83001305 heartbeat IPC: 0.691 cumulative IPC: 0.6994 (Simulation time: 00 hr 16 min 27 sec)
Heartbeat CPU 0 instructions: 100500573 cycles: 83740744 heartbeat IPC: 0.6762 cumulative IPC: 0.6992 (Simulation time: 00 hr 16 min 35 sec)
Heartbeat CPU 0 instructions: 101000575 cycles: 84450542 heartbeat IPC: 0.7044 cumulative IPC: 0.6992 (Simulation time: 00 hr 16 min 43 sec)
Heartbeat CPU 0 instructions: 101500578 cycles: 85170647 heartbeat IPC: 0.6943 cumulative IPC: 0.6992 (Simulation time: 00 hr 16 min 50 sec)
Heartbeat CPU 0 instructions: 102000578 cycles: 85886664 heartbeat IPC: 0.6983 cumulative IPC: 0.6992 (Simulation time: 00 hr 16 min 58 sec)
Heartbeat CPU 0 instructions: 102500579 cycles: 86622484 heartbeat IPC: 0.6795 cumulative IPC: 0.699 (Simulation time: 00 hr 17 min 06 sec)
Heartbeat CPU 0 instructions: 103000579 cycles: 87329487 heartbeat IPC: 0.7072 cumulative IPC: 0.6991 (Simulation time: 00 hr 17 min 13 sec)
Heartbeat CPU 0 instructions: 103500580 cycles: 88051425 heartbeat IPC: 0.6926 cumulative IPC: 0.699 (Simulation time: 00 hr 17 min 21 sec)
Heartbeat CPU 0 instructions: 104000586 cycles: 88777476 heartbeat IPC: 0.6887 cumulative IPC: 0.6989 (Simulation time: 00 hr 17 min 28 sec)
Heartbeat CPU 0 instructions: 104500586 cycles: 89507313 heartbeat IPC: 0.6851 cumulative IPC: 0.6988 (Simulation time: 00 hr 17 min 36 sec)
Heartbeat CPU 0 instructions: 105000588 cycles: 90214480 heartbeat IPC: 0.707 cumulative IPC: 0.6988 (Simulation time: 00 hr 17 min 44 sec)
Heartbeat CPU 0 instructions: 105500593 cycles: 90934125 heartbeat IPC: 0.6948 cumulative IPC: 0.6988 (Simulation time: 00 hr 17 min 51 sec)
Heartbeat CPU 0 instructions: 106000594 cycles: 91665830 heartbeat IPC: 0.6833 cumulative IPC: 0.6987 (Simulation time: 00 hr 17 min 59 sec)
Heartbeat CPU 0 instructions: 106500601 cycles: 92382438 heartbeat IPC: 0.6977 cumulative IPC: 0.6987 (Simulation time: 00 hr 18 min 07 sec)
Heartbeat CPU 0 instructions: 107000601 cycles: 93096806 heartbeat IPC: 0.6999 cumulative IPC: 0.6987 (Simulation time: 00 hr 18 min 14 sec)
Heartbeat CPU 0 instructions: 107500602 cycles: 93813338 heartbeat IPC: 0.6978 cumulative IPC: 0.6987 (Simulation time: 00 hr 18 min 22 sec)
Heartbeat CPU 0 instructions: 108000605 cycles: 94552104 heartbeat IPC: 0.6768 cumulative IPC: 0.6985 (Simulation time: 00 hr 18 min 30 sec)
Heartbeat CPU 0 instructions: 108500608 cycles: 95267027 heartbeat IPC: 0.6994 cumulative IPC: 0.6985 (Simulation time: 00 hr 18 min 38 sec)
Heartbeat CPU 0 instructions: 109000609 cycles: 95986656 heartbeat IPC: 0.6948 cumulative IPC: 0.6984 (Simulation time: 00 hr 18 min 45 sec)
Heartbeat CPU 0 instructions: 109500610 cycles: 96706507 heartbeat IPC: 0.6946 cumulative IPC: 0.6984 (Simulation time: 00 hr 18 min 53 sec)
Heartbeat CPU 0 instructions: 110000610 cycles: 97439583 heartbeat IPC: 0.6821 cumulative IPC: 0.6983 (Simulation time: 00 hr 19 min 01 sec)
Heartbeat CPU 0 instructions: 110500616 cycles: 98148175 heartbeat IPC: 0.7056 cumulative IPC: 0.6983 (Simulation time: 00 hr 19 min 08 sec)
Heartbeat CPU 0 instructions: 111000622 cycles: 98864626 heartbeat IPC: 0.6979 cumulative IPC: 0.6983 (Simulation time: 00 hr 19 min 16 sec)
Heartbeat CPU 0 instructions: 111500628 cycles: 99575274 heartbeat IPC: 0.7036 cumulative IPC: 0.6984 (Simulation time: 00 hr 19 min 23 sec)
Heartbeat CPU 0 instructions: 112000630 cycles: 100192594 heartbeat IPC: 0.81 cumulative IPC: 0.6991 (Simulation time: 00 hr 19 min 30 sec)
Heartbeat CPU 0 instructions: 112500631 cycles: 100647797 heartbeat IPC: 1.098 cumulative IPC: 0.7012 (Simulation time: 00 hr 19 min 35 sec)
Heartbeat CPU 0 instructions: 113000638 cycles: 101348564 heartbeat IPC: 0.7135 cumulative IPC: 0.7013 (Simulation time: 00 hr 19 min 42 sec)
Heartbeat CPU 0 instructions: 113500640 cycles: 102041804 heartbeat IPC: 0.7213 cumulative IPC: 0.7014 (Simulation time: 00 hr 19 min 49 sec)
Heartbeat CPU 0 instructions: 114000641 cycles: 102740857 heartbeat IPC: 0.7153 cumulative IPC: 0.7015 (Simulation time: 00 hr 19 min 57 sec)
Heartbeat CPU 0 instructions: 114500641 cycles: 103457145 heartbeat IPC: 0.698 cumulative IPC: 0.7015 (Simulation time: 00 hr 20 min 04 sec)
Heartbeat CPU 0 instructions: 115000643 cycles: 104178023 heartbeat IPC: 0.6936 cumulative IPC: 0.7014 (Simulation time: 00 hr 20 min 12 sec)
Heartbeat CPU 0 instructions: 115500647 cycles: 104901546 heartbeat IPC: 0.6911 cumulative IPC: 0.7014 (Simulation time: 00 hr 20 min 19 sec)
Heartbeat CPU 0 instructions: 116000651 cycles: 105626025 heartbeat IPC: 0.6902 cumulative IPC: 0.7013 (Simulation time: 00 hr 20 min 27 sec)
Heartbeat CPU 0 instructions: 116500655 cycles: 106349374 heartbeat IPC: 0.6912 cumulative IPC: 0.7012 (Simulation time: 00 hr 20 min 34 sec)
Heartbeat CPU 0 instructions: 117000659 cycles: 107070695 heartbeat IPC: 0.6932 cumulative IPC: 0.7011 (Simulation time: 00 hr 20 min 42 sec)
Heartbeat CPU 0 instructions: 117500659 cycles: 107793924 heartbeat IPC: 0.6913 cumulative IPC: 0.7011 (Simulation time: 00 hr 20 min 49 sec)
Heartbeat CPU 0 instructions: 118000665 cycles: 108515798 heartbeat IPC: 0.6926 cumulative IPC: 0.701 (Simulation time: 00 hr 20 min 57 sec)
Heartbeat CPU 0 instructions: 118500666 cycles: 109235657 heartbeat IPC: 0.6946 cumulative IPC: 0.701 (Simulation time: 00 hr 21 min 04 sec)
Heartbeat CPU 0 instructions: 119000666 cycles: 109960275 heartbeat IPC: 0.69 cumulative IPC: 0.7009 (Simulation time: 00 hr 21 min 12 sec)
Heartbeat CPU 0 instructions: 119500670 cycles: 110686304 heartbeat IPC: 0.6887 cumulative IPC: 0.7008 (Simulation time: 00 hr 21 min 19 sec)
Heartbeat CPU 0 instructions: 120000672 cycles: 111410516 heartbeat IPC: 0.6904 cumulative IPC: 0.7007 (Simulation time: 00 hr 21 min 27 sec)
Heartbeat CPU 0 instructions: 120500676 cycles: 112136585 heartbeat IPC: 0.6886 cumulative IPC: 0.7006 (Simulation time: 00 hr 21 min 34 sec)
Heartbeat CPU 0 instructions: 121000680 cycles: 112863534 heartbeat IPC: 0.6878 cumulative IPC: 0.7005 (Simulation time: 00 hr 21 min 42 sec)
Heartbeat CPU 0 instructions: 121500684 cycles: 113586207 heartbeat IPC: 0.6919 cumulative IPC: 0.7005 (Simulation time: 00 hr 21 min 49 sec)
Heartbeat CPU 0 instructions: 122000686 cycles: 114309817 heartbeat IPC: 0.691 cumulative IPC: 0.7004 (Simulation time: 00 hr 21 min 57 sec)
Heartbeat CPU 0 instructions: 122500690 cycles: 115036484 heartbeat IPC: 0.6881 cumulative IPC: 0.7003 (Simulation time: 00 hr 22 min 04 sec)
Heartbeat CPU 0 instructions: 123000691 cycles: 115759867 heartbeat IPC: 0.6912 cumulative IPC: 0.7003 (Simulation time: 00 hr 22 min 12 sec)
Heartbeat CPU 0 instructions: 123500691 cycles: 116484155 heartbeat IPC: 0.6903 cumulative IPC: 0.7002 (Simulation time: 00 hr 22 min 19 sec)
Heartbeat CPU 0 instructions: 124000693 cycles: 117209192 heartbeat IPC: 0.6896 cumulative IPC: 0.7001 (Simulation time: 00 hr 22 min 27 sec)
Heartbeat CPU 0 instructions: 124500697 cycles: 117934146 heartbeat IPC: 0.6897 cumulative IPC: 0.7 (Simulation time: 00 hr 22 min 34 sec)
Heartbeat CPU 0 instructions: 125000701 cycles: 118655935 heartbeat IPC: 0.6927 cumulative IPC: 0.7 (Simulation time: 00 hr 22 min 42 sec)
Heartbeat CPU 0 instructions: 125500705 cycles: 119380344 heartbeat IPC: 0.6902 cumulative IPC: 0.6999 (Simulation time: 00 hr 22 min 49 sec)
Heartbeat CPU 0 instructions: 126000709 cycles: 120104747 heartbeat IPC: 0.6902 cumulative IPC: 0.6999 (Simulation time: 00 hr 22 min 57 sec)
Heartbeat CPU 0 instructions: 126500711 cycles: 120826957 heartbeat IPC: 0.6923 cumulative IPC: 0.6998 (Simulation time: 00 hr 23 min 04 sec)
Heartbeat CPU 0 instructions: 127000715 cycles: 121553344 heartbeat IPC: 0.6883 cumulative IPC: 0.6997 (Simulation time: 00 hr 23 min 12 sec)
Heartbeat CPU 0 instructions: 127500716 cycles: 122277889 heartbeat IPC: 0.6901 cumulative IPC: 0.6997 (Simulation time: 00 hr 23 min 19 sec)
Heartbeat CPU 0 instructions: 128000716 cycles: 123002675 heartbeat IPC: 0.6899 cumulative IPC: 0.6996 (Simulation time: 00 hr 23 min 27 sec)
Heartbeat CPU 0 instructions: 128500719 cycles: 123742228 heartbeat IPC: 0.6761 cumulative IPC: 0.6995 (Simulation time: 00 hr 23 min 34 sec)
Heartbeat CPU 0 instructions: 129000719 cycles: 124454063 heartbeat IPC: 0.7024 cumulative IPC: 0.6995 (Simulation time: 00 hr 23 min 42 sec)
Heartbeat CPU 0 instructions: 129500720 cycles: 125188367 heartbeat IPC: 0.6809 cumulative IPC: 0.6994 (Simulation time: 00 hr 23 min 50 sec)
Heartbeat CPU 0 instructions: 130000723 cycles: 125911965 heartbeat IPC: 0.691 cumulative IPC: 0.6993 (Simulation time: 00 hr 23 min 57 sec)
Heartbeat CPU 0 instructions: 130500727 cycles: 126648416 heartbeat IPC: 0.6789 cumulative IPC: 0.6992 (Simulation time: 00 hr 24 min 05 sec)
Heartbeat CPU 0 instructions: 131000729 cycles: 127363322 heartbeat IPC: 0.6994 cumulative IPC: 0.6992 (Simulation time: 00 hr 24 min 13 sec)
Heartbeat CPU 0 instructions: 131500729 cycles: 128084214 heartbeat IPC: 0.6936 cumulative IPC: 0.6991 (Simulation time: 00 hr 24 min 20 sec)
Heartbeat CPU 0 instructions: 132000729 cycles: 128807792 heartbeat IPC: 0.691 cumulative IPC: 0.6991 (Simulation time: 00 hr 24 min 28 sec)
Heartbeat CPU 0 instructions: 132500730 cycles: 129536895 heartbeat IPC: 0.6858 cumulative IPC: 0.699 (Simulation time: 00 hr 24 min 36 sec)
Heartbeat CPU 0 instructions: 133000735 cycles: 130239586 heartbeat IPC: 0.7116 cumulative IPC: 0.6991 (Simulation time: 00 hr 24 min 43 sec)
Heartbeat CPU 0 instructions: 133500740 cycles: 130956185 heartbeat IPC: 0.6977 cumulative IPC: 0.6991 (Simulation time: 00 hr 24 min 50 sec)
Heartbeat CPU 0 instructions: 134000746 cycles: 131681911 heartbeat IPC: 0.689 cumulative IPC: 0.699 (Simulation time: 00 hr 24 min 58 sec)
Heartbeat CPU 0 instructions: 134500752 cycles: 132409927 heartbeat IPC: 0.6868 cumulative IPC: 0.6989 (Simulation time: 00 hr 25 min 06 sec)
Heartbeat CPU 0 instructions: 135000756 cycles: 133119684 heartbeat IPC: 0.7045 cumulative IPC: 0.699 (Simulation time: 00 hr 25 min 13 sec)
Heartbeat CPU 0 instructions: 135500758 cycles: 133852977 heartbeat IPC: 0.6819 cumulative IPC: 0.6989 (Simulation time: 00 hr 25 min 21 sec)
Heartbeat CPU 0 instructions: 136000763 cycles: 134596401 heartbeat IPC: 0.6726 cumulative IPC: 0.6987 (Simulation time: 00 hr 25 min 29 sec)
Heartbeat CPU 0 instructions: 136500767 cycles: 135306871 heartbeat IPC: 0.7038 cumulative IPC: 0.6987 (Simulation time: 00 hr 25 min 36 sec)
Heartbeat CPU 0 instructions: 137000767 cycles: 136027937 heartbeat IPC: 0.6934 cumulative IPC: 0.6987 (Simulation time: 00 hr 25 min 43 sec)
Heartbeat CPU 0 instructions: 137500771 cycles: 136742146 heartbeat IPC: 0.7001 cumulative IPC: 0.6987 (Simulation time: 00 hr 25 min 51 sec)
Heartbeat CPU 0 instructions: 138000777 cycles: 137478094 heartbeat IPC: 0.6794 cumulative IPC: 0.6986 (Simulation time: 00 hr 25 min 59 sec)
Heartbeat CPU 0 instructions: 138500778 cycles: 138181544 heartbeat IPC: 0.7108 cumulative IPC: 0.6987 (Simulation time: 00 hr 26 min 06 sec)
Heartbeat CPU 0 instructions: 139000783 cycles: 138897797 heartbeat IPC: 0.6981 cumulative IPC: 0.6987 (Simulation time: 00 hr 26 min 13 sec)
Heartbeat CPU 0 instructions: 139500785 cycles: 139610679 heartbeat IPC: 0.7014 cumulative IPC: 0.6987 (Simulation time: 00 hr 26 min 21 sec)
Heartbeat CPU 0 instructions: 140000785 cycles: 140252555 heartbeat IPC: 0.779 cumulative IPC: 0.6991 (Simulation time: 00 hr 26 min 28 sec)
Heartbeat CPU 0 instructions: 140500789 cycles: 140702044 heartbeat IPC: 1.112 cumulative IPC: 0.7005 (Simulation time: 00 hr 26 min 33 sec)
Heartbeat CPU 0 instructions: 141000794 cycles: 141405309 heartbeat IPC: 0.711 cumulative IPC: 0.7006 (Simulation time: 00 hr 26 min 40 sec)
Heartbeat CPU 0 instructions: 141500797 cycles: 142094720 heartbeat IPC: 0.7253 cumulative IPC: 0.7007 (Simulation time: 00 hr 26 min 47 sec)
Heartbeat CPU 0 instructions: 142000799 cycles: 142789304 heartbeat IPC: 0.7199 cumulative IPC: 0.7008 (Simulation time: 00 hr 26 min 54 sec)
Heartbeat CPU 0 instructions: 142500800 cycles: 143504247 heartbeat IPC: 0.6994 cumulative IPC: 0.7008 (Simulation time: 00 hr 27 min 01 sec)
Heartbeat CPU 0 instructions: 143000807 cycles: 144224033 heartbeat IPC: 0.6947 cumulative IPC: 0.7008 (Simulation time: 00 hr 27 min 08 sec)
Heartbeat CPU 0 instructions: 143500811 cycles: 144947805 heartbeat IPC: 0.6908 cumulative IPC: 0.7007 (Simulation time: 00 hr 27 min 16 sec)
Heartbeat CPU 0 instructions: 144000813 cycles: 145670735 heartbeat IPC: 0.6916 cumulative IPC: 0.7007 (Simulation time: 00 hr 27 min 23 sec)
Heartbeat CPU 0 instructions: 144500817 cycles: 146392536 heartbeat IPC: 0.6927 cumulative IPC: 0.7006 (Simulation time: 00 hr 27 min 30 sec)
Heartbeat CPU 0 instructions: 145000821 cycles: 147112525 heartbeat IPC: 0.6945 cumulative IPC: 0.7006 (Simulation time: 00 hr 27 min 38 sec)
Heartbeat CPU 0 instructions: 145500825 cycles: 147834614 heartbeat IPC: 0.6924 cumulative IPC: 0.7005 (Simulation time: 00 hr 27 min 45 sec)
Heartbeat CPU 0 instructions: 146000826 cycles: 148557271 heartbeat IPC: 0.6919 cumulative IPC: 0.7005 (Simulation time: 00 hr 27 min 52 sec)
Heartbeat CPU 0 instructions: 146500831 cycles: 149277807 heartbeat IPC: 0.6939 cumulative IPC: 0.7005 (Simulation time: 00 hr 27 min 59 sec)
Heartbeat CPU 0 instructions: 147000835 cycles: 150000184 heartbeat IPC: 0.6922 cumulative IPC: 0.7004 (Simulation time: 00 hr 28 min 07 sec)
Heartbeat CPU 0 instructions: 147500836 cycles: 150725232 heartbeat IPC: 0.6896 cumulative IPC: 0.7004 (Simulation time: 00 hr 28 min 14 sec)
Heartbeat CPU 0 instructions: 148000836 cycles: 151448975 heartbeat IPC: 0.6909 cumulative IPC: 0.7003 (Simulation time: 00 hr 28 min 21 sec)
Heartbeat CPU 0 instructions: 148500837 cycles: 152171882 heartbeat IPC: 0.6917 cumulative IPC: 0.7003 (Simulation time: 00 hr 28 min 28 sec)
Heartbeat CPU 0 instructions: 149000842 cycles: 152896436 heartbeat IPC: 0.6901 cumulative IPC: 0.7002 (Simulation time: 00 hr 28 min 36 sec)
Heartbeat CPU 0 instructions: 149500846 cycles: 153618145 heartbeat IPC: 0.6928 cumulative IPC: 0.7002 (Simulation time: 00 hr 28 min 43 sec)
Heartbeat CPU 0 instructions: 150000850 cycles: 154341944 heartbeat IPC: 0.6908 cumulative IPC: 0.7001 (Simulation time: 00 hr 28 min 50 sec)
Heartbeat CPU 0 instructions: 150500852 cycles: 155066736 heartbeat IPC: 0.6899 cumulative IPC: 0.7001 (Simulation time: 00 hr 28 min 57 sec)
Heartbeat CPU 0 instructions: 151000856 cycles: 155790355 heartbeat IPC: 0.691 cumulative IPC: 0.7 (Simulation time: 00 hr 29 min 05 sec)
Heartbeat CPU 0 instructions: 151500860 cycles: 156514714 heartbeat IPC: 0.6903 cumulative IPC: 0.7 (Simulation time: 00 hr 29 min 12 sec)
Heartbeat CPU 0 instructions: 152000861 cycles: 157239237 heartbeat IPC: 0.6901 cumulative IPC: 0.6999 (Simulation time: 00 hr 29 min 19 sec)
Heartbeat CPU 0 instructions: 152500868 cycles: 157962218 heartbeat IPC: 0.6916 cumulative IPC: 0.6999 (Simulation time: 00 hr 29 min 26 sec)
Heartbeat CPU 0 instructions: 153000870 cycles: 158683984 heartbeat IPC: 0.6927 cumulative IPC: 0.6999 (Simulation time: 00 hr 29 min 34 sec)
Heartbeat CPU 0 instructions: 153500871 cycles: 159411967 heartbeat IPC: 0.6868 cumulative IPC: 0.6998 (Simulation time: 00 hr 29 min 41 sec)
Heartbeat CPU 0 instructions: 154000878 cycles: 160135889 heartbeat IPC: 0.6907 cumulative IPC: 0.6998 (Simulation time: 00 hr 29 min 48 sec)
Heartbeat CPU 0 instructions: 154500882 cycles: 160857565 heartbeat IPC: 0.6928 cumulative IPC: 0.6997 (Simulation time: 00 hr 29 min 55 sec)
Heartbeat CPU 0 instructions: 155000883 cycles: 161581222 heartbeat IPC: 0.6909 cumulative IPC: 0.6997 (Simulation time: 00 hr 30 min 02 sec)
Heartbeat CPU 0 instructions: 155500888 cycles: 162303396 heartbeat IPC: 0.6924 cumulative IPC: 0.6996 (Simulation time: 00 hr 30 min 10 sec)
Heartbeat CPU 0 instructions: 156000892 cycles: 163027807 heartbeat IPC: 0.6902 cumulative IPC: 0.6996 (Simulation time: 00 hr 30 min 17 sec)
Heartbeat CPU 0 instructions: 156500896 cycles: 163755984 heartbeat IPC: 0.6867 cumulative IPC: 0.6995 (Simulation time: 00 hr 30 min 24 sec)
Heartbeat CPU 0 instructions: 157000896 cycles: 164495563 heartbeat IPC: 0.6761 cumulative IPC: 0.6994 (Simulation time: 00 hr 30 min 31 sec)
Heartbeat CPU 0 instructions: 157500901 cycles: 165210810 heartbeat IPC: 0.6991 cumulative IPC: 0.6994 (Simulation time: 00 hr 30 min 38 sec)
Heartbeat CPU 0 instructions: 158000906 cycles: 165938699 heartbeat IPC: 0.6869 cumulative IPC: 0.6994 (Simulation time: 00 hr 30 min 46 sec)
Heartbeat CPU 0 instructions: 158500909 cycles: 166679756 heartbeat IPC: 0.6747 cumulative IPC: 0.6992 (Simulation time: 00 hr 30 min 53 sec)
Heartbeat CPU 0 instructions: 159000914 cycles: 167409515 heartbeat IPC: 0.6852 cumulative IPC: 0.6992 (Simulation time: 00 hr 31 min 01 sec)
Heartbeat CPU 0 instructions: 159500918 cycles: 168128176 heartbeat IPC: 0.6957 cumulative IPC: 0.6992 (Simulation time: 00 hr 31 min 08 sec)
Heartbeat CPU 0 instructions: 160000920 cycles: 168847175 heartbeat IPC: 0.6954 cumulative IPC: 0.6991 (Simulation time: 00 hr 31 min 15 sec)
Heartbeat CPU 0 instructions: 160500923 cycles: 169577666 heartbeat IPC: 0.6845 cumulative IPC: 0.6991 (Simulation time: 00 hr 31 min 22 sec)
Heartbeat CPU 0 instructions: 161000925 cycles: 170283586 heartbeat IPC: 0.7083 cumulative IPC: 0.6991 (Simulation time: 00 hr 31 min 29 sec)
Heartbeat CPU 0 instructions: 161500930 cycles: 171001225 heartbeat IPC: 0.6967 cumulative IPC: 0.6991 (Simulation time: 00 hr 31 min 36 sec)
Heartbeat CPU 0 instructions: 162000932 cycles: 171724738 heartbeat IPC: 0.6911 cumulative IPC: 0.6991 (Simulation time: 00 hr 31 min 44 sec)
Heartbeat CPU 0 instructions: 162500935 cycles: 172455014 heartbeat IPC: 0.6847 cumulative IPC: 0.699 (Simulation time: 00 hr 31 min 51 sec)
Heartbeat CPU 0 instructions: 163000937 cycles: 173158747 heartbeat IPC: 0.7105 cumulative IPC: 0.6991 (Simulation time: 00 hr 31 min 58 sec)
Heartbeat CPU 0 instructions: 163500938 cycles: 173878125 heartbeat IPC: 0.695 cumulative IPC: 0.699 (Simulation time: 00 hr 32 min 05 sec)
Heartbeat CPU 0 instructions: 164000938 cycles: 174606627 heartbeat IPC: 0.6863 cumulative IPC: 0.699 (Simulation time: 00 hr 32 min 12 sec)
Heartbeat CPU 0 instructions: 164500939 cycles: 175321470 heartbeat IPC: 0.6995 cumulative IPC: 0.699 (Simulation time: 00 hr 32 min 19 sec)
Heartbeat CPU 0 instructions: 165000941 cycles: 176035590 heartbeat IPC: 0.7002 cumulative IPC: 0.699 (Simulation time: 00 hr 32 min 26 sec)
Heartbeat CPU 0 instructions: 165500942 cycles: 176747813 heartbeat IPC: 0.702 cumulative IPC: 0.699 (Simulation time: 00 hr 32 min 33 sec)
Heartbeat CPU 0 instructions: 166000947 cycles: 177483328 heartbeat IPC: 0.6798 cumulative IPC: 0.6989 (Simulation time: 00 hr 32 min 41 sec)
Heartbeat CPU 0 instructions: 166500948 cycles: 178191905 heartbeat IPC: 0.7056 cumulative IPC: 0.6989 (Simulation time: 00 hr 32 min 48 sec)
Heartbeat CPU 0 instructions: 167000951 cycles: 178906442 heartbeat IPC: 0.6998 cumulative IPC: 0.699 (Simulation time: 00 hr 32 min 55 sec)
Heartbeat CPU 0 instructions: 167500951 cycles: 179619606 heartbeat IPC: 0.7011 cumulative IPC: 0.699 (Simulation time: 00 hr 33 min 02 sec)
Heartbeat CPU 0 instructions: 168000957 cycles: 180283771 heartbeat IPC: 0.7528 cumulative IPC: 0.6992 (Simulation time: 00 hr 33 min 08 sec)
Heartbeat CPU 0 instructions: 168500963 cycles: 180772812 heartbeat IPC: 1.022 cumulative IPC: 0.7001 (Simulation time: 00 hr 33 min 13 sec)
Heartbeat CPU 0 instructions: 169000963 cycles: 181418886 heartbeat IPC: 0.7739 cumulative IPC: 0.7004 (Simulation time: 00 hr 33 min 19 sec)
Heartbeat CPU 0 instructions: 169500967 cycles: 182109737 heartbeat IPC: 0.7238 cumulative IPC: 0.7005 (Simulation time: 00 hr 33 min 26 sec)
Heartbeat CPU 0 instructions: 170000971 cycles: 182807724 heartbeat IPC: 0.7164 cumulative IPC: 0.7005 (Simulation time: 00 hr 33 min 33 sec)
Heartbeat CPU 0 instructions: 170500972 cycles: 183521587 heartbeat IPC: 0.7004 cumulative IPC: 0.7005 (Simulation time: 00 hr 33 min 39 sec)
Heartbeat CPU 0 instructions: 171000977 cycles: 184240715 heartbeat IPC: 0.6953 cumulative IPC: 0.7005 (Simulation time: 00 hr 33 min 46 sec)
Heartbeat CPU 0 instructions: 171500981 cycles: 184960382 heartbeat IPC: 0.6948 cumulative IPC: 0.7005 (Simulation time: 00 hr 33 min 53 sec)
Heartbeat CPU 0 instructions: 172000982 cycles: 185683311 heartbeat IPC: 0.6916 cumulative IPC: 0.7005 (Simulation time: 00 hr 34 min 00 sec)
Heartbeat CPU 0 instructions: 172500982 cycles: 186405585 heartbeat IPC: 0.6923 cumulative IPC: 0.7004 (Simulation time: 00 hr 34 min 07 sec)
Heartbeat CPU 0 instructions: 173000984 cycles: 187128552 heartbeat IPC: 0.6916 cumulative IPC: 0.7004 (Simulation time: 00 hr 34 min 14 sec)
Heartbeat CPU 0 instructions: 173500988 cycles: 187852426 heartbeat IPC: 0.6907 cumulative IPC: 0.7004 (Simulation time: 00 hr 34 min 20 sec)
Heartbeat CPU 0 instructions: 174000992 cycles: 188572649 heartbeat IPC: 0.6942 cumulative IPC: 0.7003 (Simulation time: 00 hr 34 min 27 sec)
Heartbeat CPU 0 instructions: 174500996 cycles: 189291114 heartbeat IPC: 0.6959 cumulative IPC: 0.7003 (Simulation time: 00 hr 34 min 34 sec)
Heartbeat CPU 0 instructions: 175000997 cycles: 190014466 heartbeat IPC: 0.6912 cumulative IPC: 0.7003 (Simulation time: 00 hr 34 min 41 sec)
Heartbeat CPU 0 instructions: 175501002 cycles: 190738345 heartbeat IPC: 0.6907 cumulative IPC: 0.7002 (Simulation time: 00 hr 34 min 47 sec)
Heartbeat CPU 0 instructions: 176001006 cycles: 191459264 heartbeat IPC: 0.6936 cumulative IPC: 0.7002 (Simulation time: 00 hr 34 min 54 sec)
Heartbeat CPU 0 instructions: 176501007 cycles: 192179757 heartbeat IPC: 0.694 cumulative IPC: 0.7002 (Simulation time: 00 hr 35 min 01 sec)
Heartbeat CPU 0 instructions: 177001010 cycles: 192904570 heartbeat IPC: 0.6898 cumulative IPC: 0.7001 (Simulation time: 00 hr 35 min 08 sec)
Heartbeat CPU 0 instructions: 177501012 cycles: 193627320 heartbeat IPC: 0.6918 cumulative IPC: 0.7001 (Simulation time: 00 hr 35 min 15 sec)
Heartbeat CPU 0 instructions: 178001013 cycles: 194349746 heartbeat IPC: 0.6921 cumulative IPC: 0.7001 (Simulation time: 00 hr 35 min 21 sec)
Heartbeat CPU 0 instructions: 178501017 cycles: 195071349 heartbeat IPC: 0.6929 cumulative IPC: 0.7001 (Simulation time: 00 hr 35 min 28 sec)
Heartbeat CPU 0 instructions: 179001021 cycles: 195791512 heartbeat IPC: 0.6943 cumulative IPC: 0.7 (Simulation time: 00 hr 35 min 35 sec)
Heartbeat CPU 0 instructions: 179501022 cycles: 196516975 heartbeat IPC: 0.6892 cumulative IPC: 0.7 (Simulation time: 00 hr 35 min 42 sec)
Heartbeat CPU 0 instructions: 180001027 cycles: 197244695 heartbeat IPC: 0.6871 cumulative IPC: 0.6999 (Simulation time: 00 hr 35 min 48 sec)
Heartbeat CPU 0 instructions: 180501031 cycles: 197967304 heartbeat IPC: 0.6919 cumulative IPC: 0.6999 (Simulation time: 00 hr 35 min 55 sec)
Heartbeat CPU 0 instructions: 181001032 cycles: 198688827 heartbeat IPC: 0.693 cumulative IPC: 0.6999 (Simulation time: 00 hr 36 min 02 sec)
Heartbeat CPU 0 instructions: 181501032 cycles: 199411639 heartbeat IPC: 0.6917 cumulative IPC: 0.6998 (Simulation time: 00 hr 36 min 09 sec)
Heartbeat CPU 0 instructions: 182001034 cycles: 200134871 heartbeat IPC: 0.6913 cumulative IPC: 0.6998 (Simulation time: 00 hr 36 min 15 sec)
Heartbeat CPU 0 instructions: 182501038 cycles: 200855416 heartbeat IPC: 0.6939 cumulative IPC: 0.6998 (Simulation time: 00 hr 36 min 22 sec)
Heartbeat CPU 0 instructions: 183001042 cycles: 201581825 heartbeat IPC: 0.6883 cumulative IPC: 0.6997 (Simulation time: 00 hr 36 min 29 sec)
Heartbeat CPU 0 instructions: 183501046 cycles: 202308004 heartbeat IPC: 0.6885 cumulative IPC: 0.6997 (Simulation time: 00 hr 36 min 36 sec)
Heartbeat CPU 0 instructions: 184001047 cycles: 203032281 heartbeat IPC: 0.6903 cumulative IPC: 0.6997 (Simulation time: 00 hr 36 min 43 sec)
Heartbeat CPU 0 instructions: 184501052 cycles: 203756755 heartbeat IPC: 0.6902 cumulative IPC: 0.6996 (Simulation time: 00 hr 36 min 49 sec)
Heartbeat CPU 0 instructions: 185001056 cycles: 204496106 heartbeat IPC: 0.6763 cumulative IPC: 0.6995 (Simulation time: 00 hr 36 min 56 sec)
Heartbeat CPU 0 instructions: 185501060 cycles: 205203509 heartbeat IPC: 0.7068 cumulative IPC: 0.6996 (Simulation time: 00 hr 37 min 03 sec)
Heartbeat CPU 0 instructions: 186001065 cycles: 205922716 heartbeat IPC: 0.6952 cumulative IPC: 0.6996 (Simulation time: 00 hr 37 min 10 sec)
Heartbeat CPU 0 instructions: 186501067 cycles: 206651529 heartbeat IPC: 0.686 cumulative IPC: 0.6995 (Simulation time: 00 hr 37 min 17 sec)
Heartbeat CPU 0 instructions: 187001068 cycles: 207358314 heartbeat IPC: 0.7074 cumulative IPC: 0.6995 (Simulation time: 00 hr 37 min 24 sec)
Heartbeat CPU 0 instructions: 187501074 cycles: 208079270 heartbeat IPC: 0.6935 cumulative IPC: 0.6995 (Simulation time: 00 hr 37 min 30 sec)
Heartbeat CPU 0 instructions: 188001078 cycles: 208797735 heartbeat IPC: 0.6959 cumulative IPC: 0.6995 (Simulation time: 00 hr 37 min 37 sec)
Heartbeat CPU 0 instructions: 188501080 cycles: 209533919 heartbeat IPC: 0.6792 cumulative IPC: 0.6994 (Simulation time: 00 hr 37 min 44 sec)
Heartbeat CPU 0 instructions: 189001085 cycles: 210234452 heartbeat IPC: 0.7137 cumulative IPC: 0.6995 (Simulation time: 00 hr 37 min 51 sec)
Heartbeat CPU 0 instructions: 189501090 cycles: 210951096 heartbeat IPC: 0.6977 cumulative IPC: 0.6995 (Simulation time: 00 hr 37 min 58 sec)
Heartbeat CPU 0 instructions: 190001090 cycles: 211669269 heartbeat IPC: 0.6962 cumulative IPC: 0.6995 (Simulation time: 00 hr 38 min 05 sec)
Heartbeat CPU 0 instructions: 190501095 cycles: 212399074 heartbeat IPC: 0.6851 cumulative IPC: 0.6994 (Simulation time: 00 hr 38 min 12 sec)
Heartbeat CPU 0 instructions: 191001098 cycles: 213105631 heartbeat IPC: 0.7077 cumulative IPC: 0.6994 (Simulation time: 00 hr 38 min 18 sec)
Heartbeat CPU 0 instructions: 191501098 cycles: 213824560 heartbeat IPC: 0.6955 cumulative IPC: 0.6994 (Simulation time: 00 hr 38 min 25 sec)
Heartbeat CPU 0 instructions: 192001099 cycles: 214550407 heartbeat IPC: 0.6889 cumulative IPC: 0.6994 (Simulation time: 00 hr 38 min 32 sec)
Heartbeat CPU 0 instructions: 192501099 cycles: 215278873 heartbeat IPC: 0.6864 cumulative IPC: 0.6993 (Simulation time: 00 hr 38 min 39 sec)
Heartbeat CPU 0 instructions: 193001103 cycles: 215979234 heartbeat IPC: 0.7139 cumulative IPC: 0.6994 (Simulation time: 00 hr 38 min 46 sec)
Heartbeat CPU 0 instructions: 193501105 cycles: 216697667 heartbeat IPC: 0.696 cumulative IPC: 0.6994 (Simulation time: 00 hr 38 min 52 sec)
Heartbeat CPU 0 instructions: 194001105 cycles: 217426673 heartbeat IPC: 0.6859 cumulative IPC: 0.6993 (Simulation time: 00 hr 39 min 00 sec)
Heartbeat CPU 0 instructions: 194501111 cycles: 218129505 heartbeat IPC: 0.7114 cumulative IPC: 0.6994 (Simulation time: 00 hr 39 min 06 sec)
Heartbeat CPU 0 instructions: 195001114 cycles: 218842697 heartbeat IPC: 0.7011 cumulative IPC: 0.6994 (Simulation time: 00 hr 39 min 13 sec)
Heartbeat CPU 0 instructions: 195501119 cycles: 219552435 heartbeat IPC: 0.7045 cumulative IPC: 0.6994 (Simulation time: 00 hr 39 min 20 sec)
Heartbeat CPU 0 instructions: 196001126 cycles: 220240884 heartbeat IPC: 0.7263 cumulative IPC: 0.6995 (Simulation time: 00 hr 39 min 26 sec)
Heartbeat CPU 0 instructions: 196501130 cycles: 220768556 heartbeat IPC: 0.9476 cumulative IPC: 0.7001 (Simulation time: 00 hr 39 min 31 sec)
Heartbeat CPU 0 instructions: 197001134 cycles: 221365875 heartbeat IPC: 0.8371 cumulative IPC: 0.7005 (Simulation time: 00 hr 39 min 37 sec)
Heartbeat CPU 0 instructions: 197501138 cycles: 222061584 heartbeat IPC: 0.7187 cumulative IPC: 0.7006 (Simulation time: 00 hr 39 min 43 sec)
Heartbeat CPU 0 instructions: 198001139 cycles: 222755332 heartbeat IPC: 0.7207 cumulative IPC: 0.7006 (Simulation time: 00 hr 39 min 50 sec)
Heartbeat CPU 0 instructions: 198501144 cycles: 223467385 heartbeat IPC: 0.7022 cumulative IPC: 0.7006 (Simulation time: 00 hr 39 min 56 sec)
Heartbeat CPU 0 instructions: 199001148 cycles: 224188902 heartbeat IPC: 0.693 cumulative IPC: 0.7006 (Simulation time: 00 hr 40 min 03 sec)
Heartbeat CPU 0 instructions: 199501149 cycles: 224911147 heartbeat IPC: 0.6923 cumulative IPC: 0.7006 (Simulation time: 00 hr 40 min 09 sec)
Heartbeat CPU 0 instructions: 200001149 cycles: 225630625 heartbeat IPC: 0.6949 cumulative IPC: 0.7006 (Simulation time: 00 hr 40 min 16 sec)
Heartbeat CPU 0 instructions: 200501150 cycles: 226352572 heartbeat IPC: 0.6926 cumulative IPC: 0.7005 (Simulation time: 00 hr 40 min 22 sec)
Heartbeat CPU 0 instructions: 201001155 cycles: 227073296 heartbeat IPC: 0.6938 cumulative IPC: 0.7005 (Simulation time: 00 hr 40 min 29 sec)
Heartbeat CPU 0 instructions: 201501159 cycles: 227797345 heartbeat IPC: 0.6906 cumulative IPC: 0.7005 (Simulation time: 00 hr 40 min 36 sec)
Heartbeat CPU 0 instructions: 202001163 cycles: 228518584 heartbeat IPC: 0.6933 cumulative IPC: 0.7004 (Simulation time: 00 hr 40 min 42 sec)
Heartbeat CPU 0 instructions: 202501164 cycles: 229237995 heartbeat IPC: 0.695 cumulative IPC: 0.7004 (Simulation time: 00 hr 40 min 49 sec)
Heartbeat CPU 0 instructions: 203001169 cycles: 229959355 heartbeat IPC: 0.6931 cumulative IPC: 0.7004 (Simulation time: 00 hr 40 min 55 sec)
Heartbeat CPU 0 instructions: 203501173 cycles: 230682834 heartbeat IPC: 0.6911 cumulative IPC: 0.7004 (Simulation time: 00 hr 41 min 02 sec)
Heartbeat CPU 0 instructions: 204001178 cycles: 231404558 heartbeat IPC: 0.6928 cumulative IPC: 0.7003 (Simulation time: 00 hr 41 min 08 sec)
Heartbeat CPU 0 instructions: 204501181 cycles: 232126886 heartbeat IPC: 0.6922 cumulative IPC: 0.7003 (Simulation time: 00 hr 41 min 15 sec)
Heartbeat CPU 0 instructions: 205001183 cycles: 232848564 heartbeat IPC: 0.6928 cumulative IPC: 0.7003 (Simulation time: 00 hr 41 min 21 sec)
Heartbeat CPU 0 instructions: 205501187 cycles: 233572397 heartbeat IPC: 0.6908 cumulative IPC: 0.7003 (Simulation time: 00 hr 41 min 28 sec)
Heartbeat CPU 0 instructions: 206001191 cycles: 234295306 heartbeat IPC: 0.6917 cumulative IPC: 0.7002 (Simulation time: 00 hr 41 min 34 sec)
Heartbeat CPU 0 instructions: 206501195 cycles: 235014935 heartbeat IPC: 0.6948 cumulative IPC: 0.7002 (Simulation time: 00 hr 41 min 41 sec)
Heartbeat CPU 0 instructions: 207001197 cycles: 235736082 heartbeat IPC: 0.6933 cumulative IPC: 0.7002 (Simulation time: 00 hr 41 min 47 sec)
Heartbeat CPU 0 instructions: 207501201 cycles: 236460846 heartbeat IPC: 0.6899 cumulative IPC: 0.7002 (Simulation time: 00 hr 41 min 54 sec)
Heartbeat CPU 0 instructions: 208001205 cycles: 237182939 heartbeat IPC: 0.6924 cumulative IPC: 0.7001 (Simulation time: 00 hr 42 min 00 sec)
Heartbeat CPU 0 instructions: 208501209 cycles: 237906196 heartbeat IPC: 0.6913 cumulative IPC: 0.7001 (Simulation time: 00 hr 42 min 07 sec)
Heartbeat CPU 0 instructions: 209001213 cycles: 238629127 heartbeat IPC: 0.6916 cumulative IPC: 0.7001 (Simulation time: 00 hr 42 min 13 sec)
Heartbeat CPU 0 instructions: 209501215 cycles: 239351745 heartbeat IPC: 0.6919 cumulative IPC: 0.7001 (Simulation time: 00 hr 42 min 20 sec)
Heartbeat CPU 0 instructions: 210001219 cycles: 240076784 heartbeat IPC: 0.6896 cumulative IPC: 0.7 (Simulation time: 00 hr 42 min 26 sec)
Heartbeat CPU 0 instructions: 210501220 cycles: 240799297 heartbeat IPC: 0.692 cumulative IPC: 0.7 (Simulation time: 00 hr 42 min 33 sec)
Heartbeat CPU 0 instructions: 211001220 cycles: 241522695 heartbeat IPC: 0.6912 cumulative IPC: 0.7 (Simulation time: 00 hr 42 min 39 sec)
Heartbeat CPU 0 instructions: 211501221 cycles: 242247622 heartbeat IPC: 0.6897 cumulative IPC: 0.6999 (Simulation time: 00 hr 42 min 45 sec)
Heartbeat CPU 0 instructions: 212001226 cycles: 242972796 heartbeat IPC: 0.6895 cumulative IPC: 0.6999 (Simulation time: 00 hr 42 min 52 sec)
Heartbeat CPU 0 instructions: 212501230 cycles: 243701315 heartbeat IPC: 0.6863 cumulative IPC: 0.6999 (Simulation time: 00 hr 42 min 58 sec)
Heartbeat CPU 0 instructions: 213001231 cycles: 244257660 heartbeat IPC: 0.8987 cumulative IPC: 0.7003 (Simulation time: 00 hr 43 min 04 sec)
Heartbeat CPU 0 instructions: 213501231 cycles: 244617783 heartbeat IPC: 1.388 cumulative IPC: 0.7014 (Simulation time: 00 hr 43 min 08 sec)
Heartbeat CPU 0 instructions: 214001237 cycles: 245323075 heartbeat IPC: 0.7089 cumulative IPC: 0.7014 (Simulation time: 00 hr 43 min 15 sec)
Heartbeat CPU 0 instructions: 214501243 cycles: 246059825 heartbeat IPC: 0.6787 cumulative IPC: 0.7014 (Simulation time: 00 hr 43 min 21 sec)
Heartbeat CPU 0 instructions: 215001243 cycles: 246785737 heartbeat IPC: 0.6888 cumulative IPC: 0.7013 (Simulation time: 00 hr 43 min 28 sec)
Heartbeat CPU 0 instructions: 215501244 cycles: 247536958 heartbeat IPC: 0.6656 cumulative IPC: 0.7012 (Simulation time: 00 hr 43 min 34 sec)
Heartbeat CPU 0 instructions: 216001245 cycles: 248289744 heartbeat IPC: 0.6642 cumulative IPC: 0.7011 (Simulation time: 00 hr 43 min 41 sec)
Heartbeat CPU 0 instructions: 216501247 cycles: 249011317 heartbeat IPC: 0.6929 cumulative IPC: 0.7011 (Simulation time: 00 hr 43 min 47 sec)
Heartbeat CPU 0 instructions: 217001248 cycles: 249729094 heartbeat IPC: 0.6966 cumulative IPC: 0.701 (Simulation time: 00 hr 43 min 54 sec)
Heartbeat CPU 0 instructions: 217501252 cycles: 250454563 heartbeat IPC: 0.6892 cumulative IPC: 0.701 (Simulation time: 00 hr 44 min 01 sec)
Heartbeat CPU 0 instructions: 218001255 cycles: 251155356 heartbeat IPC: 0.7135 cumulative IPC: 0.701 (Simulation time: 00 hr 44 min 07 sec)
Heartbeat CPU 0 instructions: 218501260 cycles: 251873315 heartbeat IPC: 0.6964 cumulative IPC: 0.701 (Simulation time: 00 hr 44 min 13 sec)
Heartbeat CPU 0 instructions: 219001263 cycles: 252593826 heartbeat IPC: 0.694 cumulative IPC: 0.701 (Simulation time: 00 hr 44 min 20 sec)
Heartbeat CPU 0 instructions: 219501265 cycles: 253322904 heartbeat IPC: 0.6858 cumulative IPC: 0.701 (Simulation time: 00 hr 44 min 27 sec)
Heartbeat CPU 0 instructions: 220001265 cycles: 254024384 heartbeat IPC: 0.7128 cumulative IPC: 0.701 (Simulation time: 00 hr 44 min 33 sec)
Heartbeat CPU 0 instructions: 220501267 cycles: 254742541 heartbeat IPC: 0.6962 cumulative IPC: 0.701 (Simulation time: 00 hr 44 min 39 sec)
Heartbeat CPU 0 instructions: 221001268 cycles: 255473746 heartbeat IPC: 0.6838 cumulative IPC: 0.7009 (Simulation time: 00 hr 44 min 46 sec)
Heartbeat CPU 0 instructions: 221501268 cycles: 256176816 heartbeat IPC: 0.7112 cumulative IPC: 0.701 (Simulation time: 00 hr 44 min 53 sec)
Heartbeat CPU 0 instructions: 222001271 cycles: 256893845 heartbeat IPC: 0.6973 cumulative IPC: 0.701 (Simulation time: 00 hr 44 min 59 sec)
Heartbeat CPU 0 instructions: 222501276 cycles: 257609757 heartbeat IPC: 0.6984 cumulative IPC: 0.7009 (Simulation time: 00 hr 45 min 05 sec)
Heartbeat CPU 0 instructions: 223001278 cycles: 258345204 heartbeat IPC: 0.6799 cumulative IPC: 0.7009 (Simulation time: 00 hr 45 min 12 sec)
Heartbeat CPU 0 instructions: 223501278 cycles: 259048245 heartbeat IPC: 0.7112 cumulative IPC: 0.7009 (Simulation time: 00 hr 45 min 18 sec)
Heartbeat CPU 0 instructions: 224001283 cycles: 259764788 heartbeat IPC: 0.6978 cumulative IPC: 0.7009 (Simulation time: 00 hr 45 min 25 sec)
Heartbeat CPU 0 instructions: 224501288 cycles: 260477545 heartbeat IPC: 0.7015 cumulative IPC: 0.7009 (Simulation time: 00 hr 45 min 31 sec)
Heartbeat CPU 0 instructions: 225001289 cycles: 261131362 heartbeat IPC: 0.7647 cumulative IPC: 0.7011 (Simulation time: 00 hr 45 min 37 sec)
Heartbeat CPU 0 instructions: 225501294 cycles: 261607722 heartbeat IPC: 1.05 cumulative IPC: 0.7017 (Simulation time: 00 hr 45 min 42 sec)
Heartbeat CPU 0 instructions: 226001296 cycles: 262285584 heartbeat IPC: 0.7376 cumulative IPC: 0.7018 (Simulation time: 00 hr 45 min 48 sec)
Heartbeat CPU 0 instructions: 226501300 cycles: 262972241 heartbeat IPC: 0.7282 cumulative IPC: 0.7019 (Simulation time: 00 hr 45 min 54 sec)
Heartbeat CPU 0 instructions: 227001304 cycles: 263669308 heartbeat IPC: 0.7173 cumulative IPC: 0.7019 (Simulation time: 00 hr 46 min 00 sec)
Heartbeat CPU 0 instructions: 227501307 cycles: 264379384 heartbeat IPC: 0.7042 cumulative IPC: 0.702 (Simulation time: 00 hr 46 min 06 sec)
Heartbeat CPU 0 instructions: 228001310 cycles: 265098341 heartbeat IPC: 0.6955 cumulative IPC: 0.7019 (Simulation time: 00 hr 46 min 13 sec)
Heartbeat CPU 0 instructions: 228501314 cycles: 265819286 heartbeat IPC: 0.6935 cumulative IPC: 0.7019 (Simulation time: 00 hr 46 min 19 sec)
Heartbeat CPU 0 instructions: 229001318 cycles: 266542325 heartbeat IPC: 0.6915 cumulative IPC: 0.7019 (Simulation time: 00 hr 46 min 25 sec)
Heartbeat CPU 0 instructions: 229501322 cycles: 267265264 heartbeat IPC: 0.6916 cumulative IPC: 0.7019 (Simulation time: 00 hr 46 min 32 sec)
Heartbeat CPU 0 instructions: 230001323 cycles: 267988921 heartbeat IPC: 0.6909 cumulative IPC: 0.7018 (Simulation time: 00 hr 46 min 38 sec)
Heartbeat CPU 0 instructions: 230501328 cycles: 268710955 heartbeat IPC: 0.6925 cumulative IPC: 0.7018 (Simulation time: 00 hr 46 min 45 sec)
Heartbeat CPU 0 instructions: 231001332 cycles: 269432488 heartbeat IPC: 0.693 cumulative IPC: 0.7018 (Simulation time: 00 hr 46 min 51 sec)
Heartbeat CPU 0 instructions: 231501333 cycles: 270152317 heartbeat IPC: 0.6946 cumulative IPC: 0.7018 (Simulation time: 00 hr 46 min 57 sec)
Heartbeat CPU 0 instructions: 232001333 cycles: 270872755 heartbeat IPC: 0.694 cumulative IPC: 0.7017 (Simulation time: 00 hr 47 min 04 sec)
Heartbeat CPU 0 instructions: 232501334 cycles: 271593612 heartbeat IPC: 0.6936 cumulative IPC: 0.7017 (Simulation time: 00 hr 47 min 10 sec)
Heartbeat CPU 0 instructions: 233001339 cycles: 272317986 heartbeat IPC: 0.6903 cumulative IPC: 0.7017 (Simulation time: 00 hr 47 min 16 sec)
Heartbeat CPU 0 instructions: 233501343 cycles: 273041065 heartbeat IPC: 0.6915 cumulative IPC: 0.7016 (Simulation time: 00 hr 47 min 23 sec)
Heartbeat CPU 0 instructions: 234001347 cycles: 273762212 heartbeat IPC: 0.6933 cumulative IPC: 0.7016 (Simulation time: 00 hr 47 min 29 sec)
Heartbeat CPU 0 instructions: 234501349 cycles: 274482926 heartbeat IPC: 0.6938 cumulative IPC: 0.7016 (Simulation time: 00 hr 47 min 36 sec)
Heartbeat CPU 0 instructions: 235001353 cycles: 275205155 heartbeat IPC: 0.6923 cumulative IPC: 0.7016 (Simulation time: 00 hr 47 min 42 sec)
Heartbeat CPU 0 instructions: 235501357 cycles: 275925614 heartbeat IPC: 0.694 cumulative IPC: 0.7016 (Simulation time: 00 hr 47 min 48 sec)
Heartbeat CPU 0 instructions: 236001361 cycles: 276647421 heartbeat IPC: 0.6927 cumulative IPC: 0.7015 (Simulation time: 00 hr 47 min 55 sec)
Heartbeat CPU 0 instructions: 236501365 cycles: 277370114 heartbeat IPC: 0.6919 cumulative IPC: 0.7015 (Simulation time: 00 hr 48 min 01 sec)
Heartbeat CPU 0 instructions: 237001367 cycles: 278094384 heartbeat IPC: 0.6904 cumulative IPC: 0.7015 (Simulation time: 00 hr 48 min 08 sec)
Heartbeat CPU 0 instructions: 237501371 cycles: 278815561 heartbeat IPC: 0.6933 cumulative IPC: 0.7015 (Simulation time: 00 hr 48 min 14 sec)
Heartbeat CPU 0 instructions: 238001375 cycles: 279534026 heartbeat IPC: 0.6959 cumulative IPC: 0.7014 (Simulation time: 00 hr 48 min 20 sec)
Heartbeat CPU 0 instructions: 238501379 cycles: 280258215 heartbeat IPC: 0.6904 cumulative IPC: 0.7014 (Simulation time: 00 hr 48 min 27 sec)
Heartbeat CPU 0 instructions: 239001380 cycles: 280981462 heartbeat IPC: 0.6913 cumulative IPC: 0.7014 (Simulation time: 00 hr 48 min 33 sec)
Heartbeat CPU 0 instructions: 239501385 cycles: 281701306 heartbeat IPC: 0.6946 cumulative IPC: 0.7014 (Simulation time: 00 hr 48 min 39 sec)
Heartbeat CPU 0 instructions: 240001388 cycles: 282425945 heartbeat IPC: 0.69 cumulative IPC: 0.7013 (Simulation time: 00 hr 48 min 46 sec)
Heartbeat CPU 0 instructions: 240501391 cycles: 283149144 heartbeat IPC: 0.6914 cumulative IPC: 0.7013 (Simulation time: 00 hr 48 min 52 sec)
Heartbeat CPU 0 instructions: 241001394 cycles: 283873311 heartbeat IPC: 0.6905 cumulative IPC: 0.7013 (Simulation time: 00 hr 48 min 59 sec)
Heartbeat CPU 0 instructions: 241501399 cycles: 284598745 heartbeat IPC: 0.6892 cumulative IPC: 0.7012 (Simulation time: 00 hr 49 min 05 sec)
Heartbeat CPU 0 instructions: 242001401 cycles: 285096959 heartbeat IPC: 1.004 cumulative IPC: 0.7018 (Simulation time: 00 hr 49 min 11 sec)
Heartbeat CPU 0 instructions: 242501403 cycles: 285500577 heartbeat IPC: 1.239 cumulative IPC: 0.7026 (Simulation time: 00 hr 49 min 15 sec)
Heartbeat CPU 0 instructions: 243001405 cycles: 286214661 heartbeat IPC: 0.7002 cumulative IPC: 0.7026 (Simulation time: 00 hr 49 min 21 sec)
Heartbeat CPU 0 instructions: 243501412 cycles: 286936103 heartbeat IPC: 0.6931 cumulative IPC: 0.7026 (Simulation time: 00 hr 49 min 27 sec)
Heartbeat CPU 0 instructions: 244001415 cycles: 287661024 heartbeat IPC: 0.6897 cumulative IPC: 0.7025 (Simulation time: 00 hr 49 min 34 sec)
Heartbeat CPU 0 instructions: 244501416 cycles: 288403624 heartbeat IPC: 0.6733 cumulative IPC: 0.7024 (Simulation time: 00 hr 49 min 40 sec)
Heartbeat CPU 0 instructions: 245001417 cycles: 289130081 heartbeat IPC: 0.6883 cumulative IPC: 0.7024 (Simulation time: 00 hr 49 min 47 sec)
Heartbeat CPU 0 instructions: 245501422 cycles: 289867376 heartbeat IPC: 0.6782 cumulative IPC: 0.7023 (Simulation time: 00 hr 49 min 53 sec)
Heartbeat CPU 0 instructions: 246001422 cycles: 290611164 heartbeat IPC: 0.6722 cumulative IPC: 0.7023 (Simulation time: 00 hr 50 min 00 sec)
Heartbeat CPU 0 instructions: 246501427 cycles: 291355239 heartbeat IPC: 0.672 cumulative IPC: 0.7022 (Simulation time: 00 hr 50 min 06 sec)
Heartbeat CPU 0 instructions: 247001433 cycles: 292074924 heartbeat IPC: 0.6948 cumulative IPC: 0.7022 (Simulation time: 00 hr 50 min 12 sec)
Heartbeat CPU 0 instructions: 247501433 cycles: 292808833 heartbeat IPC: 0.6813 cumulative IPC: 0.7021 (Simulation time: 00 hr 50 min 18 sec)
Heartbeat CPU 0 instructions: 248001437 cycles: 293548396 heartbeat IPC: 0.6761 cumulative IPC: 0.702 (Simulation time: 00 hr 50 min 25 sec)
Heartbeat CPU 0 instructions: 248501440 cycles: 294260273 heartbeat IPC: 0.7024 cumulative IPC: 0.702 (Simulation time: 00 hr 50 min 31 sec)
Heartbeat CPU 0 instructions: 249001442 cycles: 295002725 heartbeat IPC: 0.6734 cumulative IPC: 0.702 (Simulation time: 00 hr 50 min 38 sec)
Heartbeat CPU 0 instructions: 249501442 cycles: 295718297 heartbeat IPC: 0.6987 cumulative IPC: 0.702 (Simulation time: 00 hr 50 min 44 sec)
Simulation finished CPU 0 instructions: 200000002 cycles: 284939771 cumulative IPC: 0.7019 (Simulation time: 00 hr 50 min 51 sec)
Simulation complete CPU 0 instructions: 200000002 cycles: 284939771 cumulative IPC: 0.7019 (Simulation time: 00 hr 50 min 51 sec)

ChampSim completed all CPUs

=== Simulation ===
CPU 0 runs /local-ssd/ben/dpc4-traces/ai-ml/llama2.c-stories15M.1.champsimtrace.gz

Region of Interest Statistics

CPU 0 cumulative IPC: 0.7019 instructions: 200000002 cycles: 284939771
CPU 0 Branch Prediction Accuracy: 98.74% MPKI: 1.817 Average ROB Occupancy at Mispredict: 504.5
Branch type MPKI
BRANCH_DIRECT_JUMP: 7.5e-05
BRANCH_INDIRECT: 0
BRANCH_CONDITIONAL: 1.817
BRANCH_DIRECT_CALL: 5e-05
BRANCH_INDIRECT_CALL: 0.000345
BRANCH_RETURN: 9e-05

cpu0->cpu0_STLB TOTAL        ACCESS:     107457 HIT:       1548 MISS:     105909 MSHR_MERGE:          0
cpu0->cpu0_STLB LOAD         ACCESS:     107457 HIT:       1548 MISS:     105909 MSHR_MERGE:          0
cpu0->cpu0_STLB RFO          ACCESS:          0 HIT:          0 MISS:          0 MSHR_MERGE:          0
cpu0->cpu0_STLB PREFETCH     ACCESS:          0 HIT:          0 MISS:          0 MSHR_MERGE:          0
cpu0->cpu0_STLB WRITE        ACCESS:          0 HIT:          0 MISS:          0 MSHR_MERGE:          0
cpu0->cpu0_STLB TRANSLATION  ACCESS:          0 HIT:          0 MISS:          0 MSHR_MERGE:          0
cpu0->cpu0_STLB PREFETCH REQUESTED:          0 ISSUED:          0 USEFUL:          0 USELESS:          0
cpu0->cpu0_STLB AVERAGE MISS LATENCY: 119.7 cycles
cpu0->cpu0_L2C TOTAL        ACCESS:   39991683 HIT:    1003459 MISS:   38988224 MSHR_MERGE:   32202232
cpu0->cpu0_L2C LOAD         ACCESS:      33156 HIT:      15950 MISS:      17206 MSHR_MERGE:      10434
cpu0->cpu0_L2C RFO          ACCESS:      23353 HIT:       2621 MISS:      20732 MSHR_MERGE:          5
cpu0->cpu0_L2C PREFETCH     ACCESS:   39878273 HIT:     942608 MISS:   38935665 MSHR_MERGE:   32191793
cpu0->cpu0_L2C WRITE        ACCESS:      42613 HIT:      41876 MISS:        737 MSHR_MERGE:          0
cpu0->cpu0_L2C TRANSLATION  ACCESS:      14288 HIT:        404 MISS:      13884 MSHR_MERGE:          0
cpu0->cpu0_L2C PREFETCH REQUESTED:   34325414 ISSUED:   33136371 USEFUL:     200913 USELESS:    6123552
cpu0->cpu0_L2C AVERAGE MISS LATENCY: 590.5 cycles
cpu0->cpu0_L1I TOTAL        ACCESS:   17664691 HIT:   17664640 MISS:         51 MSHR_MERGE:          4
cpu0->cpu0_L1I LOAD         ACCESS:   17664691 HIT:   17664640 MISS:         51 MSHR_MERGE:          4
cpu0->cpu0_L1I RFO          ACCESS:          0 HIT:          0 MISS:          0 MSHR_MERGE:          0
cpu0->cpu0_L1I PREFETCH     ACCESS:          0 HIT:          0 MISS:          0 MSHR_MERGE:          0
cpu0->cpu0_L1I WRITE        ACCESS:          0 HIT:          0 MISS:          0 MSHR_MERGE:          0
cpu0->cpu0_L1I TRANSLATION  ACCESS:          0 HIT:          0 MISS:          0 MSHR_MERGE:          0
cpu0->cpu0_L1I PREFETCH REQUESTED:          0 ISSUED:          0 USEFUL:          0 USELESS:          0
cpu0->cpu0_L1I AVERAGE MISS LATENCY: 312.7 cycles
cpu0->cpu0_L1D TOTAL        ACCESS:   39330384 HIT:   17324987 MISS:   22005397 MSHR_MERGE:   15192756
cpu0->cpu0_L1D LOAD         ACCESS:   25414978 HIT:   15236027 MISS:   10178951 MSHR_MERGE:   10145842
cpu0->cpu0_L1D RFO          ACCESS:          0 HIT:          0 MISS:          0 MSHR_MERGE:          0
cpu0->cpu0_L1D PREFETCH     ACCESS:   13109056 HIT:    1336444 MISS:   11772612 MSHR_MERGE:    5030721
cpu0->cpu0_L1D WRITE        ACCESS:     594269 HIT:     554746 MISS:      39523 MSHR_MERGE:      16170
cpu0->cpu0_L1D TRANSLATION  ACCESS:     212081 HIT:     197770 MISS:      14311 MSHR_MERGE:         23
cpu0->cpu0_L1D PREFETCH REQUESTED:   18583784 ISSUED:   13109055 USEFUL:    6733006 USELESS:       8872
cpu0->cpu0_L1D AVERAGE MISS LATENCY: 232.5 cycles
cpu0->cpu0_ITLB TOTAL        ACCESS:   16634561 HIT:   16634558 MISS:          3 MSHR_MERGE:          0
cpu0->cpu0_ITLB LOAD         ACCESS:   16634561 HIT:   16634558 MISS:          3 MSHR_MERGE:          0
cpu0->cpu0_ITLB RFO          ACCESS:          0 HIT:          0 MISS:          0 MSHR_MERGE:          0
cpu0->cpu0_ITLB PREFETCH     ACCESS:          0 HIT:          0 MISS:          0 MSHR_MERGE:          0
cpu0->cpu0_ITLB WRITE        ACCESS:          0 HIT:          0 MISS:          0 MSHR_MERGE:          0
cpu0->cpu0_ITLB TRANSLATION  ACCESS:          0 HIT:          0 MISS:          0 MSHR_MERGE:          0
cpu0->cpu0_ITLB PREFETCH REQUESTED:          0 ISSUED:          0 USEFUL:          0 USELESS:          0
cpu0->cpu0_ITLB AVERAGE MISS LATENCY: 645.3 cycles
cpu0->cpu0_DTLB TOTAL        ACCESS:   36876271 HIT:   36311160 MISS:     565111 MSHR_MERGE:     457657
cpu0->cpu0_DTLB LOAD         ACCESS:   36876271 HIT:   36311160 MISS:     565111 MSHR_MERGE:     457657
cpu0->cpu0_DTLB RFO          ACCESS:          0 HIT:          0 MISS:          0 MSHR_MERGE:          0
cpu0->cpu0_DTLB PREFETCH     ACCESS:          0 HIT:          0 MISS:          0 MSHR_MERGE:          0
cpu0->cpu0_DTLB WRITE        ACCESS:          0 HIT:          0 MISS:          0 MSHR_MERGE:          0
cpu0->cpu0_DTLB TRANSLATION  ACCESS:          0 HIT:          0 MISS:          0 MSHR_MERGE:          0
cpu0->cpu0_DTLB PREFETCH REQUESTED:          0 ISSUED:          0 USEFUL:          0 USELESS:          0
cpu0->cpu0_DTLB AVERAGE MISS LATENCY: 124 cycles
cpu0->LLC TOTAL        ACCESS:    6812076 HIT:     201982 MISS:    6610094 MSHR_MERGE:          0
cpu0->LLC LOAD         ACCESS:       6772 HIT:       1624 MISS:       5148 MSHR_MERGE:          0
cpu0->LLC RFO          ACCESS:      20727 HIT:       7336 MISS:      13391 MSHR_MERGE:          0
cpu0->LLC PREFETCH     ACCESS:    6743872 HIT:     177643 MISS:    6566229 MSHR_MERGE:          0
cpu0->LLC WRITE        ACCESS:      26821 HIT:      14929 MISS:      11892 MSHR_MERGE:          0
cpu0->LLC TRANSLATION  ACCESS:      13884 HIT:        450 MISS:      13434 MSHR_MERGE:          0
cpu0->LLC PREFETCH REQUESTED:          0 ISSUED:          0 USEFUL:          0 USELESS:          0
cpu0->LLC AVERAGE MISS LATENCY: 612.1 cycles

DRAM Statistics

Channel 0 RQ ROW_BUFFER_HIT:    2861589
  ROW_BUFFER_MISS:    3736150
  AVG DBUS CONGESTED CYCLE: 4.022
Channel 0 WQ ROW_BUFFER_HIT:        135
  ROW_BUFFER_MISS:      14472
  FULL:          0
Channel 0 REFRESHES ISSUED:      23745
