[VMEM] WARNING: physical memory size is smaller than virtual memory size.

*** ChampSim Multicore Out-of-Order Simulator ***
Warmup Instructions: 50000000
Simulation Instructions: 200000000
Number of CPUs: 1
Page size: 4096
Core 0: /local-ssd/ben/dpc4-traces/Graph/Ligra/ligra_Components-Shortcut.com-lj.ungraph.gcc_6.3.0_O3.drop_17000M.length_250M.champsimtrace.xz
sBerti (Smart Stride + Berti) Prefetcher Initialized
Off-chip DRAM Size: 64 GiB Channels: 1 Width: 64-bit Data Rate: 800 MT/s
Heartbeat CPU 0 instructions: 500005 cycles: 171783 heartbeat IPC: 2.911 cumulative IPC: 2.911 (Simulation time: 00 hr 00 min 03 sec)
Heartbeat CPU 0 instructions: 1000005 cycles: 353469 heartbeat IPC: 2.752 cumulative IPC: 2.829 (Simulation time: 00 hr 00 min 05 sec)
Heartbeat CPU 0 instructions: 1500005 cycles: 525774 heartbeat IPC: 2.902 cumulative IPC: 2.853 (Simulation time: 00 hr 00 min 08 sec)
Heartbeat CPU 0 instructions: 2000010 cycles: 713500 heartbeat IPC: 2.663 cumulative IPC: 2.803 (Simulation time: 00 hr 00 min 10 sec)
Heartbeat CPU 0 instructions: 2500016 cycles: 897098 heartbeat IPC: 2.723 cumulative IPC: 2.787 (Simulation time: 00 hr 00 min 13 sec)
Heartbeat CPU 0 instructions: 3000022 cycles: 1085859 heartbeat IPC: 2.649 cumulative IPC: 2.763 (Simulation time: 00 hr 00 min 15 sec)
Heartbeat CPU 0 instructions: 3500025 cycles: 1277948 heartbeat IPC: 2.603 cumulative IPC: 2.739 (Simulation time: 00 hr 00 min 18 sec)
Heartbeat CPU 0 instructions: 4000027 cycles: 1454871 heartbeat IPC: 2.826 cumulative IPC: 2.749 (Simulation time: 00 hr 00 min 21 sec)
Heartbeat CPU 0 instructions: 4500027 cycles: 1641903 heartbeat IPC: 2.673 cumulative IPC: 2.741 (Simulation time: 00 hr 00 min 23 sec)
Heartbeat CPU 0 instructions: 5000033 cycles: 1826750 heartbeat IPC: 2.705 cumulative IPC: 2.737 (Simulation time: 00 hr 00 min 26 sec)
Heartbeat CPU 0 instructions: 5500035 cycles: 2012879 heartbeat IPC: 2.686 cumulative IPC: 2.732 (Simulation time: 00 hr 00 min 28 sec)
Heartbeat CPU 0 instructions: 6000038 cycles: 2188799 heartbeat IPC: 2.842 cumulative IPC: 2.741 (Simulation time: 00 hr 00 min 31 sec)
Heartbeat CPU 0 instructions: 6500038 cycles: 2376188 heartbeat IPC: 2.668 cumulative IPC: 2.735 (Simulation time: 00 hr 00 min 33 sec)
Heartbeat CPU 0 instructions: 7000044 cycles: 2563253 heartbeat IPC: 2.673 cumulative IPC: 2.731 (Simulation time: 00 hr 00 min 36 sec)
Heartbeat CPU 0 instructions: 7500046 cycles: 2749273 heartbeat IPC: 2.688 cumulative IPC: 2.728 (Simulation time: 00 hr 00 min 38 sec)
Heartbeat CPU 0 instructions: 8000048 cycles: 2938319 heartbeat IPC: 2.645 cumulative IPC: 2.723 (Simulation time: 00 hr 00 min 41 sec)
Heartbeat CPU 0 instructions: 8500049 cycles: 3128716 heartbeat IPC: 2.626 cumulative IPC: 2.717 (Simulation time: 00 hr 00 min 44 sec)
Heartbeat CPU 0 instructions: 9000055 cycles: 3315125 heartbeat IPC: 2.682 cumulative IPC: 2.715 (Simulation time: 00 hr 00 min 46 sec)
Heartbeat CPU 0 instructions: 9500061 cycles: 3501250 heartbeat IPC: 2.686 cumulative IPC: 2.713 (Simulation time: 00 hr 00 min 49 sec)
Heartbeat CPU 0 instructions: 10000066 cycles: 3690278 heartbeat IPC: 2.645 cumulative IPC: 2.71 (Simulation time: 00 hr 00 min 51 sec)
Heartbeat CPU 0 instructions: 10500066 cycles: 3882195 heartbeat IPC: 2.605 cumulative IPC: 2.705 (Simulation time: 00 hr 00 min 54 sec)
Heartbeat CPU 0 instructions: 11000066 cycles: 4069244 heartbeat IPC: 2.673 cumulative IPC: 2.703 (Simulation time: 00 hr 00 min 56 sec)
Heartbeat CPU 0 instructions: 11500072 cycles: 4246942 heartbeat IPC: 2.814 cumulative IPC: 2.708 (Simulation time: 00 hr 00 min 59 sec)
Heartbeat CPU 0 instructions: 12000077 cycles: 4412052 heartbeat IPC: 3.028 cumulative IPC: 2.72 (Simulation time: 00 hr 01 min 01 sec)
Heartbeat CPU 0 instructions: 12500078 cycles: 4592069 heartbeat IPC: 2.778 cumulative IPC: 2.722 (Simulation time: 00 hr 01 min 04 sec)
Heartbeat CPU 0 instructions: 13000079 cycles: 4761200 heartbeat IPC: 2.956 cumulative IPC: 2.73 (Simulation time: 00 hr 01 min 06 sec)
Heartbeat CPU 0 instructions: 13500086 cycles: 4877389 heartbeat IPC: 4.303 cumulative IPC: 2.768 (Simulation time: 00 hr 01 min 08 sec)
Heartbeat CPU 0 instructions: 14000088 cycles: 4999287 heartbeat IPC: 4.102 cumulative IPC: 2.8 (Simulation time: 00 hr 01 min 10 sec)
Heartbeat CPU 0 instructions: 14500089 cycles: 5121010 heartbeat IPC: 4.108 cumulative IPC: 2.831 (Simulation time: 00 hr 01 min 12 sec)
Heartbeat CPU 0 instructions: 15000096 cycles: 5224130 heartbeat IPC: 4.849 cumulative IPC: 2.871 (Simulation time: 00 hr 01 min 14 sec)
Heartbeat CPU 0 instructions: 15500099 cycles: 5338415 heartbeat IPC: 4.375 cumulative IPC: 2.904 (Simulation time: 00 hr 01 min 16 sec)
Heartbeat CPU 0 instructions: 16000104 cycles: 5459168 heartbeat IPC: 4.141 cumulative IPC: 2.931 (Simulation time: 00 hr 01 min 18 sec)
Heartbeat CPU 0 instructions: 16500105 cycles: 5586612 heartbeat IPC: 3.923 cumulative IPC: 2.954 (Simulation time: 00 hr 01 min 20 sec)
Heartbeat CPU 0 instructions: 17000112 cycles: 5707509 heartbeat IPC: 4.136 cumulative IPC: 2.979 (Simulation time: 00 hr 01 min 23 sec)
Heartbeat CPU 0 instructions: 17500114 cycles: 5824843 heartbeat IPC: 4.261 cumulative IPC: 3.004 (Simulation time: 00 hr 01 min 25 sec)
Heartbeat CPU 0 instructions: 18000114 cycles: 5951523 heartbeat IPC: 3.947 cumulative IPC: 3.024 (Simulation time: 00 hr 01 min 28 sec)
Heartbeat CPU 0 instructions: 18500114 cycles: 6068969 heartbeat IPC: 4.257 cumulative IPC: 3.048 (Simulation time: 00 hr 01 min 30 sec)
Heartbeat CPU 0 instructions: 19000115 cycles: 6186090 heartbeat IPC: 4.269 cumulative IPC: 3.071 (Simulation time: 00 hr 01 min 33 sec)
Heartbeat CPU 0 instructions: 19500120 cycles: 6310797 heartbeat IPC: 4.009 cumulative IPC: 3.09 (Simulation time: 00 hr 01 min 35 sec)
Heartbeat CPU 0 instructions: 20000126 cycles: 6427971 heartbeat IPC: 4.267 cumulative IPC: 3.111 (Simulation time: 00 hr 01 min 38 sec)
Heartbeat CPU 0 instructions: 20500130 cycles: 6545375 heartbeat IPC: 4.259 cumulative IPC: 3.132 (Simulation time: 00 hr 01 min 40 sec)
Heartbeat CPU 0 instructions: 21000136 cycles: 6671232 heartbeat IPC: 3.973 cumulative IPC: 3.148 (Simulation time: 00 hr 01 min 43 sec)
Heartbeat CPU 0 instructions: 21500138 cycles: 6794228 heartbeat IPC: 4.065 cumulative IPC: 3.164 (Simulation time: 00 hr 01 min 45 sec)
Heartbeat CPU 0 instructions: 22000138 cycles: 6911365 heartbeat IPC: 4.269 cumulative IPC: 3.183 (Simulation time: 00 hr 01 min 48 sec)
Heartbeat CPU 0 instructions: 22500145 cycles: 7040426 heartbeat IPC: 3.874 cumulative IPC: 3.196 (Simulation time: 00 hr 01 min 50 sec)
Heartbeat CPU 0 instructions: 23000148 cycles: 7157642 heartbeat IPC: 4.266 cumulative IPC: 3.213 (Simulation time: 00 hr 01 min 52 sec)
Heartbeat CPU 0 instructions: 23500152 cycles: 7274614 heartbeat IPC: 4.275 cumulative IPC: 3.23 (Simulation time: 00 hr 01 min 55 sec)
Heartbeat CPU 0 instructions: 24000158 cycles: 7397919 heartbeat IPC: 4.055 cumulative IPC: 3.244 (Simulation time: 00 hr 01 min 57 sec)
Heartbeat CPU 0 instructions: 24500162 cycles: 7514729 heartbeat IPC: 4.28 cumulative IPC: 3.26 (Simulation time: 00 hr 02 min 00 sec)
Heartbeat CPU 0 instructions: 25000166 cycles: 7631950 heartbeat IPC: 4.265 cumulative IPC: 3.276 (Simulation time: 00 hr 02 min 02 sec)
Heartbeat CPU 0 instructions: 25500166 cycles: 7754370 heartbeat IPC: 4.084 cumulative IPC: 3.288 (Simulation time: 00 hr 02 min 05 sec)
Heartbeat CPU 0 instructions: 26000170 cycles: 7875488 heartbeat IPC: 4.128 cumulative IPC: 3.301 (Simulation time: 00 hr 02 min 07 sec)
Heartbeat CPU 0 instructions: 26500174 cycles: 7992653 heartbeat IPC: 4.268 cumulative IPC: 3.316 (Simulation time: 00 hr 02 min 10 sec)
Heartbeat CPU 0 instructions: 27000180 cycles: 8112237 heartbeat IPC: 4.181 cumulative IPC: 3.328 (Simulation time: 00 hr 02 min 12 sec)
Heartbeat CPU 0 instructions: 27500186 cycles: 8229933 heartbeat IPC: 4.248 cumulative IPC: 3.341 (Simulation time: 00 hr 02 min 14 sec)
Heartbeat CPU 0 instructions: 28000188 cycles: 8347626 heartbeat IPC: 4.248 cumulative IPC: 3.354 (Simulation time: 00 hr 02 min 17 sec)
Heartbeat CPU 0 instructions: 28500192 cycles: 8486267 heartbeat IPC: 3.606 cumulative IPC: 3.358 (Simulation time: 00 hr 02 min 19 sec)
Heartbeat CPU 0 instructions: 29000198 cycles: 8611688 heartbeat IPC: 3.987 cumulative IPC: 3.368 (Simulation time: 00 hr 02 min 22 sec)
Heartbeat CPU 0 instructions: 29500205 cycles: 8729351 heartbeat IPC: 4.249 cumulative IPC: 3.379 (Simulation time: 00 hr 02 min 24 sec)
Heartbeat CPU 0 instructions: 30000211 cycles: 8847411 heartbeat IPC: 4.235 cumulative IPC: 3.391 (Simulation time: 00 hr 02 min 27 sec)
Heartbeat CPU 0 instructions: 30500212 cycles: 8965356 heartbeat IPC: 4.239 cumulative IPC: 3.402 (Simulation time: 00 hr 02 min 29 sec)
Heartbeat CPU 0 instructions: 31000214 cycles: 9137600 heartbeat IPC: 2.903 cumulative IPC: 3.393 (Simulation time: 00 hr 02 min 32 sec)
Heartbeat CPU 0 instructions: 31500217 cycles: 9330312 heartbeat IPC: 2.595 cumulative IPC: 3.376 (Simulation time: 00 hr 02 min 34 sec)
Heartbeat CPU 0 instructions: 32000221 cycles: 9522502 heartbeat IPC: 2.602 cumulative IPC: 3.36 (Simulation time: 00 hr 02 min 37 sec)
Heartbeat CPU 0 instructions: 32500225 cycles: 9714956 heartbeat IPC: 2.598 cumulative IPC: 3.345 (Simulation time: 00 hr 02 min 40 sec)
Heartbeat CPU 0 instructions: 33000226 cycles: 9909491 heartbeat IPC: 2.57 cumulative IPC: 3.33 (Simulation time: 00 hr 02 min 42 sec)
Heartbeat CPU 0 instructions: 33500229 cycles: 10106419 heartbeat IPC: 2.539 cumulative IPC: 3.315 (Simulation time: 00 hr 02 min 45 sec)
Heartbeat CPU 0 instructions: 34000229 cycles: 10299990 heartbeat IPC: 2.583 cumulative IPC: 3.301 (Simulation time: 00 hr 02 min 48 sec)
Heartbeat CPU 0 instructions: 34500230 cycles: 10491689 heartbeat IPC: 2.608 cumulative IPC: 3.288 (Simulation time: 00 hr 02 min 50 sec)
Heartbeat CPU 0 instructions: 35000232 cycles: 10683526 heartbeat IPC: 2.606 cumulative IPC: 3.276 (Simulation time: 00 hr 02 min 53 sec)
Heartbeat CPU 0 instructions: 35500232 cycles: 10877332 heartbeat IPC: 2.58 cumulative IPC: 3.264 (Simulation time: 00 hr 02 min 56 sec)
Heartbeat CPU 0 instructions: 36000238 cycles: 11071928 heartbeat IPC: 2.569 cumulative IPC: 3.251 (Simulation time: 00 hr 02 min 58 sec)
Heartbeat CPU 0 instructions: 36500238 cycles: 11263483 heartbeat IPC: 2.61 cumulative IPC: 3.241 (Simulation time: 00 hr 03 min 01 sec)
Heartbeat CPU 0 instructions: 37000240 cycles: 11453721 heartbeat IPC: 2.628 cumulative IPC: 3.23 (Simulation time: 00 hr 03 min 03 sec)
Heartbeat CPU 0 instructions: 37500244 cycles: 11644262 heartbeat IPC: 2.624 cumulative IPC: 3.22 (Simulation time: 00 hr 03 min 06 sec)
Heartbeat CPU 0 instructions: 38000250 cycles: 11838058 heartbeat IPC: 2.58 cumulative IPC: 3.21 (Simulation time: 00 hr 03 min 09 sec)
Heartbeat CPU 0 instructions: 38500254 cycles: 12033768 heartbeat IPC: 2.555 cumulative IPC: 3.199 (Simulation time: 00 hr 03 min 11 sec)
Heartbeat CPU 0 instructions: 39000261 cycles: 12226525 heartbeat IPC: 2.594 cumulative IPC: 3.19 (Simulation time: 00 hr 03 min 14 sec)
Heartbeat CPU 0 instructions: 39500265 cycles: 12417217 heartbeat IPC: 2.622 cumulative IPC: 3.181 (Simulation time: 00 hr 03 min 16 sec)
Heartbeat CPU 0 instructions: 40000269 cycles: 12608744 heartbeat IPC: 2.611 cumulative IPC: 3.172 (Simulation time: 00 hr 03 min 19 sec)
Heartbeat CPU 0 instructions: 40500274 cycles: 12802414 heartbeat IPC: 2.582 cumulative IPC: 3.163 (Simulation time: 00 hr 03 min 22 sec)
Heartbeat CPU 0 instructions: 41000278 cycles: 12993333 heartbeat IPC: 2.619 cumulative IPC: 3.155 (Simulation time: 00 hr 03 min 24 sec)
Heartbeat CPU 0 instructions: 41500282 cycles: 13132661 heartbeat IPC: 3.589 cumulative IPC: 3.16 (Simulation time: 00 hr 03 min 26 sec)
Heartbeat CPU 0 instructions: 42000285 cycles: 13256582 heartbeat IPC: 4.035 cumulative IPC: 3.168 (Simulation time: 00 hr 03 min 29 sec)
Heartbeat CPU 0 instructions: 42500285 cycles: 13397459 heartbeat IPC: 3.549 cumulative IPC: 3.172 (Simulation time: 00 hr 03 min 31 sec)
Heartbeat CPU 0 instructions: 43000290 cycles: 13538230 heartbeat IPC: 3.552 cumulative IPC: 3.176 (Simulation time: 00 hr 03 min 33 sec)
Heartbeat CPU 0 instructions: 43500293 cycles: 13664164 heartbeat IPC: 3.97 cumulative IPC: 3.184 (Simulation time: 00 hr 03 min 35 sec)
Heartbeat CPU 0 instructions: 44000294 cycles: 13789915 heartbeat IPC: 3.976 cumulative IPC: 3.191 (Simulation time: 00 hr 03 min 38 sec)
Heartbeat CPU 0 instructions: 44500301 cycles: 13915752 heartbeat IPC: 3.973 cumulative IPC: 3.198 (Simulation time: 00 hr 03 min 40 sec)
Heartbeat CPU 0 instructions: 45000304 cycles: 14041927 heartbeat IPC: 3.963 cumulative IPC: 3.205 (Simulation time: 00 hr 03 min 43 sec)
Heartbeat CPU 0 instructions: 45500306 cycles: 14167893 heartbeat IPC: 3.969 cumulative IPC: 3.212 (Simulation time: 00 hr 03 min 46 sec)
Heartbeat CPU 0 instructions: 46000313 cycles: 14293594 heartbeat IPC: 3.978 cumulative IPC: 3.218 (Simulation time: 00 hr 03 min 48 sec)
Heartbeat CPU 0 instructions: 46500317 cycles: 14419304 heartbeat IPC: 3.977 cumulative IPC: 3.225 (Simulation time: 00 hr 03 min 51 sec)
Heartbeat CPU 0 instructions: 47000322 cycles: 14560333 heartbeat IPC: 3.545 cumulative IPC: 3.228 (Simulation time: 00 hr 03 min 53 sec)
Heartbeat CPU 0 instructions: 47500327 cycles: 14687665 heartbeat IPC: 3.927 cumulative IPC: 3.234 (Simulation time: 00 hr 03 min 56 sec)
Heartbeat CPU 0 instructions: 48000330 cycles: 14813754 heartbeat IPC: 3.965 cumulative IPC: 3.24 (Simulation time: 00 hr 03 min 58 sec)
Heartbeat CPU 0 instructions: 48500332 cycles: 14939702 heartbeat IPC: 3.97 cumulative IPC: 3.246 (Simulation time: 00 hr 04 min 01 sec)
Heartbeat CPU 0 instructions: 49000337 cycles: 15065320 heartbeat IPC: 3.98 cumulative IPC: 3.253 (Simulation time: 00 hr 04 min 03 sec)
Heartbeat CPU 0 instructions: 49500338 cycles: 15191162 heartbeat IPC: 3.973 cumulative IPC: 3.258 (Simulation time: 00 hr 04 min 06 sec)
Warmup halting CPU 0 at instruction 50000004 cycle 15317685 for remainder of phase
Warmup finished CPU 0 instructions: 50000004 cycles: 15317685 cumulative IPC: 3.264 (Simulation time: 00 hr 04 min 08 sec)
Warmup complete CPU 0 instructions: 50000004 cycles: 15317685 cumulative IPC: 3.264 (Simulation time: 00 hr 04 min 08 sec)
Heartbeat CPU 0 instructions: 50000342 cycles: 15318103 heartbeat IPC: 3.939 cumulative IPC: 0.8086 (Simulation time: 00 hr 04 min 08 sec)
Heartbeat CPU 0 instructions: 50500345 cycles: 15728379 heartbeat IPC: 1.219 cumulative IPC: 1.218 (Simulation time: 00 hr 04 min 13 sec)
Heartbeat CPU 0 instructions: 51000351 cycles: 16172095 heartbeat IPC: 1.127 cumulative IPC: 1.171 (Simulation time: 00 hr 04 min 18 sec)
Heartbeat CPU 0 instructions: 51500354 cycles: 16611065 heartbeat IPC: 1.139 cumulative IPC: 1.16 (Simulation time: 00 hr 04 min 23 sec)
Heartbeat CPU 0 instructions: 52000356 cycles: 17043195 heartbeat IPC: 1.157 cumulative IPC: 1.159 (Simulation time: 00 hr 04 min 29 sec)
Heartbeat CPU 0 instructions: 52500360 cycles: 17491106 heartbeat IPC: 1.116 cumulative IPC: 1.15 (Simulation time: 00 hr 04 min 34 sec)
Heartbeat CPU 0 instructions: 53000365 cycles: 17921405 heartbeat IPC: 1.162 cumulative IPC: 1.152 (Simulation time: 00 hr 04 min 39 sec)
Heartbeat CPU 0 instructions: 53500366 cycles: 18394960 heartbeat IPC: 1.056 cumulative IPC: 1.137 (Simulation time: 00 hr 04 min 45 sec)
Heartbeat CPU 0 instructions: 54000366 cycles: 20085490 heartbeat IPC: 0.2958 cumulative IPC: 0.839 (Simulation time: 00 hr 05 min 01 sec)
Heartbeat CPU 0 instructions: 54500372 cycles: 22486755 heartbeat IPC: 0.2082 cumulative IPC: 0.6277 (Simulation time: 00 hr 05 min 24 sec)
Heartbeat CPU 0 instructions: 55000378 cycles: 25038985 heartbeat IPC: 0.1959 cumulative IPC: 0.5144 (Simulation time: 00 hr 05 min 47 sec)
Heartbeat CPU 0 instructions: 55500379 cycles: 27148555 heartbeat IPC: 0.237 cumulative IPC: 0.4649 (Simulation time: 00 hr 06 min 07 sec)
Heartbeat CPU 0 instructions: 56000384 cycles: 27658488 heartbeat IPC: 0.9805 cumulative IPC: 0.4862 (Simulation time: 00 hr 06 min 13 sec)
Heartbeat CPU 0 instructions: 56500388 cycles: 28133935 heartbeat IPC: 1.052 cumulative IPC: 0.5072 (Simulation time: 00 hr 06 min 19 sec)
Heartbeat CPU 0 instructions: 57000392 cycles: 28578792 heartbeat IPC: 1.124 cumulative IPC: 0.5279 (Simulation time: 00 hr 06 min 24 sec)
Heartbeat CPU 0 instructions: 57500394 cycles: 29045410 heartbeat IPC: 1.072 cumulative IPC: 0.5464 (Simulation time: 00 hr 06 min 29 sec)
Heartbeat CPU 0 instructions: 58000397 cycles: 29551779 heartbeat IPC: 0.9874 cumulative IPC: 0.5621 (Simulation time: 00 hr 06 min 35 sec)
Heartbeat CPU 0 instructions: 58500401 cycles: 30059796 heartbeat IPC: 0.9842 cumulative IPC: 0.5766 (Simulation time: 00 hr 06 min 41 sec)
Heartbeat CPU 0 instructions: 59000404 cycles: 30551071 heartbeat IPC: 1.018 cumulative IPC: 0.5908 (Simulation time: 00 hr 06 min 47 sec)
Heartbeat CPU 0 instructions: 59500404 cycles: 31043021 heartbeat IPC: 1.016 cumulative IPC: 0.6041 (Simulation time: 00 hr 06 min 53 sec)
Heartbeat CPU 0 instructions: 60000411 cycles: 31559472 heartbeat IPC: 0.9682 cumulative IPC: 0.6157 (Simulation time: 00 hr 06 min 59 sec)
Heartbeat CPU 0 instructions: 60500412 cycles: 32102334 heartbeat IPC: 0.921 cumulative IPC: 0.6256 (Simulation time: 00 hr 07 min 05 sec)
Heartbeat CPU 0 instructions: 61000416 cycles: 32591420 heartbeat IPC: 1.022 cumulative IPC: 0.6368 (Simulation time: 00 hr 07 min 11 sec)
Heartbeat CPU 0 instructions: 61500420 cycles: 33066279 heartbeat IPC: 1.053 cumulative IPC: 0.648 (Simulation time: 00 hr 07 min 16 sec)
Heartbeat CPU 0 instructions: 62000425 cycles: 33580574 heartbeat IPC: 0.9722 cumulative IPC: 0.6571 (Simulation time: 00 hr 07 min 22 sec)
Heartbeat CPU 0 instructions: 62500431 cycles: 34134647 heartbeat IPC: 0.9024 cumulative IPC: 0.6643 (Simulation time: 00 hr 07 min 29 sec)
Heartbeat CPU 0 instructions: 63000432 cycles: 34638194 heartbeat IPC: 0.993 cumulative IPC: 0.6729 (Simulation time: 00 hr 07 min 34 sec)
Heartbeat CPU 0 instructions: 63500432 cycles: 35155698 heartbeat IPC: 0.9662 cumulative IPC: 0.6805 (Simulation time: 00 hr 07 min 40 sec)
Heartbeat CPU 0 instructions: 64000439 cycles: 35647373 heartbeat IPC: 1.017 cumulative IPC: 0.6887 (Simulation time: 00 hr 07 min 46 sec)
Heartbeat CPU 0 instructions: 64500446 cycles: 36920084 heartbeat IPC: 0.3929 cumulative IPC: 0.6712 (Simulation time: 00 hr 07 min 59 sec)
Heartbeat CPU 0 instructions: 65000447 cycles: 39152717 heartbeat IPC: 0.224 cumulative IPC: 0.6293 (Simulation time: 00 hr 08 min 20 sec)
Heartbeat CPU 0 instructions: 65500447 cycles: 41936848 heartbeat IPC: 0.1796 cumulative IPC: 0.5823 (Simulation time: 00 hr 08 min 45 sec)
Heartbeat CPU 0 instructions: 66000454 cycles: 43332515 heartbeat IPC: 0.3583 cumulative IPC: 0.5711 (Simulation time: 00 hr 08 min 58 sec)
Heartbeat CPU 0 instructions: 66500458 cycles: 43780736 heartbeat IPC: 1.116 cumulative IPC: 0.5797 (Simulation time: 00 hr 09 min 04 sec)
Heartbeat CPU 0 instructions: 67000462 cycles: 44186455 heartbeat IPC: 1.232 cumulative IPC: 0.5889 (Simulation time: 00 hr 09 min 08 sec)
Heartbeat CPU 0 instructions: 67500467 cycles: 44622319 heartbeat IPC: 1.147 cumulative IPC: 0.5972 (Simulation time: 00 hr 09 min 14 sec)
Heartbeat CPU 0 instructions: 68000468 cycles: 45099000 heartbeat IPC: 1.049 cumulative IPC: 0.6044 (Simulation time: 00 hr 09 min 19 sec)
Heartbeat CPU 0 instructions: 68500472 cycles: 45550881 heartbeat IPC: 1.106 cumulative IPC: 0.6119 (Simulation time: 00 hr 09 min 24 sec)
Heartbeat CPU 0 instructions: 69000476 cycles: 45982150 heartbeat IPC: 1.159 cumulative IPC: 0.6196 (Simulation time: 00 hr 09 min 30 sec)
Heartbeat CPU 0 instructions: 69500480 cycles: 46409960 heartbeat IPC: 1.169 cumulative IPC: 0.6272 (Simulation time: 00 hr 09 min 35 sec)
Heartbeat CPU 0 instructions: 70000480 cycles: 46816021 heartbeat IPC: 1.231 cumulative IPC: 0.635 (Simulation time: 00 hr 09 min 39 sec)
Heartbeat CPU 0 instructions: 70500485 cycles: 47241654 heartbeat IPC: 1.175 cumulative IPC: 0.6422 (Simulation time: 00 hr 09 min 44 sec)
Heartbeat CPU 0 instructions: 71000485 cycles: 47655126 heartbeat IPC: 1.209 cumulative IPC: 0.6494 (Simulation time: 00 hr 09 min 49 sec)
Heartbeat CPU 0 instructions: 71500492 cycles: 48025931 heartbeat IPC: 1.348 cumulative IPC: 0.6573 (Simulation time: 00 hr 09 min 54 sec)
Heartbeat CPU 0 instructions: 72000492 cycles: 48380895 heartbeat IPC: 1.409 cumulative IPC: 0.6654 (Simulation time: 00 hr 09 min 58 sec)
Heartbeat CPU 0 instructions: 72500499 cycles: 48763175 heartbeat IPC: 1.308 cumulative IPC: 0.6728 (Simulation time: 00 hr 10 min 03 sec)
Heartbeat CPU 0 instructions: 73000503 cycles: 49144731 heartbeat IPC: 1.31 cumulative IPC: 0.6799 (Simulation time: 00 hr 10 min 08 sec)
Heartbeat CPU 0 instructions: 73500504 cycles: 49509266 heartbeat IPC: 1.372 cumulative IPC: 0.6873 (Simulation time: 00 hr 10 min 12 sec)
Heartbeat CPU 0 instructions: 74000508 cycles: 49920135 heartbeat IPC: 1.217 cumulative IPC: 0.6936 (Simulation time: 00 hr 10 min 17 sec)
Heartbeat CPU 0 instructions: 74500515 cycles: 50325673 heartbeat IPC: 1.233 cumulative IPC: 0.6999 (Simulation time: 00 hr 10 min 22 sec)
Heartbeat CPU 0 instructions: 75000518 cycles: 51785554 heartbeat IPC: 0.3425 cumulative IPC: 0.6855 (Simulation time: 00 hr 10 min 36 sec)
Heartbeat CPU 0 instructions: 75500519 cycles: 54004283 heartbeat IPC: 0.2254 cumulative IPC: 0.6592 (Simulation time: 00 hr 10 min 56 sec)
Heartbeat CPU 0 instructions: 76000523 cycles: 56478519 heartbeat IPC: 0.2021 cumulative IPC: 0.6317 (Simulation time: 00 hr 11 min 19 sec)
Heartbeat CPU 0 instructions: 76500528 cycles: 57168287 heartbeat IPC: 0.7249 cumulative IPC: 0.6332 (Simulation time: 00 hr 11 min 27 sec)
Heartbeat CPU 0 instructions: 77000532 cycles: 57633419 heartbeat IPC: 1.075 cumulative IPC: 0.6381 (Simulation time: 00 hr 11 min 32 sec)
Heartbeat CPU 0 instructions: 77500539 cycles: 58070899 heartbeat IPC: 1.143 cumulative IPC: 0.6432 (Simulation time: 00 hr 11 min 38 sec)
Heartbeat CPU 0 instructions: 78000544 cycles: 58524373 heartbeat IPC: 1.103 cumulative IPC: 0.6481 (Simulation time: 00 hr 11 min 43 sec)
Heartbeat CPU 0 instructions: 78500547 cycles: 59008041 heartbeat IPC: 1.034 cumulative IPC: 0.6523 (Simulation time: 00 hr 11 min 49 sec)
Heartbeat CPU 0 instructions: 79000551 cycles: 59494746 heartbeat IPC: 1.027 cumulative IPC: 0.6565 (Simulation time: 00 hr 11 min 54 sec)
Heartbeat CPU 0 instructions: 79500556 cycles: 59981240 heartbeat IPC: 1.028 cumulative IPC: 0.6605 (Simulation time: 00 hr 12 min 00 sec)
Heartbeat CPU 0 instructions: 80000561 cycles: 60457772 heartbeat IPC: 1.049 cumulative IPC: 0.6646 (Simulation time: 00 hr 12 min 06 sec)
Heartbeat CPU 0 instructions: 80500568 cycles: 60943721 heartbeat IPC: 1.029 cumulative IPC: 0.6685 (Simulation time: 00 hr 12 min 11 sec)
Heartbeat CPU 0 instructions: 81000569 cycles: 61463171 heartbeat IPC: 0.9626 cumulative IPC: 0.6718 (Simulation time: 00 hr 12 min 17 sec)
Heartbeat CPU 0 instructions: 81500575 cycles: 61983210 heartbeat IPC: 0.9615 cumulative IPC: 0.675 (Simulation time: 00 hr 12 min 23 sec)
Heartbeat CPU 0 instructions: 82000577 cycles: 62506386 heartbeat IPC: 0.9557 cumulative IPC: 0.6781 (Simulation time: 00 hr 12 min 29 sec)
Heartbeat CPU 0 instructions: 82500583 cycles: 62993597 heartbeat IPC: 1.026 cumulative IPC: 0.6817 (Simulation time: 00 hr 12 min 35 sec)
Heartbeat CPU 0 instructions: 83000583 cycles: 63511201 heartbeat IPC: 0.966 cumulative IPC: 0.6848 (Simulation time: 00 hr 12 min 41 sec)
Heartbeat CPU 0 instructions: 83500584 cycles: 64029812 heartbeat IPC: 0.9641 cumulative IPC: 0.6877 (Simulation time: 00 hr 12 min 47 sec)
Heartbeat CPU 0 instructions: 84000584 cycles: 64549621 heartbeat IPC: 0.9619 cumulative IPC: 0.6906 (Simulation time: 00 hr 12 min 53 sec)
Heartbeat CPU 0 instructions: 84500584 cycles: 66182433 heartbeat IPC: 0.3062 cumulative IPC: 0.6783 (Simulation time: 00 hr 13 min 09 sec)
Heartbeat CPU 0 instructions: 85000590 cycles: 68593888 heartbeat IPC: 0.2073 cumulative IPC: 0.657 (Simulation time: 00 hr 13 min 31 sec)
Heartbeat CPU 0 instructions: 85500590 cycles: 71084690 heartbeat IPC: 0.2007 cumulative IPC: 0.6366 (Simulation time: 00 hr 13 min 54 sec)
Heartbeat CPU 0 instructions: 86000590 cycles: 71456604 heartbeat IPC: 1.344 cumulative IPC: 0.6413 (Simulation time: 00 hr 13 min 59 sec)
Heartbeat CPU 0 instructions: 86500595 cycles: 71853117 heartbeat IPC: 1.261 cumulative IPC: 0.6456 (Simulation time: 00 hr 14 min 04 sec)
Heartbeat CPU 0 instructions: 87000598 cycles: 72275336 heartbeat IPC: 1.184 cumulative IPC: 0.6496 (Simulation time: 00 hr 14 min 09 sec)
Heartbeat CPU 0 instructions: 87500599 cycles: 72695065 heartbeat IPC: 1.191 cumulative IPC: 0.6536 (Simulation time: 00 hr 14 min 14 sec)
Heartbeat CPU 0 instructions: 88000601 cycles: 73110935 heartbeat IPC: 1.202 cumulative IPC: 0.6575 (Simulation time: 00 hr 14 min 19 sec)
Heartbeat CPU 0 instructions: 88500608 cycles: 73527488 heartbeat IPC: 1.2 cumulative IPC: 0.6614 (Simulation time: 00 hr 14 min 24 sec)
Heartbeat CPU 0 instructions: 89000615 cycles: 73948361 heartbeat IPC: 1.188 cumulative IPC: 0.6652 (Simulation time: 00 hr 14 min 29 sec)
Heartbeat CPU 0 instructions: 89500620 cycles: 74351519 heartbeat IPC: 1.24 cumulative IPC: 0.6691 (Simulation time: 00 hr 14 min 34 sec)
Heartbeat CPU 0 instructions: 90000623 cycles: 74738258 heartbeat IPC: 1.293 cumulative IPC: 0.6732 (Simulation time: 00 hr 14 min 38 sec)
Heartbeat CPU 0 instructions: 90500623 cycles: 75125676 heartbeat IPC: 1.291 cumulative IPC: 0.6772 (Simulation time: 00 hr 14 min 43 sec)
Heartbeat CPU 0 instructions: 91000630 cycles: 75481978 heartbeat IPC: 1.403 cumulative IPC: 0.6815 (Simulation time: 00 hr 14 min 47 sec)
Heartbeat CPU 0 instructions: 91500637 cycles: 75826615 heartbeat IPC: 1.451 cumulative IPC: 0.6859 (Simulation time: 00 hr 14 min 52 sec)
Heartbeat CPU 0 instructions: 92000642 cycles: 76161185 heartbeat IPC: 1.494 cumulative IPC: 0.6903 (Simulation time: 00 hr 14 min 56 sec)
Heartbeat CPU 0 instructions: 92500645 cycles: 76520646 heartbeat IPC: 1.391 cumulative IPC: 0.6944 (Simulation time: 00 hr 15 min 00 sec)
Heartbeat CPU 0 instructions: 93000651 cycles: 76880478 heartbeat IPC: 1.39 cumulative IPC: 0.6985 (Simulation time: 00 hr 15 min 05 sec)
Heartbeat CPU 0 instructions: 93500655 cycles: 77229015 heartbeat IPC: 1.435 cumulative IPC: 0.7026 (Simulation time: 00 hr 15 min 09 sec)
Heartbeat CPU 0 instructions: 94000658 cycles: 78908278 heartbeat IPC: 0.2978 cumulative IPC: 0.6919 (Simulation time: 00 hr 15 min 25 sec)
Heartbeat CPU 0 instructions: 94500658 cycles: 80998824 heartbeat IPC: 0.2392 cumulative IPC: 0.6775 (Simulation time: 00 hr 15 min 45 sec)
Heartbeat CPU 0 instructions: 95000658 cycles: 82701555 heartbeat IPC: 0.2936 cumulative IPC: 0.6678 (Simulation time: 00 hr 16 min 01 sec)
Heartbeat CPU 0 instructions: 95500665 cycles: 83169542 heartbeat IPC: 1.068 cumulative IPC: 0.6706 (Simulation time: 00 hr 16 min 06 sec)
Heartbeat CPU 0 instructions: 96000668 cycles: 83635288 heartbeat IPC: 1.074 cumulative IPC: 0.6733 (Simulation time: 00 hr 16 min 12 sec)
Heartbeat CPU 0 instructions: 96500670 cycles: 84056237 heartbeat IPC: 1.188 cumulative IPC: 0.6765 (Simulation time: 00 hr 16 min 17 sec)
Heartbeat CPU 0 instructions: 97000673 cycles: 84520059 heartbeat IPC: 1.078 cumulative IPC: 0.6792 (Simulation time: 00 hr 16 min 22 sec)
Heartbeat CPU 0 instructions: 97500680 cycles: 84995763 heartbeat IPC: 1.051 cumulative IPC: 0.6817 (Simulation time: 00 hr 16 min 28 sec)
Heartbeat CPU 0 instructions: 98000683 cycles: 85506556 heartbeat IPC: 0.9789 cumulative IPC: 0.6839 (Simulation time: 00 hr 16 min 34 sec)
Heartbeat CPU 0 instructions: 98500689 cycles: 86000417 heartbeat IPC: 1.012 cumulative IPC: 0.6862 (Simulation time: 00 hr 16 min 40 sec)
Heartbeat CPU 0 instructions: 99000692 cycles: 86494645 heartbeat IPC: 1.012 cumulative IPC: 0.6884 (Simulation time: 00 hr 16 min 46 sec)
Heartbeat CPU 0 instructions: 99500695 cycles: 87007648 heartbeat IPC: 0.9747 cumulative IPC: 0.6905 (Simulation time: 00 hr 16 min 52 sec)
Heartbeat CPU 0 instructions: 100000695 cycles: 87535969 heartbeat IPC: 0.9464 cumulative IPC: 0.6924 (Simulation time: 00 hr 16 min 58 sec)
Heartbeat CPU 0 instructions: 100500699 cycles: 88019154 heartbeat IPC: 1.035 cumulative IPC: 0.6946 (Simulation time: 00 hr 17 min 03 sec)
Heartbeat CPU 0 instructions: 101000699 cycles: 88902162 heartbeat IPC: 0.5662 cumulative IPC: 0.6931 (Simulation time: 00 hr 17 min 13 sec)
Heartbeat CPU 0 instructions: 101500700 cycles: 90891162 heartbeat IPC: 0.2514 cumulative IPC: 0.6815 (Simulation time: 00 hr 17 min 32 sec)
Heartbeat CPU 0 instructions: 102000706 cycles: 92702057 heartbeat IPC: 0.2761 cumulative IPC: 0.672 (Simulation time: 00 hr 17 min 49 sec)
Heartbeat CPU 0 instructions: 102500713 cycles: 93025113 heartbeat IPC: 1.548 cumulative IPC: 0.6756 (Simulation time: 00 hr 17 min 53 sec)
Heartbeat CPU 0 instructions: 103000715 cycles: 93350461 heartbeat IPC: 1.537 cumulative IPC: 0.6792 (Simulation time: 00 hr 17 min 57 sec)
Heartbeat CPU 0 instructions: 103500718 cycles: 93621541 heartbeat IPC: 1.844 cumulative IPC: 0.6832 (Simulation time: 00 hr 18 min 01 sec)
Heartbeat CPU 0 instructions: 104000721 cycles: 93930114 heartbeat IPC: 1.62 cumulative IPC: 0.6869 (Simulation time: 00 hr 18 min 05 sec)
Heartbeat CPU 0 instructions: 104500726 cycles: 94306671 heartbeat IPC: 1.328 cumulative IPC: 0.69 (Simulation time: 00 hr 18 min 10 sec)
Heartbeat CPU 0 instructions: 105000730 cycles: 94622076 heartbeat IPC: 1.585 cumulative IPC: 0.6935 (Simulation time: 00 hr 18 min 14 sec)
Heartbeat CPU 0 instructions: 105500737 cycles: 94892776 heartbeat IPC: 1.847 cumulative IPC: 0.6975 (Simulation time: 00 hr 18 min 17 sec)
Heartbeat CPU 0 instructions: 106000740 cycles: 95187604 heartbeat IPC: 1.696 cumulative IPC: 0.7011 (Simulation time: 00 hr 18 min 21 sec)
Heartbeat CPU 0 instructions: 106500743 cycles: 95472415 heartbeat IPC: 1.756 cumulative IPC: 0.7049 (Simulation time: 00 hr 18 min 25 sec)
Heartbeat CPU 0 instructions: 107000745 cycles: 95720197 heartbeat IPC: 2.018 cumulative IPC: 0.7089 (Simulation time: 00 hr 18 min 28 sec)
Heartbeat CPU 0 instructions: 107500748 cycles: 95984919 heartbeat IPC: 1.889 cumulative IPC: 0.7128 (Simulation time: 00 hr 18 min 32 sec)
Heartbeat CPU 0 instructions: 108000754 cycles: 96472333 heartbeat IPC: 1.026 cumulative IPC: 0.7147 (Simulation time: 00 hr 18 min 37 sec)
Heartbeat CPU 0 instructions: 108500760 cycles: 97748833 heartbeat IPC: 0.3917 cumulative IPC: 0.7097 (Simulation time: 00 hr 18 min 49 sec)
Heartbeat CPU 0 instructions: 109000760 cycles: 98975085 heartbeat IPC: 0.4077 cumulative IPC: 0.7053 (Simulation time: 00 hr 19 min 01 sec)
Heartbeat CPU 0 instructions: 109500764 cycles: 99445740 heartbeat IPC: 1.062 cumulative IPC: 0.7073 (Simulation time: 00 hr 19 min 06 sec)
Heartbeat CPU 0 instructions: 110000765 cycles: 99891210 heartbeat IPC: 1.122 cumulative IPC: 0.7095 (Simulation time: 00 hr 19 min 12 sec)
Heartbeat CPU 0 instructions: 110500767 cycles: 100303955 heartbeat IPC: 1.211 cumulative IPC: 0.7119 (Simulation time: 00 hr 19 min 17 sec)
Heartbeat CPU 0 instructions: 111000768 cycles: 100711972 heartbeat IPC: 1.225 cumulative IPC: 0.7143 (Simulation time: 00 hr 19 min 22 sec)
Heartbeat CPU 0 instructions: 111500773 cycles: 101118941 heartbeat IPC: 1.229 cumulative IPC: 0.7168 (Simulation time: 00 hr 19 min 27 sec)
Heartbeat CPU 0 instructions: 112000773 cycles: 101591579 heartbeat IPC: 1.058 cumulative IPC: 0.7187 (Simulation time: 00 hr 19 min 32 sec)
Heartbeat CPU 0 instructions: 112500777 cycles: 102076296 heartbeat IPC: 1.032 cumulative IPC: 0.7204 (Simulation time: 00 hr 19 min 38 sec)
Heartbeat CPU 0 instructions: 113000781 cycles: 102605004 heartbeat IPC: 0.9457 cumulative IPC: 0.7218 (Simulation time: 00 hr 19 min 44 sec)
Heartbeat CPU 0 instructions: 113500787 cycles: 104229707 heartbeat IPC: 0.3078 cumulative IPC: 0.7142 (Simulation time: 00 hr 20 min 00 sec)
Heartbeat CPU 0 instructions: 114000788 cycles: 104940058 heartbeat IPC: 0.7039 cumulative IPC: 0.7141 (Simulation time: 00 hr 20 min 08 sec)
Heartbeat CPU 0 instructions: 114500791 cycles: 105150373 heartbeat IPC: 2.377 cumulative IPC: 0.718 (Simulation time: 00 hr 20 min 11 sec)
Heartbeat CPU 0 instructions: 115000798 cycles: 105353636 heartbeat IPC: 2.46 cumulative IPC: 0.7219 (Simulation time: 00 hr 20 min 14 sec)
Heartbeat CPU 0 instructions: 115500800 cycles: 105581648 heartbeat IPC: 2.193 cumulative IPC: 0.7257 (Simulation time: 00 hr 20 min 17 sec)
Heartbeat CPU 0 instructions: 116000807 cycles: 105796745 heartbeat IPC: 2.325 cumulative IPC: 0.7295 (Simulation time: 00 hr 20 min 20 sec)
Heartbeat CPU 0 instructions: 116500810 cycles: 105988730 heartbeat IPC: 2.604 cumulative IPC: 0.7334 (Simulation time: 00 hr 20 min 23 sec)
Heartbeat CPU 0 instructions: 117000811 cycles: 106197682 heartbeat IPC: 2.393 cumulative IPC: 0.7372 (Simulation time: 00 hr 20 min 26 sec)
Heartbeat CPU 0 instructions: 117500812 cycles: 106362791 heartbeat IPC: 3.028 cumulative IPC: 0.7414 (Simulation time: 00 hr 20 min 28 sec)
Heartbeat CPU 0 instructions: 118000813 cycles: 106636748 heartbeat IPC: 1.825 cumulative IPC: 0.7447 (Simulation time: 00 hr 20 min 32 sec)
Heartbeat CPU 0 instructions: 118500818 cycles: 107248603 heartbeat IPC: 0.8172 cumulative IPC: 0.7451 (Simulation time: 00 hr 20 min 38 sec)
Heartbeat CPU 0 instructions: 119000820 cycles: 107708107 heartbeat IPC: 1.088 cumulative IPC: 0.7468 (Simulation time: 00 hr 20 min 44 sec)
Heartbeat CPU 0 instructions: 119500822 cycles: 108095624 heartbeat IPC: 1.29 cumulative IPC: 0.7491 (Simulation time: 00 hr 20 min 48 sec)
Heartbeat CPU 0 instructions: 120000823 cycles: 108481841 heartbeat IPC: 1.295 cumulative IPC: 0.7514 (Simulation time: 00 hr 20 min 53 sec)
Heartbeat CPU 0 instructions: 120500823 cycles: 108889760 heartbeat IPC: 1.226 cumulative IPC: 0.7534 (Simulation time: 00 hr 20 min 58 sec)
Heartbeat CPU 0 instructions: 121000826 cycles: 109381718 heartbeat IPC: 1.016 cumulative IPC: 0.7548 (Simulation time: 00 hr 21 min 04 sec)
Heartbeat CPU 0 instructions: 121500826 cycles: 109829376 heartbeat IPC: 1.117 cumulative IPC: 0.7565 (Simulation time: 00 hr 21 min 09 sec)
Heartbeat CPU 0 instructions: 122000826 cycles: 110265143 heartbeat IPC: 1.147 cumulative IPC: 0.7583 (Simulation time: 00 hr 21 min 14 sec)
Heartbeat CPU 0 instructions: 122500828 cycles: 110746436 heartbeat IPC: 1.039 cumulative IPC: 0.7597 (Simulation time: 00 hr 21 min 20 sec)
Heartbeat CPU 0 instructions: 123000831 cycles: 111271861 heartbeat IPC: 0.9516 cumulative IPC: 0.7608 (Simulation time: 00 hr 21 min 26 sec)
Heartbeat CPU 0 instructions: 123500831 cycles: 111795374 heartbeat IPC: 0.9551 cumulative IPC: 0.7618 (Simulation time: 00 hr 21 min 32 sec)
Heartbeat CPU 0 instructions: 124000837 cycles: 112323497 heartbeat IPC: 0.9468 cumulative IPC: 0.7628 (Simulation time: 00 hr 21 min 38 sec)
Heartbeat CPU 0 instructions: 124500838 cycles: 113816615 heartbeat IPC: 0.3349 cumulative IPC: 0.7564 (Simulation time: 00 hr 21 min 53 sec)
Heartbeat CPU 0 instructions: 125000838 cycles: 116192772 heartbeat IPC: 0.2104 cumulative IPC: 0.7435 (Simulation time: 00 hr 22 min 15 sec)
Heartbeat CPU 0 instructions: 125500838 cycles: 116660207 heartbeat IPC: 1.07 cumulative IPC: 0.745 (Simulation time: 00 hr 22 min 21 sec)
Heartbeat CPU 0 instructions: 126000844 cycles: 116957286 heartbeat IPC: 1.683 cumulative IPC: 0.7477 (Simulation time: 00 hr 22 min 24 sec)
Heartbeat CPU 0 instructions: 126500849 cycles: 117267205 heartbeat IPC: 1.613 cumulative IPC: 0.7504 (Simulation time: 00 hr 22 min 28 sec)
Heartbeat CPU 0 instructions: 127000851 cycles: 117539322 heartbeat IPC: 1.837 cumulative IPC: 0.7533 (Simulation time: 00 hr 22 min 32 sec)
Heartbeat CPU 0 instructions: 127500858 cycles: 117879342 heartbeat IPC: 1.471 cumulative IPC: 0.7557 (Simulation time: 00 hr 22 min 36 sec)
Heartbeat CPU 0 instructions: 128000862 cycles: 118214490 heartbeat IPC: 1.492 cumulative IPC: 0.758 (Simulation time: 00 hr 22 min 40 sec)
Heartbeat CPU 0 instructions: 128500862 cycles: 118514613 heartbeat IPC: 1.666 cumulative IPC: 0.7607 (Simulation time: 00 hr 22 min 44 sec)
Heartbeat CPU 0 instructions: 129000868 cycles: 118776638 heartbeat IPC: 1.908 cumulative IPC: 0.7636 (Simulation time: 00 hr 22 min 48 sec)
Heartbeat CPU 0 instructions: 129500871 cycles: 119026841 heartbeat IPC: 1.998 cumulative IPC: 0.7666 (Simulation time: 00 hr 22 min 51 sec)
Heartbeat CPU 0 instructions: 130000873 cycles: 119277066 heartbeat IPC: 1.998 cumulative IPC: 0.7695 (Simulation time: 00 hr 22 min 54 sec)
Heartbeat CPU 0 instructions: 130500873 cycles: 119560001 heartbeat IPC: 1.767 cumulative IPC: 0.7722 (Simulation time: 00 hr 22 min 58 sec)
Heartbeat CPU 0 instructions: 131000873 cycles: 120155873 heartbeat IPC: 0.8391 cumulative IPC: 0.7726 (Simulation time: 00 hr 23 min 04 sec)
Heartbeat CPU 0 instructions: 131500877 cycles: 121447112 heartbeat IPC: 0.3872 cumulative IPC: 0.7679 (Simulation time: 00 hr 23 min 17 sec)
Heartbeat CPU 0 instructions: 132000877 cycles: 122227546 heartbeat IPC: 0.6407 cumulative IPC: 0.767 (Simulation time: 00 hr 23 min 25 sec)
Heartbeat CPU 0 instructions: 132500881 cycles: 122699983 heartbeat IPC: 1.058 cumulative IPC: 0.7683 (Simulation time: 00 hr 23 min 30 sec)
Heartbeat CPU 0 instructions: 133000884 cycles: 123106054 heartbeat IPC: 1.231 cumulative IPC: 0.77 (Simulation time: 00 hr 23 min 35 sec)
Heartbeat CPU 0 instructions: 133500890 cycles: 123477687 heartbeat IPC: 1.345 cumulative IPC: 0.772 (Simulation time: 00 hr 23 min 40 sec)
Heartbeat CPU 0 instructions: 134000897 cycles: 123857169 heartbeat IPC: 1.318 cumulative IPC: 0.7739 (Simulation time: 00 hr 23 min 44 sec)
Heartbeat CPU 0 instructions: 134500904 cycles: 124319833 heartbeat IPC: 1.081 cumulative IPC: 0.7752 (Simulation time: 00 hr 23 min 50 sec)
Heartbeat CPU 0 instructions: 135000906 cycles: 124804728 heartbeat IPC: 1.031 cumulative IPC: 0.7764 (Simulation time: 00 hr 23 min 55 sec)
Heartbeat CPU 0 instructions: 135500913 cycles: 125293530 heartbeat IPC: 1.023 cumulative IPC: 0.7775 (Simulation time: 00 hr 24 min 01 sec)
Heartbeat CPU 0 instructions: 136000920 cycles: 125789148 heartbeat IPC: 1.009 cumulative IPC: 0.7785 (Simulation time: 00 hr 24 min 07 sec)
Heartbeat CPU 0 instructions: 136500926 cycles: 126947242 heartbeat IPC: 0.4317 cumulative IPC: 0.7749 (Simulation time: 00 hr 24 min 19 sec)
Heartbeat CPU 0 instructions: 137000932 cycles: 128772812 heartbeat IPC: 0.2739 cumulative IPC: 0.7668 (Simulation time: 00 hr 24 min 37 sec)
Heartbeat CPU 0 instructions: 137500939 cycles: 128973287 heartbeat IPC: 2.494 cumulative IPC: 0.7699 (Simulation time: 00 hr 24 min 40 sec)
Heartbeat CPU 0 instructions: 138000942 cycles: 129220887 heartbeat IPC: 2.019 cumulative IPC: 0.7726 (Simulation time: 00 hr 24 min 43 sec)
Heartbeat CPU 0 instructions: 138500945 cycles: 129447358 heartbeat IPC: 2.208 cumulative IPC: 0.7754 (Simulation time: 00 hr 24 min 46 sec)
Heartbeat CPU 0 instructions: 139000947 cycles: 129701774 heartbeat IPC: 1.965 cumulative IPC: 0.7781 (Simulation time: 00 hr 24 min 50 sec)
Heartbeat CPU 0 instructions: 139500954 cycles: 129907379 heartbeat IPC: 2.432 cumulative IPC: 0.7811 (Simulation time: 00 hr 24 min 53 sec)
Heartbeat CPU 0 instructions: 140000957 cycles: 130172270 heartbeat IPC: 1.888 cumulative IPC: 0.7836 (Simulation time: 00 hr 24 min 56 sec)
Heartbeat CPU 0 instructions: 140500964 cycles: 130382662 heartbeat IPC: 2.377 cumulative IPC: 0.7865 (Simulation time: 00 hr 24 min 59 sec)
Heartbeat CPU 0 instructions: 141000964 cycles: 130611966 heartbeat IPC: 2.181 cumulative IPC: 0.7893 (Simulation time: 00 hr 25 min 02 sec)
Heartbeat CPU 0 instructions: 141500969 cycles: 130809614 heartbeat IPC: 2.53 cumulative IPC: 0.7923 (Simulation time: 00 hr 25 min 05 sec)
Heartbeat CPU 0 instructions: 142000973 cycles: 131410262 heartbeat IPC: 0.8324 cumulative IPC: 0.7925 (Simulation time: 00 hr 25 min 12 sec)
Heartbeat CPU 0 instructions: 142500974 cycles: 132132303 heartbeat IPC: 0.6925 cumulative IPC: 0.7919 (Simulation time: 00 hr 25 min 19 sec)
Heartbeat CPU 0 instructions: 143000978 cycles: 132548962 heartbeat IPC: 1.2 cumulative IPC: 0.7933 (Simulation time: 00 hr 25 min 24 sec)
Heartbeat CPU 0 instructions: 143500981 cycles: 132964499 heartbeat IPC: 1.203 cumulative IPC: 0.7948 (Simulation time: 00 hr 25 min 29 sec)
Heartbeat CPU 0 instructions: 144000987 cycles: 133344576 heartbeat IPC: 1.316 cumulative IPC: 0.7964 (Simulation time: 00 hr 25 min 34 sec)
Heartbeat CPU 0 instructions: 144500991 cycles: 133743851 heartbeat IPC: 1.252 cumulative IPC: 0.798 (Simulation time: 00 hr 25 min 39 sec)
Heartbeat CPU 0 instructions: 145000995 cycles: 134177699 heartbeat IPC: 1.152 cumulative IPC: 0.7993 (Simulation time: 00 hr 25 min 44 sec)
Heartbeat CPU 0 instructions: 145501001 cycles: 134647209 heartbeat IPC: 1.065 cumulative IPC: 0.8003 (Simulation time: 00 hr 25 min 50 sec)
Heartbeat CPU 0 instructions: 146001008 cycles: 135448343 heartbeat IPC: 0.6241 cumulative IPC: 0.7991 (Simulation time: 00 hr 25 min 58 sec)
Heartbeat CPU 0 instructions: 146501014 cycles: 136404647 heartbeat IPC: 0.5229 cumulative IPC: 0.797 (Simulation time: 00 hr 26 min 08 sec)
Heartbeat CPU 0 instructions: 147001014 cycles: 136554538 heartbeat IPC: 3.336 cumulative IPC: 0.8001 (Simulation time: 00 hr 26 min 11 sec)
Heartbeat CPU 0 instructions: 147501014 cycles: 136689208 heartbeat IPC: 3.713 cumulative IPC: 0.8033 (Simulation time: 00 hr 26 min 13 sec)
Heartbeat CPU 0 instructions: 148001015 cycles: 136851719 heartbeat IPC: 3.077 cumulative IPC: 0.8064 (Simulation time: 00 hr 26 min 16 sec)
Heartbeat CPU 0 instructions: 148501021 cycles: 137044635 heartbeat IPC: 2.592 cumulative IPC: 0.8092 (Simulation time: 00 hr 26 min 19 sec)
Heartbeat CPU 0 instructions: 149001026 cycles: 137217640 heartbeat IPC: 2.89 cumulative IPC: 0.8121 (Simulation time: 00 hr 26 min 21 sec)
Heartbeat CPU 0 instructions: 149501031 cycles: 137364395 heartbeat IPC: 3.407 cumulative IPC: 0.8153 (Simulation time: 00 hr 26 min 24 sec)
Heartbeat CPU 0 instructions: 150001036 cycles: 137581673 heartbeat IPC: 2.301 cumulative IPC: 0.8179 (Simulation time: 00 hr 26 min 27 sec)
Heartbeat CPU 0 instructions: 150501043 cycles: 138010193 heartbeat IPC: 1.167 cumulative IPC: 0.8191 (Simulation time: 00 hr 26 min 32 sec)
Heartbeat CPU 0 instructions: 151001047 cycles: 138516424 heartbeat IPC: 0.9877 cumulative IPC: 0.8198 (Simulation time: 00 hr 26 min 38 sec)
Heartbeat CPU 0 instructions: 151501052 cycles: 138971147 heartbeat IPC: 1.1 cumulative IPC: 0.8209 (Simulation time: 00 hr 26 min 43 sec)
Heartbeat CPU 0 instructions: 152001052 cycles: 139419609 heartbeat IPC: 1.115 cumulative IPC: 0.8219 (Simulation time: 00 hr 26 min 49 sec)
Heartbeat CPU 0 instructions: 152501059 cycles: 139825506 heartbeat IPC: 1.232 cumulative IPC: 0.8232 (Simulation time: 00 hr 26 min 53 sec)
Heartbeat CPU 0 instructions: 153001063 cycles: 140295734 heartbeat IPC: 1.063 cumulative IPC: 0.8242 (Simulation time: 00 hr 26 min 59 sec)
Heartbeat CPU 0 instructions: 153501064 cycles: 140776146 heartbeat IPC: 1.041 cumulative IPC: 0.825 (Simulation time: 00 hr 27 min 05 sec)
Heartbeat CPU 0 instructions: 154001068 cycles: 141278287 heartbeat IPC: 0.9957 cumulative IPC: 0.8257 (Simulation time: 00 hr 27 min 11 sec)
Heartbeat CPU 0 instructions: 154501068 cycles: 141743227 heartbeat IPC: 1.075 cumulative IPC: 0.8266 (Simulation time: 00 hr 27 min 16 sec)
Heartbeat CPU 0 instructions: 155001073 cycles: 142254114 heartbeat IPC: 0.9787 cumulative IPC: 0.8272 (Simulation time: 00 hr 27 min 22 sec)
Heartbeat CPU 0 instructions: 155501074 cycles: 142804810 heartbeat IPC: 0.9079 cumulative IPC: 0.8275 (Simulation time: 00 hr 27 min 28 sec)
Heartbeat CPU 0 instructions: 156001074 cycles: 143315556 heartbeat IPC: 0.979 cumulative IPC: 0.8281 (Simulation time: 00 hr 27 min 34 sec)
Heartbeat CPU 0 instructions: 156501076 cycles: 143793166 heartbeat IPC: 1.047 cumulative IPC: 0.829 (Simulation time: 00 hr 27 min 40 sec)
Heartbeat CPU 0 instructions: 157001077 cycles: 145673384 heartbeat IPC: 0.2659 cumulative IPC: 0.8208 (Simulation time: 00 hr 27 min 59 sec)
Heartbeat CPU 0 instructions: 157501083 cycles: 148220264 heartbeat IPC: 0.1963 cumulative IPC: 0.8089 (Simulation time: 00 hr 28 min 22 sec)
Heartbeat CPU 0 instructions: 158001090 cycles: 148570729 heartbeat IPC: 1.427 cumulative IPC: 0.8105 (Simulation time: 00 hr 28 min 27 sec)
Heartbeat CPU 0 instructions: 158501090 cycles: 148906028 heartbeat IPC: 1.491 cumulative IPC: 0.8122 (Simulation time: 00 hr 28 min 31 sec)
Heartbeat CPU 0 instructions: 159001095 cycles: 149241532 heartbeat IPC: 1.49 cumulative IPC: 0.8139 (Simulation time: 00 hr 28 min 35 sec)
Heartbeat CPU 0 instructions: 159501095 cycles: 149548037 heartbeat IPC: 1.631 cumulative IPC: 0.8158 (Simulation time: 00 hr 28 min 39 sec)
Heartbeat CPU 0 instructions: 160001098 cycles: 149880145 heartbeat IPC: 1.506 cumulative IPC: 0.8175 (Simulation time: 00 hr 28 min 43 sec)
Heartbeat CPU 0 instructions: 160501102 cycles: 150231215 heartbeat IPC: 1.424 cumulative IPC: 0.8191 (Simulation time: 00 hr 28 min 47 sec)
Heartbeat CPU 0 instructions: 161001104 cycles: 150541827 heartbeat IPC: 1.61 cumulative IPC: 0.8209 (Simulation time: 00 hr 28 min 51 sec)
Heartbeat CPU 0 instructions: 161501111 cycles: 150836205 heartbeat IPC: 1.699 cumulative IPC: 0.8228 (Simulation time: 00 hr 28 min 55 sec)
Heartbeat CPU 0 instructions: 162001111 cycles: 151136738 heartbeat IPC: 1.664 cumulative IPC: 0.8246 (Simulation time: 00 hr 28 min 59 sec)
Heartbeat CPU 0 instructions: 162501112 cycles: 151416342 heartbeat IPC: 1.788 cumulative IPC: 0.8266 (Simulation time: 00 hr 29 min 03 sec)
Heartbeat CPU 0 instructions: 163001117 cycles: 151715990 heartbeat IPC: 1.669 cumulative IPC: 0.8285 (Simulation time: 00 hr 29 min 07 sec)
Heartbeat CPU 0 instructions: 163501122 cycles: 152001605 heartbeat IPC: 1.751 cumulative IPC: 0.8304 (Simulation time: 00 hr 29 min 10 sec)
Heartbeat CPU 0 instructions: 164001122 cycles: 152781384 heartbeat IPC: 0.6412 cumulative IPC: 0.8293 (Simulation time: 00 hr 29 min 18 sec)
Heartbeat CPU 0 instructions: 164501127 cycles: 154336827 heartbeat IPC: 0.3215 cumulative IPC: 0.8236 (Simulation time: 00 hr 29 min 33 sec)
Heartbeat CPU 0 instructions: 165001128 cycles: 155224992 heartbeat IPC: 0.563 cumulative IPC: 0.822 (Simulation time: 00 hr 29 min 42 sec)
Heartbeat CPU 0 instructions: 165501129 cycles: 155669993 heartbeat IPC: 1.124 cumulative IPC: 0.8229 (Simulation time: 00 hr 29 min 47 sec)
Heartbeat CPU 0 instructions: 166001130 cycles: 156087552 heartbeat IPC: 1.197 cumulative IPC: 0.824 (Simulation time: 00 hr 29 min 52 sec)
Heartbeat CPU 0 instructions: 166501136 cycles: 156492526 heartbeat IPC: 1.235 cumulative IPC: 0.8252 (Simulation time: 00 hr 29 min 57 sec)
Heartbeat CPU 0 instructions: 167001137 cycles: 156891098 heartbeat IPC: 1.254 cumulative IPC: 0.8264 (Simulation time: 00 hr 30 min 02 sec)
Heartbeat CPU 0 instructions: 167501138 cycles: 157348210 heartbeat IPC: 1.094 cumulative IPC: 0.8273 (Simulation time: 00 hr 30 min 08 sec)
Heartbeat CPU 0 instructions: 168001140 cycles: 157826305 heartbeat IPC: 1.046 cumulative IPC: 0.828 (Simulation time: 00 hr 30 min 13 sec)
Heartbeat CPU 0 instructions: 168501140 cycles: 158312580 heartbeat IPC: 1.028 cumulative IPC: 0.8287 (Simulation time: 00 hr 30 min 19 sec)
Heartbeat CPU 0 instructions: 169001143 cycles: 158830576 heartbeat IPC: 0.9653 cumulative IPC: 0.8292 (Simulation time: 00 hr 30 min 25 sec)
Heartbeat CPU 0 instructions: 169501147 cycles: 159347270 heartbeat IPC: 0.9677 cumulative IPC: 0.8297 (Simulation time: 00 hr 30 min 31 sec)
Heartbeat CPU 0 instructions: 170001148 cycles: 159861476 heartbeat IPC: 0.9724 cumulative IPC: 0.8302 (Simulation time: 00 hr 30 min 37 sec)
Heartbeat CPU 0 instructions: 170501152 cycles: 160384815 heartbeat IPC: 0.9554 cumulative IPC: 0.8307 (Simulation time: 00 hr 30 min 43 sec)
Heartbeat CPU 0 instructions: 171001158 cycles: 160908309 heartbeat IPC: 0.9551 cumulative IPC: 0.8311 (Simulation time: 00 hr 30 min 49 sec)
Heartbeat CPU 0 instructions: 171501159 cycles: 161975553 heartbeat IPC: 0.4685 cumulative IPC: 0.8285 (Simulation time: 00 hr 31 min 00 sec)
Heartbeat CPU 0 instructions: 172001164 cycles: 164213809 heartbeat IPC: 0.2234 cumulative IPC: 0.8194 (Simulation time: 00 hr 31 min 21 sec)
Heartbeat CPU 0 instructions: 172501167 cycles: 166227006 heartbeat IPC: 0.2484 cumulative IPC: 0.8118 (Simulation time: 00 hr 31 min 40 sec)
Heartbeat CPU 0 instructions: 173001168 cycles: 166540143 heartbeat IPC: 1.597 cumulative IPC: 0.8134 (Simulation time: 00 hr 31 min 44 sec)
Heartbeat CPU 0 instructions: 173501174 cycles: 166892765 heartbeat IPC: 1.418 cumulative IPC: 0.8148 (Simulation time: 00 hr 31 min 48 sec)
Heartbeat CPU 0 instructions: 174001175 cycles: 167246984 heartbeat IPC: 1.412 cumulative IPC: 0.8162 (Simulation time: 00 hr 31 min 53 sec)
Heartbeat CPU 0 instructions: 174501176 cycles: 167573619 heartbeat IPC: 1.531 cumulative IPC: 0.8177 (Simulation time: 00 hr 31 min 57 sec)
Heartbeat CPU 0 instructions: 175001176 cycles: 167959770 heartbeat IPC: 1.295 cumulative IPC: 0.8189 (Simulation time: 00 hr 32 min 02 sec)
Heartbeat CPU 0 instructions: 175501178 cycles: 168353461 heartbeat IPC: 1.27 cumulative IPC: 0.8201 (Simulation time: 00 hr 32 min 06 sec)
Heartbeat CPU 0 instructions: 176001182 cycles: 168667824 heartbeat IPC: 1.591 cumulative IPC: 0.8217 (Simulation time: 00 hr 32 min 10 sec)
Heartbeat CPU 0 instructions: 176501185 cycles: 169003572 heartbeat IPC: 1.489 cumulative IPC: 0.8231 (Simulation time: 00 hr 32 min 15 sec)
Heartbeat CPU 0 instructions: 177001186 cycles: 169336528 heartbeat IPC: 1.502 cumulative IPC: 0.8246 (Simulation time: 00 hr 32 min 19 sec)
Heartbeat CPU 0 instructions: 177501193 cycles: 169643236 heartbeat IPC: 1.63 cumulative IPC: 0.8262 (Simulation time: 00 hr 32 min 23 sec)
Heartbeat CPU 0 instructions: 178001195 cycles: 169950682 heartbeat IPC: 1.626 cumulative IPC: 0.8278 (Simulation time: 00 hr 32 min 27 sec)
Heartbeat CPU 0 instructions: 178501197 cycles: 170279601 heartbeat IPC: 1.52 cumulative IPC: 0.8292 (Simulation time: 00 hr 32 min 31 sec)
Heartbeat CPU 0 instructions: 179001197 cycles: 170563220 heartbeat IPC: 1.763 cumulative IPC: 0.8309 (Simulation time: 00 hr 32 min 35 sec)
Heartbeat CPU 0 instructions: 179501200 cycles: 171783559 heartbeat IPC: 0.4097 cumulative IPC: 0.8277 (Simulation time: 00 hr 32 min 46 sec)
Heartbeat CPU 0 instructions: 180001201 cycles: 173647406 heartbeat IPC: 0.2683 cumulative IPC: 0.8211 (Simulation time: 00 hr 33 min 04 sec)
Heartbeat CPU 0 instructions: 180501208 cycles: 174361412 heartbeat IPC: 0.7003 cumulative IPC: 0.8205 (Simulation time: 00 hr 33 min 12 sec)
Heartbeat CPU 0 instructions: 181001215 cycles: 174826226 heartbeat IPC: 1.076 cumulative IPC: 0.8213 (Simulation time: 00 hr 33 min 17 sec)
Heartbeat CPU 0 instructions: 181501222 cycles: 175247377 heartbeat IPC: 1.187 cumulative IPC: 0.8222 (Simulation time: 00 hr 33 min 22 sec)
Heartbeat CPU 0 instructions: 182001222 cycles: 175680226 heartbeat IPC: 1.155 cumulative IPC: 0.8231 (Simulation time: 00 hr 33 min 28 sec)
Heartbeat CPU 0 instructions: 182501223 cycles: 176115095 heartbeat IPC: 1.15 cumulative IPC: 0.824 (Simulation time: 00 hr 33 min 33 sec)
Heartbeat CPU 0 instructions: 183001223 cycles: 176581782 heartbeat IPC: 1.071 cumulative IPC: 0.8247 (Simulation time: 00 hr 33 min 38 sec)
Heartbeat CPU 0 instructions: 183501229 cycles: 177053957 heartbeat IPC: 1.059 cumulative IPC: 0.8254 (Simulation time: 00 hr 33 min 44 sec)
Heartbeat CPU 0 instructions: 184001234 cycles: 177511612 heartbeat IPC: 1.093 cumulative IPC: 0.8262 (Simulation time: 00 hr 33 min 49 sec)
Heartbeat CPU 0 instructions: 184501239 cycles: 178056373 heartbeat IPC: 0.9178 cumulative IPC: 0.8265 (Simulation time: 00 hr 33 min 56 sec)
Heartbeat CPU 0 instructions: 185001245 cycles: 178702823 heartbeat IPC: 0.7735 cumulative IPC: 0.8263 (Simulation time: 00 hr 34 min 03 sec)
Heartbeat CPU 0 instructions: 185501251 cycles: 180502224 heartbeat IPC: 0.2779 cumulative IPC: 0.8203 (Simulation time: 00 hr 34 min 21 sec)
Heartbeat CPU 0 instructions: 186001254 cycles: 181712344 heartbeat IPC: 0.4132 cumulative IPC: 0.8173 (Simulation time: 00 hr 34 min 33 sec)
Heartbeat CPU 0 instructions: 186501260 cycles: 181941028 heartbeat IPC: 2.186 cumulative IPC: 0.8192 (Simulation time: 00 hr 34 min 36 sec)
Heartbeat CPU 0 instructions: 187001267 cycles: 182187366 heartbeat IPC: 2.03 cumulative IPC: 0.821 (Simulation time: 00 hr 34 min 39 sec)
Heartbeat CPU 0 instructions: 187501274 cycles: 182430365 heartbeat IPC: 2.058 cumulative IPC: 0.8228 (Simulation time: 00 hr 34 min 43 sec)
Heartbeat CPU 0 instructions: 188001277 cycles: 182731412 heartbeat IPC: 1.661 cumulative IPC: 0.8243 (Simulation time: 00 hr 34 min 46 sec)
Heartbeat CPU 0 instructions: 188501278 cycles: 182969752 heartbeat IPC: 2.098 cumulative IPC: 0.8261 (Simulation time: 00 hr 34 min 50 sec)
Heartbeat CPU 0 instructions: 189001282 cycles: 183200881 heartbeat IPC: 2.163 cumulative IPC: 0.828 (Simulation time: 00 hr 34 min 53 sec)
Heartbeat CPU 0 instructions: 189501289 cycles: 183441158 heartbeat IPC: 2.081 cumulative IPC: 0.8298 (Simulation time: 00 hr 34 min 56 sec)
Heartbeat CPU 0 instructions: 190001296 cycles: 183649184 heartbeat IPC: 2.404 cumulative IPC: 0.8317 (Simulation time: 00 hr 34 min 59 sec)
Heartbeat CPU 0 instructions: 190501303 cycles: 183894913 heartbeat IPC: 2.035 cumulative IPC: 0.8335 (Simulation time: 00 hr 35 min 02 sec)
Heartbeat CPU 0 instructions: 191001306 cycles: 184495043 heartbeat IPC: 0.8332 cumulative IPC: 0.8335 (Simulation time: 00 hr 35 min 09 sec)
Heartbeat CPU 0 instructions: 191501308 cycles: 185477450 heartbeat IPC: 0.509 cumulative IPC: 0.8316 (Simulation time: 00 hr 35 min 18 sec)
Heartbeat CPU 0 instructions: 192001311 cycles: 185922239 heartbeat IPC: 1.124 cumulative IPC: 0.8323 (Simulation time: 00 hr 35 min 24 sec)
Heartbeat CPU 0 instructions: 192501313 cycles: 186335924 heartbeat IPC: 1.209 cumulative IPC: 0.8333 (Simulation time: 00 hr 35 min 29 sec)
Heartbeat CPU 0 instructions: 193001320 cycles: 186736835 heartbeat IPC: 1.247 cumulative IPC: 0.8342 (Simulation time: 00 hr 35 min 34 sec)
Heartbeat CPU 0 instructions: 193501327 cycles: 187131064 heartbeat IPC: 1.268 cumulative IPC: 0.8352 (Simulation time: 00 hr 35 min 38 sec)
Heartbeat CPU 0 instructions: 194001330 cycles: 187567053 heartbeat IPC: 1.147 cumulative IPC: 0.836 (Simulation time: 00 hr 35 min 44 sec)
Heartbeat CPU 0 instructions: 194501335 cycles: 188023697 heartbeat IPC: 1.095 cumulative IPC: 0.8367 (Simulation time: 00 hr 35 min 49 sec)
Heartbeat CPU 0 instructions: 195001335 cycles: 188511146 heartbeat IPC: 1.026 cumulative IPC: 0.8372 (Simulation time: 00 hr 35 min 55 sec)
Heartbeat CPU 0 instructions: 195501340 cycles: 189008505 heartbeat IPC: 1.005 cumulative IPC: 0.8377 (Simulation time: 00 hr 36 min 01 sec)
Heartbeat CPU 0 instructions: 196001346 cycles: 189532791 heartbeat IPC: 0.9537 cumulative IPC: 0.8381 (Simulation time: 00 hr 36 min 07 sec)
Heartbeat CPU 0 instructions: 196501352 cycles: 190183689 heartbeat IPC: 0.7682 cumulative IPC: 0.8378 (Simulation time: 00 hr 36 min 14 sec)
Heartbeat CPU 0 instructions: 197001357 cycles: 192025800 heartbeat IPC: 0.2714 cumulative IPC: 0.8319 (Simulation time: 00 hr 36 min 32 sec)
Heartbeat CPU 0 instructions: 197501363 cycles: 193375904 heartbeat IPC: 0.3703 cumulative IPC: 0.8284 (Simulation time: 00 hr 36 min 45 sec)
Heartbeat CPU 0 instructions: 198001366 cycles: 193603835 heartbeat IPC: 2.194 cumulative IPC: 0.8301 (Simulation time: 00 hr 36 min 48 sec)
Heartbeat CPU 0 instructions: 198501367 cycles: 193881783 heartbeat IPC: 1.799 cumulative IPC: 0.8316 (Simulation time: 00 hr 36 min 52 sec)
Heartbeat CPU 0 instructions: 199001368 cycles: 194142108 heartbeat IPC: 1.921 cumulative IPC: 0.8332 (Simulation time: 00 hr 36 min 56 sec)
Heartbeat CPU 0 instructions: 199501371 cycles: 194440344 heartbeat IPC: 1.677 cumulative IPC: 0.8346 (Simulation time: 00 hr 36 min 59 sec)
Heartbeat CPU 0 instructions: 200001377 cycles: 194696424 heartbeat IPC: 1.953 cumulative IPC: 0.8362 (Simulation time: 00 hr 37 min 03 sec)
Heartbeat CPU 0 instructions: 200501384 cycles: 194944352 heartbeat IPC: 2.017 cumulative IPC: 0.8379 (Simulation time: 00 hr 37 min 06 sec)
Heartbeat CPU 0 instructions: 201001385 cycles: 195241947 heartbeat IPC: 1.68 cumulative IPC: 0.8392 (Simulation time: 00 hr 37 min 10 sec)
Heartbeat CPU 0 instructions: 201501388 cycles: 195454579 heartbeat IPC: 2.351 cumulative IPC: 0.841 (Simulation time: 00 hr 37 min 13 sec)
Heartbeat CPU 0 instructions: 202001390 cycles: 195702298 heartbeat IPC: 2.018 cumulative IPC: 0.8427 (Simulation time: 00 hr 37 min 17 sec)
Heartbeat CPU 0 instructions: 202501397 cycles: 196084299 heartbeat IPC: 1.309 cumulative IPC: 0.8436 (Simulation time: 00 hr 37 min 21 sec)
Heartbeat CPU 0 instructions: 203001397 cycles: 197098871 heartbeat IPC: 0.4928 cumulative IPC: 0.8417 (Simulation time: 00 hr 37 min 31 sec)
Heartbeat CPU 0 instructions: 203501399 cycles: 197746560 heartbeat IPC: 0.772 cumulative IPC: 0.8414 (Simulation time: 00 hr 37 min 38 sec)
Heartbeat CPU 0 instructions: 204001404 cycles: 198199722 heartbeat IPC: 1.103 cumulative IPC: 0.8421 (Simulation time: 00 hr 37 min 43 sec)
Heartbeat CPU 0 instructions: 204501404 cycles: 198604569 heartbeat IPC: 1.235 cumulative IPC: 0.8429 (Simulation time: 00 hr 37 min 48 sec)
Heartbeat CPU 0 instructions: 205001404 cycles: 199012030 heartbeat IPC: 1.227 cumulative IPC: 0.8438 (Simulation time: 00 hr 37 min 53 sec)
Heartbeat CPU 0 instructions: 205501407 cycles: 199437816 heartbeat IPC: 1.174 cumulative IPC: 0.8446 (Simulation time: 00 hr 37 min 58 sec)
Heartbeat CPU 0 instructions: 206001411 cycles: 199880990 heartbeat IPC: 1.128 cumulative IPC: 0.8452 (Simulation time: 00 hr 38 min 04 sec)
Heartbeat CPU 0 instructions: 206501413 cycles: 200316026 heartbeat IPC: 1.149 cumulative IPC: 0.846 (Simulation time: 00 hr 38 min 09 sec)
Heartbeat CPU 0 instructions: 207001418 cycles: 200826398 heartbeat IPC: 0.9797 cumulative IPC: 0.8463 (Simulation time: 00 hr 38 min 15 sec)
Heartbeat CPU 0 instructions: 207501423 cycles: 201321835 heartbeat IPC: 1.009 cumulative IPC: 0.8468 (Simulation time: 00 hr 38 min 21 sec)
Heartbeat CPU 0 instructions: 208001427 cycles: 201843234 heartbeat IPC: 0.959 cumulative IPC: 0.8471 (Simulation time: 00 hr 38 min 26 sec)
Heartbeat CPU 0 instructions: 208501427 cycles: 202805535 heartbeat IPC: 0.5196 cumulative IPC: 0.8454 (Simulation time: 00 hr 38 min 37 sec)
Heartbeat CPU 0 instructions: 209001428 cycles: 204886572 heartbeat IPC: 0.2403 cumulative IPC: 0.8388 (Simulation time: 00 hr 38 min 57 sec)
Heartbeat CPU 0 instructions: 209501431 cycles: 205774198 heartbeat IPC: 0.5633 cumulative IPC: 0.8375 (Simulation time: 00 hr 39 min 06 sec)
Heartbeat CPU 0 instructions: 210001436 cycles: 206054644 heartbeat IPC: 1.783 cumulative IPC: 0.8389 (Simulation time: 00 hr 39 min 09 sec)
Heartbeat CPU 0 instructions: 210501437 cycles: 206347795 heartbeat IPC: 1.706 cumulative IPC: 0.8402 (Simulation time: 00 hr 39 min 13 sec)
Heartbeat CPU 0 instructions: 211001437 cycles: 206597664 heartbeat IPC: 2.001 cumulative IPC: 0.8417 (Simulation time: 00 hr 39 min 16 sec)
Heartbeat CPU 0 instructions: 211501441 cycles: 206891379 heartbeat IPC: 1.702 cumulative IPC: 0.843 (Simulation time: 00 hr 39 min 20 sec)
Heartbeat CPU 0 instructions: 212001443 cycles: 207153159 heartbeat IPC: 1.91 cumulative IPC: 0.8445 (Simulation time: 00 hr 39 min 24 sec)
Heartbeat CPU 0 instructions: 212501449 cycles: 207389121 heartbeat IPC: 2.119 cumulative IPC: 0.846 (Simulation time: 00 hr 39 min 27 sec)
Heartbeat CPU 0 instructions: 213001452 cycles: 207678667 heartbeat IPC: 1.727 cumulative IPC: 0.8474 (Simulation time: 00 hr 39 min 31 sec)
Heartbeat CPU 0 instructions: 213501452 cycles: 207905437 heartbeat IPC: 2.205 cumulative IPC: 0.849 (Simulation time: 00 hr 39 min 34 sec)
Heartbeat CPU 0 instructions: 214001457 cycles: 208151027 heartbeat IPC: 2.036 cumulative IPC: 0.8505 (Simulation time: 00 hr 39 min 37 sec)
Heartbeat CPU 0 instructions: 214501463 cycles: 208570959 heartbeat IPC: 1.191 cumulative IPC: 0.8512 (Simulation time: 00 hr 39 min 42 sec)
Heartbeat CPU 0 instructions: 215001465 cycles: 209539057 heartbeat IPC: 0.5165 cumulative IPC: 0.8496 (Simulation time: 00 hr 39 min 52 sec)
Heartbeat CPU 0 instructions: 215501472 cycles: 210321173 heartbeat IPC: 0.6393 cumulative IPC: 0.8487 (Simulation time: 00 hr 40 min 00 sec)
Heartbeat CPU 0 instructions: 216001474 cycles: 210743569 heartbeat IPC: 1.184 cumulative IPC: 0.8494 (Simulation time: 00 hr 40 min 05 sec)
Heartbeat CPU 0 instructions: 216501475 cycles: 211148781 heartbeat IPC: 1.234 cumulative IPC: 0.8502 (Simulation time: 00 hr 40 min 10 sec)
Heartbeat CPU 0 instructions: 217001476 cycles: 211530968 heartbeat IPC: 1.308 cumulative IPC: 0.8511 (Simulation time: 00 hr 40 min 14 sec)
Heartbeat CPU 0 instructions: 217501481 cycles: 211924149 heartbeat IPC: 1.272 cumulative IPC: 0.852 (Simulation time: 00 hr 40 min 19 sec)
Heartbeat CPU 0 instructions: 218001486 cycles: 212334238 heartbeat IPC: 1.219 cumulative IPC: 0.8527 (Simulation time: 00 hr 40 min 24 sec)
Heartbeat CPU 0 instructions: 218501487 cycles: 212798835 heartbeat IPC: 1.076 cumulative IPC: 0.8533 (Simulation time: 00 hr 40 min 30 sec)
Heartbeat CPU 0 instructions: 219001490 cycles: 213305253 heartbeat IPC: 0.9873 cumulative IPC: 0.8536 (Simulation time: 00 hr 40 min 36 sec)
Heartbeat CPU 0 instructions: 219501495 cycles: 213834101 heartbeat IPC: 0.9455 cumulative IPC: 0.8538 (Simulation time: 00 hr 40 min 42 sec)
Heartbeat CPU 0 instructions: 220001499 cycles: 214330301 heartbeat IPC: 1.008 cumulative IPC: 0.8542 (Simulation time: 00 hr 40 min 47 sec)
Heartbeat CPU 0 instructions: 220501505 cycles: 215663714 heartbeat IPC: 0.375 cumulative IPC: 0.851 (Simulation time: 00 hr 41 min 01 sec)
Heartbeat CPU 0 instructions: 221001509 cycles: 217803893 heartbeat IPC: 0.2336 cumulative IPC: 0.8445 (Simulation time: 00 hr 41 min 21 sec)
Heartbeat CPU 0 instructions: 221501513 cycles: 218017306 heartbeat IPC: 2.343 cumulative IPC: 0.8461 (Simulation time: 00 hr 41 min 24 sec)
Heartbeat CPU 0 instructions: 222001515 cycles: 218265882 heartbeat IPC: 2.011 cumulative IPC: 0.8475 (Simulation time: 00 hr 41 min 28 sec)
Heartbeat CPU 0 instructions: 222501518 cycles: 218512840 heartbeat IPC: 2.025 cumulative IPC: 0.8489 (Simulation time: 00 hr 41 min 31 sec)
Heartbeat CPU 0 instructions: 223001524 cycles: 218811458 heartbeat IPC: 1.674 cumulative IPC: 0.8502 (Simulation time: 00 hr 41 min 35 sec)
Heartbeat CPU 0 instructions: 223501526 cycles: 219069662 heartbeat IPC: 1.936 cumulative IPC: 0.8515 (Simulation time: 00 hr 41 min 39 sec)
Heartbeat CPU 0 instructions: 224001532 cycles: 219330514 heartbeat IPC: 1.917 cumulative IPC: 0.8529 (Simulation time: 00 hr 41 min 42 sec)
Heartbeat CPU 0 instructions: 224501533 cycles: 219571556 heartbeat IPC: 2.074 cumulative IPC: 0.8543 (Simulation time: 00 hr 41 min 45 sec)
Heartbeat CPU 0 instructions: 225001536 cycles: 219831599 heartbeat IPC: 1.923 cumulative IPC: 0.8557 (Simulation time: 00 hr 41 min 49 sec)
Heartbeat CPU 0 instructions: 225501543 cycles: 220075656 heartbeat IPC: 2.049 cumulative IPC: 0.8571 (Simulation time: 00 hr 41 min 52 sec)
Heartbeat CPU 0 instructions: 226001550 cycles: 220329701 heartbeat IPC: 1.968 cumulative IPC: 0.8585 (Simulation time: 00 hr 41 min 55 sec)
Heartbeat CPU 0 instructions: 226501555 cycles: 221039697 heartbeat IPC: 0.7042 cumulative IPC: 0.858 (Simulation time: 00 hr 42 min 03 sec)
Heartbeat CPU 0 instructions: 227001560 cycles: 221951929 heartbeat IPC: 0.5481 cumulative IPC: 0.8566 (Simulation time: 00 hr 42 min 12 sec)
Heartbeat CPU 0 instructions: 227501560 cycles: 222395039 heartbeat IPC: 1.128 cumulative IPC: 0.8572 (Simulation time: 00 hr 42 min 17 sec)
Heartbeat CPU 0 instructions: 228001563 cycles: 222813716 heartbeat IPC: 1.194 cumulative IPC: 0.8579 (Simulation time: 00 hr 42 min 22 sec)
Heartbeat CPU 0 instructions: 228501569 cycles: 223210341 heartbeat IPC: 1.261 cumulative IPC: 0.8586 (Simulation time: 00 hr 42 min 27 sec)
Heartbeat CPU 0 instructions: 229001572 cycles: 223608119 heartbeat IPC: 1.257 cumulative IPC: 0.8594 (Simulation time: 00 hr 42 min 32 sec)
Heartbeat CPU 0 instructions: 229501576 cycles: 224028208 heartbeat IPC: 1.19 cumulative IPC: 0.8601 (Simulation time: 00 hr 42 min 37 sec)
Heartbeat CPU 0 instructions: 230001576 cycles: 224469670 heartbeat IPC: 1.133 cumulative IPC: 0.8606 (Simulation time: 00 hr 42 min 43 sec)
Heartbeat CPU 0 instructions: 230501583 cycles: 224979570 heartbeat IPC: 0.9806 cumulative IPC: 0.8609 (Simulation time: 00 hr 42 min 48 sec)
Heartbeat CPU 0 instructions: 231001589 cycles: 225469690 heartbeat IPC: 1.02 cumulative IPC: 0.8613 (Simulation time: 00 hr 42 min 54 sec)
Heartbeat CPU 0 instructions: 231501591 cycles: 225996019 heartbeat IPC: 0.95 cumulative IPC: 0.8615 (Simulation time: 00 hr 43 min 00 sec)
Heartbeat CPU 0 instructions: 232001592 cycles: 226923083 heartbeat IPC: 0.5393 cumulative IPC: 0.8601 (Simulation time: 00 hr 43 min 10 sec)
Heartbeat CPU 0 instructions: 232501592 cycles: 228907184 heartbeat IPC: 0.252 cumulative IPC: 0.8545 (Simulation time: 00 hr 43 min 29 sec)
Heartbeat CPU 0 instructions: 233001594 cycles: 229802144 heartbeat IPC: 0.5587 cumulative IPC: 0.8532 (Simulation time: 00 hr 43 min 38 sec)
Heartbeat CPU 0 instructions: 233501598 cycles: 230055520 heartbeat IPC: 1.973 cumulative IPC: 0.8545 (Simulation time: 00 hr 43 min 42 sec)
Heartbeat CPU 0 instructions: 234001602 cycles: 230320508 heartbeat IPC: 1.887 cumulative IPC: 0.8558 (Simulation time: 00 hr 43 min 45 sec)
Heartbeat CPU 0 instructions: 234501605 cycles: 230586417 heartbeat IPC: 1.88 cumulative IPC: 0.8571 (Simulation time: 00 hr 43 min 49 sec)
Heartbeat CPU 0 instructions: 235001609 cycles: 230877036 heartbeat IPC: 1.72 cumulative IPC: 0.8582 (Simulation time: 00 hr 43 min 53 sec)
Heartbeat CPU 0 instructions: 235501609 cycles: 231156807 heartbeat IPC: 1.787 cumulative IPC: 0.8594 (Simulation time: 00 hr 43 min 56 sec)
Heartbeat CPU 0 instructions: 236001612 cycles: 231418563 heartbeat IPC: 1.91 cumulative IPC: 0.8607 (Simulation time: 00 hr 44 min 00 sec)
Heartbeat CPU 0 instructions: 236501618 cycles: 231638979 heartbeat IPC: 2.268 cumulative IPC: 0.8622 (Simulation time: 00 hr 44 min 03 sec)
Heartbeat CPU 0 instructions: 237001621 cycles: 231863556 heartbeat IPC: 2.226 cumulative IPC: 0.8636 (Simulation time: 00 hr 44 min 06 sec)
Heartbeat CPU 0 instructions: 237501625 cycles: 232099167 heartbeat IPC: 2.122 cumulative IPC: 0.8649 (Simulation time: 00 hr 44 min 09 sec)
Heartbeat CPU 0 instructions: 238001628 cycles: 232652984 heartbeat IPC: 0.9028 cumulative IPC: 0.865 (Simulation time: 00 hr 44 min 15 sec)
Heartbeat CPU 0 instructions: 238501634 cycles: 233654825 heartbeat IPC: 0.4991 cumulative IPC: 0.8634 (Simulation time: 00 hr 44 min 25 sec)
Heartbeat CPU 0 instructions: 239001637 cycles: 234170163 heartbeat IPC: 0.9702 cumulative IPC: 0.8636 (Simulation time: 00 hr 44 min 31 sec)
Heartbeat CPU 0 instructions: 239501641 cycles: 234594796 heartbeat IPC: 1.177 cumulative IPC: 0.8642 (Simulation time: 00 hr 44 min 36 sec)
Heartbeat CPU 0 instructions: 240001645 cycles: 234973402 heartbeat IPC: 1.321 cumulative IPC: 0.865 (Simulation time: 00 hr 44 min 41 sec)
Heartbeat CPU 0 instructions: 240501650 cycles: 235343062 heartbeat IPC: 1.353 cumulative IPC: 0.8658 (Simulation time: 00 hr 44 min 45 sec)
Heartbeat CPU 0 instructions: 241001653 cycles: 235755287 heartbeat IPC: 1.213 cumulative IPC: 0.8665 (Simulation time: 00 hr 44 min 50 sec)
Heartbeat CPU 0 instructions: 241501660 cycles: 236215477 heartbeat IPC: 1.087 cumulative IPC: 0.8669 (Simulation time: 00 hr 44 min 56 sec)
Heartbeat CPU 0 instructions: 242001663 cycles: 236682214 heartbeat IPC: 1.071 cumulative IPC: 0.8674 (Simulation time: 00 hr 45 min 01 sec)
Heartbeat CPU 0 instructions: 242501669 cycles: 237152215 heartbeat IPC: 1.064 cumulative IPC: 0.8678 (Simulation time: 00 hr 45 min 07 sec)
Heartbeat CPU 0 instructions: 243001676 cycles: 237678300 heartbeat IPC: 0.9504 cumulative IPC: 0.868 (Simulation time: 00 hr 45 min 13 sec)
Heartbeat CPU 0 instructions: 243501681 cycles: 238204320 heartbeat IPC: 0.9505 cumulative IPC: 0.8682 (Simulation time: 00 hr 45 min 19 sec)
Heartbeat CPU 0 instructions: 244001686 cycles: 238728017 heartbeat IPC: 0.9548 cumulative IPC: 0.8684 (Simulation time: 00 hr 45 min 25 sec)
Heartbeat CPU 0 instructions: 244501691 cycles: 240287865 heartbeat IPC: 0.3205 cumulative IPC: 0.8646 (Simulation time: 00 hr 45 min 41 sec)
Heartbeat CPU 0 instructions: 245001694 cycles: 242651709 heartbeat IPC: 0.2115 cumulative IPC: 0.8578 (Simulation time: 00 hr 46 min 03 sec)
Heartbeat CPU 0 instructions: 245501697 cycles: 243023611 heartbeat IPC: 1.344 cumulative IPC: 0.8586 (Simulation time: 00 hr 46 min 08 sec)
Heartbeat CPU 0 instructions: 246001698 cycles: 243330929 heartbeat IPC: 1.627 cumulative IPC: 0.8596 (Simulation time: 00 hr 46 min 11 sec)
Heartbeat CPU 0 instructions: 246501701 cycles: 243606143 heartbeat IPC: 1.817 cumulative IPC: 0.8608 (Simulation time: 00 hr 46 min 15 sec)
Heartbeat CPU 0 instructions: 247001706 cycles: 243885410 heartbeat IPC: 1.79 cumulative IPC: 0.8619 (Simulation time: 00 hr 46 min 19 sec)
Heartbeat CPU 0 instructions: 247501713 cycles: 244203263 heartbeat IPC: 1.573 cumulative IPC: 0.8629 (Simulation time: 00 hr 46 min 23 sec)
Heartbeat CPU 0 instructions: 248001718 cycles: 244518333 heartbeat IPC: 1.587 cumulative IPC: 0.8639 (Simulation time: 00 hr 46 min 27 sec)
Heartbeat CPU 0 instructions: 248501722 cycles: 244819200 heartbeat IPC: 1.662 cumulative IPC: 0.8649 (Simulation time: 00 hr 46 min 31 sec)
Heartbeat CPU 0 instructions: 249001727 cycles: 245098938 heartbeat IPC: 1.787 cumulative IPC: 0.866 (Simulation time: 00 hr 46 min 34 sec)
Heartbeat CPU 0 instructions: 249501734 cycles: 245351077 heartbeat IPC: 1.983 cumulative IPC: 0.8673 (Simulation time: 00 hr 46 min 38 sec)
*** Reached end of trace: (0, "/local-ssd/ben/dpc4-traces/Graph/Ligra/ligra_Components-Shortcut.com-lj.ungraph.gcc_6.3.0_O3.drop_17000M.length_250M.champsimtrace.xz")
Simulation finished CPU 0 instructions: 200000007 cycles: 230289651 cumulative IPC: 0.8685 (Simulation time: 00 hr 46 min 41 sec)
Simulation complete CPU 0 instructions: 200000007 cycles: 230289651 cumulative IPC: 0.8685 (Simulation time: 00 hr 46 min 41 sec)

ChampSim completed all CPUs

=== Simulation ===
CPU 0 runs /local-ssd/ben/dpc4-traces/Graph/Ligra/ligra_Components-Shortcut.com-lj.ungraph.gcc_6.3.0_O3.drop_17000M.length_250M.champsimtrace.xz

Region of Interest Statistics

CPU 0 cumulative IPC: 0.8685 instructions: 200000007 cycles: 230289651
CPU 0 Branch Prediction Accuracy: 99.03% MPKI: 0.9837 Average ROB Occupancy at Mispredict: 200.4
Branch type MPKI
BRANCH_DIRECT_JUMP: 0
BRANCH_INDIRECT: 0
BRANCH_CONDITIONAL: 0.9836
BRANCH_DIRECT_CALL: 0
BRANCH_INDIRECT_CALL: 0
BRANCH_RETURN: 0.000155

cpu0->cpu0_STLB TOTAL        ACCESS:     111308 HIT:      91241 MISS:      20067 MSHR_MERGE:          0
cpu0->cpu0_STLB LOAD         ACCESS:     111308 HIT:      91241 MISS:      20067 MSHR_MERGE:          0
cpu0->cpu0_STLB RFO          ACCESS:          0 HIT:          0 MISS:          0 MSHR_MERGE:          0
cpu0->cpu0_STLB PREFETCH     ACCESS:          0 HIT:          0 MISS:          0 MSHR_MERGE:          0
cpu0->cpu0_STLB WRITE        ACCESS:          0 HIT:          0 MISS:          0 MSHR_MERGE:          0
cpu0->cpu0_STLB TRANSLATION  ACCESS:          0 HIT:          0 MISS:          0 MSHR_MERGE:          0
cpu0->cpu0_STLB PREFETCH REQUESTED:          0 ISSUED:          0 USEFUL:          0 USELESS:          0
cpu0->cpu0_STLB AVERAGE MISS LATENCY: 395.1 cycles
cpu0->cpu0_L2C TOTAL        ACCESS:   18019553 HIT:    8927323 MISS:    9092230 MSHR_MERGE:    5237885
cpu0->cpu0_L2C LOAD         ACCESS:    1668967 HIT:    1425040 MISS:     243927 MSHR_MERGE:     193688
cpu0->cpu0_L2C RFO          ACCESS:    2219585 HIT:     229511 MISS:    1990074 MSHR_MERGE:        101
cpu0->cpu0_L2C PREFETCH     ACCESS:   11896546 HIT:    5041473 MISS:    6855073 MSHR_MERGE:    5044096
cpu0->cpu0_L2C WRITE        ACCESS:    2228654 HIT:    2228649 MISS:          5 MSHR_MERGE:          0
cpu0->cpu0_L2C TRANSLATION  ACCESS:       5801 HIT:       2650 MISS:       3151 MSHR_MERGE:          0
cpu0->cpu0_L2C PREFETCH REQUESTED:   11489591 ISSUED:   10760861 USEFUL:    1371950 USELESS:     288678
cpu0->cpu0_L2C AVERAGE MISS LATENCY: 970.4 cycles
cpu0->cpu0_L1I TOTAL        ACCESS:   26669955 HIT:   26669955 MISS:          0 MSHR_MERGE:          0
cpu0->cpu0_L1I LOAD         ACCESS:   26669955 HIT:   26669955 MISS:          0 MSHR_MERGE:          0
cpu0->cpu0_L1I RFO          ACCESS:          0 HIT:          0 MISS:          0 MSHR_MERGE:          0
cpu0->cpu0_L1I PREFETCH     ACCESS:          0 HIT:          0 MISS:          0 MSHR_MERGE:          0
cpu0->cpu0_L1I WRITE        ACCESS:          0 HIT:          0 MISS:          0 MSHR_MERGE:          0
cpu0->cpu0_L1I TRANSLATION  ACCESS:          0 HIT:          0 MISS:          0 MSHR_MERGE:          0
cpu0->cpu0_L1I PREFETCH REQUESTED:          0 ISSUED:          0 USEFUL:          0 USELESS:          0
cpu0->cpu0_L1I AVERAGE MISS LATENCY: - cycles
cpu0->cpu0_L1D TOTAL        ACCESS:   57554222 HIT:   37513030 MISS:   20041192 MSHR_MERGE:   15011077
cpu0->cpu0_L1D LOAD         ACCESS:   16055526 HIT:   12889517 MISS:    3166009 MSHR_MERGE:    1497035
cpu0->cpu0_L1D RFO          ACCESS:          0 HIT:          0 MISS:          0 MSHR_MERGE:          0
cpu0->cpu0_L1D PREFETCH     ACCESS:    2120665 HIT:     784989 MISS:    1335676 MSHR_MERGE:     199991
cpu0->cpu0_L1D WRITE        ACCESS:   39339709 HIT:   23807994 MISS:   15531715 MSHR_MERGE:   13312060
cpu0->cpu0_L1D TRANSLATION  ACCESS:      38322 HIT:      30530 MISS:       7792 MSHR_MERGE:       1991
cpu0->cpu0_L1D PREFETCH REQUESTED:   48474401 ISSUED:    2120666 USEFUL:    1088872 USELESS:      46821
cpu0->cpu0_L1D AVERAGE MISS LATENCY: 553.7 cycles
cpu0->cpu0_ITLB TOTAL        ACCESS:   26330868 HIT:   26330868 MISS:          0 MSHR_MERGE:          0
cpu0->cpu0_ITLB LOAD         ACCESS:   26330868 HIT:   26330868 MISS:          0 MSHR_MERGE:          0
cpu0->cpu0_ITLB RFO          ACCESS:          0 HIT:          0 MISS:          0 MSHR_MERGE:          0
cpu0->cpu0_ITLB PREFETCH     ACCESS:          0 HIT:          0 MISS:          0 MSHR_MERGE:          0
cpu0->cpu0_ITLB WRITE        ACCESS:          0 HIT:          0 MISS:          0 MSHR_MERGE:          0
cpu0->cpu0_ITLB TRANSLATION  ACCESS:          0 HIT:          0 MISS:          0 MSHR_MERGE:          0
cpu0->cpu0_ITLB PREFETCH REQUESTED:          0 ISSUED:          0 USEFUL:          0 USELESS:          0
cpu0->cpu0_ITLB AVERAGE MISS LATENCY: - cycles
cpu0->cpu0_DTLB TOTAL        ACCESS:   52408409 HIT:   52015079 MISS:     393330 MSHR_MERGE:     282022
cpu0->cpu0_DTLB LOAD         ACCESS:   52408409 HIT:   52015079 MISS:     393330 MSHR_MERGE:     282022
cpu0->cpu0_DTLB RFO          ACCESS:          0 HIT:          0 MISS:          0 MSHR_MERGE:          0
cpu0->cpu0_DTLB PREFETCH     ACCESS:          0 HIT:          0 MISS:          0 MSHR_MERGE:          0
cpu0->cpu0_DTLB WRITE        ACCESS:          0 HIT:          0 MISS:          0 MSHR_MERGE:          0
cpu0->cpu0_DTLB TRANSLATION  ACCESS:          0 HIT:          0 MISS:          0 MSHR_MERGE:          0
cpu0->cpu0_DTLB PREFETCH REQUESTED:          0 ISSUED:          0 USEFUL:          0 USELESS:          0
cpu0->cpu0_DTLB AVERAGE MISS LATENCY: 76.41 cycles
cpu0->LLC TOTAL        ACCESS:    5922924 HIT:    1886536 MISS:    4036388 MSHR_MERGE:          0
cpu0->LLC LOAD         ACCESS:      50239 HIT:      31401 MISS:      18838 MSHR_MERGE:          0
cpu0->LLC RFO          ACCESS:    1989972 HIT:     475400 MISS:    1514572 MSHR_MERGE:          0
cpu0->LLC PREFETCH     ACCESS:    1810976 HIT:     768219 MISS:    1042757 MSHR_MERGE:          0
cpu0->LLC WRITE        ACCESS:    2068586 HIT:     611495 MISS:    1457091 MSHR_MERGE:          0
cpu0->LLC TRANSLATION  ACCESS:       3151 HIT:         21 MISS:       3130 MSHR_MERGE:          0
cpu0->LLC PREFETCH REQUESTED:          0 ISSUED:          0 USEFUL:          0 USELESS:          0
cpu0->LLC AVERAGE MISS LATENCY: 676.3 cycles

DRAM Statistics

Channel 0 RQ ROW_BUFFER_HIT:      89131
  ROW_BUFFER_MISS:    2487671
  AVG DBUS CONGESTED CYCLE: 4.078
Channel 0 WQ ROW_BUFFER_HIT:      25836
  ROW_BUFFER_MISS:    1549723
  FULL:     107498
Channel 0 REFRESHES ISSUED:      19191
