[VMEM] WARNING: physical memory size is smaller than virtual memory size.

*** ChampSim Multicore Out-of-Order Simulator ***
Warmup Instructions: 50000000
Simulation Instructions: 200000000
Number of CPUs: 1
Page size: 4096
Core 0: /local-ssd/ben/dpc4-traces/gtraces_v2/tahoe_0004.champsim.gz
sBerti (Smart Stride + Berti) Prefetcher Initialized
Off-chip DRAM Size: 64 GiB Channels: 1 Width: 64-bit Data Rate: 800 MT/s
[BTB] WARNING: target of return is a lower address than the corresponding call. This is usually a problem with your trace.
[BTB] WARNING: target of return is a lower address than the corresponding call. This is usually a problem with your trace.
Heartbeat CPU 0 instructions: 500002 cycles: 183202 heartbeat IPC: 2.729 cumulative IPC: 2.729 (Simulation time: 00 hr 00 min 05 sec)
[BTB] WARNING: target of return is a lower address than the corresponding call. This is usually a problem with your trace.
[BTB] WARNING: target of return is a lower address than the corresponding call. This is usually a problem with your trace.
Heartbeat CPU 0 instructions: 1000008 cycles: 295537 heartbeat IPC: 4.451 cumulative IPC: 3.384 (Simulation time: 00 hr 00 min 08 sec)
[BTB] WARNING: target of return is a lower address than the corresponding call. This is usually a problem with your trace.
[BTB] WARNING: target of return is a lower address than the corresponding call. This is usually a problem with your trace.
[BTB] WARNING: target of return is a lower address than the corresponding call. This is usually a problem with your trace.
Heartbeat CPU 0 instructions: 1500012 cycles: 442900 heartbeat IPC: 3.393 cumulative IPC: 3.387 (Simulation time: 00 hr 00 min 12 sec)
[BTB] WARNING: target of return is a lower address than the corresponding call. This is usually a problem with your trace.
Heartbeat CPU 0 instructions: 2000017 cycles: 570821 heartbeat IPC: 3.909 cumulative IPC: 3.504 (Simulation time: 00 hr 00 min 15 sec)
[BTB] WARNING: target of return is a lower address than the corresponding call. This is usually a problem with your trace.
[BTB] WARNING: target of return is a lower address than the corresponding call. This is usually a problem with your trace.
Heartbeat CPU 0 instructions: 2500023 cycles: 696844 heartbeat IPC: 3.968 cumulative IPC: 3.588 (Simulation time: 00 hr 00 min 19 sec)
Heartbeat CPU 0 instructions: 3000024 cycles: 825358 heartbeat IPC: 3.891 cumulative IPC: 3.635 (Simulation time: 00 hr 00 min 22 sec)
Heartbeat CPU 0 instructions: 3500029 cycles: 951597 heartbeat IPC: 3.961 cumulative IPC: 3.678 (Simulation time: 00 hr 00 min 26 sec)
Heartbeat CPU 0 instructions: 4000034 cycles: 1111211 heartbeat IPC: 3.133 cumulative IPC: 3.6 (Simulation time: 00 hr 00 min 29 sec)
Heartbeat CPU 0 instructions: 4500037 cycles: 1303449 heartbeat IPC: 2.601 cumulative IPC: 3.452 (Simulation time: 00 hr 00 min 34 sec)
Heartbeat CPU 0 instructions: 5000039 cycles: 1417189 heartbeat IPC: 4.396 cumulative IPC: 3.528 (Simulation time: 00 hr 00 min 36 sec)
Heartbeat CPU 0 instructions: 5500042 cycles: 1539407 heartbeat IPC: 4.091 cumulative IPC: 3.573 (Simulation time: 00 hr 00 min 38 sec)
Heartbeat CPU 0 instructions: 6000045 cycles: 1660563 heartbeat IPC: 4.127 cumulative IPC: 3.613 (Simulation time: 00 hr 00 min 40 sec)
Heartbeat CPU 0 instructions: 6500049 cycles: 1781654 heartbeat IPC: 4.129 cumulative IPC: 3.648 (Simulation time: 00 hr 00 min 43 sec)
Heartbeat CPU 0 instructions: 7000054 cycles: 1905359 heartbeat IPC: 4.042 cumulative IPC: 3.674 (Simulation time: 00 hr 00 min 45 sec)
Heartbeat CPU 0 instructions: 7500055 cycles: 2026804 heartbeat IPC: 4.117 cumulative IPC: 3.7 (Simulation time: 00 hr 00 min 47 sec)
Heartbeat CPU 0 instructions: 8000059 cycles: 2199453 heartbeat IPC: 2.896 cumulative IPC: 3.637 (Simulation time: 00 hr 00 min 50 sec)
Heartbeat CPU 0 instructions: 8500059 cycles: 2385949 heartbeat IPC: 2.681 cumulative IPC: 3.563 (Simulation time: 00 hr 00 min 53 sec)
Heartbeat CPU 0 instructions: 9000059 cycles: 2561339 heartbeat IPC: 2.851 cumulative IPC: 3.514 (Simulation time: 00 hr 00 min 56 sec)
Heartbeat CPU 0 instructions: 9500065 cycles: 2733277 heartbeat IPC: 2.908 cumulative IPC: 3.476 (Simulation time: 00 hr 00 min 59 sec)
Heartbeat CPU 0 instructions: 10000070 cycles: 2844852 heartbeat IPC: 4.481 cumulative IPC: 3.515 (Simulation time: 00 hr 01 min 01 sec)
Heartbeat CPU 0 instructions: 10500073 cycles: 3039456 heartbeat IPC: 2.569 cumulative IPC: 3.455 (Simulation time: 00 hr 01 min 04 sec)
Heartbeat CPU 0 instructions: 11000074 cycles: 3151985 heartbeat IPC: 4.443 cumulative IPC: 3.49 (Simulation time: 00 hr 01 min 06 sec)
Heartbeat CPU 0 instructions: 11500076 cycles: 3278349 heartbeat IPC: 3.957 cumulative IPC: 3.508 (Simulation time: 00 hr 01 min 08 sec)
Heartbeat CPU 0 instructions: 12000082 cycles: 3459126 heartbeat IPC: 2.766 cumulative IPC: 3.469 (Simulation time: 00 hr 01 min 11 sec)
Heartbeat CPU 0 instructions: 12500083 cycles: 3635261 heartbeat IPC: 2.839 cumulative IPC: 3.439 (Simulation time: 00 hr 01 min 14 sec)
Heartbeat CPU 0 instructions: 13000085 cycles: 3785594 heartbeat IPC: 3.326 cumulative IPC: 3.434 (Simulation time: 00 hr 01 min 16 sec)
Heartbeat CPU 0 instructions: 13500088 cycles: 3898661 heartbeat IPC: 4.422 cumulative IPC: 3.463 (Simulation time: 00 hr 01 min 18 sec)
Heartbeat CPU 0 instructions: 14000090 cycles: 4006940 heartbeat IPC: 4.618 cumulative IPC: 3.494 (Simulation time: 00 hr 01 min 20 sec)
Heartbeat CPU 0 instructions: 14500097 cycles: 4129993 heartbeat IPC: 4.063 cumulative IPC: 3.511 (Simulation time: 00 hr 01 min 22 sec)
Heartbeat CPU 0 instructions: 15000098 cycles: 4247249 heartbeat IPC: 4.264 cumulative IPC: 3.532 (Simulation time: 00 hr 01 min 24 sec)
Heartbeat CPU 0 instructions: 15500101 cycles: 4407905 heartbeat IPC: 3.112 cumulative IPC: 3.516 (Simulation time: 00 hr 01 min 26 sec)
Heartbeat CPU 0 instructions: 16000101 cycles: 4562470 heartbeat IPC: 3.235 cumulative IPC: 3.507 (Simulation time: 00 hr 01 min 29 sec)
Heartbeat CPU 0 instructions: 16500104 cycles: 4698068 heartbeat IPC: 3.687 cumulative IPC: 3.512 (Simulation time: 00 hr 01 min 32 sec)
Heartbeat CPU 0 instructions: 17000106 cycles: 4846001 heartbeat IPC: 3.38 cumulative IPC: 3.508 (Simulation time: 00 hr 01 min 35 sec)
Heartbeat CPU 0 instructions: 17500111 cycles: 4988140 heartbeat IPC: 3.518 cumulative IPC: 3.508 (Simulation time: 00 hr 01 min 37 sec)
Heartbeat CPU 0 instructions: 18000112 cycles: 5116823 heartbeat IPC: 3.886 cumulative IPC: 3.518 (Simulation time: 00 hr 01 min 40 sec)
Heartbeat CPU 0 instructions: 18500117 cycles: 5302574 heartbeat IPC: 2.692 cumulative IPC: 3.489 (Simulation time: 00 hr 01 min 43 sec)
Heartbeat CPU 0 instructions: 19000124 cycles: 5474716 heartbeat IPC: 2.905 cumulative IPC: 3.471 (Simulation time: 00 hr 01 min 46 sec)
Heartbeat CPU 0 instructions: 19500126 cycles: 5635681 heartbeat IPC: 3.106 cumulative IPC: 3.46 (Simulation time: 00 hr 01 min 49 sec)
Heartbeat CPU 0 instructions: 20000131 cycles: 5801582 heartbeat IPC: 3.014 cumulative IPC: 3.447 (Simulation time: 00 hr 01 min 52 sec)
Heartbeat CPU 0 instructions: 20500134 cycles: 5971445 heartbeat IPC: 2.944 cumulative IPC: 3.433 (Simulation time: 00 hr 01 min 55 sec)
Heartbeat CPU 0 instructions: 21000139 cycles: 6131350 heartbeat IPC: 3.127 cumulative IPC: 3.425 (Simulation time: 00 hr 01 min 58 sec)
Heartbeat CPU 0 instructions: 21500140 cycles: 6289949 heartbeat IPC: 3.153 cumulative IPC: 3.418 (Simulation time: 00 hr 02 min 00 sec)
Heartbeat CPU 0 instructions: 22000142 cycles: 6443017 heartbeat IPC: 3.267 cumulative IPC: 3.415 (Simulation time: 00 hr 02 min 03 sec)
Heartbeat CPU 0 instructions: 22500146 cycles: 6558910 heartbeat IPC: 4.314 cumulative IPC: 3.43 (Simulation time: 00 hr 02 min 05 sec)
Heartbeat CPU 0 instructions: 23000147 cycles: 6729694 heartbeat IPC: 2.928 cumulative IPC: 3.418 (Simulation time: 00 hr 02 min 08 sec)
Heartbeat CPU 0 instructions: 23500154 cycles: 6857413 heartbeat IPC: 3.915 cumulative IPC: 3.427 (Simulation time: 00 hr 02 min 10 sec)
Heartbeat CPU 0 instructions: 24000156 cycles: 7017533 heartbeat IPC: 3.123 cumulative IPC: 3.42 (Simulation time: 00 hr 02 min 13 sec)
Heartbeat CPU 0 instructions: 24500158 cycles: 7176385 heartbeat IPC: 3.148 cumulative IPC: 3.414 (Simulation time: 00 hr 02 min 16 sec)
Heartbeat CPU 0 instructions: 25000160 cycles: 7313921 heartbeat IPC: 3.635 cumulative IPC: 3.418 (Simulation time: 00 hr 02 min 19 sec)
Heartbeat CPU 0 instructions: 25500161 cycles: 7433952 heartbeat IPC: 4.166 cumulative IPC: 3.43 (Simulation time: 00 hr 02 min 21 sec)
Heartbeat CPU 0 instructions: 26000168 cycles: 7555340 heartbeat IPC: 4.119 cumulative IPC: 3.441 (Simulation time: 00 hr 02 min 23 sec)
Heartbeat CPU 0 instructions: 26500174 cycles: 7673575 heartbeat IPC: 4.229 cumulative IPC: 3.453 (Simulation time: 00 hr 02 min 25 sec)
Heartbeat CPU 0 instructions: 27000175 cycles: 7792697 heartbeat IPC: 4.197 cumulative IPC: 3.465 (Simulation time: 00 hr 02 min 27 sec)
Heartbeat CPU 0 instructions: 27500179 cycles: 7910467 heartbeat IPC: 4.246 cumulative IPC: 3.476 (Simulation time: 00 hr 02 min 30 sec)
Heartbeat CPU 0 instructions: 28000183 cycles: 8025384 heartbeat IPC: 4.351 cumulative IPC: 3.489 (Simulation time: 00 hr 02 min 32 sec)
Heartbeat CPU 0 instructions: 28500183 cycles: 8141517 heartbeat IPC: 4.305 cumulative IPC: 3.501 (Simulation time: 00 hr 02 min 34 sec)
Heartbeat CPU 0 instructions: 29000183 cycles: 8261314 heartbeat IPC: 4.174 cumulative IPC: 3.51 (Simulation time: 00 hr 02 min 36 sec)
Heartbeat CPU 0 instructions: 29500190 cycles: 8403508 heartbeat IPC: 3.516 cumulative IPC: 3.51 (Simulation time: 00 hr 02 min 39 sec)
Heartbeat CPU 0 instructions: 30000195 cycles: 8551486 heartbeat IPC: 3.379 cumulative IPC: 3.508 (Simulation time: 00 hr 02 min 42 sec)
Heartbeat CPU 0 instructions: 30500198 cycles: 8698289 heartbeat IPC: 3.406 cumulative IPC: 3.506 (Simulation time: 00 hr 02 min 45 sec)
Heartbeat CPU 0 instructions: 31000204 cycles: 8850290 heartbeat IPC: 3.289 cumulative IPC: 3.503 (Simulation time: 00 hr 02 min 47 sec)
Heartbeat CPU 0 instructions: 31500206 cycles: 9022281 heartbeat IPC: 2.907 cumulative IPC: 3.491 (Simulation time: 00 hr 02 min 50 sec)
Heartbeat CPU 0 instructions: 32000213 cycles: 9153884 heartbeat IPC: 3.799 cumulative IPC: 3.496 (Simulation time: 00 hr 02 min 53 sec)
Heartbeat CPU 0 instructions: 32500218 cycles: 9318899 heartbeat IPC: 3.03 cumulative IPC: 3.488 (Simulation time: 00 hr 02 min 56 sec)
Heartbeat CPU 0 instructions: 33000222 cycles: 9510624 heartbeat IPC: 2.608 cumulative IPC: 3.47 (Simulation time: 00 hr 03 min 00 sec)
Heartbeat CPU 0 instructions: 33500225 cycles: 9652467 heartbeat IPC: 3.525 cumulative IPC: 3.471 (Simulation time: 00 hr 03 min 01 sec)
Heartbeat CPU 0 instructions: 34000225 cycles: 9791968 heartbeat IPC: 3.584 cumulative IPC: 3.472 (Simulation time: 00 hr 03 min 02 sec)
Heartbeat CPU 0 instructions: 34500225 cycles: 9931532 heartbeat IPC: 3.583 cumulative IPC: 3.474 (Simulation time: 00 hr 03 min 04 sec)
Heartbeat CPU 0 instructions: 35000227 cycles: 10071112 heartbeat IPC: 3.582 cumulative IPC: 3.475 (Simulation time: 00 hr 03 min 05 sec)
Heartbeat CPU 0 instructions: 35500230 cycles: 10217187 heartbeat IPC: 3.423 cumulative IPC: 3.475 (Simulation time: 00 hr 03 min 07 sec)
Heartbeat CPU 0 instructions: 36000231 cycles: 10317186 heartbeat IPC: 5 cumulative IPC: 3.489 (Simulation time: 00 hr 03 min 08 sec)
Heartbeat CPU 0 instructions: 36500233 cycles: 10417192 heartbeat IPC: 5 cumulative IPC: 3.504 (Simulation time: 00 hr 03 min 10 sec)
Heartbeat CPU 0 instructions: 37000233 cycles: 10517191 heartbeat IPC: 5 cumulative IPC: 3.518 (Simulation time: 00 hr 03 min 11 sec)
Heartbeat CPU 0 instructions: 37500236 cycles: 10617194 heartbeat IPC: 5 cumulative IPC: 3.532 (Simulation time: 00 hr 03 min 13 sec)
Heartbeat CPU 0 instructions: 38000238 cycles: 10717190 heartbeat IPC: 5 cumulative IPC: 3.546 (Simulation time: 00 hr 03 min 14 sec)
Heartbeat CPU 0 instructions: 38500242 cycles: 10853706 heartbeat IPC: 3.663 cumulative IPC: 3.547 (Simulation time: 00 hr 03 min 17 sec)
Heartbeat CPU 0 instructions: 39000248 cycles: 10974031 heartbeat IPC: 4.155 cumulative IPC: 3.554 (Simulation time: 00 hr 03 min 19 sec)
Heartbeat CPU 0 instructions: 39500250 cycles: 11092257 heartbeat IPC: 4.229 cumulative IPC: 3.561 (Simulation time: 00 hr 03 min 21 sec)
Heartbeat CPU 0 instructions: 40000252 cycles: 11217770 heartbeat IPC: 3.984 cumulative IPC: 3.566 (Simulation time: 00 hr 03 min 23 sec)
Heartbeat CPU 0 instructions: 40500256 cycles: 11324446 heartbeat IPC: 4.687 cumulative IPC: 3.576 (Simulation time: 00 hr 03 min 25 sec)
Heartbeat CPU 0 instructions: 41000258 cycles: 11436998 heartbeat IPC: 4.442 cumulative IPC: 3.585 (Simulation time: 00 hr 03 min 27 sec)
Heartbeat CPU 0 instructions: 41500258 cycles: 11554315 heartbeat IPC: 4.262 cumulative IPC: 3.592 (Simulation time: 00 hr 03 min 30 sec)
Heartbeat CPU 0 instructions: 42000264 cycles: 11668662 heartbeat IPC: 4.373 cumulative IPC: 3.599 (Simulation time: 00 hr 03 min 32 sec)
Heartbeat CPU 0 instructions: 42500266 cycles: 11802111 heartbeat IPC: 3.747 cumulative IPC: 3.601 (Simulation time: 00 hr 03 min 34 sec)
Heartbeat CPU 0 instructions: 43000273 cycles: 11919869 heartbeat IPC: 4.246 cumulative IPC: 3.607 (Simulation time: 00 hr 03 min 36 sec)
Heartbeat CPU 0 instructions: 43500275 cycles: 12034268 heartbeat IPC: 4.371 cumulative IPC: 3.615 (Simulation time: 00 hr 03 min 38 sec)
Heartbeat CPU 0 instructions: 44000277 cycles: 12160819 heartbeat IPC: 3.951 cumulative IPC: 3.618 (Simulation time: 00 hr 03 min 41 sec)
Heartbeat CPU 0 instructions: 44500278 cycles: 12356238 heartbeat IPC: 2.559 cumulative IPC: 3.601 (Simulation time: 00 hr 03 min 45 sec)
Heartbeat CPU 0 instructions: 45000279 cycles: 12500095 heartbeat IPC: 3.476 cumulative IPC: 3.6 (Simulation time: 00 hr 03 min 47 sec)
Heartbeat CPU 0 instructions: 45500282 cycles: 12653332 heartbeat IPC: 3.263 cumulative IPC: 3.596 (Simulation time: 00 hr 03 min 50 sec)
Heartbeat CPU 0 instructions: 46000283 cycles: 12776291 heartbeat IPC: 4.066 cumulative IPC: 3.6 (Simulation time: 00 hr 03 min 52 sec)
Heartbeat CPU 0 instructions: 46500285 cycles: 12902626 heartbeat IPC: 3.958 cumulative IPC: 3.604 (Simulation time: 00 hr 03 min 55 sec)
Heartbeat CPU 0 instructions: 47000290 cycles: 13041264 heartbeat IPC: 3.607 cumulative IPC: 3.604 (Simulation time: 00 hr 03 min 57 sec)
Heartbeat CPU 0 instructions: 47500297 cycles: 13161834 heartbeat IPC: 4.147 cumulative IPC: 3.609 (Simulation time: 00 hr 03 min 59 sec)
Heartbeat CPU 0 instructions: 48000300 cycles: 13273638 heartbeat IPC: 4.472 cumulative IPC: 3.616 (Simulation time: 00 hr 04 min 01 sec)
Heartbeat CPU 0 instructions: 48500300 cycles: 13394252 heartbeat IPC: 4.145 cumulative IPC: 3.621 (Simulation time: 00 hr 04 min 04 sec)
Heartbeat CPU 0 instructions: 49000306 cycles: 13504940 heartbeat IPC: 4.517 cumulative IPC: 3.628 (Simulation time: 00 hr 04 min 06 sec)
Heartbeat CPU 0 instructions: 49500311 cycles: 13615519 heartbeat IPC: 4.522 cumulative IPC: 3.636 (Simulation time: 00 hr 04 min 08 sec)
Warmup halting CPU 0 at instruction 50000004 cycle 13726952 for remainder of phase
Warmup finished CPU 0 instructions: 50000004 cycles: 13726952 cumulative IPC: 3.642 (Simulation time: 00 hr 04 min 10 sec)
Warmup complete CPU 0 instructions: 50000004 cycles: 13726952 cumulative IPC: 3.642 (Simulation time: 00 hr 04 min 10 sec)
Heartbeat CPU 0 instructions: 50000313 cycles: 13726993 heartbeat IPC: 4.485 cumulative IPC: 7.537 (Simulation time: 00 hr 04 min 10 sec)
Heartbeat CPU 0 instructions: 50500316 cycles: 15281674 heartbeat IPC: 0.3216 cumulative IPC: 0.3218 (Simulation time: 00 hr 04 min 21 sec)
Heartbeat CPU 0 instructions: 51000316 cycles: 17907519 heartbeat IPC: 0.1904 cumulative IPC: 0.2393 (Simulation time: 00 hr 04 min 38 sec)
Heartbeat CPU 0 instructions: 51500318 cycles: 22015486 heartbeat IPC: 0.1217 cumulative IPC: 0.181 (Simulation time: 00 hr 05 min 04 sec)
Heartbeat CPU 0 instructions: 52000318 cycles: 24694286 heartbeat IPC: 0.1867 cumulative IPC: 0.1824 (Simulation time: 00 hr 05 min 21 sec)
Heartbeat CPU 0 instructions: 52500322 cycles: 25991988 heartbeat IPC: 0.3853 cumulative IPC: 0.2039 (Simulation time: 00 hr 05 min 31 sec)
Heartbeat CPU 0 instructions: 53000324 cycles: 26263447 heartbeat IPC: 1.842 cumulative IPC: 0.2393 (Simulation time: 00 hr 05 min 34 sec)
Heartbeat CPU 0 instructions: 53500324 cycles: 26596781 heartbeat IPC: 1.5 cumulative IPC: 0.272 (Simulation time: 00 hr 05 min 37 sec)
Heartbeat CPU 0 instructions: 54000325 cycles: 28344376 heartbeat IPC: 0.2861 cumulative IPC: 0.2737 (Simulation time: 00 hr 05 min 49 sec)
Heartbeat CPU 0 instructions: 54500327 cycles: 29795929 heartbeat IPC: 0.3445 cumulative IPC: 0.2801 (Simulation time: 00 hr 06 min 00 sec)
Heartbeat CPU 0 instructions: 55000327 cycles: 32105332 heartbeat IPC: 0.2165 cumulative IPC: 0.2721 (Simulation time: 00 hr 06 min 16 sec)
Heartbeat CPU 0 instructions: 55500330 cycles: 33271799 heartbeat IPC: 0.4286 cumulative IPC: 0.2814 (Simulation time: 00 hr 06 min 26 sec)
Heartbeat CPU 0 instructions: 56000335 cycles: 36022625 heartbeat IPC: 0.1818 cumulative IPC: 0.2691 (Simulation time: 00 hr 06 min 44 sec)
Heartbeat CPU 0 instructions: 56500339 cycles: 38804086 heartbeat IPC: 0.1798 cumulative IPC: 0.2592 (Simulation time: 00 hr 07 min 02 sec)
Heartbeat CPU 0 instructions: 57000339 cycles: 40344826 heartbeat IPC: 0.3245 cumulative IPC: 0.263 (Simulation time: 00 hr 07 min 14 sec)
Heartbeat CPU 0 instructions: 57500343 cycles: 41218841 heartbeat IPC: 0.5721 cumulative IPC: 0.2728 (Simulation time: 00 hr 07 min 22 sec)
Heartbeat CPU 0 instructions: 58000348 cycles: 42014327 heartbeat IPC: 0.6286 cumulative IPC: 0.2828 (Simulation time: 00 hr 07 min 32 sec)
Heartbeat CPU 0 instructions: 58500349 cycles: 42802596 heartbeat IPC: 0.6343 cumulative IPC: 0.2924 (Simulation time: 00 hr 07 min 41 sec)
Heartbeat CPU 0 instructions: 59000353 cycles: 43518303 heartbeat IPC: 0.6986 cumulative IPC: 0.3021 (Simulation time: 00 hr 07 min 50 sec)
Heartbeat CPU 0 instructions: 59500355 cycles: 45932540 heartbeat IPC: 0.2071 cumulative IPC: 0.295 (Simulation time: 00 hr 08 min 06 sec)
Heartbeat CPU 0 instructions: 60000357 cycles: 46707866 heartbeat IPC: 0.6449 cumulative IPC: 0.3032 (Simulation time: 00 hr 08 min 13 sec)
Heartbeat CPU 0 instructions: 60500357 cycles: 49478505 heartbeat IPC: 0.1805 cumulative IPC: 0.2937 (Simulation time: 00 hr 08 min 30 sec)
Heartbeat CPU 0 instructions: 61000357 cycles: 52507837 heartbeat IPC: 0.1651 cumulative IPC: 0.2837 (Simulation time: 00 hr 08 min 48 sec)
Heartbeat CPU 0 instructions: 61500358 cycles: 54539005 heartbeat IPC: 0.2462 cumulative IPC: 0.2818 (Simulation time: 00 hr 09 min 02 sec)
Heartbeat CPU 0 instructions: 62000360 cycles: 55941173 heartbeat IPC: 0.3566 cumulative IPC: 0.2843 (Simulation time: 00 hr 09 min 11 sec)
Heartbeat CPU 0 instructions: 62500360 cycles: 58499440 heartbeat IPC: 0.1954 cumulative IPC: 0.2792 (Simulation time: 00 hr 09 min 30 sec)
Heartbeat CPU 0 instructions: 63000364 cycles: 60414051 heartbeat IPC: 0.2612 cumulative IPC: 0.2785 (Simulation time: 00 hr 09 min 46 sec)
Heartbeat CPU 0 instructions: 63500370 cycles: 62357643 heartbeat IPC: 0.2573 cumulative IPC: 0.2776 (Simulation time: 00 hr 10 min 01 sec)
Heartbeat CPU 0 instructions: 64000372 cycles: 64118624 heartbeat IPC: 0.2839 cumulative IPC: 0.2778 (Simulation time: 00 hr 10 min 16 sec)
Heartbeat CPU 0 instructions: 64500372 cycles: 64977913 heartbeat IPC: 0.5819 cumulative IPC: 0.2829 (Simulation time: 00 hr 10 min 23 sec)
Heartbeat CPU 0 instructions: 65000377 cycles: 66499081 heartbeat IPC: 0.3287 cumulative IPC: 0.2842 (Simulation time: 00 hr 10 min 36 sec)
Heartbeat CPU 0 instructions: 65500379 cycles: 68105759 heartbeat IPC: 0.3112 cumulative IPC: 0.285 (Simulation time: 00 hr 10 min 49 sec)
Heartbeat CPU 0 instructions: 66000383 cycles: 69932669 heartbeat IPC: 0.2737 cumulative IPC: 0.2847 (Simulation time: 00 hr 11 min 03 sec)
Heartbeat CPU 0 instructions: 66500383 cycles: 71494080 heartbeat IPC: 0.3202 cumulative IPC: 0.2856 (Simulation time: 00 hr 11 min 14 sec)
Heartbeat CPU 0 instructions: 67000383 cycles: 72806934 heartbeat IPC: 0.3808 cumulative IPC: 0.2878 (Simulation time: 00 hr 11 min 23 sec)
Heartbeat CPU 0 instructions: 67500388 cycles: 73822066 heartbeat IPC: 0.4926 cumulative IPC: 0.2912 (Simulation time: 00 hr 11 min 30 sec)
Heartbeat CPU 0 instructions: 68000391 cycles: 74816503 heartbeat IPC: 0.5028 cumulative IPC: 0.2947 (Simulation time: 00 hr 11 min 38 sec)
Heartbeat CPU 0 instructions: 68500394 cycles: 75858105 heartbeat IPC: 0.48 cumulative IPC: 0.2978 (Simulation time: 00 hr 11 min 45 sec)
Heartbeat CPU 0 instructions: 69000394 cycles: 76676976 heartbeat IPC: 0.6106 cumulative IPC: 0.3018 (Simulation time: 00 hr 11 min 52 sec)
Heartbeat CPU 0 instructions: 69500394 cycles: 78148859 heartbeat IPC: 0.3397 cumulative IPC: 0.3027 (Simulation time: 00 hr 12 min 02 sec)
Heartbeat CPU 0 instructions: 70000398 cycles: 79178597 heartbeat IPC: 0.4856 cumulative IPC: 0.3056 (Simulation time: 00 hr 12 min 09 sec)
Heartbeat CPU 0 instructions: 70500401 cycles: 80276841 heartbeat IPC: 0.4553 cumulative IPC: 0.308 (Simulation time: 00 hr 12 min 17 sec)
Heartbeat CPU 0 instructions: 71000408 cycles: 81271401 heartbeat IPC: 0.5027 cumulative IPC: 0.3109 (Simulation time: 00 hr 12 min 24 sec)
Heartbeat CPU 0 instructions: 71500411 cycles: 82150336 heartbeat IPC: 0.5689 cumulative IPC: 0.3142 (Simulation time: 00 hr 12 min 31 sec)
Heartbeat CPU 0 instructions: 72000418 cycles: 83024508 heartbeat IPC: 0.572 cumulative IPC: 0.3175 (Simulation time: 00 hr 12 min 38 sec)
Heartbeat CPU 0 instructions: 72500421 cycles: 83897909 heartbeat IPC: 0.5725 cumulative IPC: 0.3207 (Simulation time: 00 hr 12 min 44 sec)
Heartbeat CPU 0 instructions: 73000422 cycles: 84874664 heartbeat IPC: 0.5119 cumulative IPC: 0.3233 (Simulation time: 00 hr 12 min 51 sec)
Heartbeat CPU 0 instructions: 73500428 cycles: 85774764 heartbeat IPC: 0.5555 cumulative IPC: 0.3262 (Simulation time: 00 hr 12 min 58 sec)
Heartbeat CPU 0 instructions: 74000428 cycles: 86659676 heartbeat IPC: 0.565 cumulative IPC: 0.3291 (Simulation time: 00 hr 13 min 05 sec)
Heartbeat CPU 0 instructions: 74500433 cycles: 87521703 heartbeat IPC: 0.58 cumulative IPC: 0.332 (Simulation time: 00 hr 13 min 11 sec)
Heartbeat CPU 0 instructions: 75000435 cycles: 88518752 heartbeat IPC: 0.5015 cumulative IPC: 0.3343 (Simulation time: 00 hr 13 min 19 sec)
Heartbeat CPU 0 instructions: 75500442 cycles: 89396598 heartbeat IPC: 0.5696 cumulative IPC: 0.337 (Simulation time: 00 hr 13 min 25 sec)
Heartbeat CPU 0 instructions: 76000443 cycles: 90363277 heartbeat IPC: 0.5172 cumulative IPC: 0.3393 (Simulation time: 00 hr 13 min 32 sec)
Heartbeat CPU 0 instructions: 76500447 cycles: 91176056 heartbeat IPC: 0.6152 cumulative IPC: 0.3422 (Simulation time: 00 hr 13 min 39 sec)
Heartbeat CPU 0 instructions: 77000448 cycles: 92871095 heartbeat IPC: 0.295 cumulative IPC: 0.3412 (Simulation time: 00 hr 13 min 51 sec)
Heartbeat CPU 0 instructions: 77500448 cycles: 94351188 heartbeat IPC: 0.3378 cumulative IPC: 0.3411 (Simulation time: 00 hr 14 min 01 sec)
Heartbeat CPU 0 instructions: 78000451 cycles: 96329327 heartbeat IPC: 0.2528 cumulative IPC: 0.339 (Simulation time: 00 hr 14 min 14 sec)
Heartbeat CPU 0 instructions: 78500454 cycles: 97763795 heartbeat IPC: 0.3486 cumulative IPC: 0.3391 (Simulation time: 00 hr 14 min 23 sec)
Heartbeat CPU 0 instructions: 79000454 cycles: 98386225 heartbeat IPC: 0.8033 cumulative IPC: 0.3426 (Simulation time: 00 hr 14 min 28 sec)
Heartbeat CPU 0 instructions: 79500454 cycles: 99053971 heartbeat IPC: 0.7488 cumulative IPC: 0.3457 (Simulation time: 00 hr 14 min 33 sec)
Heartbeat CPU 0 instructions: 80000455 cycles: 99597881 heartbeat IPC: 0.9193 cumulative IPC: 0.3494 (Simulation time: 00 hr 14 min 37 sec)
Heartbeat CPU 0 instructions: 80500455 cycles: 100190008 heartbeat IPC: 0.8444 cumulative IPC: 0.3528 (Simulation time: 00 hr 14 min 42 sec)
Heartbeat CPU 0 instructions: 81000458 cycles: 100718966 heartbeat IPC: 0.9453 cumulative IPC: 0.3564 (Simulation time: 00 hr 14 min 46 sec)
Heartbeat CPU 0 instructions: 81500462 cycles: 101167592 heartbeat IPC: 1.115 cumulative IPC: 0.3602 (Simulation time: 00 hr 14 min 50 sec)
Heartbeat CPU 0 instructions: 82000465 cycles: 102215862 heartbeat IPC: 0.477 cumulative IPC: 0.3616 (Simulation time: 00 hr 14 min 57 sec)
Heartbeat CPU 0 instructions: 82500468 cycles: 104597961 heartbeat IPC: 0.2099 cumulative IPC: 0.3577 (Simulation time: 00 hr 15 min 12 sec)
Heartbeat CPU 0 instructions: 83000468 cycles: 105465148 heartbeat IPC: 0.5766 cumulative IPC: 0.3597 (Simulation time: 00 hr 15 min 20 sec)
Heartbeat CPU 0 instructions: 83500472 cycles: 106202857 heartbeat IPC: 0.6778 cumulative IPC: 0.3623 (Simulation time: 00 hr 15 min 28 sec)
Heartbeat CPU 0 instructions: 84000472 cycles: 108104180 heartbeat IPC: 0.263 cumulative IPC: 0.3603 (Simulation time: 00 hr 15 min 41 sec)
Heartbeat CPU 0 instructions: 84500478 cycles: 109797710 heartbeat IPC: 0.2952 cumulative IPC: 0.3591 (Simulation time: 00 hr 15 min 52 sec)
Heartbeat CPU 0 instructions: 85000479 cycles: 112355449 heartbeat IPC: 0.1955 cumulative IPC: 0.3549 (Simulation time: 00 hr 16 min 08 sec)
Heartbeat CPU 0 instructions: 85500480 cycles: 113614180 heartbeat IPC: 0.3972 cumulative IPC: 0.3554 (Simulation time: 00 hr 16 min 16 sec)
Heartbeat CPU 0 instructions: 86000480 cycles: 116033017 heartbeat IPC: 0.2067 cumulative IPC: 0.3519 (Simulation time: 00 hr 16 min 31 sec)
Heartbeat CPU 0 instructions: 86500480 cycles: 117843009 heartbeat IPC: 0.2762 cumulative IPC: 0.3506 (Simulation time: 00 hr 16 min 42 sec)
Heartbeat CPU 0 instructions: 87000484 cycles: 119429786 heartbeat IPC: 0.3151 cumulative IPC: 0.35 (Simulation time: 00 hr 16 min 53 sec)
Heartbeat CPU 0 instructions: 87500484 cycles: 121090462 heartbeat IPC: 0.3011 cumulative IPC: 0.3493 (Simulation time: 00 hr 17 min 03 sec)
Heartbeat CPU 0 instructions: 88000488 cycles: 123681445 heartbeat IPC: 0.193 cumulative IPC: 0.3456 (Simulation time: 00 hr 17 min 19 sec)
Heartbeat CPU 0 instructions: 88500495 cycles: 125881888 heartbeat IPC: 0.2272 cumulative IPC: 0.3433 (Simulation time: 00 hr 17 min 32 sec)
Heartbeat CPU 0 instructions: 89000498 cycles: 128643662 heartbeat IPC: 0.181 cumulative IPC: 0.3394 (Simulation time: 00 hr 17 min 48 sec)
Heartbeat CPU 0 instructions: 89500502 cycles: 129320008 heartbeat IPC: 0.7393 cumulative IPC: 0.3417 (Simulation time: 00 hr 17 min 53 sec)
Heartbeat CPU 0 instructions: 90000505 cycles: 129938620 heartbeat IPC: 0.8083 cumulative IPC: 0.3442 (Simulation time: 00 hr 17 min 58 sec)
Heartbeat CPU 0 instructions: 90500507 cycles: 130591308 heartbeat IPC: 0.7661 cumulative IPC: 0.3466 (Simulation time: 00 hr 18 min 03 sec)
Heartbeat CPU 0 instructions: 91000512 cycles: 131130815 heartbeat IPC: 0.9268 cumulative IPC: 0.3492 (Simulation time: 00 hr 18 min 07 sec)
Heartbeat CPU 0 instructions: 91500513 cycles: 131669923 heartbeat IPC: 0.9275 cumulative IPC: 0.3519 (Simulation time: 00 hr 18 min 11 sec)
Heartbeat CPU 0 instructions: 92000516 cycles: 132214414 heartbeat IPC: 0.9183 cumulative IPC: 0.3545 (Simulation time: 00 hr 18 min 15 sec)
Heartbeat CPU 0 instructions: 92500517 cycles: 133033584 heartbeat IPC: 0.6104 cumulative IPC: 0.3562 (Simulation time: 00 hr 18 min 21 sec)
Heartbeat CPU 0 instructions: 93000517 cycles: 135008200 heartbeat IPC: 0.2532 cumulative IPC: 0.3546 (Simulation time: 00 hr 18 min 33 sec)
Heartbeat CPU 0 instructions: 93500519 cycles: 135838693 heartbeat IPC: 0.6021 cumulative IPC: 0.3562 (Simulation time: 00 hr 18 min 39 sec)
Heartbeat CPU 0 instructions: 94000520 cycles: 136380427 heartbeat IPC: 0.923 cumulative IPC: 0.3587 (Simulation time: 00 hr 18 min 44 sec)
Heartbeat CPU 0 instructions: 94500520 cycles: 136537055 heartbeat IPC: 3.192 cumulative IPC: 0.3624 (Simulation time: 00 hr 18 min 46 sec)
Heartbeat CPU 0 instructions: 95000522 cycles: 136696370 heartbeat IPC: 3.138 cumulative IPC: 0.3659 (Simulation time: 00 hr 18 min 48 sec)
Heartbeat CPU 0 instructions: 95500522 cycles: 137040254 heartbeat IPC: 1.454 cumulative IPC: 0.369 (Simulation time: 00 hr 18 min 51 sec)
Heartbeat CPU 0 instructions: 96000524 cycles: 138373382 heartbeat IPC: 0.3751 cumulative IPC: 0.369 (Simulation time: 00 hr 19 min 01 sec)
Heartbeat CPU 0 instructions: 96500526 cycles: 138650821 heartbeat IPC: 1.802 cumulative IPC: 0.3722 (Simulation time: 00 hr 19 min 03 sec)
Heartbeat CPU 0 instructions: 97000526 cycles: 138957039 heartbeat IPC: 1.633 cumulative IPC: 0.3753 (Simulation time: 00 hr 19 min 06 sec)
Heartbeat CPU 0 instructions: 97500526 cycles: 142212477 heartbeat IPC: 0.1536 cumulative IPC: 0.3697 (Simulation time: 00 hr 19 min 24 sec)
Heartbeat CPU 0 instructions: 98000533 cycles: 143710321 heartbeat IPC: 0.3338 cumulative IPC: 0.3693 (Simulation time: 00 hr 19 min 39 sec)
Heartbeat CPU 0 instructions: 98500534 cycles: 145594015 heartbeat IPC: 0.2654 cumulative IPC: 0.3678 (Simulation time: 00 hr 20 min 01 sec)
Heartbeat CPU 0 instructions: 99000535 cycles: 146074371 heartbeat IPC: 1.041 cumulative IPC: 0.3702 (Simulation time: 00 hr 20 min 05 sec)
Heartbeat CPU 0 instructions: 99500537 cycles: 146241480 heartbeat IPC: 2.992 cumulative IPC: 0.3735 (Simulation time: 00 hr 20 min 07 sec)
Heartbeat CPU 0 instructions: 100000541 cycles: 146663524 heartbeat IPC: 1.185 cumulative IPC: 0.3761 (Simulation time: 00 hr 20 min 11 sec)
Heartbeat CPU 0 instructions: 100500543 cycles: 147040285 heartbeat IPC: 1.327 cumulative IPC: 0.3788 (Simulation time: 00 hr 20 min 14 sec)
Heartbeat CPU 0 instructions: 101000546 cycles: 149018844 heartbeat IPC: 0.2527 cumulative IPC: 0.377 (Simulation time: 00 hr 20 min 27 sec)
Heartbeat CPU 0 instructions: 101500546 cycles: 151170883 heartbeat IPC: 0.2323 cumulative IPC: 0.3747 (Simulation time: 00 hr 20 min 41 sec)
Heartbeat CPU 0 instructions: 102000549 cycles: 151845485 heartbeat IPC: 0.7412 cumulative IPC: 0.3765 (Simulation time: 00 hr 20 min 46 sec)
Heartbeat CPU 0 instructions: 102500549 cycles: 152584546 heartbeat IPC: 0.6765 cumulative IPC: 0.3781 (Simulation time: 00 hr 20 min 51 sec)
Heartbeat CPU 0 instructions: 103000551 cycles: 153437687 heartbeat IPC: 0.5861 cumulative IPC: 0.3794 (Simulation time: 00 hr 20 min 57 sec)
Heartbeat CPU 0 instructions: 103500552 cycles: 154299475 heartbeat IPC: 0.5802 cumulative IPC: 0.3806 (Simulation time: 00 hr 21 min 03 sec)
Heartbeat CPU 0 instructions: 104000559 cycles: 154643283 heartbeat IPC: 1.454 cumulative IPC: 0.3832 (Simulation time: 00 hr 21 min 07 sec)
Heartbeat CPU 0 instructions: 104500559 cycles: 154928504 heartbeat IPC: 1.753 cumulative IPC: 0.386 (Simulation time: 00 hr 21 min 10 sec)
Heartbeat CPU 0 instructions: 105000562 cycles: 155316533 heartbeat IPC: 1.289 cumulative IPC: 0.3885 (Simulation time: 00 hr 21 min 14 sec)
Heartbeat CPU 0 instructions: 105500565 cycles: 155649210 heartbeat IPC: 1.503 cumulative IPC: 0.3911 (Simulation time: 00 hr 21 min 18 sec)
Heartbeat CPU 0 instructions: 106000570 cycles: 155928920 heartbeat IPC: 1.788 cumulative IPC: 0.3938 (Simulation time: 00 hr 21 min 21 sec)
Heartbeat CPU 0 instructions: 106500571 cycles: 156196681 heartbeat IPC: 1.867 cumulative IPC: 0.3966 (Simulation time: 00 hr 21 min 24 sec)
Heartbeat CPU 0 instructions: 107000577 cycles: 156689940 heartbeat IPC: 1.014 cumulative IPC: 0.3987 (Simulation time: 00 hr 21 min 28 sec)
Heartbeat CPU 0 instructions: 107500579 cycles: 159530030 heartbeat IPC: 0.1761 cumulative IPC: 0.3944 (Simulation time: 00 hr 21 min 45 sec)
Heartbeat CPU 0 instructions: 108000585 cycles: 160381779 heartbeat IPC: 0.587 cumulative IPC: 0.3955 (Simulation time: 00 hr 21 min 50 sec)
Heartbeat CPU 0 instructions: 108500587 cycles: 160710156 heartbeat IPC: 1.523 cumulative IPC: 0.398 (Simulation time: 00 hr 21 min 53 sec)
Heartbeat CPU 0 instructions: 109000592 cycles: 161240110 heartbeat IPC: 0.9435 cumulative IPC: 0.4 (Simulation time: 00 hr 21 min 58 sec)
Heartbeat CPU 0 instructions: 109500593 cycles: 162039573 heartbeat IPC: 0.6254 cumulative IPC: 0.4012 (Simulation time: 00 hr 22 min 04 sec)
Heartbeat CPU 0 instructions: 110000593 cycles: 163058154 heartbeat IPC: 0.4909 cumulative IPC: 0.4018 (Simulation time: 00 hr 22 min 10 sec)
Heartbeat CPU 0 instructions: 110500593 cycles: 163421174 heartbeat IPC: 1.377 cumulative IPC: 0.4042 (Simulation time: 00 hr 22 min 13 sec)
Heartbeat CPU 0 instructions: 111000593 cycles: 163770883 heartbeat IPC: 1.43 cumulative IPC: 0.4066 (Simulation time: 00 hr 22 min 16 sec)
Heartbeat CPU 0 instructions: 111500593 cycles: 164110114 heartbeat IPC: 1.474 cumulative IPC: 0.409 (Simulation time: 00 hr 22 min 19 sec)
Heartbeat CPU 0 instructions: 112000594 cycles: 164558771 heartbeat IPC: 1.114 cumulative IPC: 0.4111 (Simulation time: 00 hr 22 min 22 sec)
Heartbeat CPU 0 instructions: 112500594 cycles: 164910676 heartbeat IPC: 1.421 cumulative IPC: 0.4134 (Simulation time: 00 hr 22 min 25 sec)
Heartbeat CPU 0 instructions: 113000594 cycles: 165242328 heartbeat IPC: 1.508 cumulative IPC: 0.4158 (Simulation time: 00 hr 22 min 28 sec)
Heartbeat CPU 0 instructions: 113500597 cycles: 165598636 heartbeat IPC: 1.403 cumulative IPC: 0.4181 (Simulation time: 00 hr 22 min 31 sec)
Heartbeat CPU 0 instructions: 114000598 cycles: 165948507 heartbeat IPC: 1.429 cumulative IPC: 0.4204 (Simulation time: 00 hr 22 min 34 sec)
Heartbeat CPU 0 instructions: 114500600 cycles: 166330596 heartbeat IPC: 1.309 cumulative IPC: 0.4227 (Simulation time: 00 hr 22 min 37 sec)
Heartbeat CPU 0 instructions: 115000602 cycles: 166666879 heartbeat IPC: 1.487 cumulative IPC: 0.425 (Simulation time: 00 hr 22 min 40 sec)
Heartbeat CPU 0 instructions: 115500602 cycles: 167026530 heartbeat IPC: 1.39 cumulative IPC: 0.4273 (Simulation time: 00 hr 22 min 43 sec)
Heartbeat CPU 0 instructions: 116000603 cycles: 167369757 heartbeat IPC: 1.457 cumulative IPC: 0.4296 (Simulation time: 00 hr 22 min 46 sec)
Heartbeat CPU 0 instructions: 116500606 cycles: 167709481 heartbeat IPC: 1.472 cumulative IPC: 0.4319 (Simulation time: 00 hr 22 min 48 sec)
Heartbeat CPU 0 instructions: 117000606 cycles: 168053782 heartbeat IPC: 1.452 cumulative IPC: 0.4341 (Simulation time: 00 hr 22 min 51 sec)
Heartbeat CPU 0 instructions: 117500609 cycles: 168395311 heartbeat IPC: 1.464 cumulative IPC: 0.4364 (Simulation time: 00 hr 22 min 54 sec)
Heartbeat CPU 0 instructions: 118000609 cycles: 168747150 heartbeat IPC: 1.421 cumulative IPC: 0.4387 (Simulation time: 00 hr 22 min 57 sec)
Heartbeat CPU 0 instructions: 118500609 cycles: 169082901 heartbeat IPC: 1.489 cumulative IPC: 0.4409 (Simulation time: 00 hr 23 min 00 sec)
Heartbeat CPU 0 instructions: 119000612 cycles: 169424987 heartbeat IPC: 1.462 cumulative IPC: 0.4432 (Simulation time: 00 hr 23 min 03 sec)
Heartbeat CPU 0 instructions: 119500612 cycles: 169781734 heartbeat IPC: 1.402 cumulative IPC: 0.4454 (Simulation time: 00 hr 23 min 06 sec)
Heartbeat CPU 0 instructions: 120000613 cycles: 170416335 heartbeat IPC: 0.7879 cumulative IPC: 0.4467 (Simulation time: 00 hr 23 min 10 sec)
Heartbeat CPU 0 instructions: 120500615 cycles: 171113530 heartbeat IPC: 0.7172 cumulative IPC: 0.4479 (Simulation time: 00 hr 23 min 16 sec)
Heartbeat CPU 0 instructions: 121000619 cycles: 171765777 heartbeat IPC: 0.7666 cumulative IPC: 0.4493 (Simulation time: 00 hr 23 min 20 sec)
Heartbeat CPU 0 instructions: 121500621 cycles: 171923054 heartbeat IPC: 3.179 cumulative IPC: 0.452 (Simulation time: 00 hr 23 min 22 sec)
Heartbeat CPU 0 instructions: 122000621 cycles: 173533536 heartbeat IPC: 0.3105 cumulative IPC: 0.4505 (Simulation time: 00 hr 23 min 32 sec)
Heartbeat CPU 0 instructions: 122500622 cycles: 177102658 heartbeat IPC: 0.1401 cumulative IPC: 0.4438 (Simulation time: 00 hr 23 min 51 sec)
Heartbeat CPU 0 instructions: 123000622 cycles: 178802710 heartbeat IPC: 0.2941 cumulative IPC: 0.4422 (Simulation time: 00 hr 24 min 01 sec)
Heartbeat CPU 0 instructions: 123500624 cycles: 179104502 heartbeat IPC: 1.657 cumulative IPC: 0.4444 (Simulation time: 00 hr 24 min 04 sec)
Heartbeat CPU 0 instructions: 124000624 cycles: 179516517 heartbeat IPC: 1.214 cumulative IPC: 0.4464 (Simulation time: 00 hr 24 min 08 sec)
Heartbeat CPU 0 instructions: 124500630 cycles: 181671295 heartbeat IPC: 0.232 cumulative IPC: 0.4436 (Simulation time: 00 hr 24 min 20 sec)
Heartbeat CPU 0 instructions: 125000630 cycles: 185173648 heartbeat IPC: 0.1428 cumulative IPC: 0.4375 (Simulation time: 00 hr 24 min 39 sec)
Heartbeat CPU 0 instructions: 125500634 cycles: 187409309 heartbeat IPC: 0.2236 cumulative IPC: 0.4347 (Simulation time: 00 hr 24 min 52 sec)
Heartbeat CPU 0 instructions: 126000641 cycles: 187964498 heartbeat IPC: 0.9006 cumulative IPC: 0.4362 (Simulation time: 00 hr 24 min 57 sec)
Heartbeat CPU 0 instructions: 126500641 cycles: 189159732 heartbeat IPC: 0.4183 cumulative IPC: 0.4361 (Simulation time: 00 hr 25 min 04 sec)
Heartbeat CPU 0 instructions: 127000648 cycles: 190943642 heartbeat IPC: 0.2803 cumulative IPC: 0.4345 (Simulation time: 00 hr 25 min 14 sec)
Heartbeat CPU 0 instructions: 127500648 cycles: 192551962 heartbeat IPC: 0.3109 cumulative IPC: 0.4334 (Simulation time: 00 hr 25 min 24 sec)
Heartbeat CPU 0 instructions: 128000648 cycles: 193168725 heartbeat IPC: 0.8107 cumulative IPC: 0.4347 (Simulation time: 00 hr 25 min 28 sec)
Heartbeat CPU 0 instructions: 128500648 cycles: 193754300 heartbeat IPC: 0.8539 cumulative IPC: 0.436 (Simulation time: 00 hr 25 min 32 sec)
Heartbeat CPU 0 instructions: 129000651 cycles: 194366852 heartbeat IPC: 0.8163 cumulative IPC: 0.4373 (Simulation time: 00 hr 25 min 37 sec)
Heartbeat CPU 0 instructions: 129500657 cycles: 195224791 heartbeat IPC: 0.5828 cumulative IPC: 0.438 (Simulation time: 00 hr 25 min 42 sec)
Heartbeat CPU 0 instructions: 130000661 cycles: 196771543 heartbeat IPC: 0.3233 cumulative IPC: 0.4371 (Simulation time: 00 hr 25 min 52 sec)
Heartbeat CPU 0 instructions: 130500661 cycles: 197599841 heartbeat IPC: 0.6036 cumulative IPC: 0.4378 (Simulation time: 00 hr 25 min 57 sec)
Heartbeat CPU 0 instructions: 131000661 cycles: 198880939 heartbeat IPC: 0.3903 cumulative IPC: 0.4375 (Simulation time: 00 hr 26 min 05 sec)
Heartbeat CPU 0 instructions: 131500662 cycles: 199519365 heartbeat IPC: 0.7832 cumulative IPC: 0.4387 (Simulation time: 00 hr 26 min 09 sec)
Heartbeat CPU 0 instructions: 132000665 cycles: 201417982 heartbeat IPC: 0.2634 cumulative IPC: 0.4369 (Simulation time: 00 hr 26 min 21 sec)
Heartbeat CPU 0 instructions: 132500666 cycles: 201802276 heartbeat IPC: 1.301 cumulative IPC: 0.4387 (Simulation time: 00 hr 26 min 24 sec)
Heartbeat CPU 0 instructions: 133000670 cycles: 202109790 heartbeat IPC: 1.626 cumulative IPC: 0.4406 (Simulation time: 00 hr 26 min 27 sec)
Heartbeat CPU 0 instructions: 133500674 cycles: 202408410 heartbeat IPC: 1.674 cumulative IPC: 0.4425 (Simulation time: 00 hr 26 min 29 sec)
Heartbeat CPU 0 instructions: 134000677 cycles: 202715686 heartbeat IPC: 1.627 cumulative IPC: 0.4445 (Simulation time: 00 hr 26 min 32 sec)
Heartbeat CPU 0 instructions: 134500677 cycles: 204800509 heartbeat IPC: 0.2398 cumulative IPC: 0.4422 (Simulation time: 00 hr 26 min 44 sec)
Heartbeat CPU 0 instructions: 135000682 cycles: 207052609 heartbeat IPC: 0.222 cumulative IPC: 0.4397 (Simulation time: 00 hr 26 min 57 sec)
Heartbeat CPU 0 instructions: 135500688 cycles: 208592488 heartbeat IPC: 0.3247 cumulative IPC: 0.4388 (Simulation time: 00 hr 27 min 07 sec)
Heartbeat CPU 0 instructions: 136000688 cycles: 210817475 heartbeat IPC: 0.2247 cumulative IPC: 0.4364 (Simulation time: 00 hr 27 min 19 sec)
Heartbeat CPU 0 instructions: 136500692 cycles: 212468365 heartbeat IPC: 0.3029 cumulative IPC: 0.4352 (Simulation time: 00 hr 27 min 29 sec)
Heartbeat CPU 0 instructions: 137000696 cycles: 213364054 heartbeat IPC: 0.5582 cumulative IPC: 0.4358 (Simulation time: 00 hr 27 min 36 sec)
Heartbeat CPU 0 instructions: 137500696 cycles: 215834058 heartbeat IPC: 0.2024 cumulative IPC: 0.4329 (Simulation time: 00 hr 27 min 49 sec)
Heartbeat CPU 0 instructions: 138000696 cycles: 217107564 heartbeat IPC: 0.3926 cumulative IPC: 0.4327 (Simulation time: 00 hr 27 min 58 sec)
Heartbeat CPU 0 instructions: 138500696 cycles: 218760104 heartbeat IPC: 0.3026 cumulative IPC: 0.4316 (Simulation time: 00 hr 28 min 08 sec)
Heartbeat CPU 0 instructions: 139000702 cycles: 220437721 heartbeat IPC: 0.298 cumulative IPC: 0.4306 (Simulation time: 00 hr 28 min 19 sec)
Heartbeat CPU 0 instructions: 139500702 cycles: 221187308 heartbeat IPC: 0.667 cumulative IPC: 0.4314 (Simulation time: 00 hr 28 min 25 sec)
Heartbeat CPU 0 instructions: 140000702 cycles: 221928880 heartbeat IPC: 0.6742 cumulative IPC: 0.4323 (Simulation time: 00 hr 28 min 32 sec)
Heartbeat CPU 0 instructions: 140500703 cycles: 222697272 heartbeat IPC: 0.6507 cumulative IPC: 0.4331 (Simulation time: 00 hr 28 min 40 sec)
Heartbeat CPU 0 instructions: 141000706 cycles: 224117410 heartbeat IPC: 0.3521 cumulative IPC: 0.4325 (Simulation time: 00 hr 28 min 49 sec)
Heartbeat CPU 0 instructions: 141500710 cycles: 226412677 heartbeat IPC: 0.2178 cumulative IPC: 0.4302 (Simulation time: 00 hr 29 min 01 sec)
Heartbeat CPU 0 instructions: 142000716 cycles: 228018363 heartbeat IPC: 0.3114 cumulative IPC: 0.4293 (Simulation time: 00 hr 29 min 11 sec)
Heartbeat CPU 0 instructions: 142500716 cycles: 228789891 heartbeat IPC: 0.6481 cumulative IPC: 0.4301 (Simulation time: 00 hr 29 min 16 sec)
Heartbeat CPU 0 instructions: 143000717 cycles: 230610971 heartbeat IPC: 0.2746 cumulative IPC: 0.4288 (Simulation time: 00 hr 29 min 27 sec)
Heartbeat CPU 0 instructions: 143500723 cycles: 233935986 heartbeat IPC: 0.1504 cumulative IPC: 0.4246 (Simulation time: 00 hr 29 min 45 sec)
Heartbeat CPU 0 instructions: 144000725 cycles: 235616498 heartbeat IPC: 0.2975 cumulative IPC: 0.4236 (Simulation time: 00 hr 29 min 54 sec)
Heartbeat CPU 0 instructions: 144500725 cycles: 236718998 heartbeat IPC: 0.4535 cumulative IPC: 0.4238 (Simulation time: 00 hr 30 min 01 sec)
Heartbeat CPU 0 instructions: 145000726 cycles: 238577770 heartbeat IPC: 0.269 cumulative IPC: 0.4225 (Simulation time: 00 hr 30 min 13 sec)
Heartbeat CPU 0 instructions: 145500731 cycles: 240166370 heartbeat IPC: 0.3147 cumulative IPC: 0.4217 (Simulation time: 00 hr 30 min 22 sec)
Heartbeat CPU 0 instructions: 146000731 cycles: 241028483 heartbeat IPC: 0.58 cumulative IPC: 0.4223 (Simulation time: 00 hr 30 min 29 sec)
Heartbeat CPU 0 instructions: 146500733 cycles: 241932841 heartbeat IPC: 0.5529 cumulative IPC: 0.4229 (Simulation time: 00 hr 30 min 37 sec)
Heartbeat CPU 0 instructions: 147000734 cycles: 243195575 heartbeat IPC: 0.396 cumulative IPC: 0.4227 (Simulation time: 00 hr 30 min 45 sec)
Heartbeat CPU 0 instructions: 147500734 cycles: 244719866 heartbeat IPC: 0.328 cumulative IPC: 0.4221 (Simulation time: 00 hr 30 min 54 sec)
Heartbeat CPU 0 instructions: 148000739 cycles: 246627538 heartbeat IPC: 0.2621 cumulative IPC: 0.4208 (Simulation time: 00 hr 31 min 05 sec)
Heartbeat CPU 0 instructions: 148500740 cycles: 247098829 heartbeat IPC: 1.061 cumulative IPC: 0.4221 (Simulation time: 00 hr 31 min 09 sec)
Heartbeat CPU 0 instructions: 149000741 cycles: 248203538 heartbeat IPC: 0.4526 cumulative IPC: 0.4222 (Simulation time: 00 hr 31 min 16 sec)
Heartbeat CPU 0 instructions: 149500743 cycles: 250282351 heartbeat IPC: 0.2405 cumulative IPC: 0.4206 (Simulation time: 00 hr 31 min 27 sec)
Heartbeat CPU 0 instructions: 150000750 cycles: 251390883 heartbeat IPC: 0.4511 cumulative IPC: 0.4208 (Simulation time: 00 hr 31 min 35 sec)
Heartbeat CPU 0 instructions: 150500752 cycles: 252172032 heartbeat IPC: 0.6401 cumulative IPC: 0.4215 (Simulation time: 00 hr 31 min 43 sec)
Heartbeat CPU 0 instructions: 151000754 cycles: 252844870 heartbeat IPC: 0.7431 cumulative IPC: 0.4224 (Simulation time: 00 hr 31 min 48 sec)
Heartbeat CPU 0 instructions: 151500755 cycles: 255290359 heartbeat IPC: 0.2045 cumulative IPC: 0.4202 (Simulation time: 00 hr 32 min 02 sec)
Heartbeat CPU 0 instructions: 152000755 cycles: 257628471 heartbeat IPC: 0.2138 cumulative IPC: 0.4182 (Simulation time: 00 hr 32 min 15 sec)
Heartbeat CPU 0 instructions: 152500757 cycles: 258549810 heartbeat IPC: 0.5427 cumulative IPC: 0.4187 (Simulation time: 00 hr 32 min 21 sec)
Heartbeat CPU 0 instructions: 153000763 cycles: 260067782 heartbeat IPC: 0.3294 cumulative IPC: 0.4181 (Simulation time: 00 hr 32 min 30 sec)
Heartbeat CPU 0 instructions: 153500763 cycles: 262614738 heartbeat IPC: 0.1963 cumulative IPC: 0.4159 (Simulation time: 00 hr 32 min 44 sec)
Heartbeat CPU 0 instructions: 154000766 cycles: 264057679 heartbeat IPC: 0.3465 cumulative IPC: 0.4155 (Simulation time: 00 hr 32 min 53 sec)
Heartbeat CPU 0 instructions: 154500767 cycles: 265522082 heartbeat IPC: 0.3414 cumulative IPC: 0.415 (Simulation time: 00 hr 33 min 03 sec)
Heartbeat CPU 0 instructions: 155000767 cycles: 267483645 heartbeat IPC: 0.2549 cumulative IPC: 0.4138 (Simulation time: 00 hr 33 min 14 sec)
Heartbeat CPU 0 instructions: 155500768 cycles: 268938842 heartbeat IPC: 0.3436 cumulative IPC: 0.4134 (Simulation time: 00 hr 33 min 23 sec)
Heartbeat CPU 0 instructions: 156000768 cycles: 271195269 heartbeat IPC: 0.2216 cumulative IPC: 0.4117 (Simulation time: 00 hr 33 min 35 sec)
Heartbeat CPU 0 instructions: 156500769 cycles: 272625615 heartbeat IPC: 0.3496 cumulative IPC: 0.4114 (Simulation time: 00 hr 33 min 44 sec)
Heartbeat CPU 0 instructions: 157000769 cycles: 273857405 heartbeat IPC: 0.4059 cumulative IPC: 0.4113 (Simulation time: 00 hr 33 min 53 sec)
Heartbeat CPU 0 instructions: 157500771 cycles: 275113275 heartbeat IPC: 0.3981 cumulative IPC: 0.4113 (Simulation time: 00 hr 34 min 01 sec)
Heartbeat CPU 0 instructions: 158000771 cycles: 276510807 heartbeat IPC: 0.3578 cumulative IPC: 0.411 (Simulation time: 00 hr 34 min 09 sec)
Heartbeat CPU 0 instructions: 158500771 cycles: 278566068 heartbeat IPC: 0.2433 cumulative IPC: 0.4097 (Simulation time: 00 hr 34 min 21 sec)
Heartbeat CPU 0 instructions: 159000771 cycles: 280922532 heartbeat IPC: 0.2122 cumulative IPC: 0.4079 (Simulation time: 00 hr 34 min 34 sec)
Heartbeat CPU 0 instructions: 159500777 cycles: 281277400 heartbeat IPC: 1.409 cumulative IPC: 0.4093 (Simulation time: 00 hr 34 min 37 sec)
Heartbeat CPU 0 instructions: 160000783 cycles: 283040297 heartbeat IPC: 0.2836 cumulative IPC: 0.4084 (Simulation time: 00 hr 34 min 46 sec)
Heartbeat CPU 0 instructions: 160500786 cycles: 283858104 heartbeat IPC: 0.6114 cumulative IPC: 0.4091 (Simulation time: 00 hr 34 min 51 sec)
Heartbeat CPU 0 instructions: 161000786 cycles: 284197508 heartbeat IPC: 1.473 cumulative IPC: 0.4104 (Simulation time: 00 hr 34 min 54 sec)
Heartbeat CPU 0 instructions: 161500790 cycles: 284562830 heartbeat IPC: 1.369 cumulative IPC: 0.4117 (Simulation time: 00 hr 34 min 57 sec)
Heartbeat CPU 0 instructions: 162000792 cycles: 284917567 heartbeat IPC: 1.41 cumulative IPC: 0.413 (Simulation time: 00 hr 35 min 00 sec)
Heartbeat CPU 0 instructions: 162500793 cycles: 286989632 heartbeat IPC: 0.2413 cumulative IPC: 0.4117 (Simulation time: 00 hr 35 min 13 sec)
Heartbeat CPU 0 instructions: 163000798 cycles: 287726153 heartbeat IPC: 0.6789 cumulative IPC: 0.4124 (Simulation time: 00 hr 35 min 17 sec)
Heartbeat CPU 0 instructions: 163500799 cycles: 288066962 heartbeat IPC: 1.467 cumulative IPC: 0.4137 (Simulation time: 00 hr 35 min 20 sec)
Heartbeat CPU 0 instructions: 164000799 cycles: 288407527 heartbeat IPC: 1.468 cumulative IPC: 0.415 (Simulation time: 00 hr 35 min 23 sec)
Heartbeat CPU 0 instructions: 164500801 cycles: 290567785 heartbeat IPC: 0.2315 cumulative IPC: 0.4136 (Simulation time: 00 hr 35 min 34 sec)
Heartbeat CPU 0 instructions: 165000801 cycles: 292125960 heartbeat IPC: 0.3209 cumulative IPC: 0.4131 (Simulation time: 00 hr 35 min 44 sec)
Heartbeat CPU 0 instructions: 165500802 cycles: 293591243 heartbeat IPC: 0.3412 cumulative IPC: 0.4127 (Simulation time: 00 hr 35 min 52 sec)
Heartbeat CPU 0 instructions: 166000805 cycles: 294318087 heartbeat IPC: 0.6879 cumulative IPC: 0.4134 (Simulation time: 00 hr 35 min 57 sec)
Heartbeat CPU 0 instructions: 166500805 cycles: 295254976 heartbeat IPC: 0.5337 cumulative IPC: 0.4138 (Simulation time: 00 hr 36 min 03 sec)
Heartbeat CPU 0 instructions: 167000806 cycles: 295676423 heartbeat IPC: 1.186 cumulative IPC: 0.415 (Simulation time: 00 hr 36 min 07 sec)
Heartbeat CPU 0 instructions: 167500812 cycles: 296039324 heartbeat IPC: 1.378 cumulative IPC: 0.4162 (Simulation time: 00 hr 36 min 10 sec)
Heartbeat CPU 0 instructions: 168000817 cycles: 296357719 heartbeat IPC: 1.57 cumulative IPC: 0.4175 (Simulation time: 00 hr 36 min 13 sec)
Heartbeat CPU 0 instructions: 168500817 cycles: 297419138 heartbeat IPC: 0.4711 cumulative IPC: 0.4177 (Simulation time: 00 hr 36 min 20 sec)
Heartbeat CPU 0 instructions: 169000817 cycles: 300471271 heartbeat IPC: 0.1638 cumulative IPC: 0.415 (Simulation time: 00 hr 36 min 36 sec)
Heartbeat CPU 0 instructions: 169500819 cycles: 301948962 heartbeat IPC: 0.3384 cumulative IPC: 0.4146 (Simulation time: 00 hr 36 min 45 sec)
Heartbeat CPU 0 instructions: 170000819 cycles: 302532124 heartbeat IPC: 0.8574 cumulative IPC: 0.4155 (Simulation time: 00 hr 36 min 49 sec)
Heartbeat CPU 0 instructions: 170500821 cycles: 302974697 heartbeat IPC: 1.13 cumulative IPC: 0.4166 (Simulation time: 00 hr 36 min 52 sec)
Heartbeat CPU 0 instructions: 171000826 cycles: 303379681 heartbeat IPC: 1.235 cumulative IPC: 0.4177 (Simulation time: 00 hr 36 min 55 sec)
Heartbeat CPU 0 instructions: 171500833 cycles: 303812770 heartbeat IPC: 1.155 cumulative IPC: 0.4188 (Simulation time: 00 hr 36 min 58 sec)
Heartbeat CPU 0 instructions: 172000837 cycles: 304227482 heartbeat IPC: 1.206 cumulative IPC: 0.42 (Simulation time: 00 hr 37 min 01 sec)
Heartbeat CPU 0 instructions: 172500839 cycles: 305194875 heartbeat IPC: 0.5169 cumulative IPC: 0.4203 (Simulation time: 00 hr 37 min 07 sec)
Heartbeat CPU 0 instructions: 173000844 cycles: 307462463 heartbeat IPC: 0.2205 cumulative IPC: 0.4187 (Simulation time: 00 hr 37 min 20 sec)
Heartbeat CPU 0 instructions: 173500845 cycles: 309274349 heartbeat IPC: 0.276 cumulative IPC: 0.4179 (Simulation time: 00 hr 37 min 29 sec)
Heartbeat CPU 0 instructions: 174000845 cycles: 309611534 heartbeat IPC: 1.483 cumulative IPC: 0.4191 (Simulation time: 00 hr 37 min 32 sec)
Heartbeat CPU 0 instructions: 174500851 cycles: 309760588 heartbeat IPC: 3.355 cumulative IPC: 0.4206 (Simulation time: 00 hr 37 min 34 sec)
Heartbeat CPU 0 instructions: 175000851 cycles: 310035499 heartbeat IPC: 1.819 cumulative IPC: 0.4219 (Simulation time: 00 hr 37 min 37 sec)
Heartbeat CPU 0 instructions: 175500856 cycles: 310239667 heartbeat IPC: 2.449 cumulative IPC: 0.4233 (Simulation time: 00 hr 37 min 39 sec)
Heartbeat CPU 0 instructions: 176000857 cycles: 312788859 heartbeat IPC: 0.1961 cumulative IPC: 0.4213 (Simulation time: 00 hr 37 min 53 sec)
Heartbeat CPU 0 instructions: 176500861 cycles: 314607621 heartbeat IPC: 0.2749 cumulative IPC: 0.4204 (Simulation time: 00 hr 38 min 03 sec)
Heartbeat CPU 0 instructions: 177000864 cycles: 315260628 heartbeat IPC: 0.7657 cumulative IPC: 0.4212 (Simulation time: 00 hr 38 min 07 sec)
Heartbeat CPU 0 instructions: 177500864 cycles: 315911553 heartbeat IPC: 0.7681 cumulative IPC: 0.4219 (Simulation time: 00 hr 38 min 12 sec)
Heartbeat CPU 0 instructions: 178000864 cycles: 316450084 heartbeat IPC: 0.9285 cumulative IPC: 0.4228 (Simulation time: 00 hr 38 min 15 sec)
Heartbeat CPU 0 instructions: 178500866 cycles: 317121664 heartbeat IPC: 0.7445 cumulative IPC: 0.4235 (Simulation time: 00 hr 38 min 19 sec)
Heartbeat CPU 0 instructions: 179000870 cycles: 317704313 heartbeat IPC: 0.8582 cumulative IPC: 0.4244 (Simulation time: 00 hr 38 min 23 sec)
Heartbeat CPU 0 instructions: 179500873 cycles: 318206065 heartbeat IPC: 0.9965 cumulative IPC: 0.4253 (Simulation time: 00 hr 38 min 27 sec)
Heartbeat CPU 0 instructions: 180000878 cycles: 318780246 heartbeat IPC: 0.8708 cumulative IPC: 0.4262 (Simulation time: 00 hr 38 min 31 sec)
Heartbeat CPU 0 instructions: 180500882 cycles: 319412704 heartbeat IPC: 0.7906 cumulative IPC: 0.4269 (Simulation time: 00 hr 38 min 35 sec)
Heartbeat CPU 0 instructions: 181000883 cycles: 320899271 heartbeat IPC: 0.3363 cumulative IPC: 0.4265 (Simulation time: 00 hr 38 min 43 sec)
Heartbeat CPU 0 instructions: 181500885 cycles: 323877046 heartbeat IPC: 0.1679 cumulative IPC: 0.424 (Simulation time: 00 hr 38 min 58 sec)
Heartbeat CPU 0 instructions: 182000887 cycles: 325753194 heartbeat IPC: 0.2665 cumulative IPC: 0.423 (Simulation time: 00 hr 39 min 08 sec)
Heartbeat CPU 0 instructions: 182500893 cycles: 326829403 heartbeat IPC: 0.4646 cumulative IPC: 0.4232 (Simulation time: 00 hr 39 min 14 sec)
Heartbeat CPU 0 instructions: 183000900 cycles: 329123863 heartbeat IPC: 0.2179 cumulative IPC: 0.4217 (Simulation time: 00 hr 39 min 26 sec)
Heartbeat CPU 0 instructions: 183500900 cycles: 329979697 heartbeat IPC: 0.5842 cumulative IPC: 0.4221 (Simulation time: 00 hr 39 min 32 sec)
Heartbeat CPU 0 instructions: 184000906 cycles: 331391784 heartbeat IPC: 0.3541 cumulative IPC: 0.4218 (Simulation time: 00 hr 39 min 41 sec)
Heartbeat CPU 0 instructions: 184500906 cycles: 332837648 heartbeat IPC: 0.3458 cumulative IPC: 0.4215 (Simulation time: 00 hr 39 min 49 sec)
Heartbeat CPU 0 instructions: 185000908 cycles: 334006351 heartbeat IPC: 0.4278 cumulative IPC: 0.4215 (Simulation time: 00 hr 39 min 56 sec)
Heartbeat CPU 0 instructions: 185500911 cycles: 335640206 heartbeat IPC: 0.306 cumulative IPC: 0.4209 (Simulation time: 00 hr 40 min 06 sec)
Heartbeat CPU 0 instructions: 186000913 cycles: 338291714 heartbeat IPC: 0.1886 cumulative IPC: 0.419 (Simulation time: 00 hr 40 min 21 sec)
Heartbeat CPU 0 instructions: 186500914 cycles: 340144374 heartbeat IPC: 0.2699 cumulative IPC: 0.4182 (Simulation time: 00 hr 40 min 31 sec)
Heartbeat CPU 0 instructions: 187000915 cycles: 340637067 heartbeat IPC: 1.015 cumulative IPC: 0.4191 (Simulation time: 00 hr 40 min 34 sec)
Heartbeat CPU 0 instructions: 187500915 cycles: 342692665 heartbeat IPC: 0.2432 cumulative IPC: 0.418 (Simulation time: 00 hr 40 min 45 sec)
Heartbeat CPU 0 instructions: 188000918 cycles: 344351458 heartbeat IPC: 0.3014 cumulative IPC: 0.4174 (Simulation time: 00 hr 40 min 55 sec)
Heartbeat CPU 0 instructions: 188500923 cycles: 344733138 heartbeat IPC: 1.31 cumulative IPC: 0.4184 (Simulation time: 00 hr 40 min 57 sec)
Heartbeat CPU 0 instructions: 189000926 cycles: 345128145 heartbeat IPC: 1.266 cumulative IPC: 0.4194 (Simulation time: 00 hr 41 min 00 sec)
Heartbeat CPU 0 instructions: 189500930 cycles: 345513758 heartbeat IPC: 1.297 cumulative IPC: 0.4205 (Simulation time: 00 hr 41 min 03 sec)
Heartbeat CPU 0 instructions: 190000931 cycles: 345910505 heartbeat IPC: 1.26 cumulative IPC: 0.4215 (Simulation time: 00 hr 41 min 06 sec)
Heartbeat CPU 0 instructions: 190500933 cycles: 346310387 heartbeat IPC: 1.25 cumulative IPC: 0.4225 (Simulation time: 00 hr 41 min 08 sec)
Heartbeat CPU 0 instructions: 191000934 cycles: 346691814 heartbeat IPC: 1.311 cumulative IPC: 0.4235 (Simulation time: 00 hr 41 min 11 sec)
Heartbeat CPU 0 instructions: 191500935 cycles: 347078422 heartbeat IPC: 1.293 cumulative IPC: 0.4245 (Simulation time: 00 hr 41 min 14 sec)
Heartbeat CPU 0 instructions: 192000935 cycles: 347477772 heartbeat IPC: 1.252 cumulative IPC: 0.4255 (Simulation time: 00 hr 41 min 16 sec)
Heartbeat CPU 0 instructions: 192500937 cycles: 347857898 heartbeat IPC: 1.315 cumulative IPC: 0.4265 (Simulation time: 00 hr 41 min 19 sec)
Heartbeat CPU 0 instructions: 193000943 cycles: 348237530 heartbeat IPC: 1.317 cumulative IPC: 0.4275 (Simulation time: 00 hr 41 min 22 sec)
Heartbeat CPU 0 instructions: 193500944 cycles: 348618588 heartbeat IPC: 1.312 cumulative IPC: 0.4285 (Simulation time: 00 hr 41 min 24 sec)
Heartbeat CPU 0 instructions: 194000946 cycles: 349008851 heartbeat IPC: 1.281 cumulative IPC: 0.4295 (Simulation time: 00 hr 41 min 27 sec)
Heartbeat CPU 0 instructions: 194500949 cycles: 349385246 heartbeat IPC: 1.328 cumulative IPC: 0.4305 (Simulation time: 00 hr 41 min 30 sec)
Heartbeat CPU 0 instructions: 195000952 cycles: 349753353 heartbeat IPC: 1.358 cumulative IPC: 0.4315 (Simulation time: 00 hr 41 min 32 sec)
Heartbeat CPU 0 instructions: 195500952 cycles: 350137522 heartbeat IPC: 1.302 cumulative IPC: 0.4325 (Simulation time: 00 hr 41 min 35 sec)
Heartbeat CPU 0 instructions: 196000952 cycles: 350527903 heartbeat IPC: 1.281 cumulative IPC: 0.4335 (Simulation time: 00 hr 41 min 38 sec)
Heartbeat CPU 0 instructions: 196500953 cycles: 350915335 heartbeat IPC: 1.291 cumulative IPC: 0.4345 (Simulation time: 00 hr 41 min 40 sec)
Heartbeat CPU 0 instructions: 197000955 cycles: 351284019 heartbeat IPC: 1.356 cumulative IPC: 0.4355 (Simulation time: 00 hr 41 min 43 sec)
Heartbeat CPU 0 instructions: 197500958 cycles: 351664718 heartbeat IPC: 1.313 cumulative IPC: 0.4365 (Simulation time: 00 hr 41 min 46 sec)
Heartbeat CPU 0 instructions: 198000959 cycles: 352042110 heartbeat IPC: 1.325 cumulative IPC: 0.4375 (Simulation time: 00 hr 41 min 48 sec)
Heartbeat CPU 0 instructions: 198500959 cycles: 352428986 heartbeat IPC: 1.292 cumulative IPC: 0.4384 (Simulation time: 00 hr 41 min 51 sec)
Heartbeat CPU 0 instructions: 199000960 cycles: 352807068 heartbeat IPC: 1.322 cumulative IPC: 0.4394 (Simulation time: 00 hr 41 min 54 sec)
Heartbeat CPU 0 instructions: 199500961 cycles: 353180535 heartbeat IPC: 1.339 cumulative IPC: 0.4404 (Simulation time: 00 hr 41 min 57 sec)
Heartbeat CPU 0 instructions: 200000966 cycles: 353571487 heartbeat IPC: 1.279 cumulative IPC: 0.4414 (Simulation time: 00 hr 41 min 59 sec)
Heartbeat CPU 0 instructions: 200500966 cycles: 353948489 heartbeat IPC: 1.326 cumulative IPC: 0.4424 (Simulation time: 00 hr 42 min 02 sec)
Heartbeat CPU 0 instructions: 201000970 cycles: 354337487 heartbeat IPC: 1.285 cumulative IPC: 0.4433 (Simulation time: 00 hr 42 min 05 sec)
Heartbeat CPU 0 instructions: 201500970 cycles: 354707691 heartbeat IPC: 1.351 cumulative IPC: 0.4443 (Simulation time: 00 hr 42 min 07 sec)
Heartbeat CPU 0 instructions: 202000974 cycles: 355089826 heartbeat IPC: 1.308 cumulative IPC: 0.4453 (Simulation time: 00 hr 42 min 10 sec)
Heartbeat CPU 0 instructions: 202500977 cycles: 355468777 heartbeat IPC: 1.319 cumulative IPC: 0.4462 (Simulation time: 00 hr 42 min 13 sec)
Heartbeat CPU 0 instructions: 203000983 cycles: 355838716 heartbeat IPC: 1.352 cumulative IPC: 0.4472 (Simulation time: 00 hr 42 min 15 sec)
Heartbeat CPU 0 instructions: 203500985 cycles: 356218755 heartbeat IPC: 1.316 cumulative IPC: 0.4482 (Simulation time: 00 hr 42 min 18 sec)
Heartbeat CPU 0 instructions: 204000985 cycles: 356603393 heartbeat IPC: 1.3 cumulative IPC: 0.4491 (Simulation time: 00 hr 42 min 21 sec)
Heartbeat CPU 0 instructions: 204500985 cycles: 356985213 heartbeat IPC: 1.31 cumulative IPC: 0.4501 (Simulation time: 00 hr 42 min 23 sec)
Heartbeat CPU 0 instructions: 205000985 cycles: 357365099 heartbeat IPC: 1.316 cumulative IPC: 0.4511 (Simulation time: 00 hr 42 min 26 sec)
Heartbeat CPU 0 instructions: 205500992 cycles: 357744950 heartbeat IPC: 1.316 cumulative IPC: 0.452 (Simulation time: 00 hr 42 min 29 sec)
Heartbeat CPU 0 instructions: 206000992 cycles: 358120030 heartbeat IPC: 1.333 cumulative IPC: 0.453 (Simulation time: 00 hr 42 min 31 sec)
Heartbeat CPU 0 instructions: 206500995 cycles: 358501941 heartbeat IPC: 1.309 cumulative IPC: 0.4539 (Simulation time: 00 hr 42 min 34 sec)
Heartbeat CPU 0 instructions: 207001000 cycles: 358895267 heartbeat IPC: 1.271 cumulative IPC: 0.4549 (Simulation time: 00 hr 42 min 37 sec)
Heartbeat CPU 0 instructions: 207501000 cycles: 359275019 heartbeat IPC: 1.317 cumulative IPC: 0.4558 (Simulation time: 00 hr 42 min 39 sec)
Heartbeat CPU 0 instructions: 208001002 cycles: 359658299 heartbeat IPC: 1.305 cumulative IPC: 0.4567 (Simulation time: 00 hr 42 min 42 sec)
Heartbeat CPU 0 instructions: 208501006 cycles: 360042186 heartbeat IPC: 1.302 cumulative IPC: 0.4577 (Simulation time: 00 hr 42 min 45 sec)
Heartbeat CPU 0 instructions: 209001006 cycles: 360425442 heartbeat IPC: 1.305 cumulative IPC: 0.4586 (Simulation time: 00 hr 42 min 47 sec)
Heartbeat CPU 0 instructions: 209501009 cycles: 360798290 heartbeat IPC: 1.341 cumulative IPC: 0.4596 (Simulation time: 00 hr 42 min 50 sec)
Heartbeat CPU 0 instructions: 210001011 cycles: 361169358 heartbeat IPC: 1.347 cumulative IPC: 0.4605 (Simulation time: 00 hr 42 min 53 sec)
Heartbeat CPU 0 instructions: 210501012 cycles: 361544613 heartbeat IPC: 1.332 cumulative IPC: 0.4615 (Simulation time: 00 hr 42 min 55 sec)
Heartbeat CPU 0 instructions: 211001012 cycles: 361932026 heartbeat IPC: 1.291 cumulative IPC: 0.4624 (Simulation time: 00 hr 42 min 58 sec)
Heartbeat CPU 0 instructions: 211501012 cycles: 362458760 heartbeat IPC: 0.9492 cumulative IPC: 0.4631 (Simulation time: 00 hr 43 min 01 sec)
Heartbeat CPU 0 instructions: 212001017 cycles: 362979924 heartbeat IPC: 0.9594 cumulative IPC: 0.4639 (Simulation time: 00 hr 43 min 05 sec)
Heartbeat CPU 0 instructions: 212501018 cycles: 363364006 heartbeat IPC: 1.302 cumulative IPC: 0.4648 (Simulation time: 00 hr 43 min 08 sec)
Heartbeat CPU 0 instructions: 213001018 cycles: 363731668 heartbeat IPC: 1.36 cumulative IPC: 0.4657 (Simulation time: 00 hr 43 min 10 sec)
Heartbeat CPU 0 instructions: 213501024 cycles: 364103510 heartbeat IPC: 1.345 cumulative IPC: 0.4666 (Simulation time: 00 hr 43 min 13 sec)
Heartbeat CPU 0 instructions: 214001025 cycles: 364479713 heartbeat IPC: 1.329 cumulative IPC: 0.4676 (Simulation time: 00 hr 43 min 16 sec)
Heartbeat CPU 0 instructions: 214501031 cycles: 364854016 heartbeat IPC: 1.336 cumulative IPC: 0.4685 (Simulation time: 00 hr 43 min 18 sec)
Heartbeat CPU 0 instructions: 215001031 cycles: 365233114 heartbeat IPC: 1.319 cumulative IPC: 0.4694 (Simulation time: 00 hr 43 min 21 sec)
Heartbeat CPU 0 instructions: 215501031 cycles: 365613615 heartbeat IPC: 1.314 cumulative IPC: 0.4703 (Simulation time: 00 hr 43 min 24 sec)
Heartbeat CPU 0 instructions: 216001031 cycles: 365996631 heartbeat IPC: 1.305 cumulative IPC: 0.4712 (Simulation time: 00 hr 43 min 26 sec)
Heartbeat CPU 0 instructions: 216501034 cycles: 366369916 heartbeat IPC: 1.339 cumulative IPC: 0.4722 (Simulation time: 00 hr 43 min 29 sec)
Heartbeat CPU 0 instructions: 217001034 cycles: 366739066 heartbeat IPC: 1.354 cumulative IPC: 0.4731 (Simulation time: 00 hr 43 min 31 sec)
Heartbeat CPU 0 instructions: 217501035 cycles: 367118366 heartbeat IPC: 1.318 cumulative IPC: 0.474 (Simulation time: 00 hr 43 min 34 sec)
Heartbeat CPU 0 instructions: 218001039 cycles: 367498565 heartbeat IPC: 1.315 cumulative IPC: 0.4749 (Simulation time: 00 hr 43 min 37 sec)
Heartbeat CPU 0 instructions: 218501044 cycles: 367875293 heartbeat IPC: 1.327 cumulative IPC: 0.4758 (Simulation time: 00 hr 43 min 39 sec)
Heartbeat CPU 0 instructions: 219001047 cycles: 368261996 heartbeat IPC: 1.293 cumulative IPC: 0.4767 (Simulation time: 00 hr 43 min 42 sec)
Heartbeat CPU 0 instructions: 219501052 cycles: 368633072 heartbeat IPC: 1.347 cumulative IPC: 0.4776 (Simulation time: 00 hr 43 min 45 sec)
Heartbeat CPU 0 instructions: 220001056 cycles: 369000176 heartbeat IPC: 1.362 cumulative IPC: 0.4785 (Simulation time: 00 hr 43 min 47 sec)
Heartbeat CPU 0 instructions: 220501056 cycles: 369374893 heartbeat IPC: 1.334 cumulative IPC: 0.4794 (Simulation time: 00 hr 43 min 50 sec)
Heartbeat CPU 0 instructions: 221001060 cycles: 369750706 heartbeat IPC: 1.33 cumulative IPC: 0.4803 (Simulation time: 00 hr 43 min 53 sec)
Heartbeat CPU 0 instructions: 221501060 cycles: 370118499 heartbeat IPC: 1.359 cumulative IPC: 0.4812 (Simulation time: 00 hr 43 min 55 sec)
Heartbeat CPU 0 instructions: 222001061 cycles: 370473532 heartbeat IPC: 1.408 cumulative IPC: 0.4821 (Simulation time: 00 hr 43 min 58 sec)
Heartbeat CPU 0 instructions: 222501061 cycles: 370845856 heartbeat IPC: 1.343 cumulative IPC: 0.483 (Simulation time: 00 hr 44 min 01 sec)
Heartbeat CPU 0 instructions: 223001062 cycles: 371218030 heartbeat IPC: 1.343 cumulative IPC: 0.4839 (Simulation time: 00 hr 44 min 03 sec)
Heartbeat CPU 0 instructions: 223501062 cycles: 371589358 heartbeat IPC: 1.347 cumulative IPC: 0.4848 (Simulation time: 00 hr 44 min 06 sec)
Heartbeat CPU 0 instructions: 224001065 cycles: 371961982 heartbeat IPC: 1.342 cumulative IPC: 0.4857 (Simulation time: 00 hr 44 min 09 sec)
Heartbeat CPU 0 instructions: 224501065 cycles: 372331375 heartbeat IPC: 1.354 cumulative IPC: 0.4866 (Simulation time: 00 hr 44 min 11 sec)
Heartbeat CPU 0 instructions: 225001071 cycles: 372698537 heartbeat IPC: 1.362 cumulative IPC: 0.4875 (Simulation time: 00 hr 44 min 14 sec)
Heartbeat CPU 0 instructions: 225501071 cycles: 373060486 heartbeat IPC: 1.381 cumulative IPC: 0.4884 (Simulation time: 00 hr 44 min 16 sec)
Heartbeat CPU 0 instructions: 226001071 cycles: 373427743 heartbeat IPC: 1.361 cumulative IPC: 0.4893 (Simulation time: 00 hr 44 min 19 sec)
Heartbeat CPU 0 instructions: 226501071 cycles: 373802224 heartbeat IPC: 1.335 cumulative IPC: 0.4902 (Simulation time: 00 hr 44 min 22 sec)
Heartbeat CPU 0 instructions: 227001073 cycles: 374176940 heartbeat IPC: 1.334 cumulative IPC: 0.4911 (Simulation time: 00 hr 44 min 24 sec)
Heartbeat CPU 0 instructions: 227501077 cycles: 374549249 heartbeat IPC: 1.343 cumulative IPC: 0.4919 (Simulation time: 00 hr 44 min 27 sec)
Heartbeat CPU 0 instructions: 228001078 cycles: 374922109 heartbeat IPC: 1.341 cumulative IPC: 0.4928 (Simulation time: 00 hr 44 min 30 sec)
Heartbeat CPU 0 instructions: 228501079 cycles: 375294511 heartbeat IPC: 1.343 cumulative IPC: 0.4937 (Simulation time: 00 hr 44 min 32 sec)
Heartbeat CPU 0 instructions: 229001081 cycles: 375663459 heartbeat IPC: 1.355 cumulative IPC: 0.4946 (Simulation time: 00 hr 44 min 35 sec)
Heartbeat CPU 0 instructions: 229501082 cycles: 376047375 heartbeat IPC: 1.302 cumulative IPC: 0.4954 (Simulation time: 00 hr 44 min 37 sec)
Heartbeat CPU 0 instructions: 230001084 cycles: 376422536 heartbeat IPC: 1.333 cumulative IPC: 0.4963 (Simulation time: 00 hr 44 min 40 sec)
Heartbeat CPU 0 instructions: 230501086 cycles: 376798040 heartbeat IPC: 1.332 cumulative IPC: 0.4972 (Simulation time: 00 hr 44 min 43 sec)
Heartbeat CPU 0 instructions: 231001087 cycles: 377173498 heartbeat IPC: 1.332 cumulative IPC: 0.498 (Simulation time: 00 hr 44 min 45 sec)
Heartbeat CPU 0 instructions: 231501093 cycles: 377553027 heartbeat IPC: 1.317 cumulative IPC: 0.4989 (Simulation time: 00 hr 44 min 48 sec)
Heartbeat CPU 0 instructions: 232001098 cycles: 377926643 heartbeat IPC: 1.338 cumulative IPC: 0.4997 (Simulation time: 00 hr 44 min 51 sec)
Heartbeat CPU 0 instructions: 232501100 cycles: 378911275 heartbeat IPC: 0.5078 cumulative IPC: 0.4998 (Simulation time: 00 hr 44 min 56 sec)
Heartbeat CPU 0 instructions: 233001107 cycles: 381609975 heartbeat IPC: 0.1853 cumulative IPC: 0.4974 (Simulation time: 00 hr 45 min 09 sec)
Heartbeat CPU 0 instructions: 233501108 cycles: 383547064 heartbeat IPC: 0.2581 cumulative IPC: 0.4962 (Simulation time: 00 hr 45 min 19 sec)
Heartbeat CPU 0 instructions: 234001108 cycles: 384880399 heartbeat IPC: 0.375 cumulative IPC: 0.4958 (Simulation time: 00 hr 45 min 26 sec)
Heartbeat CPU 0 instructions: 234501108 cycles: 386651187 heartbeat IPC: 0.2824 cumulative IPC: 0.4947 (Simulation time: 00 hr 45 min 36 sec)
Heartbeat CPU 0 instructions: 235001109 cycles: 387144784 heartbeat IPC: 1.013 cumulative IPC: 0.4954 (Simulation time: 00 hr 45 min 39 sec)
Heartbeat CPU 0 instructions: 235501113 cycles: 388527964 heartbeat IPC: 0.3615 cumulative IPC: 0.4949 (Simulation time: 00 hr 45 min 47 sec)
Heartbeat CPU 0 instructions: 236001114 cycles: 389787137 heartbeat IPC: 0.3971 cumulative IPC: 0.4946 (Simulation time: 00 hr 45 min 54 sec)
Heartbeat CPU 0 instructions: 236501116 cycles: 390039764 heartbeat IPC: 1.979 cumulative IPC: 0.4956 (Simulation time: 00 hr 45 min 56 sec)
Heartbeat CPU 0 instructions: 237001123 cycles: 391432742 heartbeat IPC: 0.3589 cumulative IPC: 0.4951 (Simulation time: 00 hr 46 min 04 sec)
Heartbeat CPU 0 instructions: 237501123 cycles: 393479282 heartbeat IPC: 0.2443 cumulative IPC: 0.4937 (Simulation time: 00 hr 46 min 15 sec)
Heartbeat CPU 0 instructions: 238001123 cycles: 394662776 heartbeat IPC: 0.4225 cumulative IPC: 0.4935 (Simulation time: 00 hr 46 min 22 sec)
Heartbeat CPU 0 instructions: 238501123 cycles: 395721157 heartbeat IPC: 0.4724 cumulative IPC: 0.4935 (Simulation time: 00 hr 46 min 28 sec)
Heartbeat CPU 0 instructions: 239001124 cycles: 396693047 heartbeat IPC: 0.5145 cumulative IPC: 0.4935 (Simulation time: 00 hr 46 min 34 sec)
Heartbeat CPU 0 instructions: 239501128 cycles: 397422511 heartbeat IPC: 0.6854 cumulative IPC: 0.4939 (Simulation time: 00 hr 46 min 38 sec)
Heartbeat CPU 0 instructions: 240001129 cycles: 397950765 heartbeat IPC: 0.9465 cumulative IPC: 0.4945 (Simulation time: 00 hr 46 min 42 sec)
Heartbeat CPU 0 instructions: 240501131 cycles: 399702030 heartbeat IPC: 0.2855 cumulative IPC: 0.4936 (Simulation time: 00 hr 46 min 52 sec)
Heartbeat CPU 0 instructions: 241001131 cycles: 401331062 heartbeat IPC: 0.3069 cumulative IPC: 0.4928 (Simulation time: 00 hr 47 min 01 sec)
Heartbeat CPU 0 instructions: 241501131 cycles: 402482083 heartbeat IPC: 0.4344 cumulative IPC: 0.4926 (Simulation time: 00 hr 47 min 09 sec)
Heartbeat CPU 0 instructions: 242001138 cycles: 404238070 heartbeat IPC: 0.2847 cumulative IPC: 0.4917 (Simulation time: 00 hr 47 min 18 sec)
Heartbeat CPU 0 instructions: 242501144 cycles: 405122151 heartbeat IPC: 0.5656 cumulative IPC: 0.4918 (Simulation time: 00 hr 47 min 23 sec)
Heartbeat CPU 0 instructions: 243001144 cycles: 406541677 heartbeat IPC: 0.3522 cumulative IPC: 0.4913 (Simulation time: 00 hr 47 min 32 sec)
Heartbeat CPU 0 instructions: 243501149 cycles: 409901877 heartbeat IPC: 0.1488 cumulative IPC: 0.4884 (Simulation time: 00 hr 47 min 49 sec)
Heartbeat CPU 0 instructions: 244001153 cycles: 411658688 heartbeat IPC: 0.2846 cumulative IPC: 0.4875 (Simulation time: 00 hr 47 min 58 sec)
Heartbeat CPU 0 instructions: 244501153 cycles: 412456204 heartbeat IPC: 0.6269 cumulative IPC: 0.4878 (Simulation time: 00 hr 48 min 03 sec)
Heartbeat CPU 0 instructions: 245001154 cycles: 414235431 heartbeat IPC: 0.281 cumulative IPC: 0.4869 (Simulation time: 00 hr 48 min 13 sec)
Heartbeat CPU 0 instructions: 245501156 cycles: 415390787 heartbeat IPC: 0.4328 cumulative IPC: 0.4867 (Simulation time: 00 hr 48 min 20 sec)
Heartbeat CPU 0 instructions: 246001157 cycles: 417025891 heartbeat IPC: 0.3058 cumulative IPC: 0.486 (Simulation time: 00 hr 48 min 29 sec)
Heartbeat CPU 0 instructions: 246501161 cycles: 417890366 heartbeat IPC: 0.5784 cumulative IPC: 0.4862 (Simulation time: 00 hr 48 min 34 sec)
Heartbeat CPU 0 instructions: 247001168 cycles: 419187860 heartbeat IPC: 0.3854 cumulative IPC: 0.4859 (Simulation time: 00 hr 48 min 42 sec)
Heartbeat CPU 0 instructions: 247501174 cycles: 420120535 heartbeat IPC: 0.5361 cumulative IPC: 0.486 (Simulation time: 00 hr 48 min 48 sec)
Heartbeat CPU 0 instructions: 248001175 cycles: 421397897 heartbeat IPC: 0.3914 cumulative IPC: 0.4857 (Simulation time: 00 hr 48 min 55 sec)
Heartbeat CPU 0 instructions: 248501175 cycles: 421668886 heartbeat IPC: 1.845 cumulative IPC: 0.4866 (Simulation time: 00 hr 48 min 57 sec)
Heartbeat CPU 0 instructions: 249001175 cycles: 422851592 heartbeat IPC: 0.4228 cumulative IPC: 0.4864 (Simulation time: 00 hr 49 min 04 sec)
Heartbeat CPU 0 instructions: 249501179 cycles: 425465574 heartbeat IPC: 0.1913 cumulative IPC: 0.4845 (Simulation time: 00 hr 49 min 17 sec)
Simulation finished CPU 0 instructions: 200000000 cycles: 413159308 cumulative IPC: 0.4841 (Simulation time: 00 hr 49 min 24 sec)
Simulation complete CPU 0 instructions: 200000000 cycles: 413159308 cumulative IPC: 0.4841 (Simulation time: 00 hr 49 min 24 sec)

ChampSim completed all CPUs

=== Simulation ===
CPU 0 runs /local-ssd/ben/dpc4-traces/gtraces_v2/tahoe_0004.champsim.gz

Region of Interest Statistics

CPU 0 cumulative IPC: 0.4841 instructions: 200000000 cycles: 413159308
CPU 0 Branch Prediction Accuracy: 91.28% MPKI: 17.65 Average ROB Occupancy at Mispredict: 27.39
Branch type MPKI
BRANCH_DIRECT_JUMP: 0.5753
BRANCH_INDIRECT: 0.2847
BRANCH_CONDITIONAL: 14.88
BRANCH_DIRECT_CALL: 0.6339
BRANCH_INDIRECT_CALL: 0.6545
BRANCH_RETURN: 0.6187

cpu0->cpu0_STLB TOTAL        ACCESS:    1879136 HIT:    1348897 MISS:     530239 MSHR_MERGE:          0
cpu0->cpu0_STLB LOAD         ACCESS:    1879136 HIT:    1348897 MISS:     530239 MSHR_MERGE:          0
cpu0->cpu0_STLB RFO          ACCESS:          0 HIT:          0 MISS:          0 MSHR_MERGE:          0
cpu0->cpu0_STLB PREFETCH     ACCESS:          0 HIT:          0 MISS:          0 MSHR_MERGE:          0
cpu0->cpu0_STLB WRITE        ACCESS:          0 HIT:          0 MISS:          0 MSHR_MERGE:          0
cpu0->cpu0_STLB TRANSLATION  ACCESS:          0 HIT:          0 MISS:          0 MSHR_MERGE:          0
cpu0->cpu0_STLB PREFETCH REQUESTED:          0 ISSUED:          0 USEFUL:          0 USELESS:          0
cpu0->cpu0_STLB AVERAGE MISS LATENCY: 226.4 cycles
cpu0->cpu0_L2C TOTAL        ACCESS:    9718614 HIT:    5367550 MISS:    4351064 MSHR_MERGE:    1069725
cpu0->cpu0_L2C LOAD         ACCESS:    2632247 HIT:    1413514 MISS:    1218733 MSHR_MERGE:      29918
cpu0->cpu0_L2C RFO          ACCESS:     430859 HIT:     130552 MISS:     300307 MSHR_MERGE:       3408
cpu0->cpu0_L2C PREFETCH     ACCESS:    5263798 HIT:    2705042 MISS:    2558756 MSHR_MERGE:    1036399
cpu0->cpu0_L2C WRITE        ACCESS:     774465 HIT:     774381 MISS:         84 MSHR_MERGE:          0
cpu0->cpu0_L2C TRANSLATION  ACCESS:     617245 HIT:     344061 MISS:     273184 MSHR_MERGE:          0
cpu0->cpu0_L2C PREFETCH REQUESTED:    4503014 ISSUED:    4302496 USEFUL:     337644 USELESS:     833133
cpu0->cpu0_L2C AVERAGE MISS LATENCY: 313.5 cycles
cpu0->cpu0_L1I TOTAL        ACCESS:   11968101 HIT:   10264710 MISS:    1703391 MSHR_MERGE:     311556
cpu0->cpu0_L1I LOAD         ACCESS:   11968101 HIT:   10264710 MISS:    1703391 MSHR_MERGE:     311556
cpu0->cpu0_L1I RFO          ACCESS:          0 HIT:          0 MISS:          0 MSHR_MERGE:          0
cpu0->cpu0_L1I PREFETCH     ACCESS:          0 HIT:          0 MISS:          0 MSHR_MERGE:          0
cpu0->cpu0_L1I WRITE        ACCESS:          0 HIT:          0 MISS:          0 MSHR_MERGE:          0
cpu0->cpu0_L1I TRANSLATION  ACCESS:          0 HIT:          0 MISS:          0 MSHR_MERGE:          0
cpu0->cpu0_L1I PREFETCH REQUESTED:          0 ISSUED:          0 USEFUL:          0 USELESS:          0
cpu0->cpu0_L1I AVERAGE MISS LATENCY: 126.4 cycles
cpu0->cpu0_L1D TOTAL        ACCESS:   63415606 HIT:   58273409 MISS:    5142197 MSHR_MERGE:    1892361
cpu0->cpu0_L1D LOAD         ACCESS:   36861377 HIT:   35046516 MISS:    1814861 MSHR_MERGE:     574442
cpu0->cpu0_L1D RFO          ACCESS:          0 HIT:          0 MISS:          0 MSHR_MERGE:          0
cpu0->cpu0_L1D PREFETCH     ACCESS:    2261488 HIT:    1062504 MISS:    1198984 MSHR_MERGE:     237682
cpu0->cpu0_L1D WRITE        ACCESS:   22867344 HIT:   21360768 MISS:    1506576 MSHR_MERGE:    1075706
cpu0->cpu0_L1D TRANSLATION  ACCESS:    1425397 HIT:     803621 MISS:     621776 MSHR_MERGE:       4531
cpu0->cpu0_L1D PREFETCH REQUESTED:   15652669 ISSUED:    2261481 USEFUL:     435921 USELESS:     525434
cpu0->cpu0_L1D AVERAGE MISS LATENCY: 185.9 cycles
cpu0->cpu0_ITLB TOTAL        ACCESS:    9921548 HIT:    9651176 MISS:     270372 MSHR_MERGE:     115746
cpu0->cpu0_ITLB LOAD         ACCESS:    9921548 HIT:    9651176 MISS:     270372 MSHR_MERGE:     115746
cpu0->cpu0_ITLB RFO          ACCESS:          0 HIT:          0 MISS:          0 MSHR_MERGE:          0
cpu0->cpu0_ITLB PREFETCH     ACCESS:          0 HIT:          0 MISS:          0 MSHR_MERGE:          0
cpu0->cpu0_ITLB WRITE        ACCESS:          0 HIT:          0 MISS:          0 MSHR_MERGE:          0
cpu0->cpu0_ITLB TRANSLATION  ACCESS:          0 HIT:          0 MISS:          0 MSHR_MERGE:          0
cpu0->cpu0_ITLB PREFETCH REQUESTED:          0 ISSUED:          0 USEFUL:          0 USELESS:          0
cpu0->cpu0_ITLB AVERAGE MISS LATENCY: 42.67 cycles
cpu0->cpu0_DTLB TOTAL        ACCESS:   58679307 HIT:   55953359 MISS:    2725948 MSHR_MERGE:    1001438
cpu0->cpu0_DTLB LOAD         ACCESS:   58679307 HIT:   55953359 MISS:    2725948 MSHR_MERGE:    1001438
cpu0->cpu0_DTLB RFO          ACCESS:          0 HIT:          0 MISS:          0 MSHR_MERGE:          0
cpu0->cpu0_DTLB PREFETCH     ACCESS:          0 HIT:          0 MISS:          0 MSHR_MERGE:          0
cpu0->cpu0_DTLB WRITE        ACCESS:          0 HIT:          0 MISS:          0 MSHR_MERGE:          0
cpu0->cpu0_DTLB TRANSLATION  ACCESS:          0 HIT:          0 MISS:          0 MSHR_MERGE:          0
cpu0->cpu0_DTLB PREFETCH REQUESTED:          0 ISSUED:          0 USEFUL:          0 USELESS:          0
cpu0->cpu0_DTLB AVERAGE MISS LATENCY: 71.55 cycles
cpu0->LLC TOTAL        ACCESS:    3786844 HIT:     520887 MISS:    3265957 MSHR_MERGE:          0
cpu0->LLC LOAD         ACCESS:    1188815 HIT:     259526 MISS:     929289 MSHR_MERGE:          0
cpu0->LLC RFO          ACCESS:     296899 HIT:      10691 MISS:     286208 MSHR_MERGE:          0
cpu0->LLC PREFETCH     ACCESS:    1522357 HIT:     101470 MISS:    1420887 MSHR_MERGE:          0
cpu0->LLC WRITE        ACCESS:     505589 HIT:      95050 MISS:     410539 MSHR_MERGE:          0
cpu0->LLC TRANSLATION  ACCESS:     273184 HIT:      54150 MISS:     219034 MSHR_MERGE:          0
cpu0->LLC PREFETCH REQUESTED:          0 ISSUED:          0 USEFUL:          0 USELESS:          0
cpu0->LLC AVERAGE MISS LATENCY: 280 cycles

DRAM Statistics

Channel 0 RQ ROW_BUFFER_HIT:      77075
  ROW_BUFFER_MISS:    2778317
  AVG DBUS CONGESTED CYCLE: 4.165
Channel 0 WQ ROW_BUFFER_HIT:     106178
  ROW_BUFFER_MISS:     366128
  FULL:          0
Channel 0 REFRESHES ISSUED:      34430
