[VMEM] WARNING: physical memory size is smaller than virtual memory size.

*** ChampSim Multicore Out-of-Order Simulator ***
Warmup Instructions: 50000000
Simulation Instructions: 200000000
Number of CPUs: 1
Page size: 4096
Core 0: /local-ssd/ben/dpc4-traces/gtraces_v2/merced_0002.champsim.gz
sBerti (Smart Stride + Berti) Prefetcher Initialized
Off-chip DRAM Size: 64 GiB Channels: 1 Width: 64-bit Data Rate: 800 MT/s
[BTB] WARNING: target of return is a lower address than the corresponding call. This is usually a problem with your trace.
[BTB] WARNING: target of return is a lower address than the corresponding call. This is usually a problem with your trace.
[BTB] WARNING: target of return is a lower address than the corresponding call. This is usually a problem with your trace.
[BTB] WARNING: target of return is a lower address than the corresponding call. This is usually a problem with your trace.
[BTB] WARNING: target of return is a lower address than the corresponding call. This is usually a problem with your trace.
[BTB] WARNING: target of return is a lower address than the corresponding call. This is usually a problem with your trace.
[BTB] WARNING: target of return is a lower address than the corresponding call. This is usually a problem with your trace.
[BTB] WARNING: target of return is a lower address than the corresponding call. This is usually a problem with your trace.
[BTB] WARNING: target of return is a lower address than the corresponding call. This is usually a problem with your trace.
[BTB] WARNING: target of return is a lower address than the corresponding call. This is usually a problem with your trace.
Heartbeat CPU 0 instructions: 500004 cycles: 317786 heartbeat IPC: 1.573 cumulative IPC: 1.573 (Simulation time: 00 hr 00 min 08 sec)
Heartbeat CPU 0 instructions: 1000008 cycles: 521244 heartbeat IPC: 2.458 cumulative IPC: 1.919 (Simulation time: 00 hr 00 min 13 sec)
Heartbeat CPU 0 instructions: 1500011 cycles: 729160 heartbeat IPC: 2.405 cumulative IPC: 2.057 (Simulation time: 00 hr 00 min 17 sec)
Heartbeat CPU 0 instructions: 2000017 cycles: 910367 heartbeat IPC: 2.759 cumulative IPC: 2.197 (Simulation time: 00 hr 00 min 20 sec)
Heartbeat CPU 0 instructions: 2500023 cycles: 1063345 heartbeat IPC: 3.268 cumulative IPC: 2.351 (Simulation time: 00 hr 00 min 23 sec)
Heartbeat CPU 0 instructions: 3000024 cycles: 1189159 heartbeat IPC: 3.974 cumulative IPC: 2.523 (Simulation time: 00 hr 00 min 25 sec)
Heartbeat CPU 0 instructions: 3500024 cycles: 1305578 heartbeat IPC: 4.295 cumulative IPC: 2.681 (Simulation time: 00 hr 00 min 28 sec)
Heartbeat CPU 0 instructions: 4000026 cycles: 1414588 heartbeat IPC: 4.587 cumulative IPC: 2.828 (Simulation time: 00 hr 00 min 30 sec)
Heartbeat CPU 0 instructions: 4500026 cycles: 1515316 heartbeat IPC: 4.964 cumulative IPC: 2.97 (Simulation time: 00 hr 00 min 32 sec)
Heartbeat CPU 0 instructions: 5000028 cycles: 1624917 heartbeat IPC: 4.562 cumulative IPC: 3.077 (Simulation time: 00 hr 00 min 34 sec)
Heartbeat CPU 0 instructions: 5500031 cycles: 1744282 heartbeat IPC: 4.189 cumulative IPC: 3.153 (Simulation time: 00 hr 00 min 36 sec)
Heartbeat CPU 0 instructions: 6000033 cycles: 1853653 heartbeat IPC: 4.572 cumulative IPC: 3.237 (Simulation time: 00 hr 00 min 38 sec)
Heartbeat CPU 0 instructions: 6500038 cycles: 1961142 heartbeat IPC: 4.652 cumulative IPC: 3.314 (Simulation time: 00 hr 00 min 40 sec)
Heartbeat CPU 0 instructions: 7000044 cycles: 2065767 heartbeat IPC: 4.779 cumulative IPC: 3.389 (Simulation time: 00 hr 00 min 42 sec)
Heartbeat CPU 0 instructions: 7500044 cycles: 2168816 heartbeat IPC: 4.852 cumulative IPC: 3.458 (Simulation time: 00 hr 00 min 45 sec)
Heartbeat CPU 0 instructions: 8000046 cycles: 2285544 heartbeat IPC: 4.283 cumulative IPC: 3.5 (Simulation time: 00 hr 00 min 48 sec)
Heartbeat CPU 0 instructions: 8500052 cycles: 2401116 heartbeat IPC: 4.326 cumulative IPC: 3.54 (Simulation time: 00 hr 00 min 51 sec)
Heartbeat CPU 0 instructions: 9000058 cycles: 2548986 heartbeat IPC: 3.381 cumulative IPC: 3.531 (Simulation time: 00 hr 00 min 55 sec)
Heartbeat CPU 0 instructions: 9500064 cycles: 2700539 heartbeat IPC: 3.299 cumulative IPC: 3.518 (Simulation time: 00 hr 01 min 00 sec)
Heartbeat CPU 0 instructions: 10000068 cycles: 2825039 heartbeat IPC: 4.016 cumulative IPC: 3.54 (Simulation time: 00 hr 01 min 03 sec)
Heartbeat CPU 0 instructions: 10500074 cycles: 2938873 heartbeat IPC: 4.392 cumulative IPC: 3.573 (Simulation time: 00 hr 01 min 06 sec)
Heartbeat CPU 0 instructions: 11000077 cycles: 3041795 heartbeat IPC: 4.858 cumulative IPC: 3.616 (Simulation time: 00 hr 01 min 10 sec)
Heartbeat CPU 0 instructions: 11500079 cycles: 3156197 heartbeat IPC: 4.371 cumulative IPC: 3.644 (Simulation time: 00 hr 01 min 13 sec)
Heartbeat CPU 0 instructions: 12000079 cycles: 3267979 heartbeat IPC: 4.473 cumulative IPC: 3.672 (Simulation time: 00 hr 01 min 16 sec)
Heartbeat CPU 0 instructions: 12500083 cycles: 3376094 heartbeat IPC: 4.625 cumulative IPC: 3.703 (Simulation time: 00 hr 01 min 19 sec)
Heartbeat CPU 0 instructions: 13000083 cycles: 3482375 heartbeat IPC: 4.705 cumulative IPC: 3.733 (Simulation time: 00 hr 01 min 22 sec)
Heartbeat CPU 0 instructions: 13500085 cycles: 3586911 heartbeat IPC: 4.783 cumulative IPC: 3.764 (Simulation time: 00 hr 01 min 25 sec)
Heartbeat CPU 0 instructions: 14000091 cycles: 3703826 heartbeat IPC: 4.277 cumulative IPC: 3.78 (Simulation time: 00 hr 01 min 28 sec)
Heartbeat CPU 0 instructions: 14500095 cycles: 3813638 heartbeat IPC: 4.553 cumulative IPC: 3.802 (Simulation time: 00 hr 01 min 31 sec)
Heartbeat CPU 0 instructions: 15000097 cycles: 3919249 heartbeat IPC: 4.734 cumulative IPC: 3.827 (Simulation time: 00 hr 01 min 34 sec)
Heartbeat CPU 0 instructions: 15500097 cycles: 4024217 heartbeat IPC: 4.763 cumulative IPC: 3.852 (Simulation time: 00 hr 01 min 37 sec)
Heartbeat CPU 0 instructions: 16000104 cycles: 4177680 heartbeat IPC: 3.258 cumulative IPC: 3.83 (Simulation time: 00 hr 01 min 42 sec)
Heartbeat CPU 0 instructions: 16500107 cycles: 4343190 heartbeat IPC: 3.021 cumulative IPC: 3.799 (Simulation time: 00 hr 01 min 46 sec)
Heartbeat CPU 0 instructions: 17000114 cycles: 4473607 heartbeat IPC: 3.834 cumulative IPC: 3.8 (Simulation time: 00 hr 01 min 49 sec)
Heartbeat CPU 0 instructions: 17500120 cycles: 4580885 heartbeat IPC: 4.661 cumulative IPC: 3.82 (Simulation time: 00 hr 01 min 52 sec)
Heartbeat CPU 0 instructions: 18000123 cycles: 4687776 heartbeat IPC: 4.678 cumulative IPC: 3.84 (Simulation time: 00 hr 01 min 54 sec)
Heartbeat CPU 0 instructions: 18500125 cycles: 4794543 heartbeat IPC: 4.683 cumulative IPC: 3.859 (Simulation time: 00 hr 01 min 56 sec)
Heartbeat CPU 0 instructions: 19000132 cycles: 4904209 heartbeat IPC: 4.559 cumulative IPC: 3.874 (Simulation time: 00 hr 01 min 59 sec)
Heartbeat CPU 0 instructions: 19500137 cycles: 5030267 heartbeat IPC: 3.966 cumulative IPC: 3.877 (Simulation time: 00 hr 02 min 02 sec)
Heartbeat CPU 0 instructions: 20000137 cycles: 5203712 heartbeat IPC: 2.883 cumulative IPC: 3.843 (Simulation time: 00 hr 02 min 07 sec)
Heartbeat CPU 0 instructions: 20500142 cycles: 5349228 heartbeat IPC: 3.436 cumulative IPC: 3.832 (Simulation time: 00 hr 02 min 10 sec)
Heartbeat CPU 0 instructions: 21000142 cycles: 5468754 heartbeat IPC: 4.183 cumulative IPC: 3.84 (Simulation time: 00 hr 02 min 13 sec)
Heartbeat CPU 0 instructions: 21500147 cycles: 5585495 heartbeat IPC: 4.283 cumulative IPC: 3.849 (Simulation time: 00 hr 02 min 16 sec)
Heartbeat CPU 0 instructions: 22000150 cycles: 5725676 heartbeat IPC: 3.567 cumulative IPC: 3.842 (Simulation time: 00 hr 02 min 19 sec)
Heartbeat CPU 0 instructions: 22500153 cycles: 5874599 heartbeat IPC: 3.357 cumulative IPC: 3.83 (Simulation time: 00 hr 02 min 23 sec)
Heartbeat CPU 0 instructions: 23000158 cycles: 6024541 heartbeat IPC: 3.335 cumulative IPC: 3.818 (Simulation time: 00 hr 02 min 27 sec)
Heartbeat CPU 0 instructions: 23500160 cycles: 6167020 heartbeat IPC: 3.509 cumulative IPC: 3.811 (Simulation time: 00 hr 02 min 30 sec)
Heartbeat CPU 0 instructions: 24000162 cycles: 6329576 heartbeat IPC: 3.076 cumulative IPC: 3.792 (Simulation time: 00 hr 02 min 33 sec)
Heartbeat CPU 0 instructions: 24500168 cycles: 6479081 heartbeat IPC: 3.344 cumulative IPC: 3.781 (Simulation time: 00 hr 02 min 36 sec)
Heartbeat CPU 0 instructions: 25000172 cycles: 6646955 heartbeat IPC: 2.978 cumulative IPC: 3.761 (Simulation time: 00 hr 02 min 39 sec)
Heartbeat CPU 0 instructions: 25500179 cycles: 6768172 heartbeat IPC: 4.125 cumulative IPC: 3.768 (Simulation time: 00 hr 02 min 41 sec)
Heartbeat CPU 0 instructions: 26000186 cycles: 6887882 heartbeat IPC: 4.177 cumulative IPC: 3.775 (Simulation time: 00 hr 02 min 43 sec)
Heartbeat CPU 0 instructions: 26500191 cycles: 7004205 heartbeat IPC: 4.298 cumulative IPC: 3.783 (Simulation time: 00 hr 02 min 45 sec)
Heartbeat CPU 0 instructions: 27000196 cycles: 7140512 heartbeat IPC: 3.668 cumulative IPC: 3.781 (Simulation time: 00 hr 02 min 48 sec)
Heartbeat CPU 0 instructions: 27500202 cycles: 7264762 heartbeat IPC: 4.024 cumulative IPC: 3.785 (Simulation time: 00 hr 02 min 50 sec)
Heartbeat CPU 0 instructions: 28000203 cycles: 7386093 heartbeat IPC: 4.121 cumulative IPC: 3.791 (Simulation time: 00 hr 02 min 53 sec)
Heartbeat CPU 0 instructions: 28500209 cycles: 7512765 heartbeat IPC: 3.947 cumulative IPC: 3.794 (Simulation time: 00 hr 02 min 55 sec)
Heartbeat CPU 0 instructions: 29000215 cycles: 7665927 heartbeat IPC: 3.265 cumulative IPC: 3.783 (Simulation time: 00 hr 02 min 58 sec)
Heartbeat CPU 0 instructions: 29500219 cycles: 7806060 heartbeat IPC: 3.568 cumulative IPC: 3.779 (Simulation time: 00 hr 03 min 01 sec)
Heartbeat CPU 0 instructions: 30000222 cycles: 7933211 heartbeat IPC: 3.932 cumulative IPC: 3.782 (Simulation time: 00 hr 03 min 03 sec)
Heartbeat CPU 0 instructions: 30500229 cycles: 8082262 heartbeat IPC: 3.355 cumulative IPC: 3.774 (Simulation time: 00 hr 03 min 05 sec)
Heartbeat CPU 0 instructions: 31000230 cycles: 8204587 heartbeat IPC: 4.087 cumulative IPC: 3.778 (Simulation time: 00 hr 03 min 08 sec)
Heartbeat CPU 0 instructions: 31500231 cycles: 8396348 heartbeat IPC: 2.607 cumulative IPC: 3.752 (Simulation time: 00 hr 03 min 11 sec)
Heartbeat CPU 0 instructions: 32000233 cycles: 8574151 heartbeat IPC: 2.812 cumulative IPC: 3.732 (Simulation time: 00 hr 03 min 14 sec)
Heartbeat CPU 0 instructions: 32500233 cycles: 8752535 heartbeat IPC: 2.803 cumulative IPC: 3.713 (Simulation time: 00 hr 03 min 18 sec)
Heartbeat CPU 0 instructions: 33000234 cycles: 8966790 heartbeat IPC: 2.334 cumulative IPC: 3.68 (Simulation time: 00 hr 03 min 21 sec)
Heartbeat CPU 0 instructions: 33500236 cycles: 9129838 heartbeat IPC: 3.067 cumulative IPC: 3.669 (Simulation time: 00 hr 03 min 24 sec)
Heartbeat CPU 0 instructions: 34000239 cycles: 9308884 heartbeat IPC: 2.793 cumulative IPC: 3.652 (Simulation time: 00 hr 03 min 28 sec)
Heartbeat CPU 0 instructions: 34500242 cycles: 9479463 heartbeat IPC: 2.931 cumulative IPC: 3.639 (Simulation time: 00 hr 03 min 31 sec)
Heartbeat CPU 0 instructions: 35000245 cycles: 9607314 heartbeat IPC: 3.911 cumulative IPC: 3.643 (Simulation time: 00 hr 03 min 33 sec)
Heartbeat CPU 0 instructions: 35500252 cycles: 9748972 heartbeat IPC: 3.53 cumulative IPC: 3.641 (Simulation time: 00 hr 03 min 36 sec)
Heartbeat CPU 0 instructions: 36000257 cycles: 9878246 heartbeat IPC: 3.868 cumulative IPC: 3.644 (Simulation time: 00 hr 03 min 38 sec)
Heartbeat CPU 0 instructions: 36500257 cycles: 9984053 heartbeat IPC: 4.726 cumulative IPC: 3.656 (Simulation time: 00 hr 03 min 40 sec)
Heartbeat CPU 0 instructions: 37000262 cycles: 10134203 heartbeat IPC: 3.33 cumulative IPC: 3.651 (Simulation time: 00 hr 03 min 42 sec)
Heartbeat CPU 0 instructions: 37500262 cycles: 10294707 heartbeat IPC: 3.115 cumulative IPC: 3.643 (Simulation time: 00 hr 03 min 45 sec)
Heartbeat CPU 0 instructions: 38000263 cycles: 10410639 heartbeat IPC: 4.313 cumulative IPC: 3.65 (Simulation time: 00 hr 03 min 47 sec)
Heartbeat CPU 0 instructions: 38500269 cycles: 10527449 heartbeat IPC: 4.281 cumulative IPC: 3.657 (Simulation time: 00 hr 03 min 49 sec)
Heartbeat CPU 0 instructions: 39000276 cycles: 10727722 heartbeat IPC: 2.497 cumulative IPC: 3.635 (Simulation time: 00 hr 03 min 52 sec)
Heartbeat CPU 0 instructions: 39500279 cycles: 10892303 heartbeat IPC: 3.038 cumulative IPC: 3.626 (Simulation time: 00 hr 03 min 55 sec)
Heartbeat CPU 0 instructions: 40000281 cycles: 11028895 heartbeat IPC: 3.661 cumulative IPC: 3.627 (Simulation time: 00 hr 03 min 58 sec)
Heartbeat CPU 0 instructions: 40500284 cycles: 11174337 heartbeat IPC: 3.438 cumulative IPC: 3.624 (Simulation time: 00 hr 04 min 01 sec)
Heartbeat CPU 0 instructions: 41000288 cycles: 11300493 heartbeat IPC: 3.963 cumulative IPC: 3.628 (Simulation time: 00 hr 04 min 03 sec)
Heartbeat CPU 0 instructions: 41500288 cycles: 11427507 heartbeat IPC: 3.937 cumulative IPC: 3.632 (Simulation time: 00 hr 04 min 05 sec)
Heartbeat CPU 0 instructions: 42000295 cycles: 11600878 heartbeat IPC: 2.884 cumulative IPC: 3.62 (Simulation time: 00 hr 04 min 09 sec)
Heartbeat CPU 0 instructions: 42500298 cycles: 11783654 heartbeat IPC: 2.736 cumulative IPC: 3.607 (Simulation time: 00 hr 04 min 12 sec)
Heartbeat CPU 0 instructions: 43000303 cycles: 11904682 heartbeat IPC: 4.131 cumulative IPC: 3.612 (Simulation time: 00 hr 04 min 14 sec)
Heartbeat CPU 0 instructions: 43500309 cycles: 12038792 heartbeat IPC: 3.728 cumulative IPC: 3.613 (Simulation time: 00 hr 04 min 17 sec)
Heartbeat CPU 0 instructions: 44000314 cycles: 12173407 heartbeat IPC: 3.714 cumulative IPC: 3.614 (Simulation time: 00 hr 04 min 20 sec)
Heartbeat CPU 0 instructions: 44500318 cycles: 12308475 heartbeat IPC: 3.702 cumulative IPC: 3.615 (Simulation time: 00 hr 04 min 22 sec)
Heartbeat CPU 0 instructions: 45000325 cycles: 12417226 heartbeat IPC: 4.598 cumulative IPC: 3.624 (Simulation time: 00 hr 04 min 25 sec)
Heartbeat CPU 0 instructions: 45500327 cycles: 12530289 heartbeat IPC: 4.422 cumulative IPC: 3.631 (Simulation time: 00 hr 04 min 27 sec)
Heartbeat CPU 0 instructions: 46000329 cycles: 12650486 heartbeat IPC: 4.16 cumulative IPC: 3.636 (Simulation time: 00 hr 04 min 29 sec)
Heartbeat CPU 0 instructions: 46500332 cycles: 12792909 heartbeat IPC: 3.511 cumulative IPC: 3.635 (Simulation time: 00 hr 04 min 32 sec)
Heartbeat CPU 0 instructions: 47000336 cycles: 12905355 heartbeat IPC: 4.447 cumulative IPC: 3.642 (Simulation time: 00 hr 04 min 34 sec)
Heartbeat CPU 0 instructions: 47500336 cycles: 13011350 heartbeat IPC: 4.717 cumulative IPC: 3.651 (Simulation time: 00 hr 04 min 35 sec)
Heartbeat CPU 0 instructions: 48000343 cycles: 13156618 heartbeat IPC: 3.442 cumulative IPC: 3.648 (Simulation time: 00 hr 04 min 38 sec)
Heartbeat CPU 0 instructions: 48500343 cycles: 13306907 heartbeat IPC: 3.327 cumulative IPC: 3.645 (Simulation time: 00 hr 04 min 40 sec)
Heartbeat CPU 0 instructions: 49000350 cycles: 13432877 heartbeat IPC: 3.969 cumulative IPC: 3.648 (Simulation time: 00 hr 04 min 43 sec)
Heartbeat CPU 0 instructions: 49500352 cycles: 13618811 heartbeat IPC: 2.689 cumulative IPC: 3.635 (Simulation time: 00 hr 04 min 46 sec)
Warmup halting CPU 0 at instruction 50000004 cycle 13756561 for remainder of phase
Warmup finished CPU 0 instructions: 50000004 cycles: 13756561 cumulative IPC: 3.635 (Simulation time: 00 hr 04 min 48 sec)
Warmup complete CPU 0 instructions: 50000004 cycles: 13756561 cumulative IPC: 3.635 (Simulation time: 00 hr 04 min 48 sec)
Heartbeat CPU 0 instructions: 50000353 cycles: 13756806 heartbeat IPC: 3.623 cumulative IPC: 1.424 (Simulation time: 00 hr 04 min 48 sec)
Heartbeat CPU 0 instructions: 50500359 cycles: 14507102 heartbeat IPC: 0.6664 cumulative IPC: 0.6667 (Simulation time: 00 hr 04 min 55 sec)
Heartbeat CPU 0 instructions: 51000359 cycles: 15204490 heartbeat IPC: 0.717 cumulative IPC: 0.6909 (Simulation time: 00 hr 05 min 01 sec)
Heartbeat CPU 0 instructions: 51500360 cycles: 15558791 heartbeat IPC: 1.411 cumulative IPC: 0.8325 (Simulation time: 00 hr 05 min 04 sec)
Heartbeat CPU 0 instructions: 52000360 cycles: 15932145 heartbeat IPC: 1.339 cumulative IPC: 0.9195 (Simulation time: 00 hr 05 min 08 sec)
Heartbeat CPU 0 instructions: 52500361 cycles: 16842697 heartbeat IPC: 0.5491 cumulative IPC: 0.8102 (Simulation time: 00 hr 05 min 15 sec)
Heartbeat CPU 0 instructions: 53000366 cycles: 18536160 heartbeat IPC: 0.2953 cumulative IPC: 0.6277 (Simulation time: 00 hr 05 min 26 sec)
Heartbeat CPU 0 instructions: 53500373 cycles: 19901337 heartbeat IPC: 0.3663 cumulative IPC: 0.5696 (Simulation time: 00 hr 05 min 35 sec)
Heartbeat CPU 0 instructions: 54000376 cycles: 23458654 heartbeat IPC: 0.1406 cumulative IPC: 0.4123 (Simulation time: 00 hr 05 min 58 sec)
Heartbeat CPU 0 instructions: 54500377 cycles: 24612476 heartbeat IPC: 0.4333 cumulative IPC: 0.4146 (Simulation time: 00 hr 06 min 07 sec)
Heartbeat CPU 0 instructions: 55000381 cycles: 26703336 heartbeat IPC: 0.2391 cumulative IPC: 0.3862 (Simulation time: 00 hr 06 min 21 sec)
Heartbeat CPU 0 instructions: 55500381 cycles: 27057847 heartbeat IPC: 1.41 cumulative IPC: 0.4135 (Simulation time: 00 hr 06 min 24 sec)
Heartbeat CPU 0 instructions: 56000385 cycles: 28882835 heartbeat IPC: 0.274 cumulative IPC: 0.3967 (Simulation time: 00 hr 06 min 38 sec)
Heartbeat CPU 0 instructions: 56500387 cycles: 30269502 heartbeat IPC: 0.3606 cumulative IPC: 0.3937 (Simulation time: 00 hr 06 min 48 sec)
Heartbeat CPU 0 instructions: 57000387 cycles: 31599490 heartbeat IPC: 0.3759 cumulative IPC: 0.3923 (Simulation time: 00 hr 06 min 58 sec)
Heartbeat CPU 0 instructions: 57500393 cycles: 33463192 heartbeat IPC: 0.2683 cumulative IPC: 0.3806 (Simulation time: 00 hr 07 min 11 sec)
Heartbeat CPU 0 instructions: 58000395 cycles: 34176101 heartbeat IPC: 0.7014 cumulative IPC: 0.3918 (Simulation time: 00 hr 07 min 16 sec)
Heartbeat CPU 0 instructions: 58500400 cycles: 36053785 heartbeat IPC: 0.2663 cumulative IPC: 0.3812 (Simulation time: 00 hr 07 min 29 sec)
Heartbeat CPU 0 instructions: 59000400 cycles: 36847213 heartbeat IPC: 0.6302 cumulative IPC: 0.3898 (Simulation time: 00 hr 07 min 35 sec)
Heartbeat CPU 0 instructions: 59500406 cycles: 37784053 heartbeat IPC: 0.5337 cumulative IPC: 0.3954 (Simulation time: 00 hr 07 min 43 sec)
Heartbeat CPU 0 instructions: 60000406 cycles: 39435986 heartbeat IPC: 0.3027 cumulative IPC: 0.3894 (Simulation time: 00 hr 07 min 54 sec)
Heartbeat CPU 0 instructions: 60500411 cycles: 40096145 heartbeat IPC: 0.7574 cumulative IPC: 0.3987 (Simulation time: 00 hr 07 min 59 sec)
Heartbeat CPU 0 instructions: 61000411 cycles: 41171045 heartbeat IPC: 0.4652 cumulative IPC: 0.4013 (Simulation time: 00 hr 08 min 07 sec)
Heartbeat CPU 0 instructions: 61500413 cycles: 42243663 heartbeat IPC: 0.4662 cumulative IPC: 0.4037 (Simulation time: 00 hr 08 min 15 sec)
Heartbeat CPU 0 instructions: 62000413 cycles: 42615579 heartbeat IPC: 1.344 cumulative IPC: 0.4158 (Simulation time: 00 hr 08 min 19 sec)
Heartbeat CPU 0 instructions: 62500413 cycles: 43126074 heartbeat IPC: 0.9794 cumulative IPC: 0.4256 (Simulation time: 00 hr 08 min 23 sec)
Heartbeat CPU 0 instructions: 63000415 cycles: 43987651 heartbeat IPC: 0.5803 cumulative IPC: 0.43 (Simulation time: 00 hr 08 min 30 sec)
Heartbeat CPU 0 instructions: 63500415 cycles: 45024457 heartbeat IPC: 0.4823 cumulative IPC: 0.4318 (Simulation time: 00 hr 08 min 38 sec)
Heartbeat CPU 0 instructions: 64000415 cycles: 47060187 heartbeat IPC: 0.2456 cumulative IPC: 0.4204 (Simulation time: 00 hr 08 min 52 sec)
Heartbeat CPU 0 instructions: 64500417 cycles: 48844104 heartbeat IPC: 0.2803 cumulative IPC: 0.4133 (Simulation time: 00 hr 09 min 04 sec)
Heartbeat CPU 0 instructions: 65000418 cycles: 50557370 heartbeat IPC: 0.2918 cumulative IPC: 0.4076 (Simulation time: 00 hr 09 min 16 sec)
Heartbeat CPU 0 instructions: 65500419 cycles: 52695653 heartbeat IPC: 0.2338 cumulative IPC: 0.3981 (Simulation time: 00 hr 09 min 32 sec)
Heartbeat CPU 0 instructions: 66000422 cycles: 53739389 heartbeat IPC: 0.4791 cumulative IPC: 0.4002 (Simulation time: 00 hr 09 min 40 sec)
Heartbeat CPU 0 instructions: 66500423 cycles: 55109232 heartbeat IPC: 0.365 cumulative IPC: 0.399 (Simulation time: 00 hr 09 min 51 sec)
Heartbeat CPU 0 instructions: 67000423 cycles: 57506169 heartbeat IPC: 0.2086 cumulative IPC: 0.3886 (Simulation time: 00 hr 10 min 06 sec)
Heartbeat CPU 0 instructions: 67500424 cycles: 58031041 heartbeat IPC: 0.9526 cumulative IPC: 0.3953 (Simulation time: 00 hr 10 min 11 sec)
Heartbeat CPU 0 instructions: 68000425 cycles: 58459904 heartbeat IPC: 1.166 cumulative IPC: 0.4027 (Simulation time: 00 hr 10 min 15 sec)
Heartbeat CPU 0 instructions: 68500425 cycles: 58773118 heartbeat IPC: 1.596 cumulative IPC: 0.411 (Simulation time: 00 hr 10 min 18 sec)
Heartbeat CPU 0 instructions: 69000428 cycles: 59084840 heartbeat IPC: 1.604 cumulative IPC: 0.4192 (Simulation time: 00 hr 10 min 21 sec)
Heartbeat CPU 0 instructions: 69500429 cycles: 59381543 heartbeat IPC: 1.685 cumulative IPC: 0.4274 (Simulation time: 00 hr 10 min 25 sec)
Heartbeat CPU 0 instructions: 70000430 cycles: 60273359 heartbeat IPC: 0.5607 cumulative IPC: 0.43 (Simulation time: 00 hr 10 min 31 sec)
Heartbeat CPU 0 instructions: 70500433 cycles: 62392154 heartbeat IPC: 0.236 cumulative IPC: 0.4215 (Simulation time: 00 hr 10 min 45 sec)
Heartbeat CPU 0 instructions: 71000433 cycles: 64064803 heartbeat IPC: 0.2989 cumulative IPC: 0.4174 (Simulation time: 00 hr 10 min 57 sec)
Heartbeat CPU 0 instructions: 71500440 cycles: 65929247 heartbeat IPC: 0.2682 cumulative IPC: 0.4121 (Simulation time: 00 hr 11 min 09 sec)
Heartbeat CPU 0 instructions: 72000441 cycles: 67422473 heartbeat IPC: 0.3348 cumulative IPC: 0.41 (Simulation time: 00 hr 11 min 19 sec)
Heartbeat CPU 0 instructions: 72500441 cycles: 69100614 heartbeat IPC: 0.2979 cumulative IPC: 0.4066 (Simulation time: 00 hr 11 min 30 sec)
Heartbeat CPU 0 instructions: 73000442 cycles: 69633023 heartbeat IPC: 0.9391 cumulative IPC: 0.4116 (Simulation time: 00 hr 11 min 34 sec)
Heartbeat CPU 0 instructions: 73500442 cycles: 70591105 heartbeat IPC: 0.5219 cumulative IPC: 0.4135 (Simulation time: 00 hr 11 min 41 sec)
Heartbeat CPU 0 instructions: 74000449 cycles: 72069310 heartbeat IPC: 0.3383 cumulative IPC: 0.4116 (Simulation time: 00 hr 11 min 51 sec)
Heartbeat CPU 0 instructions: 74500451 cycles: 72785506 heartbeat IPC: 0.6981 cumulative IPC: 0.4151 (Simulation time: 00 hr 11 min 58 sec)
Heartbeat CPU 0 instructions: 75000453 cycles: 74086584 heartbeat IPC: 0.3843 cumulative IPC: 0.4144 (Simulation time: 00 hr 12 min 07 sec)
Heartbeat CPU 0 instructions: 75500455 cycles: 75822608 heartbeat IPC: 0.288 cumulative IPC: 0.4109 (Simulation time: 00 hr 12 min 19 sec)
Heartbeat CPU 0 instructions: 76000462 cycles: 77405189 heartbeat IPC: 0.3159 cumulative IPC: 0.4085 (Simulation time: 00 hr 12 min 30 sec)
Heartbeat CPU 0 instructions: 76500463 cycles: 79052767 heartbeat IPC: 0.3035 cumulative IPC: 0.4058 (Simulation time: 00 hr 12 min 41 sec)
Heartbeat CPU 0 instructions: 77000463 cycles: 80849938 heartbeat IPC: 0.2782 cumulative IPC: 0.4024 (Simulation time: 00 hr 12 min 53 sec)
Heartbeat CPU 0 instructions: 77500465 cycles: 82994191 heartbeat IPC: 0.2332 cumulative IPC: 0.3972 (Simulation time: 00 hr 13 min 06 sec)
Heartbeat CPU 0 instructions: 78000472 cycles: 84301533 heartbeat IPC: 0.3825 cumulative IPC: 0.3969 (Simulation time: 00 hr 13 min 15 sec)
Heartbeat CPU 0 instructions: 78500472 cycles: 86572802 heartbeat IPC: 0.2201 cumulative IPC: 0.3914 (Simulation time: 00 hr 13 min 30 sec)
Heartbeat CPU 0 instructions: 79000476 cycles: 88289095 heartbeat IPC: 0.2913 cumulative IPC: 0.3891 (Simulation time: 00 hr 13 min 42 sec)
Heartbeat CPU 0 instructions: 79500476 cycles: 89272127 heartbeat IPC: 0.5086 cumulative IPC: 0.3907 (Simulation time: 00 hr 13 min 49 sec)
Heartbeat CPU 0 instructions: 80000477 cycles: 89854096 heartbeat IPC: 0.8592 cumulative IPC: 0.3942 (Simulation time: 00 hr 13 min 54 sec)
Heartbeat CPU 0 instructions: 80500480 cycles: 91033521 heartbeat IPC: 0.4239 cumulative IPC: 0.3947 (Simulation time: 00 hr 14 min 02 sec)
Heartbeat CPU 0 instructions: 81000480 cycles: 91491921 heartbeat IPC: 1.091 cumulative IPC: 0.3988 (Simulation time: 00 hr 14 min 07 sec)
Heartbeat CPU 0 instructions: 81500480 cycles: 92393835 heartbeat IPC: 0.5544 cumulative IPC: 0.4006 (Simulation time: 00 hr 14 min 14 sec)
Heartbeat CPU 0 instructions: 82000482 cycles: 92727105 heartbeat IPC: 1.5 cumulative IPC: 0.4052 (Simulation time: 00 hr 14 min 17 sec)
Heartbeat CPU 0 instructions: 82500482 cycles: 93015210 heartbeat IPC: 1.735 cumulative IPC: 0.4101 (Simulation time: 00 hr 14 min 21 sec)
Heartbeat CPU 0 instructions: 83000482 cycles: 93338101 heartbeat IPC: 1.549 cumulative IPC: 0.4147 (Simulation time: 00 hr 14 min 25 sec)
Heartbeat CPU 0 instructions: 83500487 cycles: 95001732 heartbeat IPC: 0.3006 cumulative IPC: 0.4123 (Simulation time: 00 hr 14 min 37 sec)
Heartbeat CPU 0 instructions: 84000491 cycles: 96609959 heartbeat IPC: 0.3109 cumulative IPC: 0.4104 (Simulation time: 00 hr 14 min 49 sec)
Heartbeat CPU 0 instructions: 84500498 cycles: 99143734 heartbeat IPC: 0.1973 cumulative IPC: 0.404 (Simulation time: 00 hr 15 min 05 sec)
Heartbeat CPU 0 instructions: 85000502 cycles: 100912463 heartbeat IPC: 0.2827 cumulative IPC: 0.4016 (Simulation time: 00 hr 15 min 18 sec)
Heartbeat CPU 0 instructions: 85500506 cycles: 102397231 heartbeat IPC: 0.3368 cumulative IPC: 0.4005 (Simulation time: 00 hr 15 min 28 sec)
Heartbeat CPU 0 instructions: 86000509 cycles: 103807683 heartbeat IPC: 0.3545 cumulative IPC: 0.3998 (Simulation time: 00 hr 15 min 37 sec)
Heartbeat CPU 0 instructions: 86500513 cycles: 105315647 heartbeat IPC: 0.3316 cumulative IPC: 0.3987 (Simulation time: 00 hr 15 min 47 sec)
Heartbeat CPU 0 instructions: 87000516 cycles: 107805147 heartbeat IPC: 0.2008 cumulative IPC: 0.3934 (Simulation time: 00 hr 16 min 03 sec)
Heartbeat CPU 0 instructions: 87500517 cycles: 108212087 heartbeat IPC: 1.229 cumulative IPC: 0.397 (Simulation time: 00 hr 16 min 07 sec)
Heartbeat CPU 0 instructions: 88000522 cycles: 108521991 heartbeat IPC: 1.613 cumulative IPC: 0.401 (Simulation time: 00 hr 16 min 10 sec)
Heartbeat CPU 0 instructions: 88500527 cycles: 109482097 heartbeat IPC: 0.5208 cumulative IPC: 0.4022 (Simulation time: 00 hr 16 min 17 sec)
Heartbeat CPU 0 instructions: 89000530 cycles: 111111432 heartbeat IPC: 0.3069 cumulative IPC: 0.4006 (Simulation time: 00 hr 16 min 28 sec)
Heartbeat CPU 0 instructions: 89500531 cycles: 111448559 heartbeat IPC: 1.483 cumulative IPC: 0.4043 (Simulation time: 00 hr 16 min 31 sec)
Heartbeat CPU 0 instructions: 90000531 cycles: 112313937 heartbeat IPC: 0.5778 cumulative IPC: 0.4059 (Simulation time: 00 hr 16 min 38 sec)
Heartbeat CPU 0 instructions: 90500531 cycles: 113023203 heartbeat IPC: 0.705 cumulative IPC: 0.408 (Simulation time: 00 hr 16 min 43 sec)
Heartbeat CPU 0 instructions: 91000531 cycles: 115553262 heartbeat IPC: 0.1976 cumulative IPC: 0.4028 (Simulation time: 00 hr 16 min 59 sec)
Heartbeat CPU 0 instructions: 91500533 cycles: 116965006 heartbeat IPC: 0.3542 cumulative IPC: 0.4021 (Simulation time: 00 hr 17 min 08 sec)
Heartbeat CPU 0 instructions: 92000533 cycles: 118798819 heartbeat IPC: 0.2727 cumulative IPC: 0.3998 (Simulation time: 00 hr 17 min 20 sec)
Heartbeat CPU 0 instructions: 92500534 cycles: 120400614 heartbeat IPC: 0.3122 cumulative IPC: 0.3985 (Simulation time: 00 hr 17 min 30 sec)
Heartbeat CPU 0 instructions: 93000535 cycles: 121772163 heartbeat IPC: 0.3646 cumulative IPC: 0.3981 (Simulation time: 00 hr 17 min 39 sec)
Heartbeat CPU 0 instructions: 93500538 cycles: 122176361 heartbeat IPC: 1.237 cumulative IPC: 0.4012 (Simulation time: 00 hr 17 min 43 sec)
Heartbeat CPU 0 instructions: 94000538 cycles: 122513824 heartbeat IPC: 1.482 cumulative IPC: 0.4046 (Simulation time: 00 hr 17 min 46 sec)
Heartbeat CPU 0 instructions: 94500541 cycles: 122805762 heartbeat IPC: 1.713 cumulative IPC: 0.4081 (Simulation time: 00 hr 17 min 49 sec)
Heartbeat CPU 0 instructions: 95000547 cycles: 123089710 heartbeat IPC: 1.761 cumulative IPC: 0.4116 (Simulation time: 00 hr 17 min 52 sec)
Heartbeat CPU 0 instructions: 95500551 cycles: 123564315 heartbeat IPC: 1.054 cumulative IPC: 0.4144 (Simulation time: 00 hr 17 min 55 sec)
Heartbeat CPU 0 instructions: 96000551 cycles: 125635277 heartbeat IPC: 0.2414 cumulative IPC: 0.4112 (Simulation time: 00 hr 18 min 08 sec)
Heartbeat CPU 0 instructions: 96500553 cycles: 127960598 heartbeat IPC: 0.215 cumulative IPC: 0.4072 (Simulation time: 00 hr 18 min 23 sec)
Heartbeat CPU 0 instructions: 97000555 cycles: 129505019 heartbeat IPC: 0.3237 cumulative IPC: 0.4061 (Simulation time: 00 hr 18 min 34 sec)
Heartbeat CPU 0 instructions: 97500559 cycles: 130997708 heartbeat IPC: 0.335 cumulative IPC: 0.4052 (Simulation time: 00 hr 18 min 44 sec)
Heartbeat CPU 0 instructions: 98000559 cycles: 132777371 heartbeat IPC: 0.281 cumulative IPC: 0.4033 (Simulation time: 00 hr 18 min 55 sec)
Heartbeat CPU 0 instructions: 98500559 cycles: 134012321 heartbeat IPC: 0.4049 cumulative IPC: 0.4033 (Simulation time: 00 hr 19 min 04 sec)
Heartbeat CPU 0 instructions: 99000565 cycles: 134855180 heartbeat IPC: 0.5932 cumulative IPC: 0.4046 (Simulation time: 00 hr 19 min 10 sec)
Heartbeat CPU 0 instructions: 99500566 cycles: 136097649 heartbeat IPC: 0.4024 cumulative IPC: 0.4046 (Simulation time: 00 hr 19 min 19 sec)
Heartbeat CPU 0 instructions: 100000570 cycles: 137300345 heartbeat IPC: 0.4157 cumulative IPC: 0.4047 (Simulation time: 00 hr 19 min 27 sec)
Heartbeat CPU 0 instructions: 100500571 cycles: 139636970 heartbeat IPC: 0.214 cumulative IPC: 0.4012 (Simulation time: 00 hr 19 min 41 sec)
Heartbeat CPU 0 instructions: 101000574 cycles: 140921027 heartbeat IPC: 0.3894 cumulative IPC: 0.4011 (Simulation time: 00 hr 19 min 49 sec)
Heartbeat CPU 0 instructions: 101500577 cycles: 142166737 heartbeat IPC: 0.4014 cumulative IPC: 0.4011 (Simulation time: 00 hr 19 min 57 sec)
Heartbeat CPU 0 instructions: 102000577 cycles: 143214595 heartbeat IPC: 0.4772 cumulative IPC: 0.4017 (Simulation time: 00 hr 20 min 05 sec)
Heartbeat CPU 0 instructions: 102500580 cycles: 143963862 heartbeat IPC: 0.6673 cumulative IPC: 0.4032 (Simulation time: 00 hr 20 min 10 sec)
Heartbeat CPU 0 instructions: 103000580 cycles: 145827766 heartbeat IPC: 0.2683 cumulative IPC: 0.4013 (Simulation time: 00 hr 20 min 22 sec)
Heartbeat CPU 0 instructions: 103500586 cycles: 147012328 heartbeat IPC: 0.4221 cumulative IPC: 0.4015 (Simulation time: 00 hr 20 min 31 sec)
Heartbeat CPU 0 instructions: 104000586 cycles: 148698599 heartbeat IPC: 0.2965 cumulative IPC: 0.4002 (Simulation time: 00 hr 20 min 41 sec)
Heartbeat CPU 0 instructions: 104500586 cycles: 149279044 heartbeat IPC: 0.8614 cumulative IPC: 0.4022 (Simulation time: 00 hr 20 min 45 sec)
Heartbeat CPU 0 instructions: 105000586 cycles: 151603600 heartbeat IPC: 0.2151 cumulative IPC: 0.399 (Simulation time: 00 hr 20 min 59 sec)
Heartbeat CPU 0 instructions: 105500587 cycles: 153106612 heartbeat IPC: 0.3327 cumulative IPC: 0.3983 (Simulation time: 00 hr 21 min 09 sec)
Heartbeat CPU 0 instructions: 106000587 cycles: 154111686 heartbeat IPC: 0.4975 cumulative IPC: 0.399 (Simulation time: 00 hr 21 min 17 sec)
Heartbeat CPU 0 instructions: 106500588 cycles: 155419512 heartbeat IPC: 0.3823 cumulative IPC: 0.3988 (Simulation time: 00 hr 21 min 25 sec)
Heartbeat CPU 0 instructions: 107000592 cycles: 156183558 heartbeat IPC: 0.6544 cumulative IPC: 0.4002 (Simulation time: 00 hr 21 min 31 sec)
Heartbeat CPU 0 instructions: 107500593 cycles: 156854778 heartbeat IPC: 0.7449 cumulative IPC: 0.4018 (Simulation time: 00 hr 21 min 36 sec)
Heartbeat CPU 0 instructions: 108000596 cycles: 158307693 heartbeat IPC: 0.3441 cumulative IPC: 0.4012 (Simulation time: 00 hr 21 min 46 sec)
Heartbeat CPU 0 instructions: 108500596 cycles: 159883249 heartbeat IPC: 0.3173 cumulative IPC: 0.4003 (Simulation time: 00 hr 21 min 56 sec)
Heartbeat CPU 0 instructions: 109000600 cycles: 160622559 heartbeat IPC: 0.6763 cumulative IPC: 0.4017 (Simulation time: 00 hr 22 min 01 sec)
Heartbeat CPU 0 instructions: 109500605 cycles: 160862740 heartbeat IPC: 2.082 cumulative IPC: 0.4045 (Simulation time: 00 hr 22 min 03 sec)
Heartbeat CPU 0 instructions: 110000605 cycles: 161852280 heartbeat IPC: 0.5053 cumulative IPC: 0.4051 (Simulation time: 00 hr 22 min 10 sec)
Heartbeat CPU 0 instructions: 110500607 cycles: 162502573 heartbeat IPC: 0.7689 cumulative IPC: 0.4067 (Simulation time: 00 hr 22 min 14 sec)
Heartbeat CPU 0 instructions: 111000607 cycles: 163149901 heartbeat IPC: 0.7724 cumulative IPC: 0.4083 (Simulation time: 00 hr 22 min 19 sec)
Heartbeat CPU 0 instructions: 111500610 cycles: 163871106 heartbeat IPC: 0.6933 cumulative IPC: 0.4097 (Simulation time: 00 hr 22 min 25 sec)
Heartbeat CPU 0 instructions: 112000617 cycles: 164514167 heartbeat IPC: 0.7775 cumulative IPC: 0.4113 (Simulation time: 00 hr 22 min 30 sec)
Heartbeat CPU 0 instructions: 112500622 cycles: 165400863 heartbeat IPC: 0.5639 cumulative IPC: 0.4122 (Simulation time: 00 hr 22 min 36 sec)
Heartbeat CPU 0 instructions: 113000622 cycles: 165608910 heartbeat IPC: 2.403 cumulative IPC: 0.4149 (Simulation time: 00 hr 22 min 38 sec)
Heartbeat CPU 0 instructions: 113500622 cycles: 166020572 heartbeat IPC: 1.215 cumulative IPC: 0.417 (Simulation time: 00 hr 22 min 42 sec)
Heartbeat CPU 0 instructions: 114000625 cycles: 167764876 heartbeat IPC: 0.2866 cumulative IPC: 0.4156 (Simulation time: 00 hr 22 min 53 sec)
Heartbeat CPU 0 instructions: 114500625 cycles: 168525576 heartbeat IPC: 0.6573 cumulative IPC: 0.4168 (Simulation time: 00 hr 22 min 59 sec)
Heartbeat CPU 0 instructions: 115000625 cycles: 169163042 heartbeat IPC: 0.7844 cumulative IPC: 0.4183 (Simulation time: 00 hr 23 min 04 sec)
Heartbeat CPU 0 instructions: 115500627 cycles: 169756030 heartbeat IPC: 0.8432 cumulative IPC: 0.4199 (Simulation time: 00 hr 23 min 08 sec)
Heartbeat CPU 0 instructions: 116000627 cycles: 171068680 heartbeat IPC: 0.3809 cumulative IPC: 0.4196 (Simulation time: 00 hr 23 min 17 sec)
Heartbeat CPU 0 instructions: 116500627 cycles: 172738279 heartbeat IPC: 0.2995 cumulative IPC: 0.4183 (Simulation time: 00 hr 23 min 28 sec)
Heartbeat CPU 0 instructions: 117000627 cycles: 174539553 heartbeat IPC: 0.2776 cumulative IPC: 0.4167 (Simulation time: 00 hr 23 min 39 sec)
Heartbeat CPU 0 instructions: 117500628 cycles: 175343670 heartbeat IPC: 0.6218 cumulative IPC: 0.4177 (Simulation time: 00 hr 23 min 45 sec)
Heartbeat CPU 0 instructions: 118000628 cycles: 176594845 heartbeat IPC: 0.3996 cumulative IPC: 0.4176 (Simulation time: 00 hr 23 min 53 sec)
Heartbeat CPU 0 instructions: 118500628 cycles: 178115934 heartbeat IPC: 0.3287 cumulative IPC: 0.4168 (Simulation time: 00 hr 24 min 03 sec)
Heartbeat CPU 0 instructions: 119000628 cycles: 179384205 heartbeat IPC: 0.3942 cumulative IPC: 0.4166 (Simulation time: 00 hr 24 min 11 sec)
Heartbeat CPU 0 instructions: 119500629 cycles: 181066548 heartbeat IPC: 0.2972 cumulative IPC: 0.4154 (Simulation time: 00 hr 24 min 22 sec)
Heartbeat CPU 0 instructions: 120000631 cycles: 182729119 heartbeat IPC: 0.3007 cumulative IPC: 0.4143 (Simulation time: 00 hr 24 min 33 sec)
Heartbeat CPU 0 instructions: 120500631 cycles: 184409928 heartbeat IPC: 0.2975 cumulative IPC: 0.4131 (Simulation time: 00 hr 24 min 44 sec)
Heartbeat CPU 0 instructions: 121000635 cycles: 185914969 heartbeat IPC: 0.3322 cumulative IPC: 0.4124 (Simulation time: 00 hr 24 min 55 sec)
Heartbeat CPU 0 instructions: 121500635 cycles: 186838190 heartbeat IPC: 0.5416 cumulative IPC: 0.4131 (Simulation time: 00 hr 25 min 01 sec)
Heartbeat CPU 0 instructions: 122000635 cycles: 188599442 heartbeat IPC: 0.2839 cumulative IPC: 0.4118 (Simulation time: 00 hr 25 min 12 sec)
Heartbeat CPU 0 instructions: 122500635 cycles: 189042801 heartbeat IPC: 1.128 cumulative IPC: 0.4136 (Simulation time: 00 hr 25 min 16 sec)
Heartbeat CPU 0 instructions: 123000639 cycles: 189620391 heartbeat IPC: 0.8657 cumulative IPC: 0.4151 (Simulation time: 00 hr 25 min 21 sec)
Heartbeat CPU 0 instructions: 123500642 cycles: 189992119 heartbeat IPC: 1.345 cumulative IPC: 0.4171 (Simulation time: 00 hr 25 min 24 sec)
Heartbeat CPU 0 instructions: 124000644 cycles: 191314190 heartbeat IPC: 0.3782 cumulative IPC: 0.4168 (Simulation time: 00 hr 25 min 33 sec)
Heartbeat CPU 0 instructions: 124500651 cycles: 192522224 heartbeat IPC: 0.4139 cumulative IPC: 0.4168 (Simulation time: 00 hr 25 min 41 sec)
Heartbeat CPU 0 instructions: 125000656 cycles: 193820370 heartbeat IPC: 0.3852 cumulative IPC: 0.4165 (Simulation time: 00 hr 25 min 49 sec)
Heartbeat CPU 0 instructions: 125500663 cycles: 195452347 heartbeat IPC: 0.3064 cumulative IPC: 0.4155 (Simulation time: 00 hr 25 min 59 sec)
Heartbeat CPU 0 instructions: 126000667 cycles: 196746600 heartbeat IPC: 0.3863 cumulative IPC: 0.4153 (Simulation time: 00 hr 26 min 07 sec)
Heartbeat CPU 0 instructions: 126500670 cycles: 197716695 heartbeat IPC: 0.5154 cumulative IPC: 0.4159 (Simulation time: 00 hr 26 min 14 sec)
Heartbeat CPU 0 instructions: 127000671 cycles: 199190358 heartbeat IPC: 0.3393 cumulative IPC: 0.4152 (Simulation time: 00 hr 26 min 23 sec)
Heartbeat CPU 0 instructions: 127500674 cycles: 200263510 heartbeat IPC: 0.4659 cumulative IPC: 0.4155 (Simulation time: 00 hr 26 min 30 sec)
Heartbeat CPU 0 instructions: 128000675 cycles: 200644287 heartbeat IPC: 1.313 cumulative IPC: 0.4174 (Simulation time: 00 hr 26 min 33 sec)
Heartbeat CPU 0 instructions: 128500675 cycles: 201086681 heartbeat IPC: 1.13 cumulative IPC: 0.419 (Simulation time: 00 hr 26 min 36 sec)
Heartbeat CPU 0 instructions: 129000676 cycles: 201551856 heartbeat IPC: 1.075 cumulative IPC: 0.4207 (Simulation time: 00 hr 26 min 39 sec)
Heartbeat CPU 0 instructions: 129500681 cycles: 201968203 heartbeat IPC: 1.201 cumulative IPC: 0.4224 (Simulation time: 00 hr 26 min 42 sec)
Heartbeat CPU 0 instructions: 130000687 cycles: 202406936 heartbeat IPC: 1.14 cumulative IPC: 0.4241 (Simulation time: 00 hr 26 min 46 sec)
Heartbeat CPU 0 instructions: 130500687 cycles: 203872075 heartbeat IPC: 0.3413 cumulative IPC: 0.4234 (Simulation time: 00 hr 26 min 55 sec)
Heartbeat CPU 0 instructions: 131000693 cycles: 204924115 heartbeat IPC: 0.4753 cumulative IPC: 0.4237 (Simulation time: 00 hr 27 min 02 sec)
Heartbeat CPU 0 instructions: 131500694 cycles: 206288237 heartbeat IPC: 0.3665 cumulative IPC: 0.4233 (Simulation time: 00 hr 27 min 11 sec)
Heartbeat CPU 0 instructions: 132000697 cycles: 206851178 heartbeat IPC: 0.8882 cumulative IPC: 0.4247 (Simulation time: 00 hr 27 min 15 sec)
Heartbeat CPU 0 instructions: 132500703 cycles: 207385476 heartbeat IPC: 0.9358 cumulative IPC: 0.4261 (Simulation time: 00 hr 27 min 19 sec)
Heartbeat CPU 0 instructions: 133000707 cycles: 207796986 heartbeat IPC: 1.215 cumulative IPC: 0.4277 (Simulation time: 00 hr 27 min 22 sec)
Heartbeat CPU 0 instructions: 133500711 cycles: 208113864 heartbeat IPC: 1.578 cumulative IPC: 0.4296 (Simulation time: 00 hr 27 min 25 sec)
Heartbeat CPU 0 instructions: 134000711 cycles: 208381340 heartbeat IPC: 1.869 cumulative IPC: 0.4316 (Simulation time: 00 hr 27 min 28 sec)
Heartbeat CPU 0 instructions: 134500711 cycles: 208600285 heartbeat IPC: 2.284 cumulative IPC: 0.4337 (Simulation time: 00 hr 27 min 30 sec)
Heartbeat CPU 0 instructions: 135000711 cycles: 208816398 heartbeat IPC: 2.314 cumulative IPC: 0.4358 (Simulation time: 00 hr 27 min 33 sec)
Heartbeat CPU 0 instructions: 135500714 cycles: 209300314 heartbeat IPC: 1.033 cumulative IPC: 0.4372 (Simulation time: 00 hr 27 min 37 sec)
Heartbeat CPU 0 instructions: 136000714 cycles: 209779192 heartbeat IPC: 1.044 cumulative IPC: 0.4387 (Simulation time: 00 hr 27 min 41 sec)
Heartbeat CPU 0 instructions: 136500716 cycles: 210253960 heartbeat IPC: 1.053 cumulative IPC: 0.4402 (Simulation time: 00 hr 27 min 44 sec)
Heartbeat CPU 0 instructions: 137000716 cycles: 210612351 heartbeat IPC: 1.395 cumulative IPC: 0.442 (Simulation time: 00 hr 27 min 47 sec)
Heartbeat CPU 0 instructions: 137500718 cycles: 211114450 heartbeat IPC: 0.9958 cumulative IPC: 0.4434 (Simulation time: 00 hr 27 min 51 sec)
Heartbeat CPU 0 instructions: 138000719 cycles: 211489958 heartbeat IPC: 1.332 cumulative IPC: 0.445 (Simulation time: 00 hr 27 min 55 sec)
Heartbeat CPU 0 instructions: 138500720 cycles: 213983324 heartbeat IPC: 0.2005 cumulative IPC: 0.442 (Simulation time: 00 hr 28 min 09 sec)
Heartbeat CPU 0 instructions: 139000723 cycles: 216283721 heartbeat IPC: 0.2174 cumulative IPC: 0.4395 (Simulation time: 00 hr 28 min 22 sec)
Heartbeat CPU 0 instructions: 139500724 cycles: 218023962 heartbeat IPC: 0.2873 cumulative IPC: 0.4382 (Simulation time: 00 hr 28 min 33 sec)
Heartbeat CPU 0 instructions: 140000724 cycles: 219558144 heartbeat IPC: 0.3259 cumulative IPC: 0.4373 (Simulation time: 00 hr 28 min 43 sec)
Heartbeat CPU 0 instructions: 140500727 cycles: 220584256 heartbeat IPC: 0.4873 cumulative IPC: 0.4376 (Simulation time: 00 hr 28 min 50 sec)
Heartbeat CPU 0 instructions: 141000729 cycles: 222254270 heartbeat IPC: 0.2994 cumulative IPC: 0.4365 (Simulation time: 00 hr 29 min 00 sec)
Heartbeat CPU 0 instructions: 141500732 cycles: 223431270 heartbeat IPC: 0.4248 cumulative IPC: 0.4364 (Simulation time: 00 hr 29 min 07 sec)
Heartbeat CPU 0 instructions: 142000733 cycles: 226252955 heartbeat IPC: 0.1772 cumulative IPC: 0.433 (Simulation time: 00 hr 29 min 23 sec)
Heartbeat CPU 0 instructions: 142500733 cycles: 228893783 heartbeat IPC: 0.1893 cumulative IPC: 0.43 (Simulation time: 00 hr 29 min 38 sec)
Heartbeat CPU 0 instructions: 143000733 cycles: 229400942 heartbeat IPC: 0.9859 cumulative IPC: 0.4313 (Simulation time: 00 hr 29 min 41 sec)
Heartbeat CPU 0 instructions: 143500739 cycles: 229745741 heartbeat IPC: 1.45 cumulative IPC: 0.4329 (Simulation time: 00 hr 29 min 44 sec)
Heartbeat CPU 0 instructions: 144000740 cycles: 230180688 heartbeat IPC: 1.15 cumulative IPC: 0.4343 (Simulation time: 00 hr 29 min 47 sec)
Heartbeat CPU 0 instructions: 144500743 cycles: 230545683 heartbeat IPC: 1.37 cumulative IPC: 0.4359 (Simulation time: 00 hr 29 min 50 sec)
Heartbeat CPU 0 instructions: 145000744 cycles: 231264594 heartbeat IPC: 0.6955 cumulative IPC: 0.4368 (Simulation time: 00 hr 29 min 55 sec)
Heartbeat CPU 0 instructions: 145500746 cycles: 231642080 heartbeat IPC: 1.325 cumulative IPC: 0.4383 (Simulation time: 00 hr 29 min 57 sec)
Heartbeat CPU 0 instructions: 146000747 cycles: 232097193 heartbeat IPC: 1.099 cumulative IPC: 0.4397 (Simulation time: 00 hr 30 min 01 sec)
Heartbeat CPU 0 instructions: 146500748 cycles: 233791312 heartbeat IPC: 0.2951 cumulative IPC: 0.4386 (Simulation time: 00 hr 30 min 11 sec)
Heartbeat CPU 0 instructions: 147000748 cycles: 234273184 heartbeat IPC: 1.038 cumulative IPC: 0.4399 (Simulation time: 00 hr 30 min 14 sec)
Heartbeat CPU 0 instructions: 147500750 cycles: 235493130 heartbeat IPC: 0.4099 cumulative IPC: 0.4397 (Simulation time: 00 hr 30 min 23 sec)
Heartbeat CPU 0 instructions: 148000751 cycles: 237211162 heartbeat IPC: 0.291 cumulative IPC: 0.4386 (Simulation time: 00 hr 30 min 33 sec)
Heartbeat CPU 0 instructions: 148500756 cycles: 238494507 heartbeat IPC: 0.3896 cumulative IPC: 0.4383 (Simulation time: 00 hr 30 min 41 sec)
Heartbeat CPU 0 instructions: 149000756 cycles: 240249902 heartbeat IPC: 0.2848 cumulative IPC: 0.4371 (Simulation time: 00 hr 30 min 50 sec)
Heartbeat CPU 0 instructions: 149500756 cycles: 241796287 heartbeat IPC: 0.3233 cumulative IPC: 0.4363 (Simulation time: 00 hr 31 min 00 sec)
Heartbeat CPU 0 instructions: 150000758 cycles: 242799806 heartbeat IPC: 0.4982 cumulative IPC: 0.4366 (Simulation time: 00 hr 31 min 06 sec)
Heartbeat CPU 0 instructions: 150500759 cycles: 243585071 heartbeat IPC: 0.6367 cumulative IPC: 0.4373 (Simulation time: 00 hr 31 min 11 sec)
Heartbeat CPU 0 instructions: 151000765 cycles: 245039382 heartbeat IPC: 0.3438 cumulative IPC: 0.4367 (Simulation time: 00 hr 31 min 20 sec)
Heartbeat CPU 0 instructions: 151500768 cycles: 247576335 heartbeat IPC: 0.1971 cumulative IPC: 0.4341 (Simulation time: 00 hr 31 min 35 sec)
Heartbeat CPU 0 instructions: 152000773 cycles: 248673841 heartbeat IPC: 0.4556 cumulative IPC: 0.4342 (Simulation time: 00 hr 31 min 42 sec)
Heartbeat CPU 0 instructions: 152500777 cycles: 249887542 heartbeat IPC: 0.412 cumulative IPC: 0.4341 (Simulation time: 00 hr 31 min 50 sec)
Heartbeat CPU 0 instructions: 153000778 cycles: 251408327 heartbeat IPC: 0.3288 cumulative IPC: 0.4334 (Simulation time: 00 hr 31 min 59 sec)
Heartbeat CPU 0 instructions: 153500783 cycles: 252847713 heartbeat IPC: 0.3474 cumulative IPC: 0.4329 (Simulation time: 00 hr 32 min 09 sec)
Heartbeat CPU 0 instructions: 154000784 cycles: 254309288 heartbeat IPC: 0.3421 cumulative IPC: 0.4323 (Simulation time: 00 hr 32 min 17 sec)
Heartbeat CPU 0 instructions: 154500785 cycles: 255568332 heartbeat IPC: 0.3971 cumulative IPC: 0.4322 (Simulation time: 00 hr 32 min 26 sec)
Heartbeat CPU 0 instructions: 155000786 cycles: 256471656 heartbeat IPC: 0.5535 cumulative IPC: 0.4326 (Simulation time: 00 hr 32 min 32 sec)
Heartbeat CPU 0 instructions: 155500790 cycles: 257520002 heartbeat IPC: 0.4769 cumulative IPC: 0.4328 (Simulation time: 00 hr 32 min 39 sec)
Heartbeat CPU 0 instructions: 156000790 cycles: 257935117 heartbeat IPC: 1.204 cumulative IPC: 0.4341 (Simulation time: 00 hr 32 min 43 sec)
Heartbeat CPU 0 instructions: 156500792 cycles: 258692578 heartbeat IPC: 0.6601 cumulative IPC: 0.4348 (Simulation time: 00 hr 32 min 48 sec)
Heartbeat CPU 0 instructions: 157000792 cycles: 259007312 heartbeat IPC: 1.589 cumulative IPC: 0.4363 (Simulation time: 00 hr 32 min 51 sec)
Heartbeat CPU 0 instructions: 157500794 cycles: 260343625 heartbeat IPC: 0.3742 cumulative IPC: 0.436 (Simulation time: 00 hr 32 min 59 sec)
Heartbeat CPU 0 instructions: 158000795 cycles: 262256038 heartbeat IPC: 0.2615 cumulative IPC: 0.4346 (Simulation time: 00 hr 33 min 09 sec)
Heartbeat CPU 0 instructions: 158500795 cycles: 263617618 heartbeat IPC: 0.3672 cumulative IPC: 0.4342 (Simulation time: 00 hr 33 min 17 sec)
Heartbeat CPU 0 instructions: 159000799 cycles: 265356592 heartbeat IPC: 0.2875 cumulative IPC: 0.4332 (Simulation time: 00 hr 33 min 27 sec)
Heartbeat CPU 0 instructions: 159500802 cycles: 266099355 heartbeat IPC: 0.6732 cumulative IPC: 0.4339 (Simulation time: 00 hr 33 min 33 sec)
Heartbeat CPU 0 instructions: 160000803 cycles: 266597617 heartbeat IPC: 1.003 cumulative IPC: 0.4351 (Simulation time: 00 hr 33 min 37 sec)
Heartbeat CPU 0 instructions: 160500805 cycles: 267094933 heartbeat IPC: 1.005 cumulative IPC: 0.4362 (Simulation time: 00 hr 33 min 41 sec)
Heartbeat CPU 0 instructions: 161000808 cycles: 267551158 heartbeat IPC: 1.096 cumulative IPC: 0.4374 (Simulation time: 00 hr 33 min 45 sec)
Heartbeat CPU 0 instructions: 161500812 cycles: 268204808 heartbeat IPC: 0.7649 cumulative IPC: 0.4382 (Simulation time: 00 hr 33 min 50 sec)
Heartbeat CPU 0 instructions: 162000816 cycles: 268672574 heartbeat IPC: 1.069 cumulative IPC: 0.4394 (Simulation time: 00 hr 33 min 53 sec)
Heartbeat CPU 0 instructions: 162500821 cycles: 269176233 heartbeat IPC: 0.9927 cumulative IPC: 0.4405 (Simulation time: 00 hr 33 min 57 sec)
Heartbeat CPU 0 instructions: 163000823 cycles: 269669883 heartbeat IPC: 1.013 cumulative IPC: 0.4416 (Simulation time: 00 hr 34 min 01 sec)
Heartbeat CPU 0 instructions: 163500828 cycles: 270587323 heartbeat IPC: 0.545 cumulative IPC: 0.4419 (Simulation time: 00 hr 34 min 07 sec)
Heartbeat CPU 0 instructions: 164000833 cycles: 274018783 heartbeat IPC: 0.1457 cumulative IPC: 0.438 (Simulation time: 00 hr 34 min 25 sec)
Heartbeat CPU 0 instructions: 164500838 cycles: 275942154 heartbeat IPC: 0.26 cumulative IPC: 0.4367 (Simulation time: 00 hr 34 min 37 sec)
Heartbeat CPU 0 instructions: 165000845 cycles: 277792752 heartbeat IPC: 0.2702 cumulative IPC: 0.4355 (Simulation time: 00 hr 34 min 47 sec)
Heartbeat CPU 0 instructions: 165500845 cycles: 279473237 heartbeat IPC: 0.2975 cumulative IPC: 0.4347 (Simulation time: 00 hr 34 min 57 sec)
Heartbeat CPU 0 instructions: 166000845 cycles: 281677308 heartbeat IPC: 0.2269 cumulative IPC: 0.433 (Simulation time: 00 hr 35 min 09 sec)
Heartbeat CPU 0 instructions: 166500850 cycles: 283067369 heartbeat IPC: 0.3597 cumulative IPC: 0.4326 (Simulation time: 00 hr 35 min 17 sec)
Heartbeat CPU 0 instructions: 167000855 cycles: 285921321 heartbeat IPC: 0.1752 cumulative IPC: 0.4299 (Simulation time: 00 hr 35 min 33 sec)
Heartbeat CPU 0 instructions: 167500856 cycles: 287064934 heartbeat IPC: 0.4372 cumulative IPC: 0.4299 (Simulation time: 00 hr 35 min 39 sec)
Heartbeat CPU 0 instructions: 168000859 cycles: 288249529 heartbeat IPC: 0.4221 cumulative IPC: 0.4299 (Simulation time: 00 hr 35 min 46 sec)
Heartbeat CPU 0 instructions: 168500861 cycles: 289157774 heartbeat IPC: 0.5505 cumulative IPC: 0.4303 (Simulation time: 00 hr 35 min 52 sec)
Heartbeat CPU 0 instructions: 169000865 cycles: 290944036 heartbeat IPC: 0.2799 cumulative IPC: 0.4293 (Simulation time: 00 hr 36 min 03 sec)
Heartbeat CPU 0 instructions: 169500866 cycles: 292519885 heartbeat IPC: 0.3173 cumulative IPC: 0.4287 (Simulation time: 00 hr 36 min 12 sec)
Heartbeat CPU 0 instructions: 170000870 cycles: 293414977 heartbeat IPC: 0.5586 cumulative IPC: 0.4291 (Simulation time: 00 hr 36 min 17 sec)
Heartbeat CPU 0 instructions: 170500870 cycles: 293754896 heartbeat IPC: 1.471 cumulative IPC: 0.4304 (Simulation time: 00 hr 36 min 20 sec)
Heartbeat CPU 0 instructions: 171000875 cycles: 294558561 heartbeat IPC: 0.6222 cumulative IPC: 0.4309 (Simulation time: 00 hr 36 min 25 sec)
Heartbeat CPU 0 instructions: 171500878 cycles: 295603412 heartbeat IPC: 0.4785 cumulative IPC: 0.4311 (Simulation time: 00 hr 36 min 32 sec)
Heartbeat CPU 0 instructions: 172000878 cycles: 296673852 heartbeat IPC: 0.4671 cumulative IPC: 0.4312 (Simulation time: 00 hr 36 min 39 sec)
Heartbeat CPU 0 instructions: 172500878 cycles: 298785885 heartbeat IPC: 0.2367 cumulative IPC: 0.4298 (Simulation time: 00 hr 36 min 50 sec)
Heartbeat CPU 0 instructions: 173000883 cycles: 299515641 heartbeat IPC: 0.6852 cumulative IPC: 0.4304 (Simulation time: 00 hr 36 min 55 sec)
Heartbeat CPU 0 instructions: 173500885 cycles: 302001893 heartbeat IPC: 0.2011 cumulative IPC: 0.4285 (Simulation time: 00 hr 37 min 08 sec)
Heartbeat CPU 0 instructions: 174000886 cycles: 303567665 heartbeat IPC: 0.3193 cumulative IPC: 0.4279 (Simulation time: 00 hr 37 min 17 sec)
Heartbeat CPU 0 instructions: 174500886 cycles: 304132210 heartbeat IPC: 0.8857 cumulative IPC: 0.4288 (Simulation time: 00 hr 37 min 21 sec)
Heartbeat CPU 0 instructions: 175000887 cycles: 305800137 heartbeat IPC: 0.2998 cumulative IPC: 0.428 (Simulation time: 00 hr 37 min 31 sec)
Heartbeat CPU 0 instructions: 175500889 cycles: 306966791 heartbeat IPC: 0.4286 cumulative IPC: 0.428 (Simulation time: 00 hr 37 min 38 sec)
Heartbeat CPU 0 instructions: 176000891 cycles: 307572252 heartbeat IPC: 0.8258 cumulative IPC: 0.4288 (Simulation time: 00 hr 37 min 42 sec)
Heartbeat CPU 0 instructions: 176500892 cycles: 308247249 heartbeat IPC: 0.7407 cumulative IPC: 0.4296 (Simulation time: 00 hr 37 min 47 sec)
Heartbeat CPU 0 instructions: 177000892 cycles: 308647939 heartbeat IPC: 1.248 cumulative IPC: 0.4307 (Simulation time: 00 hr 37 min 50 sec)
Heartbeat CPU 0 instructions: 177500892 cycles: 309784695 heartbeat IPC: 0.4398 cumulative IPC: 0.4307 (Simulation time: 00 hr 38 min 00 sec)
Heartbeat CPU 0 instructions: 178000893 cycles: 313215479 heartbeat IPC: 0.1457 cumulative IPC: 0.4274 (Simulation time: 00 hr 38 min 30 sec)
Heartbeat CPU 0 instructions: 178500894 cycles: 314028903 heartbeat IPC: 0.6147 cumulative IPC: 0.4279 (Simulation time: 00 hr 38 min 35 sec)
Heartbeat CPU 0 instructions: 179000895 cycles: 314672836 heartbeat IPC: 0.7765 cumulative IPC: 0.4287 (Simulation time: 00 hr 38 min 39 sec)
Heartbeat CPU 0 instructions: 179500897 cycles: 315074419 heartbeat IPC: 1.245 cumulative IPC: 0.4298 (Simulation time: 00 hr 38 min 43 sec)
Heartbeat CPU 0 instructions: 180000899 cycles: 317312293 heartbeat IPC: 0.2234 cumulative IPC: 0.4283 (Simulation time: 00 hr 38 min 54 sec)
Heartbeat CPU 0 instructions: 180500899 cycles: 319326657 heartbeat IPC: 0.2482 cumulative IPC: 0.4271 (Simulation time: 00 hr 39 min 06 sec)
Heartbeat CPU 0 instructions: 181000899 cycles: 319749847 heartbeat IPC: 1.182 cumulative IPC: 0.4281 (Simulation time: 00 hr 39 min 09 sec)
Heartbeat CPU 0 instructions: 181500903 cycles: 320867635 heartbeat IPC: 0.4473 cumulative IPC: 0.4282 (Simulation time: 00 hr 39 min 16 sec)
Heartbeat CPU 0 instructions: 182000903 cycles: 322447965 heartbeat IPC: 0.3164 cumulative IPC: 0.4276 (Simulation time: 00 hr 39 min 26 sec)
Heartbeat CPU 0 instructions: 182500909 cycles: 324234917 heartbeat IPC: 0.2798 cumulative IPC: 0.4268 (Simulation time: 00 hr 39 min 35 sec)
Heartbeat CPU 0 instructions: 183000912 cycles: 325543631 heartbeat IPC: 0.3821 cumulative IPC: 0.4266 (Simulation time: 00 hr 39 min 43 sec)
Heartbeat CPU 0 instructions: 183500912 cycles: 325951917 heartbeat IPC: 1.225 cumulative IPC: 0.4276 (Simulation time: 00 hr 39 min 46 sec)
Heartbeat CPU 0 instructions: 184000916 cycles: 326352755 heartbeat IPC: 1.247 cumulative IPC: 0.4287 (Simulation time: 00 hr 39 min 49 sec)
Heartbeat CPU 0 instructions: 184500919 cycles: 326667490 heartbeat IPC: 1.589 cumulative IPC: 0.4298 (Simulation time: 00 hr 39 min 51 sec)
Heartbeat CPU 0 instructions: 185000921 cycles: 327474232 heartbeat IPC: 0.6198 cumulative IPC: 0.4303 (Simulation time: 00 hr 39 min 56 sec)
Heartbeat CPU 0 instructions: 185500921 cycles: 328300942 heartbeat IPC: 0.6048 cumulative IPC: 0.4308 (Simulation time: 00 hr 40 min 01 sec)
Heartbeat CPU 0 instructions: 186000923 cycles: 330513336 heartbeat IPC: 0.226 cumulative IPC: 0.4294 (Simulation time: 00 hr 40 min 13 sec)
Heartbeat CPU 0 instructions: 186500923 cycles: 332028210 heartbeat IPC: 0.3301 cumulative IPC: 0.4289 (Simulation time: 00 hr 40 min 22 sec)
Heartbeat CPU 0 instructions: 187000923 cycles: 332732797 heartbeat IPC: 0.7096 cumulative IPC: 0.4295 (Simulation time: 00 hr 40 min 26 sec)
Heartbeat CPU 0 instructions: 187500927 cycles: 333574040 heartbeat IPC: 0.5944 cumulative IPC: 0.4299 (Simulation time: 00 hr 40 min 32 sec)
Heartbeat CPU 0 instructions: 188000928 cycles: 334967346 heartbeat IPC: 0.3589 cumulative IPC: 0.4296 (Simulation time: 00 hr 40 min 39 sec)
Heartbeat CPU 0 instructions: 188500928 cycles: 335944848 heartbeat IPC: 0.5115 cumulative IPC: 0.4299 (Simulation time: 00 hr 40 min 45 sec)
Heartbeat CPU 0 instructions: 189000932 cycles: 338570371 heartbeat IPC: 0.1904 cumulative IPC: 0.4279 (Simulation time: 00 hr 40 min 59 sec)
Heartbeat CPU 0 instructions: 189500933 cycles: 339025199 heartbeat IPC: 1.099 cumulative IPC: 0.4289 (Simulation time: 00 hr 41 min 02 sec)
Heartbeat CPU 0 instructions: 190000934 cycles: 339448969 heartbeat IPC: 1.18 cumulative IPC: 0.4299 (Simulation time: 00 hr 41 min 05 sec)
Heartbeat CPU 0 instructions: 190500934 cycles: 340474339 heartbeat IPC: 0.4876 cumulative IPC: 0.43 (Simulation time: 00 hr 41 min 11 sec)
Heartbeat CPU 0 instructions: 191000938 cycles: 341323522 heartbeat IPC: 0.5888 cumulative IPC: 0.4304 (Simulation time: 00 hr 41 min 16 sec)
Heartbeat CPU 0 instructions: 191500943 cycles: 341600954 heartbeat IPC: 1.802 cumulative IPC: 0.4316 (Simulation time: 00 hr 41 min 19 sec)
Heartbeat CPU 0 instructions: 192000943 cycles: 341940277 heartbeat IPC: 1.474 cumulative IPC: 0.4327 (Simulation time: 00 hr 41 min 21 sec)
Heartbeat CPU 0 instructions: 192500945 cycles: 342207884 heartbeat IPC: 1.868 cumulative IPC: 0.4339 (Simulation time: 00 hr 41 min 23 sec)
Heartbeat CPU 0 instructions: 193000948 cycles: 342654785 heartbeat IPC: 1.119 cumulative IPC: 0.4348 (Simulation time: 00 hr 41 min 27 sec)
Heartbeat CPU 0 instructions: 193500954 cycles: 343106774 heartbeat IPC: 1.106 cumulative IPC: 0.4357 (Simulation time: 00 hr 41 min 30 sec)
Heartbeat CPU 0 instructions: 194000955 cycles: 344933473 heartbeat IPC: 0.2737 cumulative IPC: 0.4348 (Simulation time: 00 hr 41 min 41 sec)
Heartbeat CPU 0 instructions: 194500955 cycles: 346094648 heartbeat IPC: 0.4306 cumulative IPC: 0.4348 (Simulation time: 00 hr 41 min 48 sec)
Heartbeat CPU 0 instructions: 195000956 cycles: 346557910 heartbeat IPC: 1.079 cumulative IPC: 0.4357 (Simulation time: 00 hr 41 min 52 sec)
Heartbeat CPU 0 instructions: 195500956 cycles: 347347245 heartbeat IPC: 0.6334 cumulative IPC: 0.4362 (Simulation time: 00 hr 41 min 57 sec)
Heartbeat CPU 0 instructions: 196000959 cycles: 349736664 heartbeat IPC: 0.2093 cumulative IPC: 0.4346 (Simulation time: 00 hr 42 min 11 sec)
Heartbeat CPU 0 instructions: 196500959 cycles: 351202535 heartbeat IPC: 0.3411 cumulative IPC: 0.4341 (Simulation time: 00 hr 42 min 19 sec)
Heartbeat CPU 0 instructions: 197000959 cycles: 352009315 heartbeat IPC: 0.6197 cumulative IPC: 0.4346 (Simulation time: 00 hr 42 min 24 sec)
Heartbeat CPU 0 instructions: 197500964 cycles: 354222482 heartbeat IPC: 0.2259 cumulative IPC: 0.4332 (Simulation time: 00 hr 42 min 35 sec)
Heartbeat CPU 0 instructions: 198000967 cycles: 356552822 heartbeat IPC: 0.2146 cumulative IPC: 0.4317 (Simulation time: 00 hr 42 min 47 sec)
Heartbeat CPU 0 instructions: 198500969 cycles: 357920934 heartbeat IPC: 0.3655 cumulative IPC: 0.4315 (Simulation time: 00 hr 42 min 55 sec)
Heartbeat CPU 0 instructions: 199000969 cycles: 359087079 heartbeat IPC: 0.4288 cumulative IPC: 0.4315 (Simulation time: 00 hr 43 min 01 sec)
Heartbeat CPU 0 instructions: 199500970 cycles: 361485176 heartbeat IPC: 0.2085 cumulative IPC: 0.4299 (Simulation time: 00 hr 43 min 14 sec)
Heartbeat CPU 0 instructions: 200000971 cycles: 362965322 heartbeat IPC: 0.3378 cumulative IPC: 0.4295 (Simulation time: 00 hr 43 min 22 sec)
Heartbeat CPU 0 instructions: 200500973 cycles: 364454054 heartbeat IPC: 0.3359 cumulative IPC: 0.4291 (Simulation time: 00 hr 43 min 30 sec)
Heartbeat CPU 0 instructions: 201000976 cycles: 364741858 heartbeat IPC: 1.737 cumulative IPC: 0.4302 (Simulation time: 00 hr 43 min 33 sec)
Heartbeat CPU 0 instructions: 201500983 cycles: 364975539 heartbeat IPC: 2.14 cumulative IPC: 0.4314 (Simulation time: 00 hr 43 min 34 sec)
Heartbeat CPU 0 instructions: 202000983 cycles: 365212269 heartbeat IPC: 2.112 cumulative IPC: 0.4325 (Simulation time: 00 hr 43 min 36 sec)
Heartbeat CPU 0 instructions: 202500990 cycles: 365504066 heartbeat IPC: 1.714 cumulative IPC: 0.4336 (Simulation time: 00 hr 43 min 39 sec)
Heartbeat CPU 0 instructions: 203000990 cycles: 365900656 heartbeat IPC: 1.261 cumulative IPC: 0.4345 (Simulation time: 00 hr 43 min 41 sec)
Heartbeat CPU 0 instructions: 203500995 cycles: 366258623 heartbeat IPC: 1.397 cumulative IPC: 0.4355 (Simulation time: 00 hr 43 min 44 sec)
Heartbeat CPU 0 instructions: 204000998 cycles: 366582619 heartbeat IPC: 1.543 cumulative IPC: 0.4365 (Simulation time: 00 hr 43 min 46 sec)
Heartbeat CPU 0 instructions: 204501001 cycles: 366911496 heartbeat IPC: 1.52 cumulative IPC: 0.4375 (Simulation time: 00 hr 43 min 48 sec)
Heartbeat CPU 0 instructions: 205001004 cycles: 368350528 heartbeat IPC: 0.3475 cumulative IPC: 0.4371 (Simulation time: 00 hr 43 min 56 sec)
Heartbeat CPU 0 instructions: 205501004 cycles: 370061665 heartbeat IPC: 0.2922 cumulative IPC: 0.4364 (Simulation time: 00 hr 44 min 05 sec)
Heartbeat CPU 0 instructions: 206001006 cycles: 370712665 heartbeat IPC: 0.7681 cumulative IPC: 0.437 (Simulation time: 00 hr 44 min 09 sec)
Heartbeat CPU 0 instructions: 206501007 cycles: 370957960 heartbeat IPC: 2.038 cumulative IPC: 0.4381 (Simulation time: 00 hr 44 min 11 sec)
Heartbeat CPU 0 instructions: 207001010 cycles: 371220125 heartbeat IPC: 1.907 cumulative IPC: 0.4392 (Simulation time: 00 hr 44 min 13 sec)
Heartbeat CPU 0 instructions: 207501011 cycles: 371945245 heartbeat IPC: 0.6895 cumulative IPC: 0.4397 (Simulation time: 00 hr 44 min 17 sec)
Heartbeat CPU 0 instructions: 208001016 cycles: 373590413 heartbeat IPC: 0.3039 cumulative IPC: 0.4391 (Simulation time: 00 hr 44 min 26 sec)
Heartbeat CPU 0 instructions: 208501018 cycles: 374258532 heartbeat IPC: 0.7484 cumulative IPC: 0.4397 (Simulation time: 00 hr 44 min 31 sec)
Heartbeat CPU 0 instructions: 209001025 cycles: 375268512 heartbeat IPC: 0.4951 cumulative IPC: 0.4398 (Simulation time: 00 hr 44 min 36 sec)
Heartbeat CPU 0 instructions: 209501029 cycles: 376431166 heartbeat IPC: 0.4301 cumulative IPC: 0.4398 (Simulation time: 00 hr 44 min 43 sec)
Heartbeat CPU 0 instructions: 210001035 cycles: 377998450 heartbeat IPC: 0.319 cumulative IPC: 0.4393 (Simulation time: 00 hr 44 min 52 sec)
Heartbeat CPU 0 instructions: 210501038 cycles: 379211275 heartbeat IPC: 0.4123 cumulative IPC: 0.4392 (Simulation time: 00 hr 44 min 58 sec)
Heartbeat CPU 0 instructions: 211001044 cycles: 381393577 heartbeat IPC: 0.2291 cumulative IPC: 0.4379 (Simulation time: 00 hr 45 min 09 sec)
Heartbeat CPU 0 instructions: 211501045 cycles: 383061045 heartbeat IPC: 0.2999 cumulative IPC: 0.4373 (Simulation time: 00 hr 45 min 18 sec)
Heartbeat CPU 0 instructions: 212001048 cycles: 384512802 heartbeat IPC: 0.3444 cumulative IPC: 0.4369 (Simulation time: 00 hr 45 min 26 sec)
Heartbeat CPU 0 instructions: 212501053 cycles: 385756917 heartbeat IPC: 0.4019 cumulative IPC: 0.4368 (Simulation time: 00 hr 45 min 34 sec)
Heartbeat CPU 0 instructions: 213001054 cycles: 386108804 heartbeat IPC: 1.421 cumulative IPC: 0.4378 (Simulation time: 00 hr 45 min 36 sec)
Heartbeat CPU 0 instructions: 213501057 cycles: 387222609 heartbeat IPC: 0.4489 cumulative IPC: 0.4378 (Simulation time: 00 hr 45 min 42 sec)
Heartbeat CPU 0 instructions: 214001058 cycles: 387999771 heartbeat IPC: 0.6434 cumulative IPC: 0.4382 (Simulation time: 00 hr 45 min 47 sec)
Heartbeat CPU 0 instructions: 214501064 cycles: 389267178 heartbeat IPC: 0.3945 cumulative IPC: 0.4381 (Simulation time: 00 hr 45 min 55 sec)
Heartbeat CPU 0 instructions: 215001066 cycles: 390546955 heartbeat IPC: 0.3907 cumulative IPC: 0.4379 (Simulation time: 00 hr 46 min 02 sec)
Heartbeat CPU 0 instructions: 215501070 cycles: 391744471 heartbeat IPC: 0.4175 cumulative IPC: 0.4378 (Simulation time: 00 hr 46 min 09 sec)
Heartbeat CPU 0 instructions: 216001074 cycles: 392271659 heartbeat IPC: 0.9484 cumulative IPC: 0.4386 (Simulation time: 00 hr 46 min 13 sec)
Heartbeat CPU 0 instructions: 216501074 cycles: 392837407 heartbeat IPC: 0.8838 cumulative IPC: 0.4392 (Simulation time: 00 hr 46 min 16 sec)
Heartbeat CPU 0 instructions: 217001075 cycles: 393549334 heartbeat IPC: 0.7023 cumulative IPC: 0.4397 (Simulation time: 00 hr 46 min 21 sec)
Heartbeat CPU 0 instructions: 217501075 cycles: 394321827 heartbeat IPC: 0.6473 cumulative IPC: 0.4401 (Simulation time: 00 hr 46 min 26 sec)
Heartbeat CPU 0 instructions: 218001078 cycles: 396209679 heartbeat IPC: 0.2649 cumulative IPC: 0.4393 (Simulation time: 00 hr 46 min 36 sec)
Heartbeat CPU 0 instructions: 218501078 cycles: 398078676 heartbeat IPC: 0.2675 cumulative IPC: 0.4384 (Simulation time: 00 hr 46 min 46 sec)
Heartbeat CPU 0 instructions: 219001079 cycles: 399233585 heartbeat IPC: 0.4329 cumulative IPC: 0.4384 (Simulation time: 00 hr 46 min 52 sec)
Heartbeat CPU 0 instructions: 219501084 cycles: 400289291 heartbeat IPC: 0.4736 cumulative IPC: 0.4385 (Simulation time: 00 hr 46 min 59 sec)
Heartbeat CPU 0 instructions: 220001084 cycles: 401037887 heartbeat IPC: 0.6679 cumulative IPC: 0.439 (Simulation time: 00 hr 47 min 03 sec)
Heartbeat CPU 0 instructions: 220501084 cycles: 403209801 heartbeat IPC: 0.2302 cumulative IPC: 0.4378 (Simulation time: 00 hr 47 min 14 sec)
Heartbeat CPU 0 instructions: 221001085 cycles: 404567599 heartbeat IPC: 0.3682 cumulative IPC: 0.4376 (Simulation time: 00 hr 47 min 22 sec)
Heartbeat CPU 0 instructions: 221501090 cycles: 405749893 heartbeat IPC: 0.4229 cumulative IPC: 0.4375 (Simulation time: 00 hr 47 min 29 sec)
Heartbeat CPU 0 instructions: 222001090 cycles: 406218351 heartbeat IPC: 1.067 cumulative IPC: 0.4383 (Simulation time: 00 hr 47 min 32 sec)
Heartbeat CPU 0 instructions: 222501090 cycles: 406598452 heartbeat IPC: 1.315 cumulative IPC: 0.4391 (Simulation time: 00 hr 47 min 35 sec)
Heartbeat CPU 0 instructions: 223001094 cycles: 407602389 heartbeat IPC: 0.498 cumulative IPC: 0.4393 (Simulation time: 00 hr 47 min 41 sec)
Heartbeat CPU 0 instructions: 223501094 cycles: 409045833 heartbeat IPC: 0.3464 cumulative IPC: 0.4389 (Simulation time: 00 hr 47 min 49 sec)
Heartbeat CPU 0 instructions: 224001095 cycles: 409665834 heartbeat IPC: 0.8065 cumulative IPC: 0.4395 (Simulation time: 00 hr 47 min 53 sec)
Heartbeat CPU 0 instructions: 224501096 cycles: 411023164 heartbeat IPC: 0.3684 cumulative IPC: 0.4393 (Simulation time: 00 hr 48 min 01 sec)
Heartbeat CPU 0 instructions: 225001100 cycles: 412229326 heartbeat IPC: 0.4145 cumulative IPC: 0.4392 (Simulation time: 00 hr 48 min 08 sec)
Heartbeat CPU 0 instructions: 225501101 cycles: 412560939 heartbeat IPC: 1.508 cumulative IPC: 0.4401 (Simulation time: 00 hr 48 min 10 sec)
Heartbeat CPU 0 instructions: 226001101 cycles: 412844485 heartbeat IPC: 1.763 cumulative IPC: 0.441 (Simulation time: 00 hr 48 min 13 sec)
Heartbeat CPU 0 instructions: 226501103 cycles: 413116914 heartbeat IPC: 1.835 cumulative IPC: 0.442 (Simulation time: 00 hr 48 min 15 sec)
Heartbeat CPU 0 instructions: 227001107 cycles: 413401579 heartbeat IPC: 1.756 cumulative IPC: 0.4429 (Simulation time: 00 hr 48 min 17 sec)
Heartbeat CPU 0 instructions: 227501108 cycles: 413700400 heartbeat IPC: 1.673 cumulative IPC: 0.4438 (Simulation time: 00 hr 48 min 20 sec)
Heartbeat CPU 0 instructions: 228001110 cycles: 414033342 heartbeat IPC: 1.502 cumulative IPC: 0.4447 (Simulation time: 00 hr 48 min 23 sec)
Heartbeat CPU 0 instructions: 228501113 cycles: 414330376 heartbeat IPC: 1.683 cumulative IPC: 0.4456 (Simulation time: 00 hr 48 min 25 sec)
Heartbeat CPU 0 instructions: 229001114 cycles: 414590901 heartbeat IPC: 1.919 cumulative IPC: 0.4466 (Simulation time: 00 hr 48 min 27 sec)
Heartbeat CPU 0 instructions: 229501116 cycles: 414807744 heartbeat IPC: 2.306 cumulative IPC: 0.4476 (Simulation time: 00 hr 48 min 30 sec)
Heartbeat CPU 0 instructions: 230001121 cycles: 415030037 heartbeat IPC: 2.249 cumulative IPC: 0.4486 (Simulation time: 00 hr 48 min 32 sec)
Heartbeat CPU 0 instructions: 230501122 cycles: 416226993 heartbeat IPC: 0.4177 cumulative IPC: 0.4485 (Simulation time: 00 hr 48 min 38 sec)
Heartbeat CPU 0 instructions: 231001122 cycles: 418180433 heartbeat IPC: 0.256 cumulative IPC: 0.4476 (Simulation time: 00 hr 48 min 49 sec)
Heartbeat CPU 0 instructions: 231501122 cycles: 420275453 heartbeat IPC: 0.2387 cumulative IPC: 0.4465 (Simulation time: 00 hr 49 min 00 sec)
Heartbeat CPU 0 instructions: 232001123 cycles: 420758713 heartbeat IPC: 1.035 cumulative IPC: 0.4472 (Simulation time: 00 hr 49 min 03 sec)
Heartbeat CPU 0 instructions: 232501123 cycles: 421486788 heartbeat IPC: 0.6867 cumulative IPC: 0.4476 (Simulation time: 00 hr 49 min 08 sec)
Heartbeat CPU 0 instructions: 233001128 cycles: 422731480 heartbeat IPC: 0.4017 cumulative IPC: 0.4475 (Simulation time: 00 hr 49 min 15 sec)
Heartbeat CPU 0 instructions: 233501130 cycles: 424986953 heartbeat IPC: 0.2217 cumulative IPC: 0.4462 (Simulation time: 00 hr 49 min 26 sec)
Heartbeat CPU 0 instructions: 234001131 cycles: 427051900 heartbeat IPC: 0.2421 cumulative IPC: 0.4452 (Simulation time: 00 hr 49 min 38 sec)
Heartbeat CPU 0 instructions: 234501132 cycles: 427468213 heartbeat IPC: 1.201 cumulative IPC: 0.446 (Simulation time: 00 hr 49 min 41 sec)
Heartbeat CPU 0 instructions: 235001132 cycles: 427910601 heartbeat IPC: 1.13 cumulative IPC: 0.4467 (Simulation time: 00 hr 49 min 44 sec)
Heartbeat CPU 0 instructions: 235501132 cycles: 428517429 heartbeat IPC: 0.824 cumulative IPC: 0.4472 (Simulation time: 00 hr 49 min 48 sec)
Heartbeat CPU 0 instructions: 236001132 cycles: 429511926 heartbeat IPC: 0.5028 cumulative IPC: 0.4474 (Simulation time: 00 hr 49 min 54 sec)
Heartbeat CPU 0 instructions: 236501135 cycles: 430254108 heartbeat IPC: 0.6737 cumulative IPC: 0.4478 (Simulation time: 00 hr 49 min 59 sec)
Heartbeat CPU 0 instructions: 237001137 cycles: 432294344 heartbeat IPC: 0.2451 cumulative IPC: 0.4468 (Simulation time: 00 hr 50 min 10 sec)
Heartbeat CPU 0 instructions: 237501137 cycles: 432580487 heartbeat IPC: 1.747 cumulative IPC: 0.4477 (Simulation time: 00 hr 50 min 13 sec)
Heartbeat CPU 0 instructions: 238001143 cycles: 433547517 heartbeat IPC: 0.5171 cumulative IPC: 0.4478 (Simulation time: 00 hr 50 min 19 sec)
Heartbeat CPU 0 instructions: 238501150 cycles: 434083560 heartbeat IPC: 0.9328 cumulative IPC: 0.4485 (Simulation time: 00 hr 50 min 23 sec)
Heartbeat CPU 0 instructions: 239001153 cycles: 435147493 heartbeat IPC: 0.47 cumulative IPC: 0.4485 (Simulation time: 00 hr 50 min 29 sec)
Heartbeat CPU 0 instructions: 239501158 cycles: 436117522 heartbeat IPC: 0.5155 cumulative IPC: 0.4487 (Simulation time: 00 hr 50 min 35 sec)
Heartbeat CPU 0 instructions: 240001163 cycles: 436742538 heartbeat IPC: 0.8 cumulative IPC: 0.4492 (Simulation time: 00 hr 50 min 39 sec)
Heartbeat CPU 0 instructions: 240501163 cycles: 438632400 heartbeat IPC: 0.2646 cumulative IPC: 0.4484 (Simulation time: 00 hr 50 min 49 sec)
Heartbeat CPU 0 instructions: 241001165 cycles: 439526806 heartbeat IPC: 0.559 cumulative IPC: 0.4486 (Simulation time: 00 hr 50 min 54 sec)
Heartbeat CPU 0 instructions: 241501166 cycles: 440848360 heartbeat IPC: 0.3783 cumulative IPC: 0.4484 (Simulation time: 00 hr 51 min 02 sec)
Heartbeat CPU 0 instructions: 242001167 cycles: 441784067 heartbeat IPC: 0.5344 cumulative IPC: 0.4486 (Simulation time: 00 hr 51 min 07 sec)
Heartbeat CPU 0 instructions: 242501168 cycles: 444010132 heartbeat IPC: 0.2246 cumulative IPC: 0.4474 (Simulation time: 00 hr 51 min 19 sec)
Heartbeat CPU 0 instructions: 243001169 cycles: 445055732 heartbeat IPC: 0.4782 cumulative IPC: 0.4475 (Simulation time: 00 hr 51 min 25 sec)
Heartbeat CPU 0 instructions: 243501176 cycles: 446133226 heartbeat IPC: 0.464 cumulative IPC: 0.4475 (Simulation time: 00 hr 51 min 31 sec)
Heartbeat CPU 0 instructions: 244001176 cycles: 448163172 heartbeat IPC: 0.2463 cumulative IPC: 0.4466 (Simulation time: 00 hr 51 min 42 sec)
Heartbeat CPU 0 instructions: 244501177 cycles: 449307991 heartbeat IPC: 0.4368 cumulative IPC: 0.4466 (Simulation time: 00 hr 51 min 49 sec)
Heartbeat CPU 0 instructions: 245001183 cycles: 450961906 heartbeat IPC: 0.3023 cumulative IPC: 0.446 (Simulation time: 00 hr 51 min 58 sec)
Heartbeat CPU 0 instructions: 245501183 cycles: 452379387 heartbeat IPC: 0.3527 cumulative IPC: 0.4457 (Simulation time: 00 hr 52 min 06 sec)
Heartbeat CPU 0 instructions: 246001189 cycles: 452796912 heartbeat IPC: 1.198 cumulative IPC: 0.4464 (Simulation time: 00 hr 52 min 09 sec)
Heartbeat CPU 0 instructions: 246501189 cycles: 453546770 heartbeat IPC: 0.6668 cumulative IPC: 0.4468 (Simulation time: 00 hr 52 min 14 sec)
Heartbeat CPU 0 instructions: 247001193 cycles: 456071908 heartbeat IPC: 0.198 cumulative IPC: 0.4454 (Simulation time: 00 hr 52 min 26 sec)
Heartbeat CPU 0 instructions: 247501193 cycles: 457066430 heartbeat IPC: 0.5028 cumulative IPC: 0.4455 (Simulation time: 00 hr 52 min 32 sec)
Heartbeat CPU 0 instructions: 248001193 cycles: 458704283 heartbeat IPC: 0.3053 cumulative IPC: 0.445 (Simulation time: 00 hr 52 min 41 sec)
Heartbeat CPU 0 instructions: 248501193 cycles: 460576222 heartbeat IPC: 0.2671 cumulative IPC: 0.4443 (Simulation time: 00 hr 52 min 51 sec)
Heartbeat CPU 0 instructions: 249001197 cycles: 463396462 heartbeat IPC: 0.1773 cumulative IPC: 0.4426 (Simulation time: 00 hr 53 min 06 sec)
Heartbeat CPU 0 instructions: 249501197 cycles: 466495403 heartbeat IPC: 0.1613 cumulative IPC: 0.4407 (Simulation time: 00 hr 53 min 25 sec)
Simulation finished CPU 0 instructions: 200000006 cycles: 455534383 cumulative IPC: 0.439 (Simulation time: 00 hr 53 min 42 sec)
Simulation complete CPU 0 instructions: 200000006 cycles: 455534383 cumulative IPC: 0.439 (Simulation time: 00 hr 53 min 42 sec)

ChampSim completed all CPUs

=== Simulation ===
CPU 0 runs /local-ssd/ben/dpc4-traces/gtraces_v2/merced_0002.champsim.gz

Region of Interest Statistics

CPU 0 cumulative IPC: 0.439 instructions: 200000006 cycles: 455534383
CPU 0 Branch Prediction Accuracy: 90.16% MPKI: 17.1 Average ROB Occupancy at Mispredict: 23.54
Branch type MPKI
BRANCH_DIRECT_JUMP: 1.059
BRANCH_INDIRECT: 0.3061
BRANCH_CONDITIONAL: 13.98
BRANCH_DIRECT_CALL: 0.8745
BRANCH_INDIRECT_CALL: 0.2974
BRANCH_RETURN: 0.5892

cpu0->cpu0_STLB TOTAL        ACCESS:    1758180 HIT:    1232343 MISS:     525837 MSHR_MERGE:          0
cpu0->cpu0_STLB LOAD         ACCESS:    1758180 HIT:    1232343 MISS:     525837 MSHR_MERGE:          0
cpu0->cpu0_STLB RFO          ACCESS:          0 HIT:          0 MISS:          0 MSHR_MERGE:          0
cpu0->cpu0_STLB PREFETCH     ACCESS:          0 HIT:          0 MISS:          0 MSHR_MERGE:          0
cpu0->cpu0_STLB WRITE        ACCESS:          0 HIT:          0 MISS:          0 MSHR_MERGE:          0
cpu0->cpu0_STLB TRANSLATION  ACCESS:          0 HIT:          0 MISS:          0 MSHR_MERGE:          0
cpu0->cpu0_STLB PREFETCH REQUESTED:          0 ISSUED:          0 USEFUL:          0 USELESS:          0
cpu0->cpu0_STLB AVERAGE MISS LATENCY: 277 cycles
cpu0->cpu0_L2C TOTAL        ACCESS:   14536108 HIT:    8683247 MISS:    5852861 MSHR_MERGE:    1537873
cpu0->cpu0_L2C LOAD         ACCESS:    3241996 HIT:    1694573 MISS:    1547423 MSHR_MERGE:      62456
cpu0->cpu0_L2C RFO          ACCESS:     643901 HIT:     238028 MISS:     405873 MSHR_MERGE:       6152
cpu0->cpu0_L2C PREFETCH     ACCESS:    8978152 HIT:    5393825 MISS:    3584327 MSHR_MERGE:    1469265
cpu0->cpu0_L2C WRITE        ACCESS:    1038043 HIT:    1038035 MISS:          8 MSHR_MERGE:          0
cpu0->cpu0_L2C TRANSLATION  ACCESS:     634016 HIT:     318786 MISS:     315230 MSHR_MERGE:          0
cpu0->cpu0_L2C PREFETCH REQUESTED:    7749056 ISSUED:    7487157 USEFUL:     599500 USELESS:    1052631
cpu0->cpu0_L2C AVERAGE MISS LATENCY: 320.7 cycles
cpu0->cpu0_L1I TOTAL        ACCESS:   15699124 HIT:   13700075 MISS:    1999049 MSHR_MERGE:     444463
cpu0->cpu0_L1I LOAD         ACCESS:   15699124 HIT:   13700075 MISS:    1999049 MSHR_MERGE:     444463
cpu0->cpu0_L1I RFO          ACCESS:          0 HIT:          0 MISS:          0 MSHR_MERGE:          0
cpu0->cpu0_L1I PREFETCH     ACCESS:          0 HIT:          0 MISS:          0 MSHR_MERGE:          0
cpu0->cpu0_L1I WRITE        ACCESS:          0 HIT:          0 MISS:          0 MSHR_MERGE:          0
cpu0->cpu0_L1I TRANSLATION  ACCESS:          0 HIT:          0 MISS:          0 MSHR_MERGE:          0
cpu0->cpu0_L1I PREFETCH REQUESTED:          0 ISSUED:          0 USEFUL:          0 USELESS:          0
cpu0->cpu0_L1I AVERAGE MISS LATENCY: 156 cycles
cpu0->cpu0_L1D TOTAL        ACCESS:   53273585 HIT:   46214338 MISS:    7059247 MSHR_MERGE:    2602858
cpu0->cpu0_L1D LOAD         ACCESS:   30842715 HIT:   28505572 MISS:    2337143 MSHR_MERGE:     649713
cpu0->cpu0_L1D RFO          ACCESS:          0 HIT:          0 MISS:          0 MSHR_MERGE:          0
cpu0->cpu0_L1D PREFETCH     ACCESS:    3180706 HIT:    1498949 MISS:    1681757 MSHR_MERGE:     190755
cpu0->cpu0_L1D WRITE        ACCESS:   17828620 HIT:   15429654 MISS:    2398966 MSHR_MERGE:    1755025
cpu0->cpu0_L1D TRANSLATION  ACCESS:    1421544 HIT:     780163 MISS:     641381 MSHR_MERGE:       7365
cpu0->cpu0_L1D PREFETCH REQUESTED:   14116050 ISSUED:    3180706 USEFUL:     753407 USELESS:     737699
cpu0->cpu0_L1D AVERAGE MISS LATENCY: 176.8 cycles
cpu0->cpu0_ITLB TOTAL        ACCESS:   12942260 HIT:   12727705 MISS:     214555 MSHR_MERGE:     106182
cpu0->cpu0_ITLB LOAD         ACCESS:   12942260 HIT:   12727705 MISS:     214555 MSHR_MERGE:     106182
cpu0->cpu0_ITLB RFO          ACCESS:          0 HIT:          0 MISS:          0 MSHR_MERGE:          0
cpu0->cpu0_ITLB PREFETCH     ACCESS:          0 HIT:          0 MISS:          0 MSHR_MERGE:          0
cpu0->cpu0_ITLB WRITE        ACCESS:          0 HIT:          0 MISS:          0 MSHR_MERGE:          0
cpu0->cpu0_ITLB TRANSLATION  ACCESS:          0 HIT:          0 MISS:          0 MSHR_MERGE:          0
cpu0->cpu0_ITLB PREFETCH REQUESTED:          0 ISSUED:          0 USEFUL:          0 USELESS:          0
cpu0->cpu0_ITLB AVERAGE MISS LATENCY: 36.74 cycles
cpu0->cpu0_DTLB TOTAL        ACCESS:   49322770 HIT:   46662433 MISS:    2660337 MSHR_MERGE:    1010530
cpu0->cpu0_DTLB LOAD         ACCESS:   49322770 HIT:   46662433 MISS:    2660337 MSHR_MERGE:    1010530
cpu0->cpu0_DTLB RFO          ACCESS:          0 HIT:          0 MISS:          0 MSHR_MERGE:          0
cpu0->cpu0_DTLB PREFETCH     ACCESS:          0 HIT:          0 MISS:          0 MSHR_MERGE:          0
cpu0->cpu0_DTLB WRITE        ACCESS:          0 HIT:          0 MISS:          0 MSHR_MERGE:          0
cpu0->cpu0_DTLB TRANSLATION  ACCESS:          0 HIT:          0 MISS:          0 MSHR_MERGE:          0
cpu0->cpu0_DTLB PREFETCH REQUESTED:          0 ISSUED:          0 USEFUL:          0 USELESS:          0
cpu0->cpu0_DTLB AVERAGE MISS LATENCY: 91.54 cycles
cpu0->LLC TOTAL        ACCESS:    4982027 HIT:     700560 MISS:    4281467 MSHR_MERGE:          0
cpu0->LLC LOAD         ACCESS:    1484967 HIT:     334959 MISS:    1150008 MSHR_MERGE:          0
cpu0->LLC RFO          ACCESS:     399721 HIT:      18174 MISS:     381547 MSHR_MERGE:          0
cpu0->LLC PREFETCH     ACCESS:    2115061 HIT:     156779 MISS:    1958282 MSHR_MERGE:          0
cpu0->LLC WRITE        ACCESS:     667048 HIT:     130871 MISS:     536177 MSHR_MERGE:          0
cpu0->LLC TRANSLATION  ACCESS:     315230 HIT:      59777 MISS:     255453 MSHR_MERGE:          0
cpu0->LLC PREFETCH REQUESTED:          0 ISSUED:          0 USEFUL:          0 USELESS:          0
cpu0->LLC AVERAGE MISS LATENCY: 284 cycles

DRAM Statistics

Channel 0 RQ ROW_BUFFER_HIT:     170478
  ROW_BUFFER_MISS:    3574737
  AVG DBUS CONGESTED CYCLE: 4.143
Channel 0 WQ ROW_BUFFER_HIT:     130679
  ROW_BUFFER_MISS:     479483
  FULL:         18
Channel 0 REFRESHES ISSUED:      37961
