[VMEM] WARNING: physical memory size is smaller than virtual memory size.

*** ChampSim Multicore Out-of-Order Simulator ***
Warmup Instructions: 50000000
Simulation Instructions: 200000000
Number of CPUs: 1
Page size: 4096
Core 0: /local-ssd/ben/dpc4-traces/gtraces_v2/sierra.a.6_0000.champsim.gz
sBerti (Smart Stride + Berti) Prefetcher Initialized
Off-chip DRAM Size: 64 GiB Channels: 1 Width: 64-bit Data Rate: 800 MT/s
[BTB] WARNING: target of return is a lower address than the corresponding call. This is usually a problem with your trace.
[BTB] WARNING: target of return is a lower address than the corresponding call. This is usually a problem with your trace.
Heartbeat CPU 0 instructions: 500000 cycles: 243783 heartbeat IPC: 2.051 cumulative IPC: 2.051 (Simulation time: 00 hr 00 min 07 sec)
[BTB] WARNING: target of return is a lower address than the corresponding call. This is usually a problem with your trace.
[BTB] WARNING: target of return is a lower address than the corresponding call. This is usually a problem with your trace.
[BTB] WARNING: target of return is a lower address than the corresponding call. This is usually a problem with your trace.
[BTB] WARNING: target of return is a lower address than the corresponding call. This is usually a problem with your trace.
[BTB] WARNING: target of return is a lower address than the corresponding call. This is usually a problem with your trace.
[BTB] WARNING: target of return is a lower address than the corresponding call. This is usually a problem with your trace.
[BTB] WARNING: target of return is a lower address than the corresponding call. This is usually a problem with your trace.
[BTB] WARNING: target of return is a lower address than the corresponding call. This is usually a problem with your trace.
Heartbeat CPU 0 instructions: 1000004 cycles: 455064 heartbeat IPC: 2.367 cumulative IPC: 2.198 (Simulation time: 00 hr 00 min 12 sec)
Heartbeat CPU 0 instructions: 1500007 cycles: 639232 heartbeat IPC: 2.715 cumulative IPC: 2.347 (Simulation time: 00 hr 00 min 17 sec)
Heartbeat CPU 0 instructions: 2000011 cycles: 836405 heartbeat IPC: 2.536 cumulative IPC: 2.391 (Simulation time: 00 hr 00 min 22 sec)
Heartbeat CPU 0 instructions: 2500015 cycles: 1031899 heartbeat IPC: 2.558 cumulative IPC: 2.423 (Simulation time: 00 hr 00 min 27 sec)
Heartbeat CPU 0 instructions: 3000018 cycles: 1206597 heartbeat IPC: 2.862 cumulative IPC: 2.486 (Simulation time: 00 hr 00 min 32 sec)
Heartbeat CPU 0 instructions: 3500018 cycles: 1358713 heartbeat IPC: 3.287 cumulative IPC: 2.576 (Simulation time: 00 hr 00 min 37 sec)
Heartbeat CPU 0 instructions: 4000019 cycles: 1497566 heartbeat IPC: 3.601 cumulative IPC: 2.671 (Simulation time: 00 hr 00 min 41 sec)
Heartbeat CPU 0 instructions: 4500023 cycles: 1627397 heartbeat IPC: 3.851 cumulative IPC: 2.765 (Simulation time: 00 hr 00 min 45 sec)
Heartbeat CPU 0 instructions: 5000030 cycles: 1775814 heartbeat IPC: 3.369 cumulative IPC: 2.816 (Simulation time: 00 hr 00 min 49 sec)
Heartbeat CPU 0 instructions: 5500030 cycles: 1911594 heartbeat IPC: 3.682 cumulative IPC: 2.877 (Simulation time: 00 hr 00 min 52 sec)
Heartbeat CPU 0 instructions: 6000033 cycles: 2041548 heartbeat IPC: 3.848 cumulative IPC: 2.939 (Simulation time: 00 hr 00 min 54 sec)
Heartbeat CPU 0 instructions: 6500039 cycles: 2171582 heartbeat IPC: 3.845 cumulative IPC: 2.993 (Simulation time: 00 hr 00 min 57 sec)
Heartbeat CPU 0 instructions: 7000043 cycles: 2310081 heartbeat IPC: 3.61 cumulative IPC: 3.03 (Simulation time: 00 hr 01 min 00 sec)
Heartbeat CPU 0 instructions: 7500044 cycles: 2474671 heartbeat IPC: 3.038 cumulative IPC: 3.031 (Simulation time: 00 hr 01 min 03 sec)
Heartbeat CPU 0 instructions: 8000047 cycles: 2630975 heartbeat IPC: 3.199 cumulative IPC: 3.041 (Simulation time: 00 hr 01 min 06 sec)
Heartbeat CPU 0 instructions: 8500047 cycles: 2750503 heartbeat IPC: 4.183 cumulative IPC: 3.09 (Simulation time: 00 hr 01 min 09 sec)
Heartbeat CPU 0 instructions: 9000049 cycles: 2875813 heartbeat IPC: 3.99 cumulative IPC: 3.13 (Simulation time: 00 hr 01 min 11 sec)
Heartbeat CPU 0 instructions: 9500051 cycles: 2994875 heartbeat IPC: 4.2 cumulative IPC: 3.172 (Simulation time: 00 hr 01 min 13 sec)
Heartbeat CPU 0 instructions: 10000058 cycles: 3128644 heartbeat IPC: 3.738 cumulative IPC: 3.196 (Simulation time: 00 hr 01 min 16 sec)
Heartbeat CPU 0 instructions: 10500064 cycles: 3258534 heartbeat IPC: 3.849 cumulative IPC: 3.222 (Simulation time: 00 hr 01 min 19 sec)
Heartbeat CPU 0 instructions: 11000070 cycles: 3388891 heartbeat IPC: 3.836 cumulative IPC: 3.246 (Simulation time: 00 hr 01 min 22 sec)
Heartbeat CPU 0 instructions: 11500071 cycles: 3511614 heartbeat IPC: 4.074 cumulative IPC: 3.275 (Simulation time: 00 hr 01 min 24 sec)
Heartbeat CPU 0 instructions: 12000071 cycles: 3635748 heartbeat IPC: 4.028 cumulative IPC: 3.301 (Simulation time: 00 hr 01 min 27 sec)
Heartbeat CPU 0 instructions: 12500076 cycles: 3770952 heartbeat IPC: 3.698 cumulative IPC: 3.315 (Simulation time: 00 hr 01 min 30 sec)
Heartbeat CPU 0 instructions: 13000082 cycles: 3898932 heartbeat IPC: 3.907 cumulative IPC: 3.334 (Simulation time: 00 hr 01 min 33 sec)
Heartbeat CPU 0 instructions: 13500085 cycles: 4020463 heartbeat IPC: 4.114 cumulative IPC: 3.358 (Simulation time: 00 hr 01 min 35 sec)
Heartbeat CPU 0 instructions: 14000087 cycles: 4143318 heartbeat IPC: 4.07 cumulative IPC: 3.379 (Simulation time: 00 hr 01 min 38 sec)
Heartbeat CPU 0 instructions: 14500087 cycles: 4265656 heartbeat IPC: 4.087 cumulative IPC: 3.399 (Simulation time: 00 hr 01 min 40 sec)
Heartbeat CPU 0 instructions: 15000087 cycles: 4386433 heartbeat IPC: 4.14 cumulative IPC: 3.42 (Simulation time: 00 hr 01 min 43 sec)
Heartbeat CPU 0 instructions: 15500093 cycles: 4524367 heartbeat IPC: 3.625 cumulative IPC: 3.426 (Simulation time: 00 hr 01 min 46 sec)
Heartbeat CPU 0 instructions: 16000093 cycles: 4666625 heartbeat IPC: 3.515 cumulative IPC: 3.429 (Simulation time: 00 hr 01 min 49 sec)
Heartbeat CPU 0 instructions: 16500098 cycles: 4855807 heartbeat IPC: 2.643 cumulative IPC: 3.398 (Simulation time: 00 hr 01 min 52 sec)
Heartbeat CPU 0 instructions: 17000102 cycles: 4986289 heartbeat IPC: 3.832 cumulative IPC: 3.409 (Simulation time: 00 hr 01 min 55 sec)
Heartbeat CPU 0 instructions: 17500103 cycles: 5114885 heartbeat IPC: 3.888 cumulative IPC: 3.421 (Simulation time: 00 hr 01 min 58 sec)
Heartbeat CPU 0 instructions: 18000103 cycles: 5241927 heartbeat IPC: 3.936 cumulative IPC: 3.434 (Simulation time: 00 hr 02 min 00 sec)
Heartbeat CPU 0 instructions: 18500104 cycles: 5420389 heartbeat IPC: 2.802 cumulative IPC: 3.413 (Simulation time: 00 hr 02 min 04 sec)
Heartbeat CPU 0 instructions: 19000105 cycles: 5571761 heartbeat IPC: 3.303 cumulative IPC: 3.41 (Simulation time: 00 hr 02 min 07 sec)
Heartbeat CPU 0 instructions: 19500112 cycles: 5719319 heartbeat IPC: 3.389 cumulative IPC: 3.41 (Simulation time: 00 hr 02 min 10 sec)
Heartbeat CPU 0 instructions: 20000119 cycles: 5893236 heartbeat IPC: 2.875 cumulative IPC: 3.394 (Simulation time: 00 hr 02 min 13 sec)
Heartbeat CPU 0 instructions: 20500122 cycles: 6073851 heartbeat IPC: 2.768 cumulative IPC: 3.375 (Simulation time: 00 hr 02 min 16 sec)
Heartbeat CPU 0 instructions: 21000124 cycles: 6244353 heartbeat IPC: 2.933 cumulative IPC: 3.363 (Simulation time: 00 hr 02 min 19 sec)
Heartbeat CPU 0 instructions: 21500127 cycles: 6401230 heartbeat IPC: 3.187 cumulative IPC: 3.359 (Simulation time: 00 hr 02 min 22 sec)
Heartbeat CPU 0 instructions: 22000132 cycles: 6552233 heartbeat IPC: 3.311 cumulative IPC: 3.358 (Simulation time: 00 hr 02 min 25 sec)
Heartbeat CPU 0 instructions: 22500138 cycles: 6695940 heartbeat IPC: 3.479 cumulative IPC: 3.36 (Simulation time: 00 hr 02 min 28 sec)
Heartbeat CPU 0 instructions: 23000138 cycles: 6832097 heartbeat IPC: 3.672 cumulative IPC: 3.366 (Simulation time: 00 hr 02 min 31 sec)
Heartbeat CPU 0 instructions: 23500145 cycles: 6988869 heartbeat IPC: 3.189 cumulative IPC: 3.363 (Simulation time: 00 hr 02 min 34 sec)
Heartbeat CPU 0 instructions: 24000148 cycles: 7137151 heartbeat IPC: 3.372 cumulative IPC: 3.363 (Simulation time: 00 hr 02 min 37 sec)
Heartbeat CPU 0 instructions: 24500151 cycles: 7281185 heartbeat IPC: 3.471 cumulative IPC: 3.365 (Simulation time: 00 hr 02 min 39 sec)
Heartbeat CPU 0 instructions: 25000153 cycles: 7428824 heartbeat IPC: 3.387 cumulative IPC: 3.365 (Simulation time: 00 hr 02 min 42 sec)
Heartbeat CPU 0 instructions: 25500159 cycles: 7572608 heartbeat IPC: 3.477 cumulative IPC: 3.367 (Simulation time: 00 hr 02 min 45 sec)
Heartbeat CPU 0 instructions: 26000161 cycles: 7713117 heartbeat IPC: 3.559 cumulative IPC: 3.371 (Simulation time: 00 hr 02 min 48 sec)
Heartbeat CPU 0 instructions: 26500167 cycles: 7859617 heartbeat IPC: 3.413 cumulative IPC: 3.372 (Simulation time: 00 hr 02 min 50 sec)
Heartbeat CPU 0 instructions: 27000168 cycles: 8017341 heartbeat IPC: 3.17 cumulative IPC: 3.368 (Simulation time: 00 hr 02 min 53 sec)
Heartbeat CPU 0 instructions: 27500169 cycles: 8154528 heartbeat IPC: 3.645 cumulative IPC: 3.372 (Simulation time: 00 hr 02 min 56 sec)
Heartbeat CPU 0 instructions: 28000171 cycles: 8296351 heartbeat IPC: 3.526 cumulative IPC: 3.375 (Simulation time: 00 hr 02 min 59 sec)
Heartbeat CPU 0 instructions: 28500174 cycles: 8435875 heartbeat IPC: 3.584 cumulative IPC: 3.378 (Simulation time: 00 hr 03 min 02 sec)
Heartbeat CPU 0 instructions: 29000175 cycles: 8563577 heartbeat IPC: 3.915 cumulative IPC: 3.386 (Simulation time: 00 hr 03 min 04 sec)
Heartbeat CPU 0 instructions: 29500177 cycles: 8714322 heartbeat IPC: 3.317 cumulative IPC: 3.385 (Simulation time: 00 hr 03 min 07 sec)
Heartbeat CPU 0 instructions: 30000180 cycles: 8854524 heartbeat IPC: 3.566 cumulative IPC: 3.388 (Simulation time: 00 hr 03 min 10 sec)
Heartbeat CPU 0 instructions: 30500182 cycles: 8985859 heartbeat IPC: 3.807 cumulative IPC: 3.394 (Simulation time: 00 hr 03 min 13 sec)
Heartbeat CPU 0 instructions: 31000189 cycles: 9108574 heartbeat IPC: 4.075 cumulative IPC: 3.403 (Simulation time: 00 hr 03 min 15 sec)
Heartbeat CPU 0 instructions: 31500192 cycles: 9253107 heartbeat IPC: 3.459 cumulative IPC: 3.404 (Simulation time: 00 hr 03 min 18 sec)
Heartbeat CPU 0 instructions: 32000195 cycles: 9388510 heartbeat IPC: 3.693 cumulative IPC: 3.408 (Simulation time: 00 hr 03 min 21 sec)
Heartbeat CPU 0 instructions: 32500198 cycles: 9520919 heartbeat IPC: 3.776 cumulative IPC: 3.414 (Simulation time: 00 hr 03 min 23 sec)
Heartbeat CPU 0 instructions: 33000198 cycles: 9659449 heartbeat IPC: 3.609 cumulative IPC: 3.416 (Simulation time: 00 hr 03 min 26 sec)
Heartbeat CPU 0 instructions: 33500199 cycles: 9796321 heartbeat IPC: 3.653 cumulative IPC: 3.42 (Simulation time: 00 hr 03 min 29 sec)
Heartbeat CPU 0 instructions: 34000200 cycles: 9930946 heartbeat IPC: 3.714 cumulative IPC: 3.424 (Simulation time: 00 hr 03 min 32 sec)
Heartbeat CPU 0 instructions: 34500206 cycles: 10059069 heartbeat IPC: 3.903 cumulative IPC: 3.43 (Simulation time: 00 hr 03 min 34 sec)
Heartbeat CPU 0 instructions: 35000206 cycles: 10188836 heartbeat IPC: 3.853 cumulative IPC: 3.435 (Simulation time: 00 hr 03 min 37 sec)
Heartbeat CPU 0 instructions: 35500211 cycles: 10310400 heartbeat IPC: 4.113 cumulative IPC: 3.443 (Simulation time: 00 hr 03 min 39 sec)
Heartbeat CPU 0 instructions: 36000213 cycles: 10444031 heartbeat IPC: 3.742 cumulative IPC: 3.447 (Simulation time: 00 hr 03 min 42 sec)
Heartbeat CPU 0 instructions: 36500215 cycles: 10571194 heartbeat IPC: 3.932 cumulative IPC: 3.453 (Simulation time: 00 hr 03 min 45 sec)
Heartbeat CPU 0 instructions: 37000216 cycles: 10699705 heartbeat IPC: 3.891 cumulative IPC: 3.458 (Simulation time: 00 hr 03 min 48 sec)
Heartbeat CPU 0 instructions: 37500219 cycles: 10823501 heartbeat IPC: 4.039 cumulative IPC: 3.465 (Simulation time: 00 hr 03 min 50 sec)
Heartbeat CPU 0 instructions: 38000223 cycles: 10952393 heartbeat IPC: 3.879 cumulative IPC: 3.47 (Simulation time: 00 hr 03 min 53 sec)
Heartbeat CPU 0 instructions: 38500223 cycles: 11089071 heartbeat IPC: 3.658 cumulative IPC: 3.472 (Simulation time: 00 hr 03 min 55 sec)
Heartbeat CPU 0 instructions: 39000226 cycles: 11213357 heartbeat IPC: 4.023 cumulative IPC: 3.478 (Simulation time: 00 hr 03 min 58 sec)
Heartbeat CPU 0 instructions: 39500227 cycles: 11343254 heartbeat IPC: 3.849 cumulative IPC: 3.482 (Simulation time: 00 hr 04 min 00 sec)
Heartbeat CPU 0 instructions: 40000230 cycles: 11476174 heartbeat IPC: 3.762 cumulative IPC: 3.486 (Simulation time: 00 hr 04 min 03 sec)
Heartbeat CPU 0 instructions: 40500235 cycles: 11589746 heartbeat IPC: 4.403 cumulative IPC: 3.494 (Simulation time: 00 hr 04 min 05 sec)
Heartbeat CPU 0 instructions: 41000239 cycles: 11716244 heartbeat IPC: 3.953 cumulative IPC: 3.499 (Simulation time: 00 hr 04 min 07 sec)
Heartbeat CPU 0 instructions: 41500244 cycles: 11841843 heartbeat IPC: 3.981 cumulative IPC: 3.505 (Simulation time: 00 hr 04 min 10 sec)
Heartbeat CPU 0 instructions: 42000251 cycles: 11969886 heartbeat IPC: 3.905 cumulative IPC: 3.509 (Simulation time: 00 hr 04 min 12 sec)
Heartbeat CPU 0 instructions: 42500255 cycles: 12101277 heartbeat IPC: 3.805 cumulative IPC: 3.512 (Simulation time: 00 hr 04 min 15 sec)
Heartbeat CPU 0 instructions: 43000260 cycles: 12230661 heartbeat IPC: 3.865 cumulative IPC: 3.516 (Simulation time: 00 hr 04 min 18 sec)
Heartbeat CPU 0 instructions: 43500265 cycles: 12362753 heartbeat IPC: 3.785 cumulative IPC: 3.519 (Simulation time: 00 hr 04 min 21 sec)
Heartbeat CPU 0 instructions: 44000271 cycles: 12501158 heartbeat IPC: 3.613 cumulative IPC: 3.52 (Simulation time: 00 hr 04 min 23 sec)
Heartbeat CPU 0 instructions: 44500276 cycles: 12642002 heartbeat IPC: 3.55 cumulative IPC: 3.52 (Simulation time: 00 hr 04 min 26 sec)
Heartbeat CPU 0 instructions: 45000280 cycles: 12792304 heartbeat IPC: 3.327 cumulative IPC: 3.518 (Simulation time: 00 hr 04 min 29 sec)
Heartbeat CPU 0 instructions: 45500281 cycles: 12928244 heartbeat IPC: 3.678 cumulative IPC: 3.519 (Simulation time: 00 hr 04 min 32 sec)
Heartbeat CPU 0 instructions: 46000283 cycles: 13056442 heartbeat IPC: 3.9 cumulative IPC: 3.523 (Simulation time: 00 hr 04 min 34 sec)
Heartbeat CPU 0 instructions: 46500285 cycles: 13202348 heartbeat IPC: 3.427 cumulative IPC: 3.522 (Simulation time: 00 hr 04 min 37 sec)
Heartbeat CPU 0 instructions: 47000286 cycles: 13336901 heartbeat IPC: 3.716 cumulative IPC: 3.524 (Simulation time: 00 hr 04 min 40 sec)
Heartbeat CPU 0 instructions: 47500286 cycles: 13474531 heartbeat IPC: 3.633 cumulative IPC: 3.525 (Simulation time: 00 hr 04 min 43 sec)
Heartbeat CPU 0 instructions: 48000293 cycles: 13581507 heartbeat IPC: 4.674 cumulative IPC: 3.534 (Simulation time: 00 hr 04 min 45 sec)
Heartbeat CPU 0 instructions: 48500297 cycles: 13689777 heartbeat IPC: 4.618 cumulative IPC: 3.543 (Simulation time: 00 hr 04 min 46 sec)
Heartbeat CPU 0 instructions: 49000299 cycles: 13796089 heartbeat IPC: 4.703 cumulative IPC: 3.552 (Simulation time: 00 hr 04 min 48 sec)
Heartbeat CPU 0 instructions: 49500299 cycles: 13903534 heartbeat IPC: 4.654 cumulative IPC: 3.56 (Simulation time: 00 hr 04 min 50 sec)
Warmup halting CPU 0 at instruction 50000002 cycle 14014573 for remainder of phase
Warmup finished CPU 0 instructions: 50000002 cycles: 14014573 cumulative IPC: 3.568 (Simulation time: 00 hr 04 min 52 sec)
Warmup complete CPU 0 instructions: 50000002 cycles: 14014573 cumulative IPC: 3.568 (Simulation time: 00 hr 04 min 52 sec)
Heartbeat CPU 0 instructions: 50000301 cycles: 14014614 heartbeat IPC: 4.501 cumulative IPC: 7.293 (Simulation time: 00 hr 04 min 52 sec)
Heartbeat CPU 0 instructions: 50500307 cycles: 15896511 heartbeat IPC: 0.2657 cumulative IPC: 0.2658 (Simulation time: 00 hr 05 min 05 sec)
Heartbeat CPU 0 instructions: 51000313 cycles: 17719021 heartbeat IPC: 0.2744 cumulative IPC: 0.27 (Simulation time: 00 hr 05 min 18 sec)
Heartbeat CPU 0 instructions: 51500314 cycles: 18989713 heartbeat IPC: 0.3935 cumulative IPC: 0.3016 (Simulation time: 00 hr 05 min 26 sec)
Heartbeat CPU 0 instructions: 52000314 cycles: 20153923 heartbeat IPC: 0.4295 cumulative IPC: 0.3258 (Simulation time: 00 hr 05 min 35 sec)
Heartbeat CPU 0 instructions: 52500315 cycles: 21127861 heartbeat IPC: 0.5134 cumulative IPC: 0.3515 (Simulation time: 00 hr 05 min 43 sec)
Heartbeat CPU 0 instructions: 53000315 cycles: 22566697 heartbeat IPC: 0.3475 cumulative IPC: 0.3508 (Simulation time: 00 hr 05 min 53 sec)
Heartbeat CPU 0 instructions: 53500317 cycles: 22939456 heartbeat IPC: 1.341 cumulative IPC: 0.3922 (Simulation time: 00 hr 05 min 56 sec)
Heartbeat CPU 0 instructions: 54000324 cycles: 23293866 heartbeat IPC: 1.411 cumulative IPC: 0.4311 (Simulation time: 00 hr 06 min 00 sec)
Heartbeat CPU 0 instructions: 54500324 cycles: 23646053 heartbeat IPC: 1.42 cumulative IPC: 0.4673 (Simulation time: 00 hr 06 min 03 sec)
Heartbeat CPU 0 instructions: 55000324 cycles: 24010345 heartbeat IPC: 1.373 cumulative IPC: 0.5002 (Simulation time: 00 hr 06 min 07 sec)
Heartbeat CPU 0 instructions: 55500325 cycles: 25080165 heartbeat IPC: 0.4674 cumulative IPC: 0.4971 (Simulation time: 00 hr 06 min 14 sec)
Heartbeat CPU 0 instructions: 56000329 cycles: 26910098 heartbeat IPC: 0.2732 cumulative IPC: 0.4653 (Simulation time: 00 hr 06 min 27 sec)
Heartbeat CPU 0 instructions: 56500332 cycles: 28353185 heartbeat IPC: 0.3465 cumulative IPC: 0.4533 (Simulation time: 00 hr 06 min 37 sec)
Heartbeat CPU 0 instructions: 57000334 cycles: 29762867 heartbeat IPC: 0.3547 cumulative IPC: 0.4445 (Simulation time: 00 hr 06 min 47 sec)
Heartbeat CPU 0 instructions: 57500335 cycles: 31211529 heartbeat IPC: 0.3451 cumulative IPC: 0.4361 (Simulation time: 00 hr 06 min 57 sec)
Heartbeat CPU 0 instructions: 58000335 cycles: 33124787 heartbeat IPC: 0.2613 cumulative IPC: 0.4186 (Simulation time: 00 hr 07 min 10 sec)
Heartbeat CPU 0 instructions: 58500336 cycles: 34851352 heartbeat IPC: 0.2896 cumulative IPC: 0.4079 (Simulation time: 00 hr 07 min 23 sec)
Heartbeat CPU 0 instructions: 59000336 cycles: 36224044 heartbeat IPC: 0.3642 cumulative IPC: 0.4052 (Simulation time: 00 hr 07 min 33 sec)
Heartbeat CPU 0 instructions: 59500341 cycles: 37704366 heartbeat IPC: 0.3378 cumulative IPC: 0.401 (Simulation time: 00 hr 07 min 43 sec)
Heartbeat CPU 0 instructions: 60000347 cycles: 39043515 heartbeat IPC: 0.3734 cumulative IPC: 0.3996 (Simulation time: 00 hr 07 min 52 sec)
Heartbeat CPU 0 instructions: 60500347 cycles: 40502939 heartbeat IPC: 0.3426 cumulative IPC: 0.3964 (Simulation time: 00 hr 08 min 03 sec)
Heartbeat CPU 0 instructions: 61000350 cycles: 41527746 heartbeat IPC: 0.4879 cumulative IPC: 0.3998 (Simulation time: 00 hr 08 min 11 sec)
Heartbeat CPU 0 instructions: 61500350 cycles: 42629015 heartbeat IPC: 0.454 cumulative IPC: 0.4019 (Simulation time: 00 hr 08 min 19 sec)
Heartbeat CPU 0 instructions: 62000351 cycles: 44191403 heartbeat IPC: 0.32 cumulative IPC: 0.3977 (Simulation time: 00 hr 08 min 30 sec)
Heartbeat CPU 0 instructions: 62500354 cycles: 45505780 heartbeat IPC: 0.3804 cumulative IPC: 0.3969 (Simulation time: 00 hr 08 min 40 sec)
Heartbeat CPU 0 instructions: 63000354 cycles: 46552454 heartbeat IPC: 0.4777 cumulative IPC: 0.3995 (Simulation time: 00 hr 08 min 48 sec)
Heartbeat CPU 0 instructions: 63500354 cycles: 48280658 heartbeat IPC: 0.2893 cumulative IPC: 0.394 (Simulation time: 00 hr 09 min 00 sec)
Heartbeat CPU 0 instructions: 64000354 cycles: 49694540 heartbeat IPC: 0.3536 cumulative IPC: 0.3924 (Simulation time: 00 hr 09 min 10 sec)
Heartbeat CPU 0 instructions: 64500354 cycles: 51191503 heartbeat IPC: 0.334 cumulative IPC: 0.39 (Simulation time: 00 hr 09 min 20 sec)
Heartbeat CPU 0 instructions: 65000358 cycles: 52264263 heartbeat IPC: 0.4661 cumulative IPC: 0.3922 (Simulation time: 00 hr 09 min 28 sec)
Heartbeat CPU 0 instructions: 65500362 cycles: 53850775 heartbeat IPC: 0.3152 cumulative IPC: 0.3891 (Simulation time: 00 hr 09 min 40 sec)
Heartbeat CPU 0 instructions: 66000363 cycles: 55495750 heartbeat IPC: 0.304 cumulative IPC: 0.3857 (Simulation time: 00 hr 09 min 51 sec)
Heartbeat CPU 0 instructions: 66500363 cycles: 56924696 heartbeat IPC: 0.3499 cumulative IPC: 0.3845 (Simulation time: 00 hr 10 min 02 sec)
Heartbeat CPU 0 instructions: 67000363 cycles: 57994870 heartbeat IPC: 0.4672 cumulative IPC: 0.3865 (Simulation time: 00 hr 10 min 10 sec)
Heartbeat CPU 0 instructions: 67500364 cycles: 59132736 heartbeat IPC: 0.4394 cumulative IPC: 0.3879 (Simulation time: 00 hr 10 min 18 sec)
Heartbeat CPU 0 instructions: 68000370 cycles: 60059743 heartbeat IPC: 0.5394 cumulative IPC: 0.3909 (Simulation time: 00 hr 10 min 25 sec)
Heartbeat CPU 0 instructions: 68500371 cycles: 62509297 heartbeat IPC: 0.2041 cumulative IPC: 0.3815 (Simulation time: 00 hr 10 min 41 sec)
Heartbeat CPU 0 instructions: 69000372 cycles: 63581872 heartbeat IPC: 0.4662 cumulative IPC: 0.3833 (Simulation time: 00 hr 10 min 49 sec)
Heartbeat CPU 0 instructions: 69500372 cycles: 64681938 heartbeat IPC: 0.4545 cumulative IPC: 0.3849 (Simulation time: 00 hr 10 min 57 sec)
Heartbeat CPU 0 instructions: 70000373 cycles: 65624331 heartbeat IPC: 0.5306 cumulative IPC: 0.3875 (Simulation time: 00 hr 11 min 04 sec)
Heartbeat CPU 0 instructions: 70500380 cycles: 66815708 heartbeat IPC: 0.4197 cumulative IPC: 0.3883 (Simulation time: 00 hr 11 min 13 sec)
Heartbeat CPU 0 instructions: 71000382 cycles: 68278904 heartbeat IPC: 0.3417 cumulative IPC: 0.387 (Simulation time: 00 hr 11 min 22 sec)
Heartbeat CPU 0 instructions: 71500387 cycles: 69300484 heartbeat IPC: 0.4894 cumulative IPC: 0.3889 (Simulation time: 00 hr 11 min 30 sec)
Heartbeat CPU 0 instructions: 72000388 cycles: 70095134 heartbeat IPC: 0.6292 cumulative IPC: 0.3923 (Simulation time: 00 hr 11 min 36 sec)
Heartbeat CPU 0 instructions: 72500394 cycles: 70494628 heartbeat IPC: 1.252 cumulative IPC: 0.3984 (Simulation time: 00 hr 11 min 40 sec)
Heartbeat CPU 0 instructions: 73000394 cycles: 70858292 heartbeat IPC: 1.375 cumulative IPC: 0.4046 (Simulation time: 00 hr 11 min 43 sec)
Heartbeat CPU 0 instructions: 73500396 cycles: 71216565 heartbeat IPC: 1.396 cumulative IPC: 0.4108 (Simulation time: 00 hr 11 min 47 sec)
Heartbeat CPU 0 instructions: 74000401 cycles: 72671112 heartbeat IPC: 0.3438 cumulative IPC: 0.4092 (Simulation time: 00 hr 11 min 56 sec)
Heartbeat CPU 0 instructions: 74500401 cycles: 75099562 heartbeat IPC: 0.2059 cumulative IPC: 0.4011 (Simulation time: 00 hr 12 min 13 sec)
Heartbeat CPU 0 instructions: 75000403 cycles: 77959811 heartbeat IPC: 0.1748 cumulative IPC: 0.391 (Simulation time: 00 hr 12 min 31 sec)
Heartbeat CPU 0 instructions: 75500409 cycles: 79268347 heartbeat IPC: 0.3821 cumulative IPC: 0.3908 (Simulation time: 00 hr 12 min 40 sec)
Heartbeat CPU 0 instructions: 76000410 cycles: 80795842 heartbeat IPC: 0.3273 cumulative IPC: 0.3893 (Simulation time: 00 hr 12 min 51 sec)
Heartbeat CPU 0 instructions: 76500412 cycles: 82430383 heartbeat IPC: 0.3059 cumulative IPC: 0.3873 (Simulation time: 00 hr 13 min 02 sec)
Heartbeat CPU 0 instructions: 77000412 cycles: 84388264 heartbeat IPC: 0.2554 cumulative IPC: 0.3837 (Simulation time: 00 hr 13 min 16 sec)
Heartbeat CPU 0 instructions: 77500417 cycles: 86270700 heartbeat IPC: 0.2656 cumulative IPC: 0.3806 (Simulation time: 00 hr 13 min 28 sec)
Heartbeat CPU 0 instructions: 78000418 cycles: 87302989 heartbeat IPC: 0.4844 cumulative IPC: 0.3821 (Simulation time: 00 hr 13 min 36 sec)
Heartbeat CPU 0 instructions: 78500418 cycles: 88427240 heartbeat IPC: 0.4447 cumulative IPC: 0.383 (Simulation time: 00 hr 13 min 44 sec)
Heartbeat CPU 0 instructions: 79000419 cycles: 90103866 heartbeat IPC: 0.2982 cumulative IPC: 0.3811 (Simulation time: 00 hr 13 min 56 sec)
Heartbeat CPU 0 instructions: 79500420 cycles: 91703553 heartbeat IPC: 0.3126 cumulative IPC: 0.3797 (Simulation time: 00 hr 14 min 07 sec)
Heartbeat CPU 0 instructions: 80000422 cycles: 93378611 heartbeat IPC: 0.2985 cumulative IPC: 0.378 (Simulation time: 00 hr 14 min 18 sec)
Heartbeat CPU 0 instructions: 80500426 cycles: 94539181 heartbeat IPC: 0.4308 cumulative IPC: 0.3788 (Simulation time: 00 hr 14 min 26 sec)
Heartbeat CPU 0 instructions: 81000428 cycles: 95596207 heartbeat IPC: 0.473 cumulative IPC: 0.38 (Simulation time: 00 hr 14 min 34 sec)
Heartbeat CPU 0 instructions: 81500428 cycles: 96970064 heartbeat IPC: 0.3639 cumulative IPC: 0.3797 (Simulation time: 00 hr 14 min 43 sec)
Heartbeat CPU 0 instructions: 82000428 cycles: 98289191 heartbeat IPC: 0.379 cumulative IPC: 0.3797 (Simulation time: 00 hr 14 min 53 sec)
Heartbeat CPU 0 instructions: 82500429 cycles: 99440467 heartbeat IPC: 0.4343 cumulative IPC: 0.3805 (Simulation time: 00 hr 15 min 01 sec)
Heartbeat CPU 0 instructions: 83000429 cycles: 100858516 heartbeat IPC: 0.3526 cumulative IPC: 0.38 (Simulation time: 00 hr 15 min 09 sec)
Heartbeat CPU 0 instructions: 83500429 cycles: 102463903 heartbeat IPC: 0.3115 cumulative IPC: 0.3788 (Simulation time: 00 hr 15 min 20 sec)
Heartbeat CPU 0 instructions: 84000432 cycles: 103626659 heartbeat IPC: 0.43 cumulative IPC: 0.3794 (Simulation time: 00 hr 15 min 28 sec)
Heartbeat CPU 0 instructions: 84500432 cycles: 104830377 heartbeat IPC: 0.4154 cumulative IPC: 0.3799 (Simulation time: 00 hr 15 min 36 sec)
Heartbeat CPU 0 instructions: 85000433 cycles: 105837662 heartbeat IPC: 0.4964 cumulative IPC: 0.3812 (Simulation time: 00 hr 15 min 43 sec)
Heartbeat CPU 0 instructions: 85500440 cycles: 106701070 heartbeat IPC: 0.5791 cumulative IPC: 0.383 (Simulation time: 00 hr 15 min 49 sec)
Heartbeat CPU 0 instructions: 86000441 cycles: 108518341 heartbeat IPC: 0.2751 cumulative IPC: 0.3809 (Simulation time: 00 hr 16 min 01 sec)
Heartbeat CPU 0 instructions: 86500441 cycles: 109409312 heartbeat IPC: 0.5612 cumulative IPC: 0.3826 (Simulation time: 00 hr 16 min 07 sec)
Heartbeat CPU 0 instructions: 87000442 cycles: 109755974 heartbeat IPC: 1.442 cumulative IPC: 0.3865 (Simulation time: 00 hr 16 min 10 sec)
Heartbeat CPU 0 instructions: 87500443 cycles: 110087965 heartbeat IPC: 1.506 cumulative IPC: 0.3903 (Simulation time: 00 hr 16 min 13 sec)
Heartbeat CPU 0 instructions: 88000443 cycles: 110417092 heartbeat IPC: 1.519 cumulative IPC: 0.3942 (Simulation time: 00 hr 16 min 17 sec)
Heartbeat CPU 0 instructions: 88500444 cycles: 110748747 heartbeat IPC: 1.508 cumulative IPC: 0.398 (Simulation time: 00 hr 16 min 20 sec)
Heartbeat CPU 0 instructions: 89000446 cycles: 111054176 heartbeat IPC: 1.637 cumulative IPC: 0.4019 (Simulation time: 00 hr 16 min 23 sec)
Heartbeat CPU 0 instructions: 89500450 cycles: 111353512 heartbeat IPC: 1.67 cumulative IPC: 0.4058 (Simulation time: 00 hr 16 min 25 sec)
Heartbeat CPU 0 instructions: 90000450 cycles: 113065713 heartbeat IPC: 0.292 cumulative IPC: 0.4038 (Simulation time: 00 hr 16 min 36 sec)
Heartbeat CPU 0 instructions: 90500456 cycles: 114601956 heartbeat IPC: 0.3255 cumulative IPC: 0.4026 (Simulation time: 00 hr 16 min 47 sec)
Heartbeat CPU 0 instructions: 91000457 cycles: 115711295 heartbeat IPC: 0.4507 cumulative IPC: 0.4032 (Simulation time: 00 hr 16 min 55 sec)
Heartbeat CPU 0 instructions: 91500460 cycles: 116974539 heartbeat IPC: 0.3958 cumulative IPC: 0.4031 (Simulation time: 00 hr 17 min 04 sec)
Heartbeat CPU 0 instructions: 92000461 cycles: 118900136 heartbeat IPC: 0.2597 cumulative IPC: 0.4004 (Simulation time: 00 hr 17 min 16 sec)
Heartbeat CPU 0 instructions: 92500466 cycles: 120003064 heartbeat IPC: 0.4533 cumulative IPC: 0.401 (Simulation time: 00 hr 17 min 23 sec)
Heartbeat CPU 0 instructions: 93000473 cycles: 121286203 heartbeat IPC: 0.3897 cumulative IPC: 0.4009 (Simulation time: 00 hr 17 min 32 sec)
Heartbeat CPU 0 instructions: 93500474 cycles: 122419307 heartbeat IPC: 0.4413 cumulative IPC: 0.4013 (Simulation time: 00 hr 17 min 40 sec)
Heartbeat CPU 0 instructions: 94000480 cycles: 123800827 heartbeat IPC: 0.3619 cumulative IPC: 0.4008 (Simulation time: 00 hr 17 min 49 sec)
Heartbeat CPU 0 instructions: 94500480 cycles: 125302501 heartbeat IPC: 0.333 cumulative IPC: 0.3999 (Simulation time: 00 hr 17 min 59 sec)
Heartbeat CPU 0 instructions: 95000481 cycles: 127072432 heartbeat IPC: 0.2825 cumulative IPC: 0.398 (Simulation time: 00 hr 18 min 11 sec)
Heartbeat CPU 0 instructions: 95500481 cycles: 128154765 heartbeat IPC: 0.462 cumulative IPC: 0.3986 (Simulation time: 00 hr 18 min 18 sec)
Heartbeat CPU 0 instructions: 96000482 cycles: 129400778 heartbeat IPC: 0.4013 cumulative IPC: 0.3987 (Simulation time: 00 hr 18 min 27 sec)
Heartbeat CPU 0 instructions: 96500485 cycles: 130466619 heartbeat IPC: 0.4691 cumulative IPC: 0.3993 (Simulation time: 00 hr 18 min 34 sec)
Heartbeat CPU 0 instructions: 97000485 cycles: 131381091 heartbeat IPC: 0.5468 cumulative IPC: 0.4005 (Simulation time: 00 hr 18 min 40 sec)
Heartbeat CPU 0 instructions: 97500490 cycles: 132402999 heartbeat IPC: 0.4893 cumulative IPC: 0.4012 (Simulation time: 00 hr 18 min 48 sec)
Heartbeat CPU 0 instructions: 98000497 cycles: 134012082 heartbeat IPC: 0.3107 cumulative IPC: 0.4 (Simulation time: 00 hr 18 min 58 sec)
Heartbeat CPU 0 instructions: 98500498 cycles: 134780102 heartbeat IPC: 0.651 cumulative IPC: 0.4016 (Simulation time: 00 hr 19 min 04 sec)
Heartbeat CPU 0 instructions: 99000499 cycles: 136065452 heartbeat IPC: 0.389 cumulative IPC: 0.4015 (Simulation time: 00 hr 19 min 12 sec)
Heartbeat CPU 0 instructions: 99500500 cycles: 137241381 heartbeat IPC: 0.4252 cumulative IPC: 0.4017 (Simulation time: 00 hr 19 min 20 sec)
Heartbeat CPU 0 instructions: 100000501 cycles: 138203653 heartbeat IPC: 0.5196 cumulative IPC: 0.4026 (Simulation time: 00 hr 19 min 27 sec)
Heartbeat CPU 0 instructions: 100500502 cycles: 139474154 heartbeat IPC: 0.3935 cumulative IPC: 0.4025 (Simulation time: 00 hr 19 min 35 sec)
Heartbeat CPU 0 instructions: 101000508 cycles: 140579835 heartbeat IPC: 0.4522 cumulative IPC: 0.403 (Simulation time: 00 hr 19 min 42 sec)
Heartbeat CPU 0 instructions: 101500508 cycles: 141699232 heartbeat IPC: 0.4467 cumulative IPC: 0.4033 (Simulation time: 00 hr 19 min 50 sec)
Heartbeat CPU 0 instructions: 102000508 cycles: 142924211 heartbeat IPC: 0.4082 cumulative IPC: 0.4034 (Simulation time: 00 hr 19 min 58 sec)
Heartbeat CPU 0 instructions: 102500508 cycles: 144273675 heartbeat IPC: 0.3705 cumulative IPC: 0.403 (Simulation time: 00 hr 20 min 07 sec)
Heartbeat CPU 0 instructions: 103000510 cycles: 146479313 heartbeat IPC: 0.2267 cumulative IPC: 0.4001 (Simulation time: 00 hr 20 min 20 sec)
Heartbeat CPU 0 instructions: 103500515 cycles: 148571563 heartbeat IPC: 0.239 cumulative IPC: 0.3976 (Simulation time: 00 hr 20 min 33 sec)
Heartbeat CPU 0 instructions: 104000515 cycles: 150457297 heartbeat IPC: 0.2651 cumulative IPC: 0.3958 (Simulation time: 00 hr 20 min 44 sec)
Heartbeat CPU 0 instructions: 104500520 cycles: 151595584 heartbeat IPC: 0.4393 cumulative IPC: 0.3961 (Simulation time: 00 hr 20 min 52 sec)
Heartbeat CPU 0 instructions: 105000523 cycles: 153103466 heartbeat IPC: 0.3316 cumulative IPC: 0.3954 (Simulation time: 00 hr 21 min 01 sec)
Heartbeat CPU 0 instructions: 105500530 cycles: 154702616 heartbeat IPC: 0.3127 cumulative IPC: 0.3945 (Simulation time: 00 hr 21 min 11 sec)
Heartbeat CPU 0 instructions: 106000531 cycles: 156125343 heartbeat IPC: 0.3514 cumulative IPC: 0.3941 (Simulation time: 00 hr 21 min 20 sec)
Heartbeat CPU 0 instructions: 106500534 cycles: 157300644 heartbeat IPC: 0.4254 cumulative IPC: 0.3943 (Simulation time: 00 hr 21 min 28 sec)
Heartbeat CPU 0 instructions: 107000535 cycles: 158297323 heartbeat IPC: 0.5017 cumulative IPC: 0.3951 (Simulation time: 00 hr 21 min 35 sec)
Heartbeat CPU 0 instructions: 107500541 cycles: 159452531 heartbeat IPC: 0.4328 cumulative IPC: 0.3954 (Simulation time: 00 hr 21 min 43 sec)
Heartbeat CPU 0 instructions: 108000541 cycles: 160541209 heartbeat IPC: 0.4593 cumulative IPC: 0.3958 (Simulation time: 00 hr 21 min 50 sec)
Heartbeat CPU 0 instructions: 108500547 cycles: 161918570 heartbeat IPC: 0.363 cumulative IPC: 0.3955 (Simulation time: 00 hr 21 min 59 sec)
Heartbeat CPU 0 instructions: 109000547 cycles: 162845320 heartbeat IPC: 0.5395 cumulative IPC: 0.3964 (Simulation time: 00 hr 22 min 05 sec)
Heartbeat CPU 0 instructions: 109500548 cycles: 163822823 heartbeat IPC: 0.5115 cumulative IPC: 0.3972 (Simulation time: 00 hr 22 min 12 sec)
Heartbeat CPU 0 instructions: 110000549 cycles: 165651650 heartbeat IPC: 0.2734 cumulative IPC: 0.3957 (Simulation time: 00 hr 22 min 24 sec)
Heartbeat CPU 0 instructions: 110500551 cycles: 167007344 heartbeat IPC: 0.3688 cumulative IPC: 0.3954 (Simulation time: 00 hr 22 min 33 sec)
Heartbeat CPU 0 instructions: 111000551 cycles: 168875962 heartbeat IPC: 0.2676 cumulative IPC: 0.3939 (Simulation time: 00 hr 22 min 44 sec)
Heartbeat CPU 0 instructions: 111500556 cycles: 169796462 heartbeat IPC: 0.5432 cumulative IPC: 0.3948 (Simulation time: 00 hr 22 min 51 sec)
Heartbeat CPU 0 instructions: 112000562 cycles: 171684153 heartbeat IPC: 0.2649 cumulative IPC: 0.3932 (Simulation time: 00 hr 23 min 03 sec)
Heartbeat CPU 0 instructions: 112500562 cycles: 173087214 heartbeat IPC: 0.3564 cumulative IPC: 0.3929 (Simulation time: 00 hr 23 min 12 sec)
Heartbeat CPU 0 instructions: 113000566 cycles: 174014102 heartbeat IPC: 0.5394 cumulative IPC: 0.3938 (Simulation time: 00 hr 23 min 18 sec)
Heartbeat CPU 0 instructions: 113500570 cycles: 176517398 heartbeat IPC: 0.1997 cumulative IPC: 0.3908 (Simulation time: 00 hr 23 min 33 sec)
Heartbeat CPU 0 instructions: 114000570 cycles: 176897364 heartbeat IPC: 1.316 cumulative IPC: 0.3929 (Simulation time: 00 hr 23 min 36 sec)
Heartbeat CPU 0 instructions: 114500570 cycles: 178095712 heartbeat IPC: 0.4172 cumulative IPC: 0.3931 (Simulation time: 00 hr 23 min 43 sec)
Heartbeat CPU 0 instructions: 115000570 cycles: 179831099 heartbeat IPC: 0.2881 cumulative IPC: 0.392 (Simulation time: 00 hr 23 min 54 sec)
Heartbeat CPU 0 instructions: 115500572 cycles: 181094616 heartbeat IPC: 0.3957 cumulative IPC: 0.392 (Simulation time: 00 hr 24 min 02 sec)
Heartbeat CPU 0 instructions: 116000575 cycles: 182368418 heartbeat IPC: 0.3925 cumulative IPC: 0.392 (Simulation time: 00 hr 24 min 10 sec)
Heartbeat CPU 0 instructions: 116500577 cycles: 183985797 heartbeat IPC: 0.3091 cumulative IPC: 0.3912 (Simulation time: 00 hr 24 min 20 sec)
Heartbeat CPU 0 instructions: 117000579 cycles: 185248645 heartbeat IPC: 0.3959 cumulative IPC: 0.3913 (Simulation time: 00 hr 24 min 28 sec)
Heartbeat CPU 0 instructions: 117500579 cycles: 185605300 heartbeat IPC: 1.402 cumulative IPC: 0.3934 (Simulation time: 00 hr 24 min 31 sec)
Heartbeat CPU 0 instructions: 118000582 cycles: 186707956 heartbeat IPC: 0.4535 cumulative IPC: 0.3938 (Simulation time: 00 hr 24 min 38 sec)
Heartbeat CPU 0 instructions: 118500588 cycles: 188973187 heartbeat IPC: 0.2207 cumulative IPC: 0.3915 (Simulation time: 00 hr 24 min 51 sec)
Heartbeat CPU 0 instructions: 119000589 cycles: 190233900 heartbeat IPC: 0.3966 cumulative IPC: 0.3916 (Simulation time: 00 hr 24 min 59 sec)
Heartbeat CPU 0 instructions: 119500590 cycles: 191395077 heartbeat IPC: 0.4306 cumulative IPC: 0.3918 (Simulation time: 00 hr 25 min 07 sec)
Heartbeat CPU 0 instructions: 120000590 cycles: 192858412 heartbeat IPC: 0.3417 cumulative IPC: 0.3914 (Simulation time: 00 hr 25 min 16 sec)
Heartbeat CPU 0 instructions: 120500590 cycles: 193797454 heartbeat IPC: 0.5325 cumulative IPC: 0.3921 (Simulation time: 00 hr 25 min 22 sec)
Heartbeat CPU 0 instructions: 121000597 cycles: 195095308 heartbeat IPC: 0.3853 cumulative IPC: 0.3921 (Simulation time: 00 hr 25 min 31 sec)
Heartbeat CPU 0 instructions: 121500598 cycles: 196368033 heartbeat IPC: 0.3929 cumulative IPC: 0.3921 (Simulation time: 00 hr 25 min 40 sec)
Heartbeat CPU 0 instructions: 122000598 cycles: 199401702 heartbeat IPC: 0.1648 cumulative IPC: 0.3884 (Simulation time: 00 hr 25 min 57 sec)
Heartbeat CPU 0 instructions: 122500598 cycles: 201334947 heartbeat IPC: 0.2586 cumulative IPC: 0.387 (Simulation time: 00 hr 26 min 09 sec)
Heartbeat CPU 0 instructions: 123000599 cycles: 202654991 heartbeat IPC: 0.3788 cumulative IPC: 0.387 (Simulation time: 00 hr 26 min 18 sec)
Heartbeat CPU 0 instructions: 123500600 cycles: 204557415 heartbeat IPC: 0.2628 cumulative IPC: 0.3857 (Simulation time: 00 hr 26 min 29 sec)
Heartbeat CPU 0 instructions: 124000602 cycles: 206294500 heartbeat IPC: 0.2878 cumulative IPC: 0.3849 (Simulation time: 00 hr 26 min 40 sec)
Heartbeat CPU 0 instructions: 124500602 cycles: 208392239 heartbeat IPC: 0.2384 cumulative IPC: 0.3833 (Simulation time: 00 hr 26 min 52 sec)
Heartbeat CPU 0 instructions: 125000608 cycles: 209453727 heartbeat IPC: 0.471 cumulative IPC: 0.3838 (Simulation time: 00 hr 26 min 59 sec)
Heartbeat CPU 0 instructions: 125500608 cycles: 210925575 heartbeat IPC: 0.3397 cumulative IPC: 0.3834 (Simulation time: 00 hr 27 min 08 sec)
Heartbeat CPU 0 instructions: 126000608 cycles: 211583786 heartbeat IPC: 0.7596 cumulative IPC: 0.3847 (Simulation time: 00 hr 27 min 12 sec)
Heartbeat CPU 0 instructions: 126500609 cycles: 212896284 heartbeat IPC: 0.381 cumulative IPC: 0.3847 (Simulation time: 00 hr 27 min 20 sec)
Heartbeat CPU 0 instructions: 127000612 cycles: 213748029 heartbeat IPC: 0.587 cumulative IPC: 0.3855 (Simulation time: 00 hr 27 min 26 sec)
Heartbeat CPU 0 instructions: 127500612 cycles: 214896366 heartbeat IPC: 0.4354 cumulative IPC: 0.3858 (Simulation time: 00 hr 27 min 33 sec)
Heartbeat CPU 0 instructions: 128000612 cycles: 216013701 heartbeat IPC: 0.4475 cumulative IPC: 0.3861 (Simulation time: 00 hr 27 min 41 sec)
Heartbeat CPU 0 instructions: 128500612 cycles: 217326050 heartbeat IPC: 0.381 cumulative IPC: 0.3861 (Simulation time: 00 hr 27 min 49 sec)
Heartbeat CPU 0 instructions: 129000618 cycles: 218799284 heartbeat IPC: 0.3394 cumulative IPC: 0.3858 (Simulation time: 00 hr 27 min 58 sec)
Heartbeat CPU 0 instructions: 129500621 cycles: 220261304 heartbeat IPC: 0.342 cumulative IPC: 0.3855 (Simulation time: 00 hr 28 min 07 sec)
Heartbeat CPU 0 instructions: 130000624 cycles: 221312224 heartbeat IPC: 0.4758 cumulative IPC: 0.3859 (Simulation time: 00 hr 28 min 14 sec)
Heartbeat CPU 0 instructions: 130500629 cycles: 222461545 heartbeat IPC: 0.435 cumulative IPC: 0.3862 (Simulation time: 00 hr 28 min 21 sec)
Heartbeat CPU 0 instructions: 131000629 cycles: 224508771 heartbeat IPC: 0.2442 cumulative IPC: 0.3848 (Simulation time: 00 hr 28 min 33 sec)
Heartbeat CPU 0 instructions: 131500629 cycles: 226271483 heartbeat IPC: 0.2837 cumulative IPC: 0.384 (Simulation time: 00 hr 28 min 44 sec)
Heartbeat CPU 0 instructions: 132000629 cycles: 227979097 heartbeat IPC: 0.2928 cumulative IPC: 0.3832 (Simulation time: 00 hr 28 min 54 sec)
Heartbeat CPU 0 instructions: 132500629 cycles: 230209559 heartbeat IPC: 0.2242 cumulative IPC: 0.3816 (Simulation time: 00 hr 29 min 06 sec)
Heartbeat CPU 0 instructions: 133000630 cycles: 231233675 heartbeat IPC: 0.4882 cumulative IPC: 0.3821 (Simulation time: 00 hr 29 min 13 sec)
Heartbeat CPU 0 instructions: 133500630 cycles: 232430498 heartbeat IPC: 0.4178 cumulative IPC: 0.3823 (Simulation time: 00 hr 29 min 20 sec)
Heartbeat CPU 0 instructions: 134000630 cycles: 234265846 heartbeat IPC: 0.2724 cumulative IPC: 0.3814 (Simulation time: 00 hr 29 min 32 sec)
Heartbeat CPU 0 instructions: 134500630 cycles: 236059165 heartbeat IPC: 0.2788 cumulative IPC: 0.3806 (Simulation time: 00 hr 29 min 42 sec)
Heartbeat CPU 0 instructions: 135000630 cycles: 237246979 heartbeat IPC: 0.4209 cumulative IPC: 0.3808 (Simulation time: 00 hr 29 min 50 sec)
Heartbeat CPU 0 instructions: 135500631 cycles: 237890351 heartbeat IPC: 0.7772 cumulative IPC: 0.3819 (Simulation time: 00 hr 29 min 54 sec)
Heartbeat CPU 0 instructions: 136000633 cycles: 238224259 heartbeat IPC: 1.497 cumulative IPC: 0.3836 (Simulation time: 00 hr 29 min 57 sec)
Heartbeat CPU 0 instructions: 136500635 cycles: 238926988 heartbeat IPC: 0.7115 cumulative IPC: 0.3846 (Simulation time: 00 hr 30 min 01 sec)
Heartbeat CPU 0 instructions: 137000635 cycles: 241121070 heartbeat IPC: 0.2279 cumulative IPC: 0.3831 (Simulation time: 00 hr 30 min 13 sec)
Heartbeat CPU 0 instructions: 137500636 cycles: 242730392 heartbeat IPC: 0.3107 cumulative IPC: 0.3826 (Simulation time: 00 hr 30 min 23 sec)
Heartbeat CPU 0 instructions: 138000636 cycles: 244847725 heartbeat IPC: 0.2361 cumulative IPC: 0.3812 (Simulation time: 00 hr 30 min 35 sec)
Heartbeat CPU 0 instructions: 138500643 cycles: 246549498 heartbeat IPC: 0.2938 cumulative IPC: 0.3806 (Simulation time: 00 hr 30 min 46 sec)
Heartbeat CPU 0 instructions: 139000650 cycles: 248692342 heartbeat IPC: 0.2333 cumulative IPC: 0.3792 (Simulation time: 00 hr 30 min 58 sec)
Heartbeat CPU 0 instructions: 139500650 cycles: 249888659 heartbeat IPC: 0.4179 cumulative IPC: 0.3794 (Simulation time: 00 hr 31 min 06 sec)
Heartbeat CPU 0 instructions: 140000651 cycles: 252080227 heartbeat IPC: 0.2281 cumulative IPC: 0.378 (Simulation time: 00 hr 31 min 18 sec)
Heartbeat CPU 0 instructions: 140500654 cycles: 253627345 heartbeat IPC: 0.3232 cumulative IPC: 0.3777 (Simulation time: 00 hr 31 min 28 sec)
Heartbeat CPU 0 instructions: 141000656 cycles: 254840113 heartbeat IPC: 0.4123 cumulative IPC: 0.3779 (Simulation time: 00 hr 31 min 36 sec)
Heartbeat CPU 0 instructions: 141500657 cycles: 256863000 heartbeat IPC: 0.2472 cumulative IPC: 0.3768 (Simulation time: 00 hr 31 min 47 sec)
Heartbeat CPU 0 instructions: 142000657 cycles: 258836466 heartbeat IPC: 0.2534 cumulative IPC: 0.3758 (Simulation time: 00 hr 31 min 59 sec)
Heartbeat CPU 0 instructions: 142500659 cycles: 259900290 heartbeat IPC: 0.47 cumulative IPC: 0.3762 (Simulation time: 00 hr 32 min 06 sec)
Heartbeat CPU 0 instructions: 143000660 cycles: 261794984 heartbeat IPC: 0.2639 cumulative IPC: 0.3753 (Simulation time: 00 hr 32 min 17 sec)
Heartbeat CPU 0 instructions: 143500661 cycles: 262845871 heartbeat IPC: 0.4758 cumulative IPC: 0.3758 (Simulation time: 00 hr 32 min 24 sec)
Heartbeat CPU 0 instructions: 144000665 cycles: 265184406 heartbeat IPC: 0.2138 cumulative IPC: 0.3743 (Simulation time: 00 hr 32 min 37 sec)
Heartbeat CPU 0 instructions: 144500665 cycles: 267209903 heartbeat IPC: 0.2469 cumulative IPC: 0.3732 (Simulation time: 00 hr 32 min 48 sec)
Heartbeat CPU 0 instructions: 145000665 cycles: 268431744 heartbeat IPC: 0.4092 cumulative IPC: 0.3734 (Simulation time: 00 hr 32 min 56 sec)
Heartbeat CPU 0 instructions: 145500667 cycles: 269749565 heartbeat IPC: 0.3794 cumulative IPC: 0.3734 (Simulation time: 00 hr 33 min 05 sec)
Heartbeat CPU 0 instructions: 146000669 cycles: 270882710 heartbeat IPC: 0.4413 cumulative IPC: 0.3737 (Simulation time: 00 hr 33 min 12 sec)
Heartbeat CPU 0 instructions: 146500672 cycles: 272193580 heartbeat IPC: 0.3814 cumulative IPC: 0.3738 (Simulation time: 00 hr 33 min 21 sec)
Heartbeat CPU 0 instructions: 147000672 cycles: 273670216 heartbeat IPC: 0.3386 cumulative IPC: 0.3736 (Simulation time: 00 hr 33 min 30 sec)
Heartbeat CPU 0 instructions: 147500672 cycles: 275680206 heartbeat IPC: 0.2488 cumulative IPC: 0.3726 (Simulation time: 00 hr 33 min 42 sec)
Heartbeat CPU 0 instructions: 148000673 cycles: 276989053 heartbeat IPC: 0.382 cumulative IPC: 0.3727 (Simulation time: 00 hr 33 min 50 sec)
Heartbeat CPU 0 instructions: 148500673 cycles: 278830544 heartbeat IPC: 0.2715 cumulative IPC: 0.372 (Simulation time: 00 hr 34 min 01 sec)
Heartbeat CPU 0 instructions: 149000679 cycles: 280545523 heartbeat IPC: 0.2916 cumulative IPC: 0.3714 (Simulation time: 00 hr 34 min 10 sec)
Heartbeat CPU 0 instructions: 149500679 cycles: 281223994 heartbeat IPC: 0.737 cumulative IPC: 0.3724 (Simulation time: 00 hr 34 min 15 sec)
Heartbeat CPU 0 instructions: 150000679 cycles: 281599028 heartbeat IPC: 1.333 cumulative IPC: 0.3737 (Simulation time: 00 hr 34 min 18 sec)
Heartbeat CPU 0 instructions: 150500679 cycles: 281971544 heartbeat IPC: 1.342 cumulative IPC: 0.3751 (Simulation time: 00 hr 34 min 21 sec)
Heartbeat CPU 0 instructions: 151000681 cycles: 282368897 heartbeat IPC: 1.258 cumulative IPC: 0.3764 (Simulation time: 00 hr 34 min 24 sec)
Heartbeat CPU 0 instructions: 151500683 cycles: 284008790 heartbeat IPC: 0.3049 cumulative IPC: 0.3759 (Simulation time: 00 hr 34 min 33 sec)
Heartbeat CPU 0 instructions: 152000684 cycles: 285461130 heartbeat IPC: 0.3443 cumulative IPC: 0.3758 (Simulation time: 00 hr 34 min 42 sec)
Heartbeat CPU 0 instructions: 152500690 cycles: 287443229 heartbeat IPC: 0.2523 cumulative IPC: 0.3749 (Simulation time: 00 hr 34 min 53 sec)
Heartbeat CPU 0 instructions: 153000696 cycles: 288718644 heartbeat IPC: 0.392 cumulative IPC: 0.375 (Simulation time: 00 hr 35 min 01 sec)
Heartbeat CPU 0 instructions: 153500696 cycles: 290164798 heartbeat IPC: 0.3457 cumulative IPC: 0.3748 (Simulation time: 00 hr 35 min 10 sec)
Heartbeat CPU 0 instructions: 154000698 cycles: 291214786 heartbeat IPC: 0.4762 cumulative IPC: 0.3752 (Simulation time: 00 hr 35 min 16 sec)
Heartbeat CPU 0 instructions: 154500699 cycles: 292723270 heartbeat IPC: 0.3315 cumulative IPC: 0.3749 (Simulation time: 00 hr 35 min 25 sec)
Heartbeat CPU 0 instructions: 155000704 cycles: 294719825 heartbeat IPC: 0.2504 cumulative IPC: 0.3741 (Simulation time: 00 hr 35 min 36 sec)
Heartbeat CPU 0 instructions: 155500705 cycles: 295886475 heartbeat IPC: 0.4286 cumulative IPC: 0.3743 (Simulation time: 00 hr 35 min 44 sec)
Heartbeat CPU 0 instructions: 156000707 cycles: 296650291 heartbeat IPC: 0.6546 cumulative IPC: 0.375 (Simulation time: 00 hr 35 min 49 sec)
Heartbeat CPU 0 instructions: 156500707 cycles: 298738411 heartbeat IPC: 0.2394 cumulative IPC: 0.374 (Simulation time: 00 hr 36 min 00 sec)
Heartbeat CPU 0 instructions: 157000708 cycles: 300248910 heartbeat IPC: 0.331 cumulative IPC: 0.3738 (Simulation time: 00 hr 36 min 09 sec)
Heartbeat CPU 0 instructions: 157500708 cycles: 302634999 heartbeat IPC: 0.2095 cumulative IPC: 0.3725 (Simulation time: 00 hr 36 min 22 sec)
Heartbeat CPU 0 instructions: 158000708 cycles: 304230297 heartbeat IPC: 0.3134 cumulative IPC: 0.3721 (Simulation time: 00 hr 36 min 31 sec)
Heartbeat CPU 0 instructions: 158500711 cycles: 305479365 heartbeat IPC: 0.4003 cumulative IPC: 0.3723 (Simulation time: 00 hr 36 min 39 sec)
Heartbeat CPU 0 instructions: 159000712 cycles: 307526411 heartbeat IPC: 0.2443 cumulative IPC: 0.3714 (Simulation time: 00 hr 36 min 51 sec)
Heartbeat CPU 0 instructions: 159500715 cycles: 308605371 heartbeat IPC: 0.4634 cumulative IPC: 0.3717 (Simulation time: 00 hr 36 min 58 sec)
Heartbeat CPU 0 instructions: 160000720 cycles: 309774964 heartbeat IPC: 0.4275 cumulative IPC: 0.3719 (Simulation time: 00 hr 37 min 05 sec)
Heartbeat CPU 0 instructions: 160500722 cycles: 310864033 heartbeat IPC: 0.4591 cumulative IPC: 0.3722 (Simulation time: 00 hr 37 min 12 sec)
Heartbeat CPU 0 instructions: 161000723 cycles: 311713374 heartbeat IPC: 0.5887 cumulative IPC: 0.3729 (Simulation time: 00 hr 37 min 17 sec)
Heartbeat CPU 0 instructions: 161500723 cycles: 312659461 heartbeat IPC: 0.5285 cumulative IPC: 0.3734 (Simulation time: 00 hr 37 min 24 sec)
Heartbeat CPU 0 instructions: 162000726 cycles: 313480739 heartbeat IPC: 0.6088 cumulative IPC: 0.374 (Simulation time: 00 hr 37 min 29 sec)
Heartbeat CPU 0 instructions: 162500727 cycles: 314482816 heartbeat IPC: 0.499 cumulative IPC: 0.3744 (Simulation time: 00 hr 37 min 35 sec)
Heartbeat CPU 0 instructions: 163000727 cycles: 315921357 heartbeat IPC: 0.3476 cumulative IPC: 0.3743 (Simulation time: 00 hr 37 min 44 sec)
Heartbeat CPU 0 instructions: 163500727 cycles: 317195485 heartbeat IPC: 0.3924 cumulative IPC: 0.3744 (Simulation time: 00 hr 37 min 51 sec)
Heartbeat CPU 0 instructions: 164000728 cycles: 318481332 heartbeat IPC: 0.3888 cumulative IPC: 0.3744 (Simulation time: 00 hr 37 min 59 sec)
Heartbeat CPU 0 instructions: 164500732 cycles: 318898235 heartbeat IPC: 1.199 cumulative IPC: 0.3756 (Simulation time: 00 hr 38 min 02 sec)
Heartbeat CPU 0 instructions: 165000732 cycles: 319244567 heartbeat IPC: 1.444 cumulative IPC: 0.3768 (Simulation time: 00 hr 38 min 05 sec)
Heartbeat CPU 0 instructions: 165500732 cycles: 319990687 heartbeat IPC: 0.6701 cumulative IPC: 0.3775 (Simulation time: 00 hr 38 min 09 sec)
Heartbeat CPU 0 instructions: 166000732 cycles: 322730382 heartbeat IPC: 0.1825 cumulative IPC: 0.3758 (Simulation time: 00 hr 38 min 23 sec)
Heartbeat CPU 0 instructions: 166500733 cycles: 324361870 heartbeat IPC: 0.3065 cumulative IPC: 0.3754 (Simulation time: 00 hr 38 min 33 sec)
Heartbeat CPU 0 instructions: 167000733 cycles: 325378315 heartbeat IPC: 0.4919 cumulative IPC: 0.3758 (Simulation time: 00 hr 38 min 39 sec)
Heartbeat CPU 0 instructions: 167500734 cycles: 326374928 heartbeat IPC: 0.5017 cumulative IPC: 0.3762 (Simulation time: 00 hr 38 min 45 sec)
Heartbeat CPU 0 instructions: 168000734 cycles: 327345945 heartbeat IPC: 0.5149 cumulative IPC: 0.3766 (Simulation time: 00 hr 38 min 51 sec)
Heartbeat CPU 0 instructions: 168500734 cycles: 327738615 heartbeat IPC: 1.273 cumulative IPC: 0.3777 (Simulation time: 00 hr 38 min 54 sec)
Heartbeat CPU 0 instructions: 169000740 cycles: 328138853 heartbeat IPC: 1.249 cumulative IPC: 0.3788 (Simulation time: 00 hr 38 min 57 sec)
Heartbeat CPU 0 instructions: 169500740 cycles: 328583170 heartbeat IPC: 1.125 cumulative IPC: 0.3799 (Simulation time: 00 hr 39 min 00 sec)
Heartbeat CPU 0 instructions: 170000740 cycles: 329666348 heartbeat IPC: 0.4616 cumulative IPC: 0.3802 (Simulation time: 00 hr 39 min 06 sec)
Heartbeat CPU 0 instructions: 170500740 cycles: 332225143 heartbeat IPC: 0.1954 cumulative IPC: 0.3787 (Simulation time: 00 hr 39 min 20 sec)
Heartbeat CPU 0 instructions: 171000742 cycles: 333712159 heartbeat IPC: 0.3362 cumulative IPC: 0.3785 (Simulation time: 00 hr 39 min 28 sec)
Heartbeat CPU 0 instructions: 171500748 cycles: 335175088 heartbeat IPC: 0.3418 cumulative IPC: 0.3783 (Simulation time: 00 hr 39 min 36 sec)
Heartbeat CPU 0 instructions: 172000755 cycles: 336204819 heartbeat IPC: 0.4856 cumulative IPC: 0.3787 (Simulation time: 00 hr 39 min 42 sec)
Heartbeat CPU 0 instructions: 172500755 cycles: 336630902 heartbeat IPC: 1.173 cumulative IPC: 0.3797 (Simulation time: 00 hr 39 min 45 sec)
Heartbeat CPU 0 instructions: 173000755 cycles: 337058043 heartbeat IPC: 1.171 cumulative IPC: 0.3808 (Simulation time: 00 hr 39 min 48 sec)
Heartbeat CPU 0 instructions: 173500758 cycles: 339190445 heartbeat IPC: 0.2345 cumulative IPC: 0.3798 (Simulation time: 00 hr 39 min 59 sec)
Heartbeat CPU 0 instructions: 174000759 cycles: 340138771 heartbeat IPC: 0.5272 cumulative IPC: 0.3802 (Simulation time: 00 hr 40 min 05 sec)
Heartbeat CPU 0 instructions: 174500759 cycles: 341339320 heartbeat IPC: 0.4165 cumulative IPC: 0.3804 (Simulation time: 00 hr 40 min 12 sec)
Heartbeat CPU 0 instructions: 175000763 cycles: 342358009 heartbeat IPC: 0.4908 cumulative IPC: 0.3807 (Simulation time: 00 hr 40 min 18 sec)
Heartbeat CPU 0 instructions: 175500763 cycles: 343174473 heartbeat IPC: 0.6124 cumulative IPC: 0.3813 (Simulation time: 00 hr 40 min 24 sec)
Heartbeat CPU 0 instructions: 176000763 cycles: 344908918 heartbeat IPC: 0.2883 cumulative IPC: 0.3808 (Simulation time: 00 hr 40 min 33 sec)
Heartbeat CPU 0 instructions: 176500765 cycles: 346568383 heartbeat IPC: 0.3013 cumulative IPC: 0.3804 (Simulation time: 00 hr 40 min 42 sec)
Heartbeat CPU 0 instructions: 177000765 cycles: 347987356 heartbeat IPC: 0.3524 cumulative IPC: 0.3803 (Simulation time: 00 hr 40 min 50 sec)
Heartbeat CPU 0 instructions: 177500765 cycles: 349328985 heartbeat IPC: 0.3727 cumulative IPC: 0.3802 (Simulation time: 00 hr 40 min 58 sec)
Heartbeat CPU 0 instructions: 178000765 cycles: 350295106 heartbeat IPC: 0.5175 cumulative IPC: 0.3806 (Simulation time: 00 hr 41 min 04 sec)
Heartbeat CPU 0 instructions: 178500765 cycles: 351629378 heartbeat IPC: 0.3747 cumulative IPC: 0.3806 (Simulation time: 00 hr 41 min 12 sec)
Heartbeat CPU 0 instructions: 179000765 cycles: 352975274 heartbeat IPC: 0.3715 cumulative IPC: 0.3806 (Simulation time: 00 hr 41 min 19 sec)
Heartbeat CPU 0 instructions: 179500770 cycles: 353854610 heartbeat IPC: 0.5686 cumulative IPC: 0.3811 (Simulation time: 00 hr 41 min 25 sec)
Heartbeat CPU 0 instructions: 180000775 cycles: 355109320 heartbeat IPC: 0.3985 cumulative IPC: 0.3811 (Simulation time: 00 hr 41 min 32 sec)
Heartbeat CPU 0 instructions: 180500775 cycles: 356142145 heartbeat IPC: 0.4841 cumulative IPC: 0.3814 (Simulation time: 00 hr 41 min 38 sec)
Heartbeat CPU 0 instructions: 181000776 cycles: 356960751 heartbeat IPC: 0.6108 cumulative IPC: 0.382 (Simulation time: 00 hr 41 min 43 sec)
Heartbeat CPU 0 instructions: 181500776 cycles: 358460540 heartbeat IPC: 0.3334 cumulative IPC: 0.3818 (Simulation time: 00 hr 41 min 52 sec)
Heartbeat CPU 0 instructions: 182000780 cycles: 359639715 heartbeat IPC: 0.424 cumulative IPC: 0.3819 (Simulation time: 00 hr 41 min 59 sec)
Heartbeat CPU 0 instructions: 182500787 cycles: 361407223 heartbeat IPC: 0.2829 cumulative IPC: 0.3814 (Simulation time: 00 hr 42 min 08 sec)
Heartbeat CPU 0 instructions: 183000793 cycles: 362433789 heartbeat IPC: 0.4871 cumulative IPC: 0.3817 (Simulation time: 00 hr 42 min 14 sec)
Heartbeat CPU 0 instructions: 183500794 cycles: 364171778 heartbeat IPC: 0.2877 cumulative IPC: 0.3813 (Simulation time: 00 hr 42 min 23 sec)
Heartbeat CPU 0 instructions: 184000796 cycles: 364981021 heartbeat IPC: 0.6179 cumulative IPC: 0.3818 (Simulation time: 00 hr 42 min 29 sec)
Heartbeat CPU 0 instructions: 184500797 cycles: 366264121 heartbeat IPC: 0.3897 cumulative IPC: 0.3818 (Simulation time: 00 hr 42 min 36 sec)
Heartbeat CPU 0 instructions: 185000804 cycles: 367602880 heartbeat IPC: 0.3735 cumulative IPC: 0.3818 (Simulation time: 00 hr 42 min 43 sec)
Heartbeat CPU 0 instructions: 185500805 cycles: 369028924 heartbeat IPC: 0.3506 cumulative IPC: 0.3817 (Simulation time: 00 hr 42 min 51 sec)
Heartbeat CPU 0 instructions: 186000805 cycles: 369468774 heartbeat IPC: 1.137 cumulative IPC: 0.3826 (Simulation time: 00 hr 42 min 54 sec)
Heartbeat CPU 0 instructions: 186500806 cycles: 369860440 heartbeat IPC: 1.277 cumulative IPC: 0.3836 (Simulation time: 00 hr 42 min 57 sec)
Heartbeat CPU 0 instructions: 187000807 cycles: 370180041 heartbeat IPC: 1.564 cumulative IPC: 0.3847 (Simulation time: 00 hr 42 min 59 sec)
Heartbeat CPU 0 instructions: 187500807 cycles: 370523865 heartbeat IPC: 1.454 cumulative IPC: 0.3857 (Simulation time: 00 hr 43 min 02 sec)
Heartbeat CPU 0 instructions: 188000814 cycles: 371557197 heartbeat IPC: 0.4839 cumulative IPC: 0.386 (Simulation time: 00 hr 43 min 08 sec)
Heartbeat CPU 0 instructions: 188500817 cycles: 373602337 heartbeat IPC: 0.2445 cumulative IPC: 0.3852 (Simulation time: 00 hr 43 min 18 sec)
Heartbeat CPU 0 instructions: 189000819 cycles: 374964308 heartbeat IPC: 0.3671 cumulative IPC: 0.3851 (Simulation time: 00 hr 43 min 26 sec)
Heartbeat CPU 0 instructions: 189500820 cycles: 376297717 heartbeat IPC: 0.375 cumulative IPC: 0.3851 (Simulation time: 00 hr 43 min 33 sec)
Heartbeat CPU 0 instructions: 190000823 cycles: 378705414 heartbeat IPC: 0.2077 cumulative IPC: 0.3839 (Simulation time: 00 hr 43 min 46 sec)
Heartbeat CPU 0 instructions: 190500827 cycles: 380431571 heartbeat IPC: 0.2897 cumulative IPC: 0.3834 (Simulation time: 00 hr 43 min 55 sec)
Heartbeat CPU 0 instructions: 191000828 cycles: 381979557 heartbeat IPC: 0.323 cumulative IPC: 0.3832 (Simulation time: 00 hr 44 min 04 sec)
Heartbeat CPU 0 instructions: 191500828 cycles: 383405978 heartbeat IPC: 0.3505 cumulative IPC: 0.3831 (Simulation time: 00 hr 44 min 12 sec)
Heartbeat CPU 0 instructions: 192000828 cycles: 384184098 heartbeat IPC: 0.6426 cumulative IPC: 0.3836 (Simulation time: 00 hr 44 min 17 sec)
Heartbeat CPU 0 instructions: 192500833 cycles: 384837233 heartbeat IPC: 0.7655 cumulative IPC: 0.3843 (Simulation time: 00 hr 44 min 21 sec)
Heartbeat CPU 0 instructions: 193000834 cycles: 386542446 heartbeat IPC: 0.2932 cumulative IPC: 0.3839 (Simulation time: 00 hr 44 min 30 sec)
Heartbeat CPU 0 instructions: 193500837 cycles: 387725450 heartbeat IPC: 0.4227 cumulative IPC: 0.384 (Simulation time: 00 hr 44 min 37 sec)
Heartbeat CPU 0 instructions: 194000840 cycles: 389287623 heartbeat IPC: 0.3201 cumulative IPC: 0.3837 (Simulation time: 00 hr 44 min 46 sec)
Heartbeat CPU 0 instructions: 194500844 cycles: 390678629 heartbeat IPC: 0.3595 cumulative IPC: 0.3836 (Simulation time: 00 hr 44 min 53 sec)
Heartbeat CPU 0 instructions: 195000845 cycles: 392179835 heartbeat IPC: 0.3331 cumulative IPC: 0.3834 (Simulation time: 00 hr 45 min 02 sec)
Heartbeat CPU 0 instructions: 195500845 cycles: 393811711 heartbeat IPC: 0.3064 cumulative IPC: 0.3831 (Simulation time: 00 hr 45 min 10 sec)
Heartbeat CPU 0 instructions: 196000845 cycles: 395034645 heartbeat IPC: 0.4089 cumulative IPC: 0.3832 (Simulation time: 00 hr 45 min 17 sec)
Heartbeat CPU 0 instructions: 196500847 cycles: 396416090 heartbeat IPC: 0.3619 cumulative IPC: 0.3831 (Simulation time: 00 hr 45 min 24 sec)
Heartbeat CPU 0 instructions: 197000847 cycles: 397467901 heartbeat IPC: 0.4754 cumulative IPC: 0.3834 (Simulation time: 00 hr 45 min 31 sec)
Heartbeat CPU 0 instructions: 197500853 cycles: 398567655 heartbeat IPC: 0.4547 cumulative IPC: 0.3836 (Simulation time: 00 hr 45 min 37 sec)
Heartbeat CPU 0 instructions: 198000860 cycles: 398926712 heartbeat IPC: 1.393 cumulative IPC: 0.3845 (Simulation time: 00 hr 45 min 40 sec)
Heartbeat CPU 0 instructions: 198500862 cycles: 399248772 heartbeat IPC: 1.553 cumulative IPC: 0.3855 (Simulation time: 00 hr 45 min 42 sec)
Heartbeat CPU 0 instructions: 199000862 cycles: 399577958 heartbeat IPC: 1.519 cumulative IPC: 0.3864 (Simulation time: 00 hr 45 min 45 sec)
Heartbeat CPU 0 instructions: 199500865 cycles: 399948908 heartbeat IPC: 1.348 cumulative IPC: 0.3874 (Simulation time: 00 hr 45 min 47 sec)
Heartbeat CPU 0 instructions: 200000870 cycles: 400295115 heartbeat IPC: 1.444 cumulative IPC: 0.3883 (Simulation time: 00 hr 45 min 50 sec)
Heartbeat CPU 0 instructions: 200500873 cycles: 402679075 heartbeat IPC: 0.2097 cumulative IPC: 0.3872 (Simulation time: 00 hr 46 min 01 sec)
Heartbeat CPU 0 instructions: 201000874 cycles: 403063146 heartbeat IPC: 1.302 cumulative IPC: 0.3881 (Simulation time: 00 hr 46 min 04 sec)
Heartbeat CPU 0 instructions: 201500874 cycles: 404110851 heartbeat IPC: 0.4772 cumulative IPC: 0.3884 (Simulation time: 00 hr 46 min 10 sec)
Heartbeat CPU 0 instructions: 202000877 cycles: 406169741 heartbeat IPC: 0.2429 cumulative IPC: 0.3876 (Simulation time: 00 hr 46 min 21 sec)
Heartbeat CPU 0 instructions: 202500878 cycles: 408220591 heartbeat IPC: 0.2438 cumulative IPC: 0.3869 (Simulation time: 00 hr 46 min 32 sec)
Heartbeat CPU 0 instructions: 203000881 cycles: 409860241 heartbeat IPC: 0.3049 cumulative IPC: 0.3865 (Simulation time: 00 hr 46 min 41 sec)
Heartbeat CPU 0 instructions: 203500888 cycles: 411006046 heartbeat IPC: 0.4364 cumulative IPC: 0.3867 (Simulation time: 00 hr 46 min 48 sec)
Heartbeat CPU 0 instructions: 204000892 cycles: 412195932 heartbeat IPC: 0.4202 cumulative IPC: 0.3868 (Simulation time: 00 hr 46 min 55 sec)
Heartbeat CPU 0 instructions: 204500894 cycles: 413307829 heartbeat IPC: 0.4497 cumulative IPC: 0.3869 (Simulation time: 00 hr 47 min 02 sec)
Heartbeat CPU 0 instructions: 205000901 cycles: 414592723 heartbeat IPC: 0.3891 cumulative IPC: 0.3869 (Simulation time: 00 hr 47 min 10 sec)
Heartbeat CPU 0 instructions: 205500903 cycles: 416089343 heartbeat IPC: 0.3341 cumulative IPC: 0.3867 (Simulation time: 00 hr 47 min 18 sec)
Heartbeat CPU 0 instructions: 206000904 cycles: 417770947 heartbeat IPC: 0.2973 cumulative IPC: 0.3864 (Simulation time: 00 hr 47 min 27 sec)
Heartbeat CPU 0 instructions: 206500908 cycles: 419427167 heartbeat IPC: 0.3019 cumulative IPC: 0.386 (Simulation time: 00 hr 47 min 37 sec)
Heartbeat CPU 0 instructions: 207000908 cycles: 420943767 heartbeat IPC: 0.3297 cumulative IPC: 0.3858 (Simulation time: 00 hr 47 min 46 sec)
Heartbeat CPU 0 instructions: 207500912 cycles: 422014193 heartbeat IPC: 0.4671 cumulative IPC: 0.386 (Simulation time: 00 hr 47 min 52 sec)
Heartbeat CPU 0 instructions: 208000912 cycles: 422961901 heartbeat IPC: 0.5276 cumulative IPC: 0.3864 (Simulation time: 00 hr 47 min 58 sec)
Heartbeat CPU 0 instructions: 208500913 cycles: 423993765 heartbeat IPC: 0.4846 cumulative IPC: 0.3866 (Simulation time: 00 hr 48 min 04 sec)
Heartbeat CPU 0 instructions: 209000919 cycles: 425048257 heartbeat IPC: 0.4742 cumulative IPC: 0.3868 (Simulation time: 00 hr 48 min 11 sec)
Heartbeat CPU 0 instructions: 209500924 cycles: 425956247 heartbeat IPC: 0.5507 cumulative IPC: 0.3872 (Simulation time: 00 hr 48 min 16 sec)
Heartbeat CPU 0 instructions: 210000925 cycles: 427467202 heartbeat IPC: 0.3309 cumulative IPC: 0.387 (Simulation time: 00 hr 48 min 25 sec)
Heartbeat CPU 0 instructions: 210500926 cycles: 428204665 heartbeat IPC: 0.678 cumulative IPC: 0.3875 (Simulation time: 00 hr 48 min 30 sec)
Heartbeat CPU 0 instructions: 211000926 cycles: 429060206 heartbeat IPC: 0.5844 cumulative IPC: 0.3879 (Simulation time: 00 hr 48 min 35 sec)
Heartbeat CPU 0 instructions: 211500931 cycles: 430486664 heartbeat IPC: 0.3505 cumulative IPC: 0.3878 (Simulation time: 00 hr 48 min 43 sec)
Heartbeat CPU 0 instructions: 212000931 cycles: 431952029 heartbeat IPC: 0.3412 cumulative IPC: 0.3876 (Simulation time: 00 hr 48 min 51 sec)
Heartbeat CPU 0 instructions: 212500931 cycles: 432929807 heartbeat IPC: 0.5114 cumulative IPC: 0.3879 (Simulation time: 00 hr 48 min 56 sec)
Heartbeat CPU 0 instructions: 213000935 cycles: 434351342 heartbeat IPC: 0.3517 cumulative IPC: 0.3878 (Simulation time: 00 hr 49 min 04 sec)
Heartbeat CPU 0 instructions: 213500939 cycles: 435422609 heartbeat IPC: 0.4667 cumulative IPC: 0.388 (Simulation time: 00 hr 49 min 11 sec)
Heartbeat CPU 0 instructions: 214000946 cycles: 436347448 heartbeat IPC: 0.5406 cumulative IPC: 0.3883 (Simulation time: 00 hr 49 min 17 sec)
Heartbeat CPU 0 instructions: 214500947 cycles: 437238185 heartbeat IPC: 0.5613 cumulative IPC: 0.3887 (Simulation time: 00 hr 49 min 22 sec)
Heartbeat CPU 0 instructions: 215000948 cycles: 438436618 heartbeat IPC: 0.4172 cumulative IPC: 0.3888 (Simulation time: 00 hr 49 min 29 sec)
Heartbeat CPU 0 instructions: 215500948 cycles: 439857559 heartbeat IPC: 0.3519 cumulative IPC: 0.3886 (Simulation time: 00 hr 49 min 37 sec)
Heartbeat CPU 0 instructions: 216000948 cycles: 441863263 heartbeat IPC: 0.2493 cumulative IPC: 0.388 (Simulation time: 00 hr 49 min 47 sec)
Heartbeat CPU 0 instructions: 216500948 cycles: 443758133 heartbeat IPC: 0.2639 cumulative IPC: 0.3874 (Simulation time: 00 hr 49 min 57 sec)
Heartbeat CPU 0 instructions: 217000953 cycles: 444916936 heartbeat IPC: 0.4315 cumulative IPC: 0.3876 (Simulation time: 00 hr 50 min 04 sec)
Heartbeat CPU 0 instructions: 217500954 cycles: 446689213 heartbeat IPC: 0.2821 cumulative IPC: 0.3871 (Simulation time: 00 hr 50 min 14 sec)
Heartbeat CPU 0 instructions: 218000958 cycles: 448293435 heartbeat IPC: 0.3117 cumulative IPC: 0.3869 (Simulation time: 00 hr 50 min 23 sec)
Heartbeat CPU 0 instructions: 218500960 cycles: 448979596 heartbeat IPC: 0.7287 cumulative IPC: 0.3874 (Simulation time: 00 hr 50 min 27 sec)
Heartbeat CPU 0 instructions: 219000965 cycles: 449925407 heartbeat IPC: 0.5287 cumulative IPC: 0.3877 (Simulation time: 00 hr 50 min 33 sec)
Heartbeat CPU 0 instructions: 219500967 cycles: 450839612 heartbeat IPC: 0.5469 cumulative IPC: 0.388 (Simulation time: 00 hr 50 min 38 sec)
Heartbeat CPU 0 instructions: 220000968 cycles: 451820389 heartbeat IPC: 0.5098 cumulative IPC: 0.3883 (Simulation time: 00 hr 50 min 44 sec)
Heartbeat CPU 0 instructions: 220500972 cycles: 453440625 heartbeat IPC: 0.3086 cumulative IPC: 0.388 (Simulation time: 00 hr 50 min 53 sec)
Heartbeat CPU 0 instructions: 221000975 cycles: 454831606 heartbeat IPC: 0.3595 cumulative IPC: 0.3879 (Simulation time: 00 hr 51 min 01 sec)
Heartbeat CPU 0 instructions: 221500976 cycles: 456626045 heartbeat IPC: 0.2786 cumulative IPC: 0.3875 (Simulation time: 00 hr 51 min 10 sec)
Heartbeat CPU 0 instructions: 222000976 cycles: 457647633 heartbeat IPC: 0.4894 cumulative IPC: 0.3877 (Simulation time: 00 hr 51 min 16 sec)
Heartbeat CPU 0 instructions: 222500983 cycles: 459270793 heartbeat IPC: 0.308 cumulative IPC: 0.3874 (Simulation time: 00 hr 51 min 25 sec)
Heartbeat CPU 0 instructions: 223000990 cycles: 460960647 heartbeat IPC: 0.2959 cumulative IPC: 0.3871 (Simulation time: 00 hr 51 min 34 sec)
Heartbeat CPU 0 instructions: 223500991 cycles: 461776960 heartbeat IPC: 0.6125 cumulative IPC: 0.3875 (Simulation time: 00 hr 51 min 39 sec)
Heartbeat CPU 0 instructions: 224000994 cycles: 463203512 heartbeat IPC: 0.3505 cumulative IPC: 0.3874 (Simulation time: 00 hr 51 min 47 sec)
Heartbeat CPU 0 instructions: 224500996 cycles: 465149381 heartbeat IPC: 0.257 cumulative IPC: 0.3868 (Simulation time: 00 hr 51 min 57 sec)
Heartbeat CPU 0 instructions: 225000998 cycles: 466844638 heartbeat IPC: 0.2949 cumulative IPC: 0.3865 (Simulation time: 00 hr 52 min 06 sec)
Heartbeat CPU 0 instructions: 225501000 cycles: 468693675 heartbeat IPC: 0.2704 cumulative IPC: 0.386 (Simulation time: 00 hr 52 min 16 sec)
Heartbeat CPU 0 instructions: 226001000 cycles: 470071311 heartbeat IPC: 0.3629 cumulative IPC: 0.3859 (Simulation time: 00 hr 52 min 24 sec)
Heartbeat CPU 0 instructions: 226501001 cycles: 472389721 heartbeat IPC: 0.2157 cumulative IPC: 0.3851 (Simulation time: 00 hr 52 min 36 sec)
Heartbeat CPU 0 instructions: 227001001 cycles: 474092637 heartbeat IPC: 0.2936 cumulative IPC: 0.3847 (Simulation time: 00 hr 52 min 45 sec)
Heartbeat CPU 0 instructions: 227501007 cycles: 474833559 heartbeat IPC: 0.6748 cumulative IPC: 0.3852 (Simulation time: 00 hr 52 min 50 sec)
Heartbeat CPU 0 instructions: 228001010 cycles: 475824814 heartbeat IPC: 0.5044 cumulative IPC: 0.3854 (Simulation time: 00 hr 52 min 56 sec)
Heartbeat CPU 0 instructions: 228501011 cycles: 477320792 heartbeat IPC: 0.3342 cumulative IPC: 0.3853 (Simulation time: 00 hr 53 min 04 sec)
Heartbeat CPU 0 instructions: 229001014 cycles: 478536634 heartbeat IPC: 0.4112 cumulative IPC: 0.3853 (Simulation time: 00 hr 53 min 11 sec)
Heartbeat CPU 0 instructions: 229501021 cycles: 480154338 heartbeat IPC: 0.3091 cumulative IPC: 0.3851 (Simulation time: 00 hr 53 min 20 sec)
Heartbeat CPU 0 instructions: 230001023 cycles: 481397480 heartbeat IPC: 0.4022 cumulative IPC: 0.3851 (Simulation time: 00 hr 53 min 27 sec)
Heartbeat CPU 0 instructions: 230501024 cycles: 482284623 heartbeat IPC: 0.5636 cumulative IPC: 0.3855 (Simulation time: 00 hr 53 min 32 sec)
Heartbeat CPU 0 instructions: 231001031 cycles: 483775281 heartbeat IPC: 0.3354 cumulative IPC: 0.3853 (Simulation time: 00 hr 53 min 40 sec)
Heartbeat CPU 0 instructions: 231501036 cycles: 485423625 heartbeat IPC: 0.3033 cumulative IPC: 0.385 (Simulation time: 00 hr 53 min 49 sec)
Heartbeat CPU 0 instructions: 232001040 cycles: 486749811 heartbeat IPC: 0.377 cumulative IPC: 0.385 (Simulation time: 00 hr 53 min 57 sec)
Heartbeat CPU 0 instructions: 232501041 cycles: 487946467 heartbeat IPC: 0.4178 cumulative IPC: 0.3851 (Simulation time: 00 hr 54 min 04 sec)
Heartbeat CPU 0 instructions: 233001043 cycles: 489570516 heartbeat IPC: 0.3079 cumulative IPC: 0.3848 (Simulation time: 00 hr 54 min 13 sec)
Heartbeat CPU 0 instructions: 233501049 cycles: 490707025 heartbeat IPC: 0.4399 cumulative IPC: 0.3849 (Simulation time: 00 hr 54 min 19 sec)
Heartbeat CPU 0 instructions: 234001054 cycles: 491813890 heartbeat IPC: 0.4517 cumulative IPC: 0.3851 (Simulation time: 00 hr 54 min 26 sec)
Heartbeat CPU 0 instructions: 234501054 cycles: 492568597 heartbeat IPC: 0.6625 cumulative IPC: 0.3855 (Simulation time: 00 hr 54 min 31 sec)
Heartbeat CPU 0 instructions: 235001054 cycles: 493279685 heartbeat IPC: 0.7031 cumulative IPC: 0.386 (Simulation time: 00 hr 54 min 35 sec)
Heartbeat CPU 0 instructions: 235501054 cycles: 494295329 heartbeat IPC: 0.4923 cumulative IPC: 0.3862 (Simulation time: 00 hr 54 min 42 sec)
Heartbeat CPU 0 instructions: 236001055 cycles: 495454365 heartbeat IPC: 0.4314 cumulative IPC: 0.3863 (Simulation time: 00 hr 54 min 48 sec)
Heartbeat CPU 0 instructions: 236501058 cycles: 496868351 heartbeat IPC: 0.3536 cumulative IPC: 0.3862 (Simulation time: 00 hr 54 min 56 sec)
Heartbeat CPU 0 instructions: 237001065 cycles: 497766267 heartbeat IPC: 0.5569 cumulative IPC: 0.3866 (Simulation time: 00 hr 55 min 02 sec)
Heartbeat CPU 0 instructions: 237501072 cycles: 498634037 heartbeat IPC: 0.5762 cumulative IPC: 0.3869 (Simulation time: 00 hr 55 min 07 sec)
Heartbeat CPU 0 instructions: 238001072 cycles: 500014217 heartbeat IPC: 0.3623 cumulative IPC: 0.3868 (Simulation time: 00 hr 55 min 15 sec)
Heartbeat CPU 0 instructions: 238501072 cycles: 501020432 heartbeat IPC: 0.4969 cumulative IPC: 0.3871 (Simulation time: 00 hr 55 min 21 sec)
Heartbeat CPU 0 instructions: 239001072 cycles: 501980855 heartbeat IPC: 0.5206 cumulative IPC: 0.3873 (Simulation time: 00 hr 55 min 27 sec)
Heartbeat CPU 0 instructions: 239501073 cycles: 503215640 heartbeat IPC: 0.4049 cumulative IPC: 0.3874 (Simulation time: 00 hr 55 min 34 sec)
Heartbeat CPU 0 instructions: 240001079 cycles: 504189035 heartbeat IPC: 0.5137 cumulative IPC: 0.3876 (Simulation time: 00 hr 55 min 40 sec)
Heartbeat CPU 0 instructions: 240501081 cycles: 505518080 heartbeat IPC: 0.3762 cumulative IPC: 0.3876 (Simulation time: 00 hr 55 min 47 sec)
Heartbeat CPU 0 instructions: 241001081 cycles: 507375065 heartbeat IPC: 0.2693 cumulative IPC: 0.3871 (Simulation time: 00 hr 55 min 57 sec)
Heartbeat CPU 0 instructions: 241501084 cycles: 508186115 heartbeat IPC: 0.6165 cumulative IPC: 0.3875 (Simulation time: 00 hr 56 min 02 sec)
Heartbeat CPU 0 instructions: 242001084 cycles: 509229215 heartbeat IPC: 0.4793 cumulative IPC: 0.3877 (Simulation time: 00 hr 56 min 09 sec)
Heartbeat CPU 0 instructions: 242501086 cycles: 510272334 heartbeat IPC: 0.4793 cumulative IPC: 0.3879 (Simulation time: 00 hr 56 min 15 sec)
Heartbeat CPU 0 instructions: 243001087 cycles: 511216358 heartbeat IPC: 0.5296 cumulative IPC: 0.3882 (Simulation time: 00 hr 56 min 21 sec)
Heartbeat CPU 0 instructions: 243501087 cycles: 512361700 heartbeat IPC: 0.4366 cumulative IPC: 0.3883 (Simulation time: 00 hr 56 min 27 sec)
Heartbeat CPU 0 instructions: 244001090 cycles: 513180967 heartbeat IPC: 0.6103 cumulative IPC: 0.3887 (Simulation time: 00 hr 56 min 33 sec)
Heartbeat CPU 0 instructions: 244501093 cycles: 513938430 heartbeat IPC: 0.6601 cumulative IPC: 0.3891 (Simulation time: 00 hr 56 min 37 sec)
Heartbeat CPU 0 instructions: 245001096 cycles: 515034837 heartbeat IPC: 0.456 cumulative IPC: 0.3892 (Simulation time: 00 hr 56 min 44 sec)
Heartbeat CPU 0 instructions: 245501096 cycles: 516945701 heartbeat IPC: 0.2617 cumulative IPC: 0.3887 (Simulation time: 00 hr 56 min 54 sec)
Heartbeat CPU 0 instructions: 246001096 cycles: 518871219 heartbeat IPC: 0.2597 cumulative IPC: 0.3882 (Simulation time: 00 hr 57 min 04 sec)
Heartbeat CPU 0 instructions: 246501097 cycles: 520738277 heartbeat IPC: 0.2678 cumulative IPC: 0.3878 (Simulation time: 00 hr 57 min 14 sec)
Heartbeat CPU 0 instructions: 247001097 cycles: 522152096 heartbeat IPC: 0.3537 cumulative IPC: 0.3877 (Simulation time: 00 hr 57 min 22 sec)
Heartbeat CPU 0 instructions: 247501097 cycles: 523364766 heartbeat IPC: 0.4123 cumulative IPC: 0.3878 (Simulation time: 00 hr 57 min 29 sec)
Heartbeat CPU 0 instructions: 248001098 cycles: 524466914 heartbeat IPC: 0.4537 cumulative IPC: 0.3879 (Simulation time: 00 hr 57 min 36 sec)
Heartbeat CPU 0 instructions: 248501105 cycles: 526419376 heartbeat IPC: 0.2561 cumulative IPC: 0.3874 (Simulation time: 00 hr 57 min 46 sec)
Heartbeat CPU 0 instructions: 249001106 cycles: 528297398 heartbeat IPC: 0.2662 cumulative IPC: 0.3869 (Simulation time: 00 hr 57 min 56 sec)
Heartbeat CPU 0 instructions: 249501110 cycles: 529138152 heartbeat IPC: 0.5947 cumulative IPC: 0.3873 (Simulation time: 00 hr 58 min 01 sec)
Simulation finished CPU 0 instructions: 200000000 cycles: 516384878 cumulative IPC: 0.3873 (Simulation time: 00 hr 58 min 08 sec)
Simulation complete CPU 0 instructions: 200000000 cycles: 516384878 cumulative IPC: 0.3873 (Simulation time: 00 hr 58 min 08 sec)

ChampSim completed all CPUs

=== Simulation ===
CPU 0 runs /local-ssd/ben/dpc4-traces/gtraces_v2/sierra.a.6_0000.champsim.gz

Region of Interest Statistics

CPU 0 cumulative IPC: 0.3873 instructions: 200000000 cycles: 516384878
CPU 0 Branch Prediction Accuracy: 87.72% MPKI: 23.85 Average ROB Occupancy at Mispredict: 19.11
Branch type MPKI
BRANCH_DIRECT_JUMP: 1.588
BRANCH_INDIRECT: 0.2289
BRANCH_CONDITIONAL: 19.83
BRANCH_DIRECT_CALL: 1.021
BRANCH_INDIRECT_CALL: 0.274
BRANCH_RETURN: 0.9121

cpu0->cpu0_STLB TOTAL        ACCESS:    3556381 HIT:    2722009 MISS:     834372 MSHR_MERGE:          0
cpu0->cpu0_STLB LOAD         ACCESS:    3556381 HIT:    2722009 MISS:     834372 MSHR_MERGE:          0
cpu0->cpu0_STLB RFO          ACCESS:          0 HIT:          0 MISS:          0 MSHR_MERGE:          0
cpu0->cpu0_STLB PREFETCH     ACCESS:          0 HIT:          0 MISS:          0 MSHR_MERGE:          0
cpu0->cpu0_STLB WRITE        ACCESS:          0 HIT:          0 MISS:          0 MSHR_MERGE:          0
cpu0->cpu0_STLB TRANSLATION  ACCESS:          0 HIT:          0 MISS:          0 MSHR_MERGE:          0
cpu0->cpu0_STLB PREFETCH REQUESTED:          0 ISSUED:          0 USEFUL:          0 USELESS:          0
cpu0->cpu0_STLB AVERAGE MISS LATENCY: 167.3 cycles
cpu0->cpu0_L2C TOTAL        ACCESS:   21467997 HIT:   16328262 MISS:    5139735 MSHR_MERGE:     575225
cpu0->cpu0_L2C LOAD         ACCESS:   10136620 HIT:    8262459 MISS:    1874161 MSHR_MERGE:      34272
cpu0->cpu0_L2C RFO          ACCESS:    1002634 HIT:     612885 MISS:     389749 MSHR_MERGE:       7305
cpu0->cpu0_L2C PREFETCH     ACCESS:    7396788 HIT:    4917559 MISS:    2479229 MSHR_MERGE:     533648
cpu0->cpu0_L2C WRITE        ACCESS:    1942362 HIT:    1942301 MISS:         61 MSHR_MERGE:          0
cpu0->cpu0_L2C TRANSLATION  ACCESS:     989593 HIT:     593058 MISS:     396535 MSHR_MERGE:          0
cpu0->cpu0_L2C PREFETCH REQUESTED:    6281920 ISSUED:    6154066 USEFUL:     409359 USELESS:    1035236
cpu0->cpu0_L2C AVERAGE MISS LATENCY: 256.9 cycles
cpu0->cpu0_L1I TOTAL        ACCESS:   22925101 HIT:   13031808 MISS:    9893293 MSHR_MERGE:    2489776
cpu0->cpu0_L1I LOAD         ACCESS:   22925101 HIT:   13031808 MISS:    9893293 MSHR_MERGE:    2489776
cpu0->cpu0_L1I RFO          ACCESS:          0 HIT:          0 MISS:          0 MSHR_MERGE:          0
cpu0->cpu0_L1I PREFETCH     ACCESS:          0 HIT:          0 MISS:          0 MSHR_MERGE:          0
cpu0->cpu0_L1I WRITE        ACCESS:          0 HIT:          0 MISS:          0 MSHR_MERGE:          0
cpu0->cpu0_L1I TRANSLATION  ACCESS:          0 HIT:          0 MISS:          0 MSHR_MERGE:          0
cpu0->cpu0_L1I PREFETCH REQUESTED:          0 ISSUED:          0 USEFUL:          0 USELESS:          0
cpu0->cpu0_L1I AVERAGE MISS LATENCY: 35.73 cycles
cpu0->cpu0_L1D TOTAL        ACCESS:   64631171 HIT:   55649114 MISS:    8982057 MSHR_MERGE:    3013938
cpu0->cpu0_L1D LOAD         ACCESS:   34999832 HIT:   31500396 MISS:    3499436 MSHR_MERGE:     766309
cpu0->cpu0_L1D RFO          ACCESS:          0 HIT:          0 MISS:          0 MSHR_MERGE:          0
cpu0->cpu0_L1D PREFETCH     ACCESS:    2200388 HIT:     898518 MISS:    1301870 MSHR_MERGE:      59138
cpu0->cpu0_L1D WRITE        ACCESS:   25180478 HIT:   21995966 MISS:    3184512 MSHR_MERGE:    2181845
cpu0->cpu0_L1D TRANSLATION  ACCESS:    2250473 HIT:    1254234 MISS:     996239 MSHR_MERGE:       6646
cpu0->cpu0_L1D PREFETCH REQUESTED:    2730798 ISSUED:    2200386 USEFUL:     342538 USELESS:     900132
cpu0->cpu0_L1D AVERAGE MISS LATENCY: 108.7 cycles
cpu0->cpu0_ITLB TOTAL        ACCESS:   18615531 HIT:   17597646 MISS:    1017885 MSHR_MERGE:     476906
cpu0->cpu0_ITLB LOAD         ACCESS:   18615531 HIT:   17597646 MISS:    1017885 MSHR_MERGE:     476906
cpu0->cpu0_ITLB RFO          ACCESS:          0 HIT:          0 MISS:          0 MSHR_MERGE:          0
cpu0->cpu0_ITLB PREFETCH     ACCESS:          0 HIT:          0 MISS:          0 MSHR_MERGE:          0
cpu0->cpu0_ITLB WRITE        ACCESS:          0 HIT:          0 MISS:          0 MSHR_MERGE:          0
cpu0->cpu0_ITLB TRANSLATION  ACCESS:          0 HIT:          0 MISS:          0 MSHR_MERGE:          0
cpu0->cpu0_ITLB PREFETCH REQUESTED:          0 ISSUED:          0 USEFUL:          0 USELESS:          0
cpu0->cpu0_ITLB AVERAGE MISS LATENCY: 17.45 cycles
cpu0->cpu0_DTLB TOTAL        ACCESS:   59758216 HIT:   55038198 MISS:    4720018 MSHR_MERGE:    1704616
cpu0->cpu0_DTLB LOAD         ACCESS:   59758216 HIT:   55038198 MISS:    4720018 MSHR_MERGE:    1704616
cpu0->cpu0_DTLB RFO          ACCESS:          0 HIT:          0 MISS:          0 MSHR_MERGE:          0
cpu0->cpu0_DTLB PREFETCH     ACCESS:          0 HIT:          0 MISS:          0 MSHR_MERGE:          0
cpu0->cpu0_DTLB WRITE        ACCESS:          0 HIT:          0 MISS:          0 MSHR_MERGE:          0
cpu0->cpu0_DTLB TRANSLATION  ACCESS:          0 HIT:          0 MISS:          0 MSHR_MERGE:          0
cpu0->cpu0_DTLB PREFETCH REQUESTED:          0 ISSUED:          0 USEFUL:          0 USELESS:          0
cpu0->cpu0_DTLB AVERAGE MISS LATENCY: 49.35 cycles
cpu0->LLC TOTAL        ACCESS:    5482108 HIT:    1253075 MISS:    4229033 MSHR_MERGE:          0
cpu0->LLC LOAD         ACCESS:    1839889 HIT:     601302 MISS:    1238587 MSHR_MERGE:          0
cpu0->LLC RFO          ACCESS:     382445 HIT:      29262 MISS:     353183 MSHR_MERGE:          0
cpu0->LLC PREFETCH     ACCESS:    1945581 HIT:     214071 MISS:    1731510 MSHR_MERGE:          0
cpu0->LLC WRITE        ACCESS:     917658 HIT:     295902 MISS:     621756 MSHR_MERGE:          0
cpu0->LLC TRANSLATION  ACCESS:     396535 HIT:     112538 MISS:     283997 MSHR_MERGE:          0
cpu0->LLC PREFETCH REQUESTED:          0 ISSUED:          0 USEFUL:          0 USELESS:          0
cpu0->LLC AVERAGE MISS LATENCY: 250.7 cycles

DRAM Statistics

Channel 0 RQ ROW_BUFFER_HIT:      23589
  ROW_BUFFER_MISS:    3583576
  AVG DBUS CONGESTED CYCLE: 4.175
Channel 0 WQ ROW_BUFFER_HIT:     191105
  ROW_BUFFER_MISS:     616049
  FULL:          0
Channel 0 REFRESHES ISSUED:      43032
