[VMEM] WARNING: physical memory size is smaller than virtual memory size.

*** ChampSim Multicore Out-of-Order Simulator ***
Warmup Instructions: 50000000
Simulation Instructions: 200000000
Number of CPUs: 1
Page size: 4096
Core 0: /local-ssd/ben/dpc4-traces/gtraces_v2/tahoe_0002.champsim.gz
sBerti (Smart Stride + Berti) Prefetcher Initialized
Off-chip DRAM Size: 64 GiB Channels: 1 Width: 64-bit Data Rate: 800 MT/s
[BTB] WARNING: target of return is a lower address than the corresponding call. This is usually a problem with your trace.
[BTB] WARNING: target of return is a lower address than the corresponding call. This is usually a problem with your trace.
Heartbeat CPU 0 instructions: 500001 cycles: 116742 heartbeat IPC: 4.283 cumulative IPC: 4.283 (Simulation time: 00 hr 00 min 04 sec)
[BTB] WARNING: target of return is a lower address than the corresponding call. This is usually a problem with your trace.
[BTB] WARNING: target of return is a lower address than the corresponding call. This is usually a problem with your trace.
Heartbeat CPU 0 instructions: 1000005 cycles: 388357 heartbeat IPC: 1.841 cumulative IPC: 2.575 (Simulation time: 00 hr 00 min 08 sec)
[BTB] WARNING: target of return is a lower address than the corresponding call. This is usually a problem with your trace.
[BTB] WARNING: target of return is a lower address than the corresponding call. This is usually a problem with your trace.
[BTB] WARNING: target of return is a lower address than the corresponding call. This is usually a problem with your trace.
Heartbeat CPU 0 instructions: 1500010 cycles: 608818 heartbeat IPC: 2.268 cumulative IPC: 2.464 (Simulation time: 00 hr 00 min 12 sec)
[BTB] WARNING: target of return is a lower address than the corresponding call. This is usually a problem with your trace.
[BTB] WARNING: target of return is a lower address than the corresponding call. This is usually a problem with your trace.
[BTB] WARNING: target of return is a lower address than the corresponding call. This is usually a problem with your trace.
Heartbeat CPU 0 instructions: 2000015 cycles: 766384 heartbeat IPC: 3.173 cumulative IPC: 2.61 (Simulation time: 00 hr 00 min 15 sec)
Heartbeat CPU 0 instructions: 2500021 cycles: 961559 heartbeat IPC: 2.562 cumulative IPC: 2.6 (Simulation time: 00 hr 00 min 18 sec)
Heartbeat CPU 0 instructions: 3000022 cycles: 1120130 heartbeat IPC: 3.153 cumulative IPC: 2.678 (Simulation time: 00 hr 00 min 21 sec)
Heartbeat CPU 0 instructions: 3500022 cycles: 1305402 heartbeat IPC: 2.699 cumulative IPC: 2.681 (Simulation time: 00 hr 00 min 24 sec)
Heartbeat CPU 0 instructions: 4000026 cycles: 1451800 heartbeat IPC: 3.415 cumulative IPC: 2.755 (Simulation time: 00 hr 00 min 26 sec)
Heartbeat CPU 0 instructions: 4500028 cycles: 1676158 heartbeat IPC: 2.229 cumulative IPC: 2.685 (Simulation time: 00 hr 00 min 30 sec)
Heartbeat CPU 0 instructions: 5000034 cycles: 1871539 heartbeat IPC: 2.559 cumulative IPC: 2.672 (Simulation time: 00 hr 00 min 33 sec)
Heartbeat CPU 0 instructions: 5500041 cycles: 2030171 heartbeat IPC: 3.152 cumulative IPC: 2.709 (Simulation time: 00 hr 00 min 36 sec)
Heartbeat CPU 0 instructions: 6000041 cycles: 2208674 heartbeat IPC: 2.801 cumulative IPC: 2.717 (Simulation time: 00 hr 00 min 39 sec)
Heartbeat CPU 0 instructions: 6500042 cycles: 2350338 heartbeat IPC: 3.529 cumulative IPC: 2.766 (Simulation time: 00 hr 00 min 42 sec)
Heartbeat CPU 0 instructions: 7000043 cycles: 2514821 heartbeat IPC: 3.04 cumulative IPC: 2.784 (Simulation time: 00 hr 00 min 45 sec)
Heartbeat CPU 0 instructions: 7500049 cycles: 2728207 heartbeat IPC: 2.343 cumulative IPC: 2.749 (Simulation time: 00 hr 00 min 48 sec)
Heartbeat CPU 0 instructions: 8000052 cycles: 2871400 heartbeat IPC: 3.492 cumulative IPC: 2.786 (Simulation time: 00 hr 00 min 50 sec)
Heartbeat CPU 0 instructions: 8500053 cycles: 2988478 heartbeat IPC: 4.271 cumulative IPC: 2.844 (Simulation time: 00 hr 00 min 52 sec)
Heartbeat CPU 0 instructions: 9000053 cycles: 3143799 heartbeat IPC: 3.219 cumulative IPC: 2.863 (Simulation time: 00 hr 00 min 55 sec)
Heartbeat CPU 0 instructions: 9500060 cycles: 3286668 heartbeat IPC: 3.5 cumulative IPC: 2.89 (Simulation time: 00 hr 00 min 58 sec)
Heartbeat CPU 0 instructions: 10000064 cycles: 3419383 heartbeat IPC: 3.768 cumulative IPC: 2.925 (Simulation time: 00 hr 01 min 00 sec)
Heartbeat CPU 0 instructions: 10500070 cycles: 3588087 heartbeat IPC: 2.964 cumulative IPC: 2.926 (Simulation time: 00 hr 01 min 03 sec)
Heartbeat CPU 0 instructions: 11000075 cycles: 3739722 heartbeat IPC: 3.297 cumulative IPC: 2.941 (Simulation time: 00 hr 01 min 06 sec)
Heartbeat CPU 0 instructions: 11500081 cycles: 3866494 heartbeat IPC: 3.944 cumulative IPC: 2.974 (Simulation time: 00 hr 01 min 08 sec)
Heartbeat CPU 0 instructions: 12000081 cycles: 3985316 heartbeat IPC: 4.208 cumulative IPC: 3.011 (Simulation time: 00 hr 01 min 10 sec)
Heartbeat CPU 0 instructions: 12500084 cycles: 4109701 heartbeat IPC: 4.02 cumulative IPC: 3.042 (Simulation time: 00 hr 01 min 13 sec)
Heartbeat CPU 0 instructions: 13000090 cycles: 4232996 heartbeat IPC: 4.055 cumulative IPC: 3.071 (Simulation time: 00 hr 01 min 15 sec)
Heartbeat CPU 0 instructions: 13500097 cycles: 4345293 heartbeat IPC: 4.453 cumulative IPC: 3.107 (Simulation time: 00 hr 01 min 17 sec)
Heartbeat CPU 0 instructions: 14000099 cycles: 4447982 heartbeat IPC: 4.869 cumulative IPC: 3.148 (Simulation time: 00 hr 01 min 19 sec)
Heartbeat CPU 0 instructions: 14500104 cycles: 4550065 heartbeat IPC: 4.898 cumulative IPC: 3.187 (Simulation time: 00 hr 01 min 21 sec)
Heartbeat CPU 0 instructions: 15000105 cycles: 4653311 heartbeat IPC: 4.843 cumulative IPC: 3.224 (Simulation time: 00 hr 01 min 23 sec)
Heartbeat CPU 0 instructions: 15500109 cycles: 4758002 heartbeat IPC: 4.776 cumulative IPC: 3.258 (Simulation time: 00 hr 01 min 26 sec)
Heartbeat CPU 0 instructions: 16000110 cycles: 4862964 heartbeat IPC: 4.764 cumulative IPC: 3.29 (Simulation time: 00 hr 01 min 28 sec)
Heartbeat CPU 0 instructions: 16500116 cycles: 4965371 heartbeat IPC: 4.883 cumulative IPC: 3.323 (Simulation time: 00 hr 01 min 30 sec)
Heartbeat CPU 0 instructions: 17000122 cycles: 5067669 heartbeat IPC: 4.888 cumulative IPC: 3.355 (Simulation time: 00 hr 01 min 32 sec)
Heartbeat CPU 0 instructions: 17500124 cycles: 5170266 heartbeat IPC: 4.873 cumulative IPC: 3.385 (Simulation time: 00 hr 01 min 34 sec)
Heartbeat CPU 0 instructions: 18000127 cycles: 5273186 heartbeat IPC: 4.858 cumulative IPC: 3.414 (Simulation time: 00 hr 01 min 37 sec)
Heartbeat CPU 0 instructions: 18500127 cycles: 5376300 heartbeat IPC: 4.849 cumulative IPC: 3.441 (Simulation time: 00 hr 01 min 39 sec)
Heartbeat CPU 0 instructions: 19000131 cycles: 5478119 heartbeat IPC: 4.911 cumulative IPC: 3.468 (Simulation time: 00 hr 01 min 41 sec)
Heartbeat CPU 0 instructions: 19500134 cycles: 5581026 heartbeat IPC: 4.859 cumulative IPC: 3.494 (Simulation time: 00 hr 01 min 43 sec)
Heartbeat CPU 0 instructions: 20000141 cycles: 5684864 heartbeat IPC: 4.815 cumulative IPC: 3.518 (Simulation time: 00 hr 01 min 45 sec)
Heartbeat CPU 0 instructions: 20500142 cycles: 5821362 heartbeat IPC: 3.663 cumulative IPC: 3.522 (Simulation time: 00 hr 01 min 48 sec)
Heartbeat CPU 0 instructions: 21000143 cycles: 5945478 heartbeat IPC: 4.028 cumulative IPC: 3.532 (Simulation time: 00 hr 01 min 50 sec)
Heartbeat CPU 0 instructions: 21500149 cycles: 6086538 heartbeat IPC: 3.545 cumulative IPC: 3.532 (Simulation time: 00 hr 01 min 52 sec)
Heartbeat CPU 0 instructions: 22000154 cycles: 6218939 heartbeat IPC: 3.776 cumulative IPC: 3.538 (Simulation time: 00 hr 01 min 55 sec)
Heartbeat CPU 0 instructions: 22500154 cycles: 6383524 heartbeat IPC: 3.038 cumulative IPC: 3.525 (Simulation time: 00 hr 01 min 58 sec)
Heartbeat CPU 0 instructions: 23000157 cycles: 6605505 heartbeat IPC: 2.252 cumulative IPC: 3.482 (Simulation time: 00 hr 02 min 02 sec)
Heartbeat CPU 0 instructions: 23500161 cycles: 6822561 heartbeat IPC: 2.304 cumulative IPC: 3.444 (Simulation time: 00 hr 02 min 06 sec)
Heartbeat CPU 0 instructions: 24000166 cycles: 7020700 heartbeat IPC: 2.524 cumulative IPC: 3.418 (Simulation time: 00 hr 02 min 09 sec)
Heartbeat CPU 0 instructions: 24500167 cycles: 7204644 heartbeat IPC: 2.718 cumulative IPC: 3.401 (Simulation time: 00 hr 02 min 13 sec)
Heartbeat CPU 0 instructions: 25000173 cycles: 7399771 heartbeat IPC: 2.562 cumulative IPC: 3.379 (Simulation time: 00 hr 02 min 17 sec)
Heartbeat CPU 0 instructions: 25500173 cycles: 7528781 heartbeat IPC: 3.876 cumulative IPC: 3.387 (Simulation time: 00 hr 02 min 19 sec)
Heartbeat CPU 0 instructions: 26000180 cycles: 7641182 heartbeat IPC: 4.448 cumulative IPC: 3.403 (Simulation time: 00 hr 02 min 21 sec)
Heartbeat CPU 0 instructions: 26500187 cycles: 7752691 heartbeat IPC: 4.484 cumulative IPC: 3.418 (Simulation time: 00 hr 02 min 24 sec)
Heartbeat CPU 0 instructions: 27000194 cycles: 7860412 heartbeat IPC: 4.642 cumulative IPC: 3.435 (Simulation time: 00 hr 02 min 26 sec)
Heartbeat CPU 0 instructions: 27500200 cycles: 7966942 heartbeat IPC: 4.694 cumulative IPC: 3.452 (Simulation time: 00 hr 02 min 28 sec)
Heartbeat CPU 0 instructions: 28000203 cycles: 8081609 heartbeat IPC: 4.36 cumulative IPC: 3.465 (Simulation time: 00 hr 02 min 31 sec)
Heartbeat CPU 0 instructions: 28500209 cycles: 8212005 heartbeat IPC: 3.835 cumulative IPC: 3.471 (Simulation time: 00 hr 02 min 33 sec)
Heartbeat CPU 0 instructions: 29000215 cycles: 8373169 heartbeat IPC: 3.102 cumulative IPC: 3.463 (Simulation time: 00 hr 02 min 36 sec)
Heartbeat CPU 0 instructions: 29500215 cycles: 8521525 heartbeat IPC: 3.37 cumulative IPC: 3.462 (Simulation time: 00 hr 02 min 39 sec)
Heartbeat CPU 0 instructions: 30000220 cycles: 8653756 heartbeat IPC: 3.781 cumulative IPC: 3.467 (Simulation time: 00 hr 02 min 41 sec)
Heartbeat CPU 0 instructions: 30500221 cycles: 8775697 heartbeat IPC: 4.1 cumulative IPC: 3.476 (Simulation time: 00 hr 02 min 44 sec)
Heartbeat CPU 0 instructions: 31000228 cycles: 8884409 heartbeat IPC: 4.599 cumulative IPC: 3.489 (Simulation time: 00 hr 02 min 46 sec)
Heartbeat CPU 0 instructions: 31500229 cycles: 8993990 heartbeat IPC: 4.563 cumulative IPC: 3.502 (Simulation time: 00 hr 02 min 48 sec)
Heartbeat CPU 0 instructions: 32000234 cycles: 9110857 heartbeat IPC: 4.278 cumulative IPC: 3.512 (Simulation time: 00 hr 02 min 51 sec)
Heartbeat CPU 0 instructions: 32500239 cycles: 9223813 heartbeat IPC: 4.427 cumulative IPC: 3.524 (Simulation time: 00 hr 02 min 53 sec)
Heartbeat CPU 0 instructions: 33000245 cycles: 9334540 heartbeat IPC: 4.516 cumulative IPC: 3.535 (Simulation time: 00 hr 02 min 55 sec)
Heartbeat CPU 0 instructions: 33500249 cycles: 9448483 heartbeat IPC: 4.388 cumulative IPC: 3.546 (Simulation time: 00 hr 02 min 58 sec)
Heartbeat CPU 0 instructions: 34000249 cycles: 9559552 heartbeat IPC: 4.502 cumulative IPC: 3.557 (Simulation time: 00 hr 03 min 00 sec)
Heartbeat CPU 0 instructions: 34500255 cycles: 9673483 heartbeat IPC: 4.389 cumulative IPC: 3.566 (Simulation time: 00 hr 03 min 02 sec)
Heartbeat CPU 0 instructions: 35000257 cycles: 9788826 heartbeat IPC: 4.335 cumulative IPC: 3.576 (Simulation time: 00 hr 03 min 04 sec)
Heartbeat CPU 0 instructions: 35500264 cycles: 9901498 heartbeat IPC: 4.438 cumulative IPC: 3.585 (Simulation time: 00 hr 03 min 06 sec)
Heartbeat CPU 0 instructions: 36000271 cycles: 10037332 heartbeat IPC: 3.681 cumulative IPC: 3.587 (Simulation time: 00 hr 03 min 09 sec)
Heartbeat CPU 0 instructions: 36500277 cycles: 10167123 heartbeat IPC: 3.852 cumulative IPC: 3.59 (Simulation time: 00 hr 03 min 11 sec)
Heartbeat CPU 0 instructions: 37000281 cycles: 10289760 heartbeat IPC: 4.077 cumulative IPC: 3.596 (Simulation time: 00 hr 03 min 14 sec)
Heartbeat CPU 0 instructions: 37500287 cycles: 10408614 heartbeat IPC: 4.207 cumulative IPC: 3.603 (Simulation time: 00 hr 03 min 16 sec)
Heartbeat CPU 0 instructions: 38000287 cycles: 10543375 heartbeat IPC: 3.71 cumulative IPC: 3.604 (Simulation time: 00 hr 03 min 19 sec)
Heartbeat CPU 0 instructions: 38500292 cycles: 10665359 heartbeat IPC: 4.099 cumulative IPC: 3.61 (Simulation time: 00 hr 03 min 21 sec)
Heartbeat CPU 0 instructions: 39000296 cycles: 10792282 heartbeat IPC: 3.939 cumulative IPC: 3.614 (Simulation time: 00 hr 03 min 24 sec)
Heartbeat CPU 0 instructions: 39500296 cycles: 10917764 heartbeat IPC: 3.985 cumulative IPC: 3.618 (Simulation time: 00 hr 03 min 26 sec)
Heartbeat CPU 0 instructions: 40000298 cycles: 11061356 heartbeat IPC: 3.482 cumulative IPC: 3.616 (Simulation time: 00 hr 03 min 29 sec)
Heartbeat CPU 0 instructions: 40500302 cycles: 11186809 heartbeat IPC: 3.986 cumulative IPC: 3.62 (Simulation time: 00 hr 03 min 31 sec)
Heartbeat CPU 0 instructions: 41000302 cycles: 11305563 heartbeat IPC: 4.21 cumulative IPC: 3.627 (Simulation time: 00 hr 03 min 34 sec)
Heartbeat CPU 0 instructions: 41500308 cycles: 11415276 heartbeat IPC: 4.557 cumulative IPC: 3.636 (Simulation time: 00 hr 03 min 36 sec)
Heartbeat CPU 0 instructions: 42000309 cycles: 11527794 heartbeat IPC: 4.444 cumulative IPC: 3.643 (Simulation time: 00 hr 03 min 38 sec)
Heartbeat CPU 0 instructions: 42500316 cycles: 11631411 heartbeat IPC: 4.826 cumulative IPC: 3.654 (Simulation time: 00 hr 03 min 40 sec)
Heartbeat CPU 0 instructions: 43000316 cycles: 11731793 heartbeat IPC: 4.981 cumulative IPC: 3.665 (Simulation time: 00 hr 03 min 42 sec)
Heartbeat CPU 0 instructions: 43500317 cycles: 11834103 heartbeat IPC: 4.887 cumulative IPC: 3.676 (Simulation time: 00 hr 03 min 43 sec)
Heartbeat CPU 0 instructions: 44000324 cycles: 11935209 heartbeat IPC: 4.945 cumulative IPC: 3.687 (Simulation time: 00 hr 03 min 45 sec)
Heartbeat CPU 0 instructions: 44500330 cycles: 12057946 heartbeat IPC: 4.074 cumulative IPC: 3.691 (Simulation time: 00 hr 03 min 48 sec)
Heartbeat CPU 0 instructions: 45000333 cycles: 12226631 heartbeat IPC: 2.964 cumulative IPC: 3.681 (Simulation time: 00 hr 03 min 51 sec)
Heartbeat CPU 0 instructions: 45500339 cycles: 12340318 heartbeat IPC: 4.398 cumulative IPC: 3.687 (Simulation time: 00 hr 03 min 53 sec)
Heartbeat CPU 0 instructions: 46000342 cycles: 12471642 heartbeat IPC: 3.807 cumulative IPC: 3.688 (Simulation time: 00 hr 03 min 55 sec)
Heartbeat CPU 0 instructions: 46500342 cycles: 12587342 heartbeat IPC: 4.322 cumulative IPC: 3.694 (Simulation time: 00 hr 03 min 57 sec)
Heartbeat CPU 0 instructions: 47000342 cycles: 12718962 heartbeat IPC: 3.799 cumulative IPC: 3.695 (Simulation time: 00 hr 04 min 00 sec)
Heartbeat CPU 0 instructions: 47500342 cycles: 12856746 heartbeat IPC: 3.629 cumulative IPC: 3.695 (Simulation time: 00 hr 04 min 02 sec)
Heartbeat CPU 0 instructions: 48000344 cycles: 12999594 heartbeat IPC: 3.5 cumulative IPC: 3.692 (Simulation time: 00 hr 04 min 05 sec)
Heartbeat CPU 0 instructions: 48500349 cycles: 13134780 heartbeat IPC: 3.699 cumulative IPC: 3.693 (Simulation time: 00 hr 04 min 08 sec)
Heartbeat CPU 0 instructions: 49000354 cycles: 13278903 heartbeat IPC: 3.469 cumulative IPC: 3.69 (Simulation time: 00 hr 04 min 10 sec)
Heartbeat CPU 0 instructions: 49500355 cycles: 13429298 heartbeat IPC: 3.325 cumulative IPC: 3.686 (Simulation time: 00 hr 04 min 13 sec)
Warmup halting CPU 0 at instruction 50000002 cycle 13609231 for remainder of phase
Warmup finished CPU 0 instructions: 50000002 cycles: 13609231 cumulative IPC: 3.674 (Simulation time: 00 hr 04 min 16 sec)
Warmup complete CPU 0 instructions: 50000002 cycles: 13609231 cumulative IPC: 3.674 (Simulation time: 00 hr 04 min 16 sec)
Heartbeat CPU 0 instructions: 50000359 cycles: 13609791 heartbeat IPC: 2.77 cumulative IPC: 0.6375 (Simulation time: 00 hr 04 min 16 sec)
Heartbeat CPU 0 instructions: 50500361 cycles: 15350726 heartbeat IPC: 0.2872 cumulative IPC: 0.2873 (Simulation time: 00 hr 04 min 31 sec)
Heartbeat CPU 0 instructions: 51000363 cycles: 17146494 heartbeat IPC: 0.2784 cumulative IPC: 0.2828 (Simulation time: 00 hr 04 min 46 sec)
Heartbeat CPU 0 instructions: 51500363 cycles: 19034117 heartbeat IPC: 0.2649 cumulative IPC: 0.2766 (Simulation time: 00 hr 05 min 02 sec)
Heartbeat CPU 0 instructions: 52000367 cycles: 20617351 heartbeat IPC: 0.3158 cumulative IPC: 0.2854 (Simulation time: 00 hr 05 min 14 sec)
Heartbeat CPU 0 instructions: 52500370 cycles: 22581356 heartbeat IPC: 0.2546 cumulative IPC: 0.2787 (Simulation time: 00 hr 05 min 29 sec)
Heartbeat CPU 0 instructions: 53000372 cycles: 24403933 heartbeat IPC: 0.2743 cumulative IPC: 0.2779 (Simulation time: 00 hr 05 min 42 sec)
Heartbeat CPU 0 instructions: 53500375 cycles: 24872004 heartbeat IPC: 1.068 cumulative IPC: 0.3108 (Simulation time: 00 hr 05 min 47 sec)
Heartbeat CPU 0 instructions: 54000379 cycles: 25755518 heartbeat IPC: 0.5659 cumulative IPC: 0.3293 (Simulation time: 00 hr 05 min 54 sec)
Heartbeat CPU 0 instructions: 54500381 cycles: 26235317 heartbeat IPC: 1.042 cumulative IPC: 0.3564 (Simulation time: 00 hr 05 min 58 sec)
Heartbeat CPU 0 instructions: 55000388 cycles: 27345517 heartbeat IPC: 0.4504 cumulative IPC: 0.364 (Simulation time: 00 hr 06 min 06 sec)
Heartbeat CPU 0 instructions: 55500394 cycles: 28701859 heartbeat IPC: 0.3686 cumulative IPC: 0.3644 (Simulation time: 00 hr 06 min 16 sec)
Heartbeat CPU 0 instructions: 56000395 cycles: 30233175 heartbeat IPC: 0.3265 cumulative IPC: 0.3609 (Simulation time: 00 hr 06 min 28 sec)
Heartbeat CPU 0 instructions: 56500399 cycles: 31863662 heartbeat IPC: 0.3067 cumulative IPC: 0.3561 (Simulation time: 00 hr 06 min 40 sec)
Heartbeat CPU 0 instructions: 57000399 cycles: 33178047 heartbeat IPC: 0.3804 cumulative IPC: 0.3577 (Simulation time: 00 hr 06 min 50 sec)
Heartbeat CPU 0 instructions: 57500399 cycles: 34980900 heartbeat IPC: 0.2773 cumulative IPC: 0.351 (Simulation time: 00 hr 07 min 03 sec)
Heartbeat CPU 0 instructions: 58000400 cycles: 35558524 heartbeat IPC: 0.8656 cumulative IPC: 0.3645 (Simulation time: 00 hr 07 min 08 sec)
Heartbeat CPU 0 instructions: 58500407 cycles: 35993063 heartbeat IPC: 1.151 cumulative IPC: 0.3798 (Simulation time: 00 hr 07 min 12 sec)
Heartbeat CPU 0 instructions: 59000408 cycles: 36458088 heartbeat IPC: 1.075 cumulative IPC: 0.3939 (Simulation time: 00 hr 07 min 16 sec)
Heartbeat CPU 0 instructions: 59500410 cycles: 36845722 heartbeat IPC: 1.29 cumulative IPC: 0.4089 (Simulation time: 00 hr 07 min 20 sec)
Heartbeat CPU 0 instructions: 60000414 cycles: 37212491 heartbeat IPC: 1.363 cumulative IPC: 0.4237 (Simulation time: 00 hr 07 min 23 sec)
Heartbeat CPU 0 instructions: 60500414 cycles: 37685891 heartbeat IPC: 1.056 cumulative IPC: 0.4361 (Simulation time: 00 hr 07 min 28 sec)
Heartbeat CPU 0 instructions: 61000415 cycles: 38458260 heartbeat IPC: 0.6474 cumulative IPC: 0.4427 (Simulation time: 00 hr 07 min 34 sec)
Heartbeat CPU 0 instructions: 61500421 cycles: 39256636 heartbeat IPC: 0.6263 cumulative IPC: 0.4484 (Simulation time: 00 hr 07 min 41 sec)
Heartbeat CPU 0 instructions: 62000424 cycles: 39855819 heartbeat IPC: 0.8345 cumulative IPC: 0.4572 (Simulation time: 00 hr 07 min 46 sec)
Heartbeat CPU 0 instructions: 62500431 cycles: 40410098 heartbeat IPC: 0.9021 cumulative IPC: 0.4664 (Simulation time: 00 hr 07 min 51 sec)
Heartbeat CPU 0 instructions: 63000431 cycles: 40999989 heartbeat IPC: 0.8476 cumulative IPC: 0.4746 (Simulation time: 00 hr 07 min 56 sec)
Heartbeat CPU 0 instructions: 63500432 cycles: 41414532 heartbeat IPC: 1.206 cumulative IPC: 0.4855 (Simulation time: 00 hr 08 min 00 sec)
Heartbeat CPU 0 instructions: 64000435 cycles: 41807723 heartbeat IPC: 1.272 cumulative IPC: 0.4965 (Simulation time: 00 hr 08 min 04 sec)
Heartbeat CPU 0 instructions: 64500437 cycles: 42595373 heartbeat IPC: 0.6348 cumulative IPC: 0.5003 (Simulation time: 00 hr 08 min 11 sec)
Heartbeat CPU 0 instructions: 65000437 cycles: 43123965 heartbeat IPC: 0.9459 cumulative IPC: 0.5082 (Simulation time: 00 hr 08 min 16 sec)
Heartbeat CPU 0 instructions: 65500441 cycles: 43617863 heartbeat IPC: 1.012 cumulative IPC: 0.5165 (Simulation time: 00 hr 08 min 20 sec)
Heartbeat CPU 0 instructions: 66000442 cycles: 44083848 heartbeat IPC: 1.073 cumulative IPC: 0.525 (Simulation time: 00 hr 08 min 25 sec)
Heartbeat CPU 0 instructions: 66500446 cycles: 44645089 heartbeat IPC: 0.8909 cumulative IPC: 0.5317 (Simulation time: 00 hr 08 min 30 sec)
Heartbeat CPU 0 instructions: 67000448 cycles: 44981891 heartbeat IPC: 1.485 cumulative IPC: 0.5419 (Simulation time: 00 hr 08 min 33 sec)
Heartbeat CPU 0 instructions: 67500451 cycles: 45305890 heartbeat IPC: 1.543 cumulative IPC: 0.5521 (Simulation time: 00 hr 08 min 37 sec)
Heartbeat CPU 0 instructions: 68000451 cycles: 45667499 heartbeat IPC: 1.383 cumulative IPC: 0.5615 (Simulation time: 00 hr 08 min 40 sec)
Heartbeat CPU 0 instructions: 68500453 cycles: 46262884 heartbeat IPC: 0.8398 cumulative IPC: 0.5666 (Simulation time: 00 hr 08 min 46 sec)
Heartbeat CPU 0 instructions: 69000453 cycles: 46891811 heartbeat IPC: 0.795 cumulative IPC: 0.5709 (Simulation time: 00 hr 08 min 51 sec)
Heartbeat CPU 0 instructions: 69500457 cycles: 47439310 heartbeat IPC: 0.9133 cumulative IPC: 0.5764 (Simulation time: 00 hr 08 min 56 sec)
Heartbeat CPU 0 instructions: 70000458 cycles: 48007392 heartbeat IPC: 0.8802 cumulative IPC: 0.5814 (Simulation time: 00 hr 09 min 02 sec)
Heartbeat CPU 0 instructions: 70500459 cycles: 48563696 heartbeat IPC: 0.8988 cumulative IPC: 0.5865 (Simulation time: 00 hr 09 min 07 sec)
Heartbeat CPU 0 instructions: 71000460 cycles: 49231960 heartbeat IPC: 0.7482 cumulative IPC: 0.5895 (Simulation time: 00 hr 09 min 13 sec)
Heartbeat CPU 0 instructions: 71500465 cycles: 49755812 heartbeat IPC: 0.9545 cumulative IPC: 0.5948 (Simulation time: 00 hr 09 min 17 sec)
Heartbeat CPU 0 instructions: 72000469 cycles: 50343554 heartbeat IPC: 0.8507 cumulative IPC: 0.5989 (Simulation time: 00 hr 09 min 23 sec)
Heartbeat CPU 0 instructions: 72500475 cycles: 51040458 heartbeat IPC: 0.7175 cumulative IPC: 0.6011 (Simulation time: 00 hr 09 min 29 sec)
Heartbeat CPU 0 instructions: 73000475 cycles: 51726564 heartbeat IPC: 0.7288 cumulative IPC: 0.6034 (Simulation time: 00 hr 09 min 34 sec)
Heartbeat CPU 0 instructions: 73500481 cycles: 52718827 heartbeat IPC: 0.5039 cumulative IPC: 0.6009 (Simulation time: 00 hr 09 min 44 sec)
Heartbeat CPU 0 instructions: 74000482 cycles: 54628244 heartbeat IPC: 0.2619 cumulative IPC: 0.5851 (Simulation time: 00 hr 10 min 02 sec)
Heartbeat CPU 0 instructions: 74500482 cycles: 55120497 heartbeat IPC: 1.016 cumulative IPC: 0.5902 (Simulation time: 00 hr 10 min 06 sec)
Heartbeat CPU 0 instructions: 75000484 cycles: 55690236 heartbeat IPC: 0.8776 cumulative IPC: 0.5941 (Simulation time: 00 hr 10 min 12 sec)
Heartbeat CPU 0 instructions: 75500484 cycles: 56527583 heartbeat IPC: 0.5971 cumulative IPC: 0.5942 (Simulation time: 00 hr 10 min 19 sec)
Heartbeat CPU 0 instructions: 76000488 cycles: 57354981 heartbeat IPC: 0.6043 cumulative IPC: 0.5944 (Simulation time: 00 hr 10 min 27 sec)
Heartbeat CPU 0 instructions: 76500490 cycles: 58110632 heartbeat IPC: 0.6617 cumulative IPC: 0.5955 (Simulation time: 00 hr 10 min 33 sec)
Heartbeat CPU 0 instructions: 77000493 cycles: 61212960 heartbeat IPC: 0.1612 cumulative IPC: 0.5672 (Simulation time: 00 hr 10 min 54 sec)
Heartbeat CPU 0 instructions: 77500495 cycles: 62068738 heartbeat IPC: 0.5843 cumulative IPC: 0.5675 (Simulation time: 00 hr 11 min 00 sec)
Heartbeat CPU 0 instructions: 78000496 cycles: 63034929 heartbeat IPC: 0.5175 cumulative IPC: 0.5665 (Simulation time: 00 hr 11 min 08 sec)
Heartbeat CPU 0 instructions: 78500496 cycles: 64060153 heartbeat IPC: 0.4877 cumulative IPC: 0.5649 (Simulation time: 00 hr 11 min 15 sec)
Heartbeat CPU 0 instructions: 79000499 cycles: 64668580 heartbeat IPC: 0.8218 cumulative IPC: 0.568 (Simulation time: 00 hr 11 min 20 sec)
Heartbeat CPU 0 instructions: 79500501 cycles: 65317967 heartbeat IPC: 0.77 cumulative IPC: 0.5705 (Simulation time: 00 hr 11 min 26 sec)
Heartbeat CPU 0 instructions: 80000501 cycles: 65999907 heartbeat IPC: 0.7332 cumulative IPC: 0.5726 (Simulation time: 00 hr 11 min 31 sec)
Heartbeat CPU 0 instructions: 80500506 cycles: 67057910 heartbeat IPC: 0.4726 cumulative IPC: 0.5707 (Simulation time: 00 hr 11 min 39 sec)
Heartbeat CPU 0 instructions: 81000506 cycles: 68792052 heartbeat IPC: 0.2883 cumulative IPC: 0.5618 (Simulation time: 00 hr 11 min 52 sec)
Heartbeat CPU 0 instructions: 81500512 cycles: 70220277 heartbeat IPC: 0.3501 cumulative IPC: 0.5564 (Simulation time: 00 hr 12 min 04 sec)
Heartbeat CPU 0 instructions: 82000519 cycles: 72023186 heartbeat IPC: 0.2773 cumulative IPC: 0.5478 (Simulation time: 00 hr 12 min 19 sec)
Heartbeat CPU 0 instructions: 82500520 cycles: 73818507 heartbeat IPC: 0.2785 cumulative IPC: 0.5398 (Simulation time: 00 hr 12 min 34 sec)
Heartbeat CPU 0 instructions: 83000520 cycles: 75390526 heartbeat IPC: 0.3181 cumulative IPC: 0.5342 (Simulation time: 00 hr 12 min 46 sec)
Heartbeat CPU 0 instructions: 83500527 cycles: 77194065 heartbeat IPC: 0.2772 cumulative IPC: 0.5269 (Simulation time: 00 hr 13 min 00 sec)
Heartbeat CPU 0 instructions: 84000527 cycles: 79434665 heartbeat IPC: 0.2232 cumulative IPC: 0.5165 (Simulation time: 00 hr 13 min 18 sec)
Heartbeat CPU 0 instructions: 84500527 cycles: 80465293 heartbeat IPC: 0.4851 cumulative IPC: 0.516 (Simulation time: 00 hr 13 min 25 sec)
Heartbeat CPU 0 instructions: 85000528 cycles: 81285333 heartbeat IPC: 0.6097 cumulative IPC: 0.5172 (Simulation time: 00 hr 13 min 32 sec)
Heartbeat CPU 0 instructions: 85500528 cycles: 81713215 heartbeat IPC: 1.169 cumulative IPC: 0.5213 (Simulation time: 00 hr 13 min 36 sec)
Heartbeat CPU 0 instructions: 86000532 cycles: 82307212 heartbeat IPC: 0.8418 cumulative IPC: 0.524 (Simulation time: 00 hr 13 min 41 sec)
Heartbeat CPU 0 instructions: 86500533 cycles: 83846527 heartbeat IPC: 0.3248 cumulative IPC: 0.5197 (Simulation time: 00 hr 13 min 51 sec)
Heartbeat CPU 0 instructions: 87000535 cycles: 85214905 heartbeat IPC: 0.3654 cumulative IPC: 0.5167 (Simulation time: 00 hr 14 min 02 sec)
Heartbeat CPU 0 instructions: 87500537 cycles: 86797704 heartbeat IPC: 0.3159 cumulative IPC: 0.5124 (Simulation time: 00 hr 14 min 13 sec)
Heartbeat CPU 0 instructions: 88000542 cycles: 88256593 heartbeat IPC: 0.3427 cumulative IPC: 0.5091 (Simulation time: 00 hr 14 min 24 sec)
Heartbeat CPU 0 instructions: 88500542 cycles: 89539066 heartbeat IPC: 0.3899 cumulative IPC: 0.5071 (Simulation time: 00 hr 14 min 34 sec)
Heartbeat CPU 0 instructions: 89000545 cycles: 91012772 heartbeat IPC: 0.3393 cumulative IPC: 0.5039 (Simulation time: 00 hr 14 min 45 sec)
Heartbeat CPU 0 instructions: 89500545 cycles: 91489316 heartbeat IPC: 1.049 cumulative IPC: 0.5072 (Simulation time: 00 hr 14 min 49 sec)
Heartbeat CPU 0 instructions: 90000547 cycles: 91960787 heartbeat IPC: 1.061 cumulative IPC: 0.5105 (Simulation time: 00 hr 14 min 53 sec)
Heartbeat CPU 0 instructions: 90500548 cycles: 92349052 heartbeat IPC: 1.288 cumulative IPC: 0.5144 (Simulation time: 00 hr 14 min 57 sec)
Heartbeat CPU 0 instructions: 91000548 cycles: 92723459 heartbeat IPC: 1.335 cumulative IPC: 0.5182 (Simulation time: 00 hr 15 min 00 sec)
Heartbeat CPU 0 instructions: 91500548 cycles: 93137726 heartbeat IPC: 1.207 cumulative IPC: 0.5218 (Simulation time: 00 hr 15 min 04 sec)
Heartbeat CPU 0 instructions: 92000550 cycles: 93653332 heartbeat IPC: 0.9697 cumulative IPC: 0.5247 (Simulation time: 00 hr 15 min 09 sec)
Heartbeat CPU 0 instructions: 92500551 cycles: 94522862 heartbeat IPC: 0.575 cumulative IPC: 0.5253 (Simulation time: 00 hr 15 min 15 sec)
Heartbeat CPU 0 instructions: 93000555 cycles: 95292577 heartbeat IPC: 0.6496 cumulative IPC: 0.5264 (Simulation time: 00 hr 15 min 22 sec)
Heartbeat CPU 0 instructions: 93500556 cycles: 95902053 heartbeat IPC: 0.8204 cumulative IPC: 0.5286 (Simulation time: 00 hr 15 min 27 sec)
Heartbeat CPU 0 instructions: 94000556 cycles: 96534247 heartbeat IPC: 0.7909 cumulative IPC: 0.5306 (Simulation time: 00 hr 15 min 32 sec)
Heartbeat CPU 0 instructions: 94500558 cycles: 96956059 heartbeat IPC: 1.185 cumulative IPC: 0.5339 (Simulation time: 00 hr 15 min 37 sec)
Heartbeat CPU 0 instructions: 95000559 cycles: 97427322 heartbeat IPC: 1.061 cumulative IPC: 0.5369 (Simulation time: 00 hr 15 min 41 sec)
Heartbeat CPU 0 instructions: 95500565 cycles: 97887805 heartbeat IPC: 1.086 cumulative IPC: 0.5399 (Simulation time: 00 hr 15 min 45 sec)
Heartbeat CPU 0 instructions: 96000570 cycles: 98375833 heartbeat IPC: 1.025 cumulative IPC: 0.5427 (Simulation time: 00 hr 15 min 50 sec)
Heartbeat CPU 0 instructions: 96500570 cycles: 98871976 heartbeat IPC: 1.008 cumulative IPC: 0.5454 (Simulation time: 00 hr 15 min 54 sec)
Heartbeat CPU 0 instructions: 97000577 cycles: 99342816 heartbeat IPC: 1.062 cumulative IPC: 0.5482 (Simulation time: 00 hr 15 min 59 sec)
Heartbeat CPU 0 instructions: 97500578 cycles: 99814992 heartbeat IPC: 1.059 cumulative IPC: 0.551 (Simulation time: 00 hr 16 min 03 sec)
Heartbeat CPU 0 instructions: 98000583 cycles: 100303642 heartbeat IPC: 1.023 cumulative IPC: 0.5537 (Simulation time: 00 hr 16 min 08 sec)
Heartbeat CPU 0 instructions: 98500585 cycles: 100622810 heartbeat IPC: 1.567 cumulative IPC: 0.5574 (Simulation time: 00 hr 16 min 11 sec)
Heartbeat CPU 0 instructions: 99000590 cycles: 100932162 heartbeat IPC: 1.616 cumulative IPC: 0.5611 (Simulation time: 00 hr 16 min 14 sec)
Heartbeat CPU 0 instructions: 99500591 cycles: 101409729 heartbeat IPC: 1.047 cumulative IPC: 0.5638 (Simulation time: 00 hr 16 min 18 sec)
Heartbeat CPU 0 instructions: 100000592 cycles: 102005254 heartbeat IPC: 0.8396 cumulative IPC: 0.5656 (Simulation time: 00 hr 16 min 24 sec)
Heartbeat CPU 0 instructions: 100500592 cycles: 102538772 heartbeat IPC: 0.9372 cumulative IPC: 0.5679 (Simulation time: 00 hr 16 min 28 sec)
Heartbeat CPU 0 instructions: 101000594 cycles: 103028173 heartbeat IPC: 1.022 cumulative IPC: 0.5704 (Simulation time: 00 hr 16 min 33 sec)
Heartbeat CPU 0 instructions: 101500594 cycles: 103605211 heartbeat IPC: 0.8665 cumulative IPC: 0.5723 (Simulation time: 00 hr 16 min 38 sec)
Heartbeat CPU 0 instructions: 102000601 cycles: 104208272 heartbeat IPC: 0.8291 cumulative IPC: 0.574 (Simulation time: 00 hr 16 min 43 sec)
Heartbeat CPU 0 instructions: 102500607 cycles: 104794698 heartbeat IPC: 0.8526 cumulative IPC: 0.5758 (Simulation time: 00 hr 16 min 48 sec)
Heartbeat CPU 0 instructions: 103000612 cycles: 105434936 heartbeat IPC: 0.781 cumulative IPC: 0.5772 (Simulation time: 00 hr 16 min 54 sec)
Heartbeat CPU 0 instructions: 103500619 cycles: 105975476 heartbeat IPC: 0.925 cumulative IPC: 0.5792 (Simulation time: 00 hr 16 min 58 sec)
Heartbeat CPU 0 instructions: 104000622 cycles: 106703759 heartbeat IPC: 0.6866 cumulative IPC: 0.5801 (Simulation time: 00 hr 17 min 04 sec)
Heartbeat CPU 0 instructions: 104500624 cycles: 107368051 heartbeat IPC: 0.7527 cumulative IPC: 0.5813 (Simulation time: 00 hr 17 min 10 sec)
Heartbeat CPU 0 instructions: 105000625 cycles: 109006104 heartbeat IPC: 0.3052 cumulative IPC: 0.5765 (Simulation time: 00 hr 17 min 23 sec)
Heartbeat CPU 0 instructions: 105500627 cycles: 110790337 heartbeat IPC: 0.2802 cumulative IPC: 0.5711 (Simulation time: 00 hr 17 min 39 sec)
Heartbeat CPU 0 instructions: 106000634 cycles: 111141764 heartbeat IPC: 1.423 cumulative IPC: 0.5742 (Simulation time: 00 hr 17 min 42 sec)
Heartbeat CPU 0 instructions: 106500634 cycles: 111806854 heartbeat IPC: 0.7518 cumulative IPC: 0.5754 (Simulation time: 00 hr 17 min 48 sec)
Heartbeat CPU 0 instructions: 107000635 cycles: 112595558 heartbeat IPC: 0.634 cumulative IPC: 0.5758 (Simulation time: 00 hr 17 min 55 sec)
Heartbeat CPU 0 instructions: 107500637 cycles: 113449520 heartbeat IPC: 0.5855 cumulative IPC: 0.5759 (Simulation time: 00 hr 18 min 02 sec)
Heartbeat CPU 0 instructions: 108000641 cycles: 114260426 heartbeat IPC: 0.6166 cumulative IPC: 0.5763 (Simulation time: 00 hr 18 min 09 sec)
Heartbeat CPU 0 instructions: 108500641 cycles: 116265161 heartbeat IPC: 0.2494 cumulative IPC: 0.5699 (Simulation time: 00 hr 18 min 23 sec)
Heartbeat CPU 0 instructions: 109000641 cycles: 116991135 heartbeat IPC: 0.6887 cumulative IPC: 0.5707 (Simulation time: 00 hr 18 min 28 sec)
Heartbeat CPU 0 instructions: 109500642 cycles: 117841747 heartbeat IPC: 0.5878 cumulative IPC: 0.5708 (Simulation time: 00 hr 18 min 34 sec)
Heartbeat CPU 0 instructions: 110000643 cycles: 118898884 heartbeat IPC: 0.473 cumulative IPC: 0.5699 (Simulation time: 00 hr 18 min 42 sec)
Heartbeat CPU 0 instructions: 110500645 cycles: 119586891 heartbeat IPC: 0.7267 cumulative IPC: 0.5709 (Simulation time: 00 hr 18 min 47 sec)
Heartbeat CPU 0 instructions: 111000645 cycles: 120329617 heartbeat IPC: 0.6732 cumulative IPC: 0.5716 (Simulation time: 00 hr 18 min 53 sec)
Heartbeat CPU 0 instructions: 111500650 cycles: 120969308 heartbeat IPC: 0.7816 cumulative IPC: 0.5728 (Simulation time: 00 hr 18 min 58 sec)
Heartbeat CPU 0 instructions: 112000651 cycles: 121689411 heartbeat IPC: 0.6943 cumulative IPC: 0.5737 (Simulation time: 00 hr 19 min 03 sec)
Heartbeat CPU 0 instructions: 112500653 cycles: 122456975 heartbeat IPC: 0.6514 cumulative IPC: 0.5742 (Simulation time: 00 hr 19 min 13 sec)
Heartbeat CPU 0 instructions: 113000658 cycles: 123198571 heartbeat IPC: 0.6742 cumulative IPC: 0.5749 (Simulation time: 00 hr 19 min 22 sec)
Heartbeat CPU 0 instructions: 113500659 cycles: 124234791 heartbeat IPC: 0.4825 cumulative IPC: 0.574 (Simulation time: 00 hr 19 min 34 sec)
Heartbeat CPU 0 instructions: 114000659 cycles: 126239681 heartbeat IPC: 0.2494 cumulative IPC: 0.5682 (Simulation time: 00 hr 19 min 49 sec)
Heartbeat CPU 0 instructions: 114500659 cycles: 127819611 heartbeat IPC: 0.3165 cumulative IPC: 0.5648 (Simulation time: 00 hr 20 min 01 sec)
Heartbeat CPU 0 instructions: 115000661 cycles: 129289403 heartbeat IPC: 0.3402 cumulative IPC: 0.5619 (Simulation time: 00 hr 20 min 13 sec)
Heartbeat CPU 0 instructions: 115500661 cycles: 131139512 heartbeat IPC: 0.2703 cumulative IPC: 0.5573 (Simulation time: 00 hr 20 min 27 sec)
Heartbeat CPU 0 instructions: 116000666 cycles: 133049588 heartbeat IPC: 0.2618 cumulative IPC: 0.5526 (Simulation time: 00 hr 20 min 41 sec)
Heartbeat CPU 0 instructions: 116500666 cycles: 134624085 heartbeat IPC: 0.3176 cumulative IPC: 0.5495 (Simulation time: 00 hr 20 min 53 sec)
Heartbeat CPU 0 instructions: 117000670 cycles: 136377046 heartbeat IPC: 0.2852 cumulative IPC: 0.5458 (Simulation time: 00 hr 21 min 06 sec)
Heartbeat CPU 0 instructions: 117500671 cycles: 138355299 heartbeat IPC: 0.2527 cumulative IPC: 0.5411 (Simulation time: 00 hr 21 min 20 sec)
Heartbeat CPU 0 instructions: 118000671 cycles: 139789015 heartbeat IPC: 0.3487 cumulative IPC: 0.5389 (Simulation time: 00 hr 21 min 30 sec)
Heartbeat CPU 0 instructions: 118500674 cycles: 140441704 heartbeat IPC: 0.7661 cumulative IPC: 0.5401 (Simulation time: 00 hr 21 min 35 sec)
Heartbeat CPU 0 instructions: 119000675 cycles: 141179066 heartbeat IPC: 0.6781 cumulative IPC: 0.5409 (Simulation time: 00 hr 21 min 41 sec)
Heartbeat CPU 0 instructions: 119500677 cycles: 141649936 heartbeat IPC: 1.062 cumulative IPC: 0.5428 (Simulation time: 00 hr 21 min 45 sec)
Heartbeat CPU 0 instructions: 120000677 cycles: 142919896 heartbeat IPC: 0.3937 cumulative IPC: 0.5413 (Simulation time: 00 hr 21 min 53 sec)
Heartbeat CPU 0 instructions: 120500677 cycles: 144162071 heartbeat IPC: 0.4025 cumulative IPC: 0.54 (Simulation time: 00 hr 22 min 02 sec)
Heartbeat CPU 0 instructions: 121000677 cycles: 145738999 heartbeat IPC: 0.3171 cumulative IPC: 0.5374 (Simulation time: 00 hr 22 min 13 sec)
Heartbeat CPU 0 instructions: 121500681 cycles: 147324162 heartbeat IPC: 0.3154 cumulative IPC: 0.5347 (Simulation time: 00 hr 22 min 24 sec)
Heartbeat CPU 0 instructions: 122000684 cycles: 148573946 heartbeat IPC: 0.4001 cumulative IPC: 0.5335 (Simulation time: 00 hr 22 min 32 sec)
Heartbeat CPU 0 instructions: 122500688 cycles: 150454128 heartbeat IPC: 0.2659 cumulative IPC: 0.5298 (Simulation time: 00 hr 22 min 46 sec)
Heartbeat CPU 0 instructions: 123000688 cycles: 151159506 heartbeat IPC: 0.7088 cumulative IPC: 0.5307 (Simulation time: 00 hr 22 min 51 sec)
Heartbeat CPU 0 instructions: 123500690 cycles: 151733340 heartbeat IPC: 0.8713 cumulative IPC: 0.5321 (Simulation time: 00 hr 22 min 56 sec)
Heartbeat CPU 0 instructions: 124000691 cycles: 152218702 heartbeat IPC: 1.03 cumulative IPC: 0.5339 (Simulation time: 00 hr 23 min 00 sec)
Heartbeat CPU 0 instructions: 124500691 cycles: 152693103 heartbeat IPC: 1.054 cumulative IPC: 0.5357 (Simulation time: 00 hr 23 min 03 sec)
Heartbeat CPU 0 instructions: 125000698 cycles: 153076229 heartbeat IPC: 1.305 cumulative IPC: 0.5378 (Simulation time: 00 hr 23 min 07 sec)
Heartbeat CPU 0 instructions: 125500698 cycles: 153630359 heartbeat IPC: 0.9023 cumulative IPC: 0.5392 (Simulation time: 00 hr 23 min 11 sec)
Heartbeat CPU 0 instructions: 126000703 cycles: 154056443 heartbeat IPC: 1.173 cumulative IPC: 0.5411 (Simulation time: 00 hr 23 min 15 sec)
Heartbeat CPU 0 instructions: 126500704 cycles: 154638386 heartbeat IPC: 0.8592 cumulative IPC: 0.5424 (Simulation time: 00 hr 23 min 19 sec)
Heartbeat CPU 0 instructions: 127000705 cycles: 155417258 heartbeat IPC: 0.642 cumulative IPC: 0.543 (Simulation time: 00 hr 23 min 25 sec)
Heartbeat CPU 0 instructions: 127500707 cycles: 155962240 heartbeat IPC: 0.9175 cumulative IPC: 0.5444 (Simulation time: 00 hr 23 min 30 sec)
Heartbeat CPU 0 instructions: 128000710 cycles: 156730194 heartbeat IPC: 0.6511 cumulative IPC: 0.545 (Simulation time: 00 hr 23 min 35 sec)
Heartbeat CPU 0 instructions: 128500711 cycles: 157748429 heartbeat IPC: 0.491 cumulative IPC: 0.5446 (Simulation time: 00 hr 23 min 43 sec)
Heartbeat CPU 0 instructions: 129000714 cycles: 158348642 heartbeat IPC: 0.833 cumulative IPC: 0.5458 (Simulation time: 00 hr 23 min 48 sec)
Heartbeat CPU 0 instructions: 129500716 cycles: 158882788 heartbeat IPC: 0.9361 cumulative IPC: 0.5472 (Simulation time: 00 hr 23 min 52 sec)
Heartbeat CPU 0 instructions: 130000716 cycles: 159522644 heartbeat IPC: 0.7814 cumulative IPC: 0.5483 (Simulation time: 00 hr 23 min 57 sec)
Heartbeat CPU 0 instructions: 130500717 cycles: 159964213 heartbeat IPC: 1.132 cumulative IPC: 0.55 (Simulation time: 00 hr 24 min 01 sec)
Heartbeat CPU 0 instructions: 131000717 cycles: 160426996 heartbeat IPC: 1.08 cumulative IPC: 0.5517 (Simulation time: 00 hr 24 min 05 sec)
Heartbeat CPU 0 instructions: 131500717 cycles: 160917606 heartbeat IPC: 1.019 cumulative IPC: 0.5533 (Simulation time: 00 hr 24 min 10 sec)
Heartbeat CPU 0 instructions: 132000719 cycles: 161460053 heartbeat IPC: 0.9218 cumulative IPC: 0.5546 (Simulation time: 00 hr 24 min 14 sec)
Heartbeat CPU 0 instructions: 132500720 cycles: 161945384 heartbeat IPC: 1.03 cumulative IPC: 0.5562 (Simulation time: 00 hr 24 min 18 sec)
Heartbeat CPU 0 instructions: 133000720 cycles: 162436318 heartbeat IPC: 1.018 cumulative IPC: 0.5577 (Simulation time: 00 hr 24 min 23 sec)
Heartbeat CPU 0 instructions: 133500726 cycles: 162992720 heartbeat IPC: 0.8986 cumulative IPC: 0.559 (Simulation time: 00 hr 24 min 27 sec)
Heartbeat CPU 0 instructions: 134000728 cycles: 163418763 heartbeat IPC: 1.174 cumulative IPC: 0.5607 (Simulation time: 00 hr 24 min 31 sec)
Heartbeat CPU 0 instructions: 134500733 cycles: 163767705 heartbeat IPC: 1.433 cumulative IPC: 0.5627 (Simulation time: 00 hr 24 min 34 sec)
Heartbeat CPU 0 instructions: 135000736 cycles: 164098132 heartbeat IPC: 1.513 cumulative IPC: 0.5648 (Simulation time: 00 hr 24 min 37 sec)
Heartbeat CPU 0 instructions: 135500740 cycles: 164852430 heartbeat IPC: 0.6629 cumulative IPC: 0.5653 (Simulation time: 00 hr 24 min 43 sec)
Heartbeat CPU 0 instructions: 136000743 cycles: 165532407 heartbeat IPC: 0.7353 cumulative IPC: 0.5661 (Simulation time: 00 hr 24 min 49 sec)
Heartbeat CPU 0 instructions: 136500743 cycles: 166070755 heartbeat IPC: 0.9288 cumulative IPC: 0.5674 (Simulation time: 00 hr 24 min 53 sec)
Heartbeat CPU 0 instructions: 137000743 cycles: 166546456 heartbeat IPC: 1.051 cumulative IPC: 0.5689 (Simulation time: 00 hr 24 min 57 sec)
Heartbeat CPU 0 instructions: 137500748 cycles: 167090219 heartbeat IPC: 0.9195 cumulative IPC: 0.5701 (Simulation time: 00 hr 25 min 02 sec)
Heartbeat CPU 0 instructions: 138000748 cycles: 167727703 heartbeat IPC: 0.7843 cumulative IPC: 0.571 (Simulation time: 00 hr 25 min 07 sec)
Heartbeat CPU 0 instructions: 138500754 cycles: 168295939 heartbeat IPC: 0.8799 cumulative IPC: 0.5721 (Simulation time: 00 hr 25 min 11 sec)
Heartbeat CPU 0 instructions: 139000754 cycles: 168936133 heartbeat IPC: 0.781 cumulative IPC: 0.573 (Simulation time: 00 hr 25 min 17 sec)
Heartbeat CPU 0 instructions: 139500754 cycles: 169515355 heartbeat IPC: 0.8632 cumulative IPC: 0.5741 (Simulation time: 00 hr 25 min 21 sec)
Heartbeat CPU 0 instructions: 140000755 cycles: 170280586 heartbeat IPC: 0.6534 cumulative IPC: 0.5745 (Simulation time: 00 hr 25 min 27 sec)
Heartbeat CPU 0 instructions: 140500755 cycles: 170989435 heartbeat IPC: 0.7054 cumulative IPC: 0.575 (Simulation time: 00 hr 25 min 33 sec)
Heartbeat CPU 0 instructions: 141000756 cycles: 172797869 heartbeat IPC: 0.2765 cumulative IPC: 0.5717 (Simulation time: 00 hr 25 min 49 sec)
Heartbeat CPU 0 instructions: 141500756 cycles: 174043683 heartbeat IPC: 0.4013 cumulative IPC: 0.5703 (Simulation time: 00 hr 25 min 59 sec)
Heartbeat CPU 0 instructions: 142000757 cycles: 174464012 heartbeat IPC: 1.19 cumulative IPC: 0.5719 (Simulation time: 00 hr 26 min 03 sec)
Heartbeat CPU 0 instructions: 142500757 cycles: 175233598 heartbeat IPC: 0.6497 cumulative IPC: 0.5723 (Simulation time: 00 hr 26 min 09 sec)
Heartbeat CPU 0 instructions: 143000759 cycles: 175975806 heartbeat IPC: 0.6737 cumulative IPC: 0.5728 (Simulation time: 00 hr 26 min 15 sec)
Heartbeat CPU 0 instructions: 143500759 cycles: 176842876 heartbeat IPC: 0.5767 cumulative IPC: 0.5728 (Simulation time: 00 hr 26 min 22 sec)
Heartbeat CPU 0 instructions: 144000759 cycles: 177648819 heartbeat IPC: 0.6204 cumulative IPC: 0.573 (Simulation time: 00 hr 26 min 29 sec)
Heartbeat CPU 0 instructions: 144500759 cycles: 179525844 heartbeat IPC: 0.2664 cumulative IPC: 0.5696 (Simulation time: 00 hr 26 min 41 sec)
Heartbeat CPU 0 instructions: 145000764 cycles: 181136197 heartbeat IPC: 0.3105 cumulative IPC: 0.5671 (Simulation time: 00 hr 26 min 51 sec)
Heartbeat CPU 0 instructions: 145500766 cycles: 181960040 heartbeat IPC: 0.6069 cumulative IPC: 0.5673 (Simulation time: 00 hr 26 min 57 sec)
Heartbeat CPU 0 instructions: 146000766 cycles: 183119346 heartbeat IPC: 0.4313 cumulative IPC: 0.5663 (Simulation time: 00 hr 27 min 05 sec)
Heartbeat CPU 0 instructions: 146500767 cycles: 183801941 heartbeat IPC: 0.7325 cumulative IPC: 0.567 (Simulation time: 00 hr 27 min 10 sec)
Heartbeat CPU 0 instructions: 147000767 cycles: 184586291 heartbeat IPC: 0.6375 cumulative IPC: 0.5673 (Simulation time: 00 hr 27 min 16 sec)
Heartbeat CPU 0 instructions: 147500772 cycles: 185223624 heartbeat IPC: 0.7845 cumulative IPC: 0.5681 (Simulation time: 00 hr 27 min 21 sec)
Heartbeat CPU 0 instructions: 148000775 cycles: 185912609 heartbeat IPC: 0.7257 cumulative IPC: 0.5688 (Simulation time: 00 hr 27 min 26 sec)
Heartbeat CPU 0 instructions: 148500781 cycles: 187465400 heartbeat IPC: 0.322 cumulative IPC: 0.5666 (Simulation time: 00 hr 27 min 36 sec)
Heartbeat CPU 0 instructions: 149000781 cycles: 188993757 heartbeat IPC: 0.3271 cumulative IPC: 0.5645 (Simulation time: 00 hr 27 min 48 sec)
Heartbeat CPU 0 instructions: 149500784 cycles: 190704081 heartbeat IPC: 0.2923 cumulative IPC: 0.5619 (Simulation time: 00 hr 28 min 01 sec)
Heartbeat CPU 0 instructions: 150000784 cycles: 192512375 heartbeat IPC: 0.2765 cumulative IPC: 0.559 (Simulation time: 00 hr 28 min 15 sec)
Heartbeat CPU 0 instructions: 150500787 cycles: 194205967 heartbeat IPC: 0.2952 cumulative IPC: 0.5565 (Simulation time: 00 hr 28 min 27 sec)
Heartbeat CPU 0 instructions: 151000787 cycles: 195832452 heartbeat IPC: 0.3074 cumulative IPC: 0.5543 (Simulation time: 00 hr 28 min 39 sec)
Heartbeat CPU 0 instructions: 151500789 cycles: 197788139 heartbeat IPC: 0.2557 cumulative IPC: 0.5511 (Simulation time: 00 hr 28 min 52 sec)
Heartbeat CPU 0 instructions: 152000789 cycles: 199216437 heartbeat IPC: 0.3501 cumulative IPC: 0.5496 (Simulation time: 00 hr 29 min 02 sec)
Heartbeat CPU 0 instructions: 152500789 cycles: 199854205 heartbeat IPC: 0.784 cumulative IPC: 0.5504 (Simulation time: 00 hr 29 min 07 sec)
Heartbeat CPU 0 instructions: 153000791 cycles: 200568063 heartbeat IPC: 0.7004 cumulative IPC: 0.5509 (Simulation time: 00 hr 29 min 12 sec)
Heartbeat CPU 0 instructions: 153500797 cycles: 201016092 heartbeat IPC: 1.116 cumulative IPC: 0.5523 (Simulation time: 00 hr 29 min 16 sec)
Heartbeat CPU 0 instructions: 154000798 cycles: 202320244 heartbeat IPC: 0.3834 cumulative IPC: 0.5511 (Simulation time: 00 hr 29 min 24 sec)
Heartbeat CPU 0 instructions: 154500802 cycles: 203573900 heartbeat IPC: 0.3988 cumulative IPC: 0.5501 (Simulation time: 00 hr 29 min 33 sec)
Heartbeat CPU 0 instructions: 155000802 cycles: 205130177 heartbeat IPC: 0.3213 cumulative IPC: 0.5482 (Simulation time: 00 hr 29 min 43 sec)
Heartbeat CPU 0 instructions: 155500802 cycles: 206792275 heartbeat IPC: 0.3008 cumulative IPC: 0.5461 (Simulation time: 00 hr 29 min 54 sec)
Heartbeat CPU 0 instructions: 156000806 cycles: 208063700 heartbeat IPC: 0.3933 cumulative IPC: 0.5451 (Simulation time: 00 hr 30 min 03 sec)
Heartbeat CPU 0 instructions: 156500806 cycles: 209800554 heartbeat IPC: 0.2879 cumulative IPC: 0.5428 (Simulation time: 00 hr 30 min 15 sec)
Heartbeat CPU 0 instructions: 157000807 cycles: 210328742 heartbeat IPC: 0.9466 cumulative IPC: 0.5439 (Simulation time: 00 hr 30 min 18 sec)
Heartbeat CPU 0 instructions: 157500808 cycles: 210773965 heartbeat IPC: 1.123 cumulative IPC: 0.5452 (Simulation time: 00 hr 30 min 22 sec)
Heartbeat CPU 0 instructions: 158000809 cycles: 211230403 heartbeat IPC: 1.095 cumulative IPC: 0.5465 (Simulation time: 00 hr 30 min 26 sec)
Heartbeat CPU 0 instructions: 158500811 cycles: 211612086 heartbeat IPC: 1.31 cumulative IPC: 0.548 (Simulation time: 00 hr 30 min 29 sec)
Heartbeat CPU 0 instructions: 159000817 cycles: 211991391 heartbeat IPC: 1.318 cumulative IPC: 0.5494 (Simulation time: 00 hr 30 min 32 sec)
Heartbeat CPU 0 instructions: 159500817 cycles: 212459625 heartbeat IPC: 1.068 cumulative IPC: 0.5507 (Simulation time: 00 hr 30 min 36 sec)
Heartbeat CPU 0 instructions: 160000817 cycles: 213245102 heartbeat IPC: 0.6366 cumulative IPC: 0.551 (Simulation time: 00 hr 30 min 41 sec)
Heartbeat CPU 0 instructions: 160500819 cycles: 214128071 heartbeat IPC: 0.5663 cumulative IPC: 0.5511 (Simulation time: 00 hr 30 min 48 sec)
Heartbeat CPU 0 instructions: 161000822 cycles: 214755135 heartbeat IPC: 0.7974 cumulative IPC: 0.5518 (Simulation time: 00 hr 30 min 53 sec)
Heartbeat CPU 0 instructions: 161500822 cycles: 215303844 heartbeat IPC: 0.9112 cumulative IPC: 0.5528 (Simulation time: 00 hr 30 min 57 sec)
Heartbeat CPU 0 instructions: 162000822 cycles: 215915821 heartbeat IPC: 0.817 cumulative IPC: 0.5536 (Simulation time: 00 hr 31 min 01 sec)
Heartbeat CPU 0 instructions: 162500822 cycles: 216334079 heartbeat IPC: 1.195 cumulative IPC: 0.5549 (Simulation time: 00 hr 31 min 05 sec)
Heartbeat CPU 0 instructions: 163000828 cycles: 216785723 heartbeat IPC: 1.107 cumulative IPC: 0.5562 (Simulation time: 00 hr 31 min 09 sec)
Heartbeat CPU 0 instructions: 163500833 cycles: 217314375 heartbeat IPC: 0.9458 cumulative IPC: 0.5572 (Simulation time: 00 hr 31 min 13 sec)
Heartbeat CPU 0 instructions: 164000835 cycles: 217790919 heartbeat IPC: 1.049 cumulative IPC: 0.5583 (Simulation time: 00 hr 31 min 17 sec)
Heartbeat CPU 0 instructions: 164500842 cycles: 218269962 heartbeat IPC: 1.044 cumulative IPC: 0.5595 (Simulation time: 00 hr 31 min 21 sec)
Heartbeat CPU 0 instructions: 165000843 cycles: 218751350 heartbeat IPC: 1.039 cumulative IPC: 0.5606 (Simulation time: 00 hr 31 min 25 sec)
Heartbeat CPU 0 instructions: 165500843 cycles: 219356047 heartbeat IPC: 0.8269 cumulative IPC: 0.5614 (Simulation time: 00 hr 31 min 30 sec)
Heartbeat CPU 0 instructions: 166000843 cycles: 219695383 heartbeat IPC: 1.473 cumulative IPC: 0.5629 (Simulation time: 00 hr 31 min 33 sec)
Heartbeat CPU 0 instructions: 166500843 cycles: 219998247 heartbeat IPC: 1.651 cumulative IPC: 0.5645 (Simulation time: 00 hr 31 min 35 sec)
Heartbeat CPU 0 instructions: 167000844 cycles: 220346049 heartbeat IPC: 1.438 cumulative IPC: 0.5659 (Simulation time: 00 hr 31 min 38 sec)
Heartbeat CPU 0 instructions: 167500850 cycles: 220946971 heartbeat IPC: 0.8321 cumulative IPC: 0.5667 (Simulation time: 00 hr 31 min 43 sec)
Heartbeat CPU 0 instructions: 168000851 cycles: 221545792 heartbeat IPC: 0.835 cumulative IPC: 0.5675 (Simulation time: 00 hr 31 min 48 sec)
Heartbeat CPU 0 instructions: 168500855 cycles: 222066181 heartbeat IPC: 0.9608 cumulative IPC: 0.5685 (Simulation time: 00 hr 31 min 52 sec)
Heartbeat CPU 0 instructions: 169000861 cycles: 222614471 heartbeat IPC: 0.9119 cumulative IPC: 0.5694 (Simulation time: 00 hr 31 min 57 sec)
Heartbeat CPU 0 instructions: 169500864 cycles: 223162138 heartbeat IPC: 0.913 cumulative IPC: 0.5703 (Simulation time: 00 hr 32 min 01 sec)
Heartbeat CPU 0 instructions: 170000864 cycles: 223785254 heartbeat IPC: 0.8024 cumulative IPC: 0.571 (Simulation time: 00 hr 32 min 06 sec)
Heartbeat CPU 0 instructions: 170500869 cycles: 224319779 heartbeat IPC: 0.9354 cumulative IPC: 0.5719 (Simulation time: 00 hr 32 min 10 sec)
Heartbeat CPU 0 instructions: 171000870 cycles: 224921702 heartbeat IPC: 0.8307 cumulative IPC: 0.5726 (Simulation time: 00 hr 32 min 14 sec)
Heartbeat CPU 0 instructions: 171500877 cycles: 225525220 heartbeat IPC: 0.8285 cumulative IPC: 0.5733 (Simulation time: 00 hr 32 min 19 sec)
Heartbeat CPU 0 instructions: 172000877 cycles: 226339070 heartbeat IPC: 0.6144 cumulative IPC: 0.5735 (Simulation time: 00 hr 32 min 25 sec)
Heartbeat CPU 0 instructions: 172500884 cycles: 226937077 heartbeat IPC: 0.8361 cumulative IPC: 0.5742 (Simulation time: 00 hr 32 min 29 sec)
Heartbeat CPU 0 instructions: 173000888 cycles: 228765475 heartbeat IPC: 0.2735 cumulative IPC: 0.5717 (Simulation time: 00 hr 32 min 45 sec)
Heartbeat CPU 0 instructions: 173500889 cycles: 229653915 heartbeat IPC: 0.5628 cumulative IPC: 0.5716 (Simulation time: 00 hr 32 min 52 sec)
Heartbeat CPU 0 instructions: 174000890 cycles: 230090199 heartbeat IPC: 1.146 cumulative IPC: 0.5728 (Simulation time: 00 hr 32 min 55 sec)
Heartbeat CPU 0 instructions: 174500890 cycles: 230854263 heartbeat IPC: 0.6544 cumulative IPC: 0.5731 (Simulation time: 00 hr 33 min 02 sec)
Heartbeat CPU 0 instructions: 175000890 cycles: 231609772 heartbeat IPC: 0.6618 cumulative IPC: 0.5734 (Simulation time: 00 hr 33 min 08 sec)
Heartbeat CPU 0 instructions: 175500894 cycles: 232751491 heartbeat IPC: 0.4379 cumulative IPC: 0.5727 (Simulation time: 00 hr 33 min 16 sec)
Heartbeat CPU 0 instructions: 176000894 cycles: 233926589 heartbeat IPC: 0.4255 cumulative IPC: 0.5719 (Simulation time: 00 hr 33 min 23 sec)
Heartbeat CPU 0 instructions: 176500895 cycles: 235918120 heartbeat IPC: 0.2511 cumulative IPC: 0.569 (Simulation time: 00 hr 33 min 36 sec)
Heartbeat CPU 0 instructions: 177000896 cycles: 236758668 heartbeat IPC: 0.5949 cumulative IPC: 0.5691 (Simulation time: 00 hr 33 min 41 sec)
Heartbeat CPU 0 instructions: 177500897 cycles: 237426649 heartbeat IPC: 0.7485 cumulative IPC: 0.5697 (Simulation time: 00 hr 33 min 46 sec)
Heartbeat CPU 0 instructions: 178000897 cycles: 238339035 heartbeat IPC: 0.548 cumulative IPC: 0.5696 (Simulation time: 00 hr 33 min 52 sec)
Heartbeat CPU 0 instructions: 178500900 cycles: 239325081 heartbeat IPC: 0.5071 cumulative IPC: 0.5693 (Simulation time: 00 hr 33 min 58 sec)
Heartbeat CPU 0 instructions: 179000904 cycles: 240034613 heartbeat IPC: 0.7047 cumulative IPC: 0.5697 (Simulation time: 00 hr 34 min 03 sec)
Heartbeat CPU 0 instructions: 179500908 cycles: 240655299 heartbeat IPC: 0.8056 cumulative IPC: 0.5704 (Simulation time: 00 hr 34 min 08 sec)
Heartbeat CPU 0 instructions: 180000910 cycles: 241269202 heartbeat IPC: 0.8145 cumulative IPC: 0.571 (Simulation time: 00 hr 34 min 12 sec)
Heartbeat CPU 0 instructions: 180500910 cycles: 242642512 heartbeat IPC: 0.3641 cumulative IPC: 0.5698 (Simulation time: 00 hr 34 min 20 sec)
Heartbeat CPU 0 instructions: 181000917 cycles: 244067160 heartbeat IPC: 0.351 cumulative IPC: 0.5684 (Simulation time: 00 hr 34 min 30 sec)
Heartbeat CPU 0 instructions: 181500919 cycles: 245507021 heartbeat IPC: 0.3473 cumulative IPC: 0.5671 (Simulation time: 00 hr 34 min 40 sec)
Heartbeat CPU 0 instructions: 182000924 cycles: 247253633 heartbeat IPC: 0.2863 cumulative IPC: 0.565 (Simulation time: 00 hr 34 min 53 sec)
Heartbeat CPU 0 instructions: 182500929 cycles: 249092034 heartbeat IPC: 0.272 cumulative IPC: 0.5627 (Simulation time: 00 hr 35 min 06 sec)
Heartbeat CPU 0 instructions: 183000932 cycles: 250631185 heartbeat IPC: 0.3249 cumulative IPC: 0.5611 (Simulation time: 00 hr 35 min 16 sec)
Heartbeat CPU 0 instructions: 183500933 cycles: 252345835 heartbeat IPC: 0.2916 cumulative IPC: 0.5592 (Simulation time: 00 hr 35 min 28 sec)
Heartbeat CPU 0 instructions: 184000934 cycles: 254368424 heartbeat IPC: 0.2472 cumulative IPC: 0.5566 (Simulation time: 00 hr 35 min 42 sec)
Heartbeat CPU 0 instructions: 184500936 cycles: 255842700 heartbeat IPC: 0.3392 cumulative IPC: 0.5553 (Simulation time: 00 hr 35 min 51 sec)
Heartbeat CPU 0 instructions: 185000936 cycles: 256649156 heartbeat IPC: 0.62 cumulative IPC: 0.5555 (Simulation time: 00 hr 35 min 57 sec)
Heartbeat CPU 0 instructions: 185500938 cycles: 257183603 heartbeat IPC: 0.9356 cumulative IPC: 0.5563 (Simulation time: 00 hr 36 min 01 sec)
Heartbeat CPU 0 instructions: 186000938 cycles: 257789995 heartbeat IPC: 0.8245 cumulative IPC: 0.557 (Simulation time: 00 hr 36 min 05 sec)
Heartbeat CPU 0 instructions: 186500943 cycles: 259203229 heartbeat IPC: 0.3538 cumulative IPC: 0.5558 (Simulation time: 00 hr 36 min 14 sec)
Heartbeat CPU 0 instructions: 187000943 cycles: 260472178 heartbeat IPC: 0.394 cumulative IPC: 0.555 (Simulation time: 00 hr 36 min 22 sec)
Heartbeat CPU 0 instructions: 187500943 cycles: 261987734 heartbeat IPC: 0.3299 cumulative IPC: 0.5536 (Simulation time: 00 hr 36 min 32 sec)
Heartbeat CPU 0 instructions: 188000943 cycles: 263481151 heartbeat IPC: 0.3348 cumulative IPC: 0.5523 (Simulation time: 00 hr 36 min 42 sec)
Heartbeat CPU 0 instructions: 188500948 cycles: 264661606 heartbeat IPC: 0.4236 cumulative IPC: 0.5517 (Simulation time: 00 hr 36 min 49 sec)
Heartbeat CPU 0 instructions: 189000948 cycles: 266288467 heartbeat IPC: 0.3073 cumulative IPC: 0.5501 (Simulation time: 00 hr 37 min 00 sec)
Heartbeat CPU 0 instructions: 189500949 cycles: 266832359 heartbeat IPC: 0.9193 cumulative IPC: 0.5509 (Simulation time: 00 hr 37 min 04 sec)
Heartbeat CPU 0 instructions: 190000951 cycles: 267293474 heartbeat IPC: 1.084 cumulative IPC: 0.5519 (Simulation time: 00 hr 37 min 08 sec)
Heartbeat CPU 0 instructions: 190500952 cycles: 267762392 heartbeat IPC: 1.066 cumulative IPC: 0.5528 (Simulation time: 00 hr 37 min 11 sec)
Heartbeat CPU 0 instructions: 191000954 cycles: 268157339 heartbeat IPC: 1.266 cumulative IPC: 0.5539 (Simulation time: 00 hr 37 min 14 sec)
Heartbeat CPU 0 instructions: 191500954 cycles: 268527875 heartbeat IPC: 1.349 cumulative IPC: 0.5551 (Simulation time: 00 hr 37 min 17 sec)
Heartbeat CPU 0 instructions: 192000955 cycles: 268996914 heartbeat IPC: 1.066 cumulative IPC: 0.556 (Simulation time: 00 hr 37 min 21 sec)
Heartbeat CPU 0 instructions: 192500955 cycles: 269764116 heartbeat IPC: 0.6517 cumulative IPC: 0.5563 (Simulation time: 00 hr 37 min 26 sec)
Heartbeat CPU 0 instructions: 193000959 cycles: 270613508 heartbeat IPC: 0.5887 cumulative IPC: 0.5564 (Simulation time: 00 hr 37 min 33 sec)
Heartbeat CPU 0 instructions: 193500962 cycles: 271238811 heartbeat IPC: 0.7996 cumulative IPC: 0.557 (Simulation time: 00 hr 37 min 37 sec)
Heartbeat CPU 0 instructions: 194000963 cycles: 271767090 heartbeat IPC: 0.9465 cumulative IPC: 0.5578 (Simulation time: 00 hr 37 min 41 sec)
Heartbeat CPU 0 instructions: 194500969 cycles: 272354294 heartbeat IPC: 0.8515 cumulative IPC: 0.5585 (Simulation time: 00 hr 37 min 46 sec)
Heartbeat CPU 0 instructions: 195000971 cycles: 272764640 heartbeat IPC: 1.218 cumulative IPC: 0.5595 (Simulation time: 00 hr 37 min 49 sec)
Heartbeat CPU 0 instructions: 195500971 cycles: 273166875 heartbeat IPC: 1.243 cumulative IPC: 0.5606 (Simulation time: 00 hr 37 min 53 sec)
Heartbeat CPU 0 instructions: 196000976 cycles: 273816200 heartbeat IPC: 0.77 cumulative IPC: 0.5611 (Simulation time: 00 hr 37 min 57 sec)
Heartbeat CPU 0 instructions: 196500976 cycles: 274274180 heartbeat IPC: 1.092 cumulative IPC: 0.562 (Simulation time: 00 hr 38 min 01 sec)
Heartbeat CPU 0 instructions: 197000983 cycles: 274758519 heartbeat IPC: 1.032 cumulative IPC: 0.5629 (Simulation time: 00 hr 38 min 05 sec)
Heartbeat CPU 0 instructions: 197500983 cycles: 275214753 heartbeat IPC: 1.096 cumulative IPC: 0.5638 (Simulation time: 00 hr 38 min 08 sec)
Heartbeat CPU 0 instructions: 198000987 cycles: 275718153 heartbeat IPC: 0.9933 cumulative IPC: 0.5647 (Simulation time: 00 hr 38 min 12 sec)
Heartbeat CPU 0 instructions: 198500988 cycles: 276082076 heartbeat IPC: 1.374 cumulative IPC: 0.5658 (Simulation time: 00 hr 38 min 15 sec)
Heartbeat CPU 0 instructions: 199000988 cycles: 276484782 heartbeat IPC: 1.242 cumulative IPC: 0.5668 (Simulation time: 00 hr 38 min 18 sec)
Heartbeat CPU 0 instructions: 199500988 cycles: 276815824 heartbeat IPC: 1.51 cumulative IPC: 0.568 (Simulation time: 00 hr 38 min 21 sec)
Heartbeat CPU 0 instructions: 200000989 cycles: 277396417 heartbeat IPC: 0.8612 cumulative IPC: 0.5686 (Simulation time: 00 hr 38 min 26 sec)
Heartbeat CPU 0 instructions: 200500991 cycles: 278006878 heartbeat IPC: 0.8191 cumulative IPC: 0.5692 (Simulation time: 00 hr 38 min 30 sec)
Heartbeat CPU 0 instructions: 201000995 cycles: 278484276 heartbeat IPC: 1.047 cumulative IPC: 0.5701 (Simulation time: 00 hr 38 min 34 sec)
Heartbeat CPU 0 instructions: 201500999 cycles: 278990938 heartbeat IPC: 0.9869 cumulative IPC: 0.5709 (Simulation time: 00 hr 38 min 38 sec)
Heartbeat CPU 0 instructions: 202000999 cycles: 279572775 heartbeat IPC: 0.8593 cumulative IPC: 0.5715 (Simulation time: 00 hr 38 min 42 sec)
Heartbeat CPU 0 instructions: 202500999 cycles: 280152719 heartbeat IPC: 0.8622 cumulative IPC: 0.5721 (Simulation time: 00 hr 38 min 47 sec)
Heartbeat CPU 0 instructions: 203001004 cycles: 280660654 heartbeat IPC: 0.9844 cumulative IPC: 0.5729 (Simulation time: 00 hr 38 min 51 sec)
Heartbeat CPU 0 instructions: 203501010 cycles: 281240837 heartbeat IPC: 0.8618 cumulative IPC: 0.5736 (Simulation time: 00 hr 38 min 55 sec)
Heartbeat CPU 0 instructions: 204001010 cycles: 281836272 heartbeat IPC: 0.8397 cumulative IPC: 0.5741 (Simulation time: 00 hr 39 min 00 sec)
Heartbeat CPU 0 instructions: 204501016 cycles: 282573962 heartbeat IPC: 0.6778 cumulative IPC: 0.5744 (Simulation time: 00 hr 39 min 05 sec)
Heartbeat CPU 0 instructions: 205001020 cycles: 283193872 heartbeat IPC: 0.8066 cumulative IPC: 0.575 (Simulation time: 00 hr 39 min 09 sec)
Heartbeat CPU 0 instructions: 205501020 cycles: 284885355 heartbeat IPC: 0.2956 cumulative IPC: 0.5732 (Simulation time: 00 hr 39 min 23 sec)
Heartbeat CPU 0 instructions: 206001024 cycles: 286037733 heartbeat IPC: 0.4339 cumulative IPC: 0.5726 (Simulation time: 00 hr 39 min 31 sec)
Heartbeat CPU 0 instructions: 206501031 cycles: 286430262 heartbeat IPC: 1.274 cumulative IPC: 0.5736 (Simulation time: 00 hr 39 min 35 sec)
Heartbeat CPU 0 instructions: 207001036 cycles: 287351731 heartbeat IPC: 0.5426 cumulative IPC: 0.5735 (Simulation time: 00 hr 39 min 42 sec)
Heartbeat CPU 0 instructions: 207501038 cycles: 287954580 heartbeat IPC: 0.8294 cumulative IPC: 0.5741 (Simulation time: 00 hr 39 min 46 sec)
Heartbeat CPU 0 instructions: 208001039 cycles: 288923251 heartbeat IPC: 0.5162 cumulative IPC: 0.5739 (Simulation time: 00 hr 39 min 54 sec)
Heartbeat CPU 0 instructions: 208501039 cycles: 290410961 heartbeat IPC: 0.3361 cumulative IPC: 0.5726 (Simulation time: 00 hr 40 min 03 sec)
Heartbeat CPU 0 instructions: 209001044 cycles: 292725125 heartbeat IPC: 0.2161 cumulative IPC: 0.5697 (Simulation time: 00 hr 40 min 16 sec)
Heartbeat CPU 0 instructions: 209501044 cycles: 293706660 heartbeat IPC: 0.5094 cumulative IPC: 0.5694 (Simulation time: 00 hr 40 min 23 sec)
Heartbeat CPU 0 instructions: 210001044 cycles: 294012855 heartbeat IPC: 1.633 cumulative IPC: 0.5706 (Simulation time: 00 hr 40 min 26 sec)
Heartbeat CPU 0 instructions: 210501044 cycles: 294336574 heartbeat IPC: 1.545 cumulative IPC: 0.5717 (Simulation time: 00 hr 40 min 29 sec)
Heartbeat CPU 0 instructions: 211001046 cycles: 294627097 heartbeat IPC: 1.721 cumulative IPC: 0.5729 (Simulation time: 00 hr 40 min 32 sec)
Heartbeat CPU 0 instructions: 211501048 cycles: 294896098 heartbeat IPC: 1.859 cumulative IPC: 0.5742 (Simulation time: 00 hr 40 min 35 sec)
Heartbeat CPU 0 instructions: 212001049 cycles: 295180909 heartbeat IPC: 1.756 cumulative IPC: 0.5753 (Simulation time: 00 hr 40 min 38 sec)
Heartbeat CPU 0 instructions: 212501049 cycles: 295465261 heartbeat IPC: 1.758 cumulative IPC: 0.5765 (Simulation time: 00 hr 40 min 41 sec)
Heartbeat CPU 0 instructions: 213001051 cycles: 295744137 heartbeat IPC: 1.793 cumulative IPC: 0.5777 (Simulation time: 00 hr 40 min 45 sec)
Heartbeat CPU 0 instructions: 213501052 cycles: 296029461 heartbeat IPC: 1.752 cumulative IPC: 0.5789 (Simulation time: 00 hr 40 min 48 sec)
Heartbeat CPU 0 instructions: 214001052 cycles: 296305891 heartbeat IPC: 1.809 cumulative IPC: 0.5801 (Simulation time: 00 hr 40 min 51 sec)
Heartbeat CPU 0 instructions: 214501054 cycles: 296577207 heartbeat IPC: 1.843 cumulative IPC: 0.5813 (Simulation time: 00 hr 40 min 54 sec)
Heartbeat CPU 0 instructions: 215001056 cycles: 296852415 heartbeat IPC: 1.817 cumulative IPC: 0.5825 (Simulation time: 00 hr 40 min 57 sec)
Heartbeat CPU 0 instructions: 215501057 cycles: 297119465 heartbeat IPC: 1.872 cumulative IPC: 0.5838 (Simulation time: 00 hr 41 min 00 sec)
Heartbeat CPU 0 instructions: 216001058 cycles: 297394423 heartbeat IPC: 1.818 cumulative IPC: 0.585 (Simulation time: 00 hr 41 min 03 sec)
Heartbeat CPU 0 instructions: 216501058 cycles: 297741335 heartbeat IPC: 1.441 cumulative IPC: 0.586 (Simulation time: 00 hr 41 min 07 sec)
Heartbeat CPU 0 instructions: 217001058 cycles: 298067738 heartbeat IPC: 1.532 cumulative IPC: 0.5871 (Simulation time: 00 hr 41 min 10 sec)
Heartbeat CPU 0 instructions: 217501060 cycles: 298371505 heartbeat IPC: 1.646 cumulative IPC: 0.5882 (Simulation time: 00 hr 41 min 13 sec)
Heartbeat CPU 0 instructions: 218001061 cycles: 298663720 heartbeat IPC: 1.711 cumulative IPC: 0.5894 (Simulation time: 00 hr 41 min 16 sec)
Heartbeat CPU 0 instructions: 218501061 cycles: 298990159 heartbeat IPC: 1.532 cumulative IPC: 0.5904 (Simulation time: 00 hr 41 min 19 sec)
Heartbeat CPU 0 instructions: 219001062 cycles: 299291363 heartbeat IPC: 1.66 cumulative IPC: 0.5916 (Simulation time: 00 hr 41 min 23 sec)
Heartbeat CPU 0 instructions: 219501063 cycles: 299588838 heartbeat IPC: 1.681 cumulative IPC: 0.5927 (Simulation time: 00 hr 41 min 26 sec)
Heartbeat CPU 0 instructions: 220001064 cycles: 299866669 heartbeat IPC: 1.8 cumulative IPC: 0.5939 (Simulation time: 00 hr 41 min 29 sec)
Heartbeat CPU 0 instructions: 220501069 cycles: 300558793 heartbeat IPC: 0.7224 cumulative IPC: 0.5942 (Simulation time: 00 hr 41 min 34 sec)
Heartbeat CPU 0 instructions: 221001070 cycles: 301237983 heartbeat IPC: 0.7362 cumulative IPC: 0.5945 (Simulation time: 00 hr 41 min 39 sec)
Heartbeat CPU 0 instructions: 221501073 cycles: 302117648 heartbeat IPC: 0.5684 cumulative IPC: 0.5944 (Simulation time: 00 hr 41 min 45 sec)
Heartbeat CPU 0 instructions: 222001073 cycles: 302758970 heartbeat IPC: 0.7796 cumulative IPC: 0.5949 (Simulation time: 00 hr 41 min 50 sec)
Heartbeat CPU 0 instructions: 222501073 cycles: 303425224 heartbeat IPC: 0.7505 cumulative IPC: 0.5952 (Simulation time: 00 hr 41 min 54 sec)
Heartbeat CPU 0 instructions: 223001077 cycles: 304010796 heartbeat IPC: 0.8539 cumulative IPC: 0.5957 (Simulation time: 00 hr 41 min 58 sec)
Heartbeat CPU 0 instructions: 223501077 cycles: 304740255 heartbeat IPC: 0.6854 cumulative IPC: 0.596 (Simulation time: 00 hr 42 min 03 sec)
Heartbeat CPU 0 instructions: 224001077 cycles: 305576551 heartbeat IPC: 0.5979 cumulative IPC: 0.596 (Simulation time: 00 hr 42 min 12 sec)
Heartbeat CPU 0 instructions: 224501083 cycles: 306431174 heartbeat IPC: 0.5851 cumulative IPC: 0.5959 (Simulation time: 00 hr 42 min 21 sec)
Heartbeat CPU 0 instructions: 225001084 cycles: 307688178 heartbeat IPC: 0.3978 cumulative IPC: 0.5951 (Simulation time: 00 hr 42 min 33 sec)
Heartbeat CPU 0 instructions: 225501084 cycles: 310011326 heartbeat IPC: 0.2152 cumulative IPC: 0.5921 (Simulation time: 00 hr 42 min 47 sec)
Heartbeat CPU 0 instructions: 226001084 cycles: 310617082 heartbeat IPC: 0.8254 cumulative IPC: 0.5926 (Simulation time: 00 hr 42 min 51 sec)
Heartbeat CPU 0 instructions: 226501084 cycles: 311452023 heartbeat IPC: 0.5988 cumulative IPC: 0.5926 (Simulation time: 00 hr 42 min 58 sec)
Heartbeat CPU 0 instructions: 227001086 cycles: 312117348 heartbeat IPC: 0.7515 cumulative IPC: 0.593 (Simulation time: 00 hr 43 min 03 sec)
Heartbeat CPU 0 instructions: 227501086 cycles: 313086224 heartbeat IPC: 0.5161 cumulative IPC: 0.5927 (Simulation time: 00 hr 43 min 10 sec)
Heartbeat CPU 0 instructions: 228001088 cycles: 314204754 heartbeat IPC: 0.447 cumulative IPC: 0.5922 (Simulation time: 00 hr 43 min 18 sec)
Heartbeat CPU 0 instructions: 228501095 cycles: 315687483 heartbeat IPC: 0.3372 cumulative IPC: 0.5909 (Simulation time: 00 hr 43 min 28 sec)
Heartbeat CPU 0 instructions: 229001096 cycles: 317128904 heartbeat IPC: 0.3469 cumulative IPC: 0.5898 (Simulation time: 00 hr 43 min 38 sec)
Heartbeat CPU 0 instructions: 229501103 cycles: 318493459 heartbeat IPC: 0.3664 cumulative IPC: 0.5888 (Simulation time: 00 hr 43 min 47 sec)
Heartbeat CPU 0 instructions: 230001103 cycles: 320058409 heartbeat IPC: 0.3195 cumulative IPC: 0.5874 (Simulation time: 00 hr 43 min 57 sec)
Heartbeat CPU 0 instructions: 230501105 cycles: 321632431 heartbeat IPC: 0.3177 cumulative IPC: 0.586 (Simulation time: 00 hr 44 min 08 sec)
Heartbeat CPU 0 instructions: 231001110 cycles: 323059820 heartbeat IPC: 0.3503 cumulative IPC: 0.5849 (Simulation time: 00 hr 44 min 18 sec)
Heartbeat CPU 0 instructions: 231501113 cycles: 324202132 heartbeat IPC: 0.4377 cumulative IPC: 0.5844 (Simulation time: 00 hr 44 min 26 sec)
Heartbeat CPU 0 instructions: 232001117 cycles: 325823294 heartbeat IPC: 0.3084 cumulative IPC: 0.5829 (Simulation time: 00 hr 44 min 36 sec)
Heartbeat CPU 0 instructions: 232501117 cycles: 327791761 heartbeat IPC: 0.254 cumulative IPC: 0.5809 (Simulation time: 00 hr 44 min 48 sec)
Heartbeat CPU 0 instructions: 233001119 cycles: 329553396 heartbeat IPC: 0.2838 cumulative IPC: 0.5792 (Simulation time: 00 hr 44 min 59 sec)
Heartbeat CPU 0 instructions: 233501121 cycles: 330498576 heartbeat IPC: 0.529 cumulative IPC: 0.5791 (Simulation time: 00 hr 45 min 04 sec)
Heartbeat CPU 0 instructions: 234001121 cycles: 331350108 heartbeat IPC: 0.5872 cumulative IPC: 0.5791 (Simulation time: 00 hr 45 min 10 sec)
Heartbeat CPU 0 instructions: 234501121 cycles: 331900964 heartbeat IPC: 0.9077 cumulative IPC: 0.5797 (Simulation time: 00 hr 45 min 14 sec)
Heartbeat CPU 0 instructions: 235001121 cycles: 332365695 heartbeat IPC: 1.076 cumulative IPC: 0.5804 (Simulation time: 00 hr 45 min 17 sec)
Heartbeat CPU 0 instructions: 235501125 cycles: 333229766 heartbeat IPC: 0.5787 cumulative IPC: 0.5804 (Simulation time: 00 hr 45 min 23 sec)
Heartbeat CPU 0 instructions: 236001126 cycles: 334550942 heartbeat IPC: 0.3785 cumulative IPC: 0.5795 (Simulation time: 00 hr 45 min 30 sec)
Heartbeat CPU 0 instructions: 236501126 cycles: 335764555 heartbeat IPC: 0.412 cumulative IPC: 0.5789 (Simulation time: 00 hr 45 min 38 sec)
Heartbeat CPU 0 instructions: 237001126 cycles: 337390881 heartbeat IPC: 0.3074 cumulative IPC: 0.5776 (Simulation time: 00 hr 45 min 47 sec)
Heartbeat CPU 0 instructions: 237501131 cycles: 338851294 heartbeat IPC: 0.3424 cumulative IPC: 0.5765 (Simulation time: 00 hr 45 min 56 sec)
Heartbeat CPU 0 instructions: 238001132 cycles: 340017717 heartbeat IPC: 0.4287 cumulative IPC: 0.576 (Simulation time: 00 hr 46 min 03 sec)
Heartbeat CPU 0 instructions: 238501137 cycles: 341058172 heartbeat IPC: 0.4806 cumulative IPC: 0.5757 (Simulation time: 00 hr 46 min 09 sec)
Heartbeat CPU 0 instructions: 239001137 cycles: 342525009 heartbeat IPC: 0.3409 cumulative IPC: 0.5746 (Simulation time: 00 hr 46 min 18 sec)
Heartbeat CPU 0 instructions: 239501137 cycles: 343823924 heartbeat IPC: 0.3849 cumulative IPC: 0.5739 (Simulation time: 00 hr 46 min 26 sec)
Heartbeat CPU 0 instructions: 240001144 cycles: 344923833 heartbeat IPC: 0.4546 cumulative IPC: 0.5735 (Simulation time: 00 hr 46 min 32 sec)
Heartbeat CPU 0 instructions: 240501144 cycles: 345573425 heartbeat IPC: 0.7697 cumulative IPC: 0.5739 (Simulation time: 00 hr 46 min 36 sec)
Heartbeat CPU 0 instructions: 241001145 cycles: 346189713 heartbeat IPC: 0.8113 cumulative IPC: 0.5743 (Simulation time: 00 hr 46 min 40 sec)
Heartbeat CPU 0 instructions: 241501146 cycles: 346689066 heartbeat IPC: 1.001 cumulative IPC: 0.5749 (Simulation time: 00 hr 46 min 44 sec)
Heartbeat CPU 0 instructions: 242001147 cycles: 347190079 heartbeat IPC: 0.998 cumulative IPC: 0.5756 (Simulation time: 00 hr 46 min 47 sec)
Heartbeat CPU 0 instructions: 242501147 cycles: 347590327 heartbeat IPC: 1.249 cumulative IPC: 0.5764 (Simulation time: 00 hr 46 min 50 sec)
Heartbeat CPU 0 instructions: 243001148 cycles: 347969865 heartbeat IPC: 1.317 cumulative IPC: 0.5772 (Simulation time: 00 hr 46 min 53 sec)
Heartbeat CPU 0 instructions: 243501148 cycles: 348402700 heartbeat IPC: 1.155 cumulative IPC: 0.578 (Simulation time: 00 hr 46 min 56 sec)
Heartbeat CPU 0 instructions: 244001149 cycles: 348944465 heartbeat IPC: 0.9229 cumulative IPC: 0.5785 (Simulation time: 00 hr 47 min 00 sec)
Heartbeat CPU 0 instructions: 244501151 cycles: 349750906 heartbeat IPC: 0.62 cumulative IPC: 0.5786 (Simulation time: 00 hr 47 min 05 sec)
Heartbeat CPU 0 instructions: 245001157 cycles: 350263876 heartbeat IPC: 0.9747 cumulative IPC: 0.5792 (Simulation time: 00 hr 47 min 08 sec)
Heartbeat CPU 0 instructions: 245501162 cycles: 350929882 heartbeat IPC: 0.7508 cumulative IPC: 0.5796 (Simulation time: 00 hr 47 min 13 sec)
Heartbeat CPU 0 instructions: 246001167 cycles: 351870042 heartbeat IPC: 0.5318 cumulative IPC: 0.5794 (Simulation time: 00 hr 47 min 19 sec)
Heartbeat CPU 0 instructions: 246501167 cycles: 353074899 heartbeat IPC: 0.415 cumulative IPC: 0.5789 (Simulation time: 00 hr 47 min 26 sec)
Heartbeat CPU 0 instructions: 247001167 cycles: 354052139 heartbeat IPC: 0.5116 cumulative IPC: 0.5787 (Simulation time: 00 hr 47 min 32 sec)
Heartbeat CPU 0 instructions: 247501173 cycles: 354629599 heartbeat IPC: 0.8659 cumulative IPC: 0.5791 (Simulation time: 00 hr 47 min 36 sec)
Heartbeat CPU 0 instructions: 248001173 cycles: 355206898 heartbeat IPC: 0.8661 cumulative IPC: 0.5796 (Simulation time: 00 hr 47 min 40 sec)
Heartbeat CPU 0 instructions: 248501173 cycles: 355761166 heartbeat IPC: 0.9021 cumulative IPC: 0.5802 (Simulation time: 00 hr 47 min 44 sec)
Heartbeat CPU 0 instructions: 249001178 cycles: 356182114 heartbeat IPC: 1.188 cumulative IPC: 0.5809 (Simulation time: 00 hr 47 min 47 sec)
Heartbeat CPU 0 instructions: 249501181 cycles: 356672777 heartbeat IPC: 1.019 cumulative IPC: 0.5815 (Simulation time: 00 hr 47 min 51 sec)
Simulation finished CPU 0 instructions: 200000001 cycles: 343660933 cumulative IPC: 0.582 (Simulation time: 00 hr 47 min 55 sec)
Simulation complete CPU 0 instructions: 200000001 cycles: 343660933 cumulative IPC: 0.582 (Simulation time: 00 hr 47 min 55 sec)

ChampSim completed all CPUs

=== Simulation ===
CPU 0 runs /local-ssd/ben/dpc4-traces/gtraces_v2/tahoe_0002.champsim.gz

Region of Interest Statistics

CPU 0 cumulative IPC: 0.582 instructions: 200000001 cycles: 343660933
CPU 0 Branch Prediction Accuracy: 93.72% MPKI: 13.02 Average ROB Occupancy at Mispredict: 39.19
Branch type MPKI
BRANCH_DIRECT_JUMP: 0.4927
BRANCH_INDIRECT: 0.2721
BRANCH_CONDITIONAL: 11.67
BRANCH_DIRECT_CALL: 0.09202
BRANCH_INDIRECT_CALL: 0.1715
BRANCH_RETURN: 0.3238

cpu0->cpu0_STLB TOTAL        ACCESS:    2278676 HIT:    1797254 MISS:     481422 MSHR_MERGE:          0
cpu0->cpu0_STLB LOAD         ACCESS:    2278676 HIT:    1797254 MISS:     481422 MSHR_MERGE:          0
cpu0->cpu0_STLB RFO          ACCESS:          0 HIT:          0 MISS:          0 MSHR_MERGE:          0
cpu0->cpu0_STLB PREFETCH     ACCESS:          0 HIT:          0 MISS:          0 MSHR_MERGE:          0
cpu0->cpu0_STLB WRITE        ACCESS:          0 HIT:          0 MISS:          0 MSHR_MERGE:          0
cpu0->cpu0_STLB TRANSLATION  ACCESS:          0 HIT:          0 MISS:          0 MSHR_MERGE:          0
cpu0->cpu0_STLB PREFETCH REQUESTED:          0 ISSUED:          0 USEFUL:          0 USELESS:          0
cpu0->cpu0_STLB AVERAGE MISS LATENCY: 259.2 cycles
cpu0->cpu0_L2C TOTAL        ACCESS:   11418742 HIT:    6306002 MISS:    5112740 MSHR_MERGE:    1894634
cpu0->cpu0_L2C LOAD         ACCESS:    1728704 HIT:    1024437 MISS:     704267 MSHR_MERGE:      53548
cpu0->cpu0_L2C RFO          ACCESS:     337285 HIT:     101671 MISS:     235614 MSHR_MERGE:       3706
cpu0->cpu0_L2C PREFETCH     ACCESS:    7736408 HIT:    3814686 MISS:    3921722 MSHR_MERGE:    1837380
cpu0->cpu0_L2C WRITE        ACCESS:    1073941 HIT:    1073683 MISS:        258 MSHR_MERGE:          0
cpu0->cpu0_L2C TRANSLATION  ACCESS:     542404 HIT:     291525 MISS:     250879 MSHR_MERGE:          0
cpu0->cpu0_L2C PREFETCH REQUESTED:    6738157 ISSUED:    6283692 USEFUL:     818842 USELESS:     816414
cpu0->cpu0_L2C AVERAGE MISS LATENCY: 385.7 cycles
cpu0->cpu0_L1I TOTAL        ACCESS:    9290192 HIT:    9165897 MISS:     124295 MSHR_MERGE:      16021
cpu0->cpu0_L1I LOAD         ACCESS:    9290192 HIT:    9165897 MISS:     124295 MSHR_MERGE:      16021
cpu0->cpu0_L1I RFO          ACCESS:          0 HIT:          0 MISS:          0 MSHR_MERGE:          0
cpu0->cpu0_L1I PREFETCH     ACCESS:          0 HIT:          0 MISS:          0 MSHR_MERGE:          0
cpu0->cpu0_L1I WRITE        ACCESS:          0 HIT:          0 MISS:          0 MSHR_MERGE:          0
cpu0->cpu0_L1I TRANSLATION  ACCESS:          0 HIT:          0 MISS:          0 MSHR_MERGE:          0
cpu0->cpu0_L1I PREFETCH REQUESTED:          0 ISSUED:          0 USEFUL:          0 USELESS:          0
cpu0->cpu0_L1I AVERAGE MISS LATENCY: 257.9 cycles
cpu0->cpu0_L1D TOTAL        ACCESS:   63119933 HIT:   56958522 MISS:    6161411 MSHR_MERGE:    2208555
cpu0->cpu0_L1D LOAD         ACCESS:   31295803 HIT:   28770504 MISS:    2525299 MSHR_MERGE:     904867
cpu0->cpu0_L1D RFO          ACCESS:          0 HIT:          0 MISS:          0 MSHR_MERGE:          0
cpu0->cpu0_L1D PREFETCH     ACCESS:    2999098 HIT:    1370836 MISS:    1628262 MSHR_MERGE:     175539
cpu0->cpu0_L1D WRITE        ACCESS:   27563389 HIT:   26103206 MISS:    1460183 MSHR_MERGE:    1122886
cpu0->cpu0_L1D TRANSLATION  ACCESS:    1261643 HIT:     713976 MISS:     547667 MSHR_MERGE:       5263
cpu0->cpu0_L1D PREFETCH REQUESTED:   19823286 ISSUED:    2999090 USEFUL:    1008989 USELESS:     443725
cpu0->cpu0_L1D AVERAGE MISS LATENCY: 189.2 cycles
cpu0->cpu0_ITLB TOTAL        ACCESS:    7865834 HIT:    7833527 MISS:      32307 MSHR_MERGE:      11649
cpu0->cpu0_ITLB LOAD         ACCESS:    7865834 HIT:    7833527 MISS:      32307 MSHR_MERGE:      11649
cpu0->cpu0_ITLB RFO          ACCESS:          0 HIT:          0 MISS:          0 MSHR_MERGE:          0
cpu0->cpu0_ITLB PREFETCH     ACCESS:          0 HIT:          0 MISS:          0 MSHR_MERGE:          0
cpu0->cpu0_ITLB WRITE        ACCESS:          0 HIT:          0 MISS:          0 MSHR_MERGE:          0
cpu0->cpu0_ITLB TRANSLATION  ACCESS:          0 HIT:          0 MISS:          0 MSHR_MERGE:          0
cpu0->cpu0_ITLB PREFETCH REQUESTED:          0 ISSUED:          0 USEFUL:          0 USELESS:          0
cpu0->cpu0_ITLB AVERAGE MISS LATENCY: 147.2 cycles
cpu0->cpu0_DTLB TOTAL        ACCESS:   58062688 HIT:   54712172 MISS:    3350516 MSHR_MERGE:    1092498
cpu0->cpu0_DTLB LOAD         ACCESS:   58062688 HIT:   54712172 MISS:    3350516 MSHR_MERGE:    1092498
cpu0->cpu0_DTLB RFO          ACCESS:          0 HIT:          0 MISS:          0 MSHR_MERGE:          0
cpu0->cpu0_DTLB PREFETCH     ACCESS:          0 HIT:          0 MISS:          0 MSHR_MERGE:          0
cpu0->cpu0_DTLB WRITE        ACCESS:          0 HIT:          0 MISS:          0 MSHR_MERGE:          0
cpu0->cpu0_DTLB TRANSLATION  ACCESS:          0 HIT:          0 MISS:          0 MSHR_MERGE:          0
cpu0->cpu0_DTLB PREFETCH REQUESTED:          0 ISSUED:          0 USEFUL:          0 USELESS:          0
cpu0->cpu0_DTLB AVERAGE MISS LATENCY: 59.17 cycles
cpu0->LLC TOTAL        ACCESS:    4180584 HIT:     514315 MISS:    3666269 MSHR_MERGE:          0
cpu0->LLC LOAD         ACCESS:     650719 HIT:      80442 MISS:     570277 MSHR_MERGE:          0
cpu0->LLC RFO          ACCESS:     231908 HIT:       3774 MISS:     228134 MSHR_MERGE:          0
cpu0->LLC PREFETCH     ACCESS:    2084342 HIT:     216243 MISS:    1868099 MSHR_MERGE:          0
cpu0->LLC WRITE        ACCESS:     962736 HIT:     195712 MISS:     767024 MSHR_MERGE:          0
cpu0->LLC TRANSLATION  ACCESS:     250879 HIT:      18144 MISS:     232735 MSHR_MERGE:          0
cpu0->LLC PREFETCH REQUESTED:          0 ISSUED:          0 USEFUL:          0 USELESS:          0
cpu0->LLC AVERAGE MISS LATENCY: 232.6 cycles

DRAM Statistics

Channel 0 RQ ROW_BUFFER_HIT:      74997
  ROW_BUFFER_MISS:    2823789
  AVG DBUS CONGESTED CYCLE: 4.062
Channel 0 WQ ROW_BUFFER_HIT:     119086
  ROW_BUFFER_MISS:     742356
  FULL:       4268
Channel 0 REFRESHES ISSUED:      28638
