[VMEM] WARNING: physical memory size is smaller than virtual memory size.

*** ChampSim Multicore Out-of-Order Simulator ***
Warmup Instructions: 50000000
Simulation Instructions: 200000000
Number of CPUs: 1
Page size: 4096
Core 0: /local-ssd/ben/dpc4-traces/gtraces_v2/tahoe_0000.champsim.gz
sBerti (Smart Stride + Berti) Prefetcher Initialized
Off-chip DRAM Size: 64 GiB Channels: 1 Width: 64-bit Data Rate: 800 MT/s
[BTB] WARNING: target of return is a lower address than the corresponding call. This is usually a problem with your trace.
[BTB] WARNING: target of return is a lower address than the corresponding call. This is usually a problem with your trace.
[BTB] WARNING: target of return is a lower address than the corresponding call. This is usually a problem with your trace.
[BTB] WARNING: target of return is a lower address than the corresponding call. This is usually a problem with your trace.
[BTB] WARNING: target of return is a lower address than the corresponding call. This is usually a problem with your trace.
Heartbeat CPU 0 instructions: 500007 cycles: 306877 heartbeat IPC: 1.629 cumulative IPC: 1.629 (Simulation time: 00 hr 00 min 05 sec)
[BTB] WARNING: target of return is a lower address than the corresponding call. This is usually a problem with your trace.
Heartbeat CPU 0 instructions: 1000014 cycles: 703638 heartbeat IPC: 1.26 cumulative IPC: 1.421 (Simulation time: 00 hr 00 min 12 sec)
Heartbeat CPU 0 instructions: 1500018 cycles: 982008 heartbeat IPC: 1.796 cumulative IPC: 1.528 (Simulation time: 00 hr 00 min 17 sec)
Heartbeat CPU 0 instructions: 2000022 cycles: 1204847 heartbeat IPC: 2.244 cumulative IPC: 1.66 (Simulation time: 00 hr 00 min 21 sec)
Heartbeat CPU 0 instructions: 2500029 cycles: 1394187 heartbeat IPC: 2.641 cumulative IPC: 1.793 (Simulation time: 00 hr 00 min 25 sec)
Heartbeat CPU 0 instructions: 3000031 cycles: 1600341 heartbeat IPC: 2.425 cumulative IPC: 1.875 (Simulation time: 00 hr 00 min 30 sec)
[BTB] WARNING: target of return is a lower address than the corresponding call. This is usually a problem with your trace.
[BTB] WARNING: target of return is a lower address than the corresponding call. This is usually a problem with your trace.
[BTB] WARNING: target of return is a lower address than the corresponding call. This is usually a problem with your trace.
[BTB] WARNING: target of return is a lower address than the corresponding call. This is usually a problem with your trace.
Heartbeat CPU 0 instructions: 3500031 cycles: 1736764 heartbeat IPC: 3.665 cumulative IPC: 2.015 (Simulation time: 00 hr 00 min 33 sec)
Heartbeat CPU 0 instructions: 4000035 cycles: 1849956 heartbeat IPC: 4.417 cumulative IPC: 2.162 (Simulation time: 00 hr 00 min 35 sec)
Heartbeat CPU 0 instructions: 4500042 cycles: 1961900 heartbeat IPC: 4.467 cumulative IPC: 2.294 (Simulation time: 00 hr 00 min 38 sec)
Heartbeat CPU 0 instructions: 5000043 cycles: 2072640 heartbeat IPC: 4.515 cumulative IPC: 2.412 (Simulation time: 00 hr 00 min 40 sec)
Heartbeat CPU 0 instructions: 5500048 cycles: 2182807 heartbeat IPC: 4.539 cumulative IPC: 2.52 (Simulation time: 00 hr 00 min 43 sec)
Heartbeat CPU 0 instructions: 6000052 cycles: 2294814 heartbeat IPC: 4.464 cumulative IPC: 2.615 (Simulation time: 00 hr 00 min 45 sec)
Heartbeat CPU 0 instructions: 6500053 cycles: 2405045 heartbeat IPC: 4.536 cumulative IPC: 2.703 (Simulation time: 00 hr 00 min 48 sec)
Heartbeat CPU 0 instructions: 7000055 cycles: 2514051 heartbeat IPC: 4.587 cumulative IPC: 2.784 (Simulation time: 00 hr 00 min 50 sec)
Heartbeat CPU 0 instructions: 7500058 cycles: 2622355 heartbeat IPC: 4.617 cumulative IPC: 2.86 (Simulation time: 00 hr 00 min 53 sec)
Heartbeat CPU 0 instructions: 8000061 cycles: 2734708 heartbeat IPC: 4.45 cumulative IPC: 2.925 (Simulation time: 00 hr 00 min 55 sec)
Heartbeat CPU 0 instructions: 8500067 cycles: 2840938 heartbeat IPC: 4.707 cumulative IPC: 2.992 (Simulation time: 00 hr 00 min 58 sec)
Heartbeat CPU 0 instructions: 9000068 cycles: 2949266 heartbeat IPC: 4.616 cumulative IPC: 3.052 (Simulation time: 00 hr 01 min 00 sec)
Heartbeat CPU 0 instructions: 9500071 cycles: 3059312 heartbeat IPC: 4.544 cumulative IPC: 3.105 (Simulation time: 00 hr 01 min 03 sec)
Heartbeat CPU 0 instructions: 10000071 cycles: 3239558 heartbeat IPC: 2.774 cumulative IPC: 3.087 (Simulation time: 00 hr 01 min 06 sec)
Heartbeat CPU 0 instructions: 10500075 cycles: 3536663 heartbeat IPC: 1.683 cumulative IPC: 2.969 (Simulation time: 00 hr 01 min 11 sec)
Heartbeat CPU 0 instructions: 11000078 cycles: 3755129 heartbeat IPC: 2.289 cumulative IPC: 2.929 (Simulation time: 00 hr 01 min 14 sec)
Heartbeat CPU 0 instructions: 11500082 cycles: 3922500 heartbeat IPC: 2.987 cumulative IPC: 2.932 (Simulation time: 00 hr 01 min 18 sec)
Heartbeat CPU 0 instructions: 12000085 cycles: 4059826 heartbeat IPC: 3.641 cumulative IPC: 2.956 (Simulation time: 00 hr 01 min 20 sec)
Heartbeat CPU 0 instructions: 12500085 cycles: 4264857 heartbeat IPC: 2.439 cumulative IPC: 2.931 (Simulation time: 00 hr 01 min 24 sec)
Heartbeat CPU 0 instructions: 13000086 cycles: 4451714 heartbeat IPC: 2.676 cumulative IPC: 2.92 (Simulation time: 00 hr 01 min 27 sec)
Heartbeat CPU 0 instructions: 13500093 cycles: 4615112 heartbeat IPC: 3.06 cumulative IPC: 2.925 (Simulation time: 00 hr 01 min 30 sec)
Heartbeat CPU 0 instructions: 14000094 cycles: 4791339 heartbeat IPC: 2.837 cumulative IPC: 2.922 (Simulation time: 00 hr 01 min 33 sec)
Heartbeat CPU 0 instructions: 14500096 cycles: 4951151 heartbeat IPC: 3.129 cumulative IPC: 2.929 (Simulation time: 00 hr 01 min 36 sec)
Heartbeat CPU 0 instructions: 15000099 cycles: 5112281 heartbeat IPC: 3.103 cumulative IPC: 2.934 (Simulation time: 00 hr 01 min 39 sec)
Heartbeat CPU 0 instructions: 15500104 cycles: 5216514 heartbeat IPC: 4.797 cumulative IPC: 2.971 (Simulation time: 00 hr 01 min 41 sec)
Heartbeat CPU 0 instructions: 16000104 cycles: 5358769 heartbeat IPC: 3.515 cumulative IPC: 2.986 (Simulation time: 00 hr 01 min 43 sec)
Heartbeat CPU 0 instructions: 16500105 cycles: 5489769 heartbeat IPC: 3.817 cumulative IPC: 3.006 (Simulation time: 00 hr 01 min 46 sec)
Heartbeat CPU 0 instructions: 17000110 cycles: 5654074 heartbeat IPC: 3.043 cumulative IPC: 3.007 (Simulation time: 00 hr 01 min 49 sec)
Heartbeat CPU 0 instructions: 17500114 cycles: 5808078 heartbeat IPC: 3.247 cumulative IPC: 3.013 (Simulation time: 00 hr 01 min 52 sec)
Heartbeat CPU 0 instructions: 18000119 cycles: 5944492 heartbeat IPC: 3.665 cumulative IPC: 3.028 (Simulation time: 00 hr 01 min 54 sec)
Heartbeat CPU 0 instructions: 18500120 cycles: 6072415 heartbeat IPC: 3.909 cumulative IPC: 3.047 (Simulation time: 00 hr 01 min 57 sec)
Heartbeat CPU 0 instructions: 19000123 cycles: 6244287 heartbeat IPC: 2.909 cumulative IPC: 3.043 (Simulation time: 00 hr 02 min 00 sec)
Heartbeat CPU 0 instructions: 19500127 cycles: 6421144 heartbeat IPC: 2.827 cumulative IPC: 3.037 (Simulation time: 00 hr 02 min 03 sec)
Heartbeat CPU 0 instructions: 20000132 cycles: 6585816 heartbeat IPC: 3.036 cumulative IPC: 3.037 (Simulation time: 00 hr 02 min 06 sec)
Heartbeat CPU 0 instructions: 20500133 cycles: 6762298 heartbeat IPC: 2.833 cumulative IPC: 3.032 (Simulation time: 00 hr 02 min 09 sec)
Heartbeat CPU 0 instructions: 21000135 cycles: 6929402 heartbeat IPC: 2.992 cumulative IPC: 3.031 (Simulation time: 00 hr 02 min 12 sec)
Heartbeat CPU 0 instructions: 21500135 cycles: 7057221 heartbeat IPC: 3.912 cumulative IPC: 3.047 (Simulation time: 00 hr 02 min 14 sec)
Heartbeat CPU 0 instructions: 22000141 cycles: 7191123 heartbeat IPC: 3.734 cumulative IPC: 3.059 (Simulation time: 00 hr 02 min 16 sec)
Heartbeat CPU 0 instructions: 22500143 cycles: 7356162 heartbeat IPC: 3.03 cumulative IPC: 3.059 (Simulation time: 00 hr 02 min 19 sec)
Heartbeat CPU 0 instructions: 23000146 cycles: 7515256 heartbeat IPC: 3.143 cumulative IPC: 3.06 (Simulation time: 00 hr 02 min 22 sec)
Heartbeat CPU 0 instructions: 23500148 cycles: 7646492 heartbeat IPC: 3.81 cumulative IPC: 3.073 (Simulation time: 00 hr 02 min 25 sec)
Heartbeat CPU 0 instructions: 24000152 cycles: 7749318 heartbeat IPC: 4.863 cumulative IPC: 3.097 (Simulation time: 00 hr 02 min 27 sec)
Heartbeat CPU 0 instructions: 24500153 cycles: 7854215 heartbeat IPC: 4.767 cumulative IPC: 3.119 (Simulation time: 00 hr 02 min 28 sec)
Heartbeat CPU 0 instructions: 25000156 cycles: 7957760 heartbeat IPC: 4.829 cumulative IPC: 3.142 (Simulation time: 00 hr 02 min 30 sec)
Heartbeat CPU 0 instructions: 25500163 cycles: 8059987 heartbeat IPC: 4.891 cumulative IPC: 3.164 (Simulation time: 00 hr 02 min 32 sec)
Heartbeat CPU 0 instructions: 26000170 cycles: 8162146 heartbeat IPC: 4.894 cumulative IPC: 3.185 (Simulation time: 00 hr 02 min 34 sec)
Heartbeat CPU 0 instructions: 26500172 cycles: 8264511 heartbeat IPC: 4.885 cumulative IPC: 3.207 (Simulation time: 00 hr 02 min 35 sec)
Heartbeat CPU 0 instructions: 27000173 cycles: 8367127 heartbeat IPC: 4.873 cumulative IPC: 3.227 (Simulation time: 00 hr 02 min 37 sec)
Heartbeat CPU 0 instructions: 27500178 cycles: 8469822 heartbeat IPC: 4.869 cumulative IPC: 3.247 (Simulation time: 00 hr 02 min 39 sec)
Heartbeat CPU 0 instructions: 28000182 cycles: 8571991 heartbeat IPC: 4.894 cumulative IPC: 3.266 (Simulation time: 00 hr 02 min 41 sec)
Heartbeat CPU 0 instructions: 28500186 cycles: 8674632 heartbeat IPC: 4.871 cumulative IPC: 3.285 (Simulation time: 00 hr 02 min 43 sec)
Heartbeat CPU 0 instructions: 29000188 cycles: 8777519 heartbeat IPC: 4.86 cumulative IPC: 3.304 (Simulation time: 00 hr 02 min 44 sec)
Heartbeat CPU 0 instructions: 29500188 cycles: 8880458 heartbeat IPC: 4.857 cumulative IPC: 3.322 (Simulation time: 00 hr 02 min 46 sec)
Heartbeat CPU 0 instructions: 30000190 cycles: 8982435 heartbeat IPC: 4.903 cumulative IPC: 3.34 (Simulation time: 00 hr 02 min 48 sec)
Heartbeat CPU 0 instructions: 30500194 cycles: 9084729 heartbeat IPC: 4.888 cumulative IPC: 3.357 (Simulation time: 00 hr 02 min 50 sec)
Heartbeat CPU 0 instructions: 31000196 cycles: 9187230 heartbeat IPC: 4.878 cumulative IPC: 3.374 (Simulation time: 00 hr 02 min 51 sec)
Heartbeat CPU 0 instructions: 31500200 cycles: 9289259 heartbeat IPC: 4.901 cumulative IPC: 3.391 (Simulation time: 00 hr 02 min 53 sec)
Heartbeat CPU 0 instructions: 32000205 cycles: 9392881 heartbeat IPC: 4.825 cumulative IPC: 3.407 (Simulation time: 00 hr 02 min 55 sec)
Heartbeat CPU 0 instructions: 32500208 cycles: 9505089 heartbeat IPC: 4.456 cumulative IPC: 3.419 (Simulation time: 00 hr 02 min 57 sec)
Heartbeat CPU 0 instructions: 33000213 cycles: 9608472 heartbeat IPC: 4.836 cumulative IPC: 3.434 (Simulation time: 00 hr 02 min 59 sec)
Heartbeat CPU 0 instructions: 33500216 cycles: 9712707 heartbeat IPC: 4.797 cumulative IPC: 3.449 (Simulation time: 00 hr 03 min 00 sec)
Heartbeat CPU 0 instructions: 34000217 cycles: 9817001 heartbeat IPC: 4.794 cumulative IPC: 3.463 (Simulation time: 00 hr 03 min 02 sec)
Heartbeat CPU 0 instructions: 34500220 cycles: 9954531 heartbeat IPC: 3.636 cumulative IPC: 3.466 (Simulation time: 00 hr 03 min 04 sec)
Heartbeat CPU 0 instructions: 35000221 cycles: 10090943 heartbeat IPC: 3.665 cumulative IPC: 3.468 (Simulation time: 00 hr 03 min 07 sec)
Heartbeat CPU 0 instructions: 35500224 cycles: 10243291 heartbeat IPC: 3.282 cumulative IPC: 3.466 (Simulation time: 00 hr 03 min 10 sec)
Heartbeat CPU 0 instructions: 36000227 cycles: 10392631 heartbeat IPC: 3.348 cumulative IPC: 3.464 (Simulation time: 00 hr 03 min 13 sec)
Heartbeat CPU 0 instructions: 36500233 cycles: 10528377 heartbeat IPC: 3.683 cumulative IPC: 3.467 (Simulation time: 00 hr 03 min 16 sec)
Heartbeat CPU 0 instructions: 37000237 cycles: 10713579 heartbeat IPC: 2.7 cumulative IPC: 3.454 (Simulation time: 00 hr 03 min 19 sec)
Heartbeat CPU 0 instructions: 37500240 cycles: 10859056 heartbeat IPC: 3.437 cumulative IPC: 3.453 (Simulation time: 00 hr 03 min 22 sec)
Heartbeat CPU 0 instructions: 38000246 cycles: 10996532 heartbeat IPC: 3.637 cumulative IPC: 3.456 (Simulation time: 00 hr 03 min 24 sec)
Heartbeat CPU 0 instructions: 38500246 cycles: 11165982 heartbeat IPC: 2.951 cumulative IPC: 3.448 (Simulation time: 00 hr 03 min 27 sec)
Heartbeat CPU 0 instructions: 39000252 cycles: 11288472 heartbeat IPC: 4.082 cumulative IPC: 3.455 (Simulation time: 00 hr 03 min 30 sec)
Heartbeat CPU 0 instructions: 39500257 cycles: 11442934 heartbeat IPC: 3.237 cumulative IPC: 3.452 (Simulation time: 00 hr 03 min 33 sec)
Heartbeat CPU 0 instructions: 40000264 cycles: 11595418 heartbeat IPC: 3.279 cumulative IPC: 3.45 (Simulation time: 00 hr 03 min 36 sec)
Heartbeat CPU 0 instructions: 40500266 cycles: 11747228 heartbeat IPC: 3.294 cumulative IPC: 3.448 (Simulation time: 00 hr 03 min 39 sec)
Heartbeat CPU 0 instructions: 41000266 cycles: 11892412 heartbeat IPC: 3.444 cumulative IPC: 3.448 (Simulation time: 00 hr 03 min 41 sec)
Heartbeat CPU 0 instructions: 41500270 cycles: 12039243 heartbeat IPC: 3.405 cumulative IPC: 3.447 (Simulation time: 00 hr 03 min 44 sec)
Heartbeat CPU 0 instructions: 42000272 cycles: 12176771 heartbeat IPC: 3.636 cumulative IPC: 3.449 (Simulation time: 00 hr 03 min 46 sec)
Heartbeat CPU 0 instructions: 42500277 cycles: 12327218 heartbeat IPC: 3.323 cumulative IPC: 3.448 (Simulation time: 00 hr 03 min 49 sec)
Heartbeat CPU 0 instructions: 43000284 cycles: 12490974 heartbeat IPC: 3.053 cumulative IPC: 3.443 (Simulation time: 00 hr 03 min 52 sec)
Heartbeat CPU 0 instructions: 43500284 cycles: 12635013 heartbeat IPC: 3.471 cumulative IPC: 3.443 (Simulation time: 00 hr 03 min 55 sec)
Heartbeat CPU 0 instructions: 44000284 cycles: 12786761 heartbeat IPC: 3.295 cumulative IPC: 3.441 (Simulation time: 00 hr 03 min 57 sec)
Heartbeat CPU 0 instructions: 44500285 cycles: 12923347 heartbeat IPC: 3.661 cumulative IPC: 3.443 (Simulation time: 00 hr 04 min 00 sec)
Heartbeat CPU 0 instructions: 45000289 cycles: 13096300 heartbeat IPC: 2.891 cumulative IPC: 3.436 (Simulation time: 00 hr 04 min 03 sec)
Heartbeat CPU 0 instructions: 45500291 cycles: 13225449 heartbeat IPC: 3.872 cumulative IPC: 3.44 (Simulation time: 00 hr 04 min 05 sec)
Heartbeat CPU 0 instructions: 46000291 cycles: 13377625 heartbeat IPC: 3.286 cumulative IPC: 3.439 (Simulation time: 00 hr 04 min 08 sec)
Heartbeat CPU 0 instructions: 46500297 cycles: 13537008 heartbeat IPC: 3.137 cumulative IPC: 3.435 (Simulation time: 00 hr 04 min 11 sec)
Heartbeat CPU 0 instructions: 47000300 cycles: 13690545 heartbeat IPC: 3.257 cumulative IPC: 3.433 (Simulation time: 00 hr 04 min 14 sec)
Heartbeat CPU 0 instructions: 47500301 cycles: 13842422 heartbeat IPC: 3.292 cumulative IPC: 3.432 (Simulation time: 00 hr 04 min 17 sec)
Heartbeat CPU 0 instructions: 48000307 cycles: 13990111 heartbeat IPC: 3.386 cumulative IPC: 3.431 (Simulation time: 00 hr 04 min 19 sec)
Heartbeat CPU 0 instructions: 48500312 cycles: 14122826 heartbeat IPC: 3.768 cumulative IPC: 3.434 (Simulation time: 00 hr 04 min 22 sec)
Heartbeat CPU 0 instructions: 49000315 cycles: 14225159 heartbeat IPC: 4.886 cumulative IPC: 3.445 (Simulation time: 00 hr 04 min 24 sec)
Heartbeat CPU 0 instructions: 49500319 cycles: 14328558 heartbeat IPC: 4.836 cumulative IPC: 3.455 (Simulation time: 00 hr 04 min 26 sec)
Warmup halting CPU 0 at instruction 50000004 cycle 14429483 for remainder of phase
Warmup finished CPU 0 instructions: 50000004 cycles: 14429483 cumulative IPC: 3.465 (Simulation time: 00 hr 04 min 27 sec)
Warmup complete CPU 0 instructions: 50000004 cycles: 14429483 cumulative IPC: 3.465 (Simulation time: 00 hr 04 min 27 sec)
Heartbeat CPU 0 instructions: 50000319 cycles: 14429553 heartbeat IPC: 4.951 cumulative IPC: 4.5 (Simulation time: 00 hr 04 min 27 sec)
Heartbeat CPU 0 instructions: 50500320 cycles: 16033808 heartbeat IPC: 0.3117 cumulative IPC: 0.3119 (Simulation time: 00 hr 04 min 41 sec)
Heartbeat CPU 0 instructions: 51000327 cycles: 17093511 heartbeat IPC: 0.4718 cumulative IPC: 0.3755 (Simulation time: 00 hr 04 min 50 sec)
Heartbeat CPU 0 instructions: 51500334 cycles: 18469789 heartbeat IPC: 0.3633 cumulative IPC: 0.3713 (Simulation time: 00 hr 05 min 01 sec)
Heartbeat CPU 0 instructions: 52000336 cycles: 19685259 heartbeat IPC: 0.4114 cumulative IPC: 0.3806 (Simulation time: 00 hr 05 min 11 sec)
Heartbeat CPU 0 instructions: 52500343 cycles: 20850829 heartbeat IPC: 0.429 cumulative IPC: 0.3894 (Simulation time: 00 hr 05 min 21 sec)
Heartbeat CPU 0 instructions: 53000345 cycles: 21997766 heartbeat IPC: 0.4359 cumulative IPC: 0.3964 (Simulation time: 00 hr 05 min 30 sec)
Heartbeat CPU 0 instructions: 53500346 cycles: 23030340 heartbeat IPC: 0.4842 cumulative IPC: 0.407 (Simulation time: 00 hr 05 min 39 sec)
Heartbeat CPU 0 instructions: 54000349 cycles: 24124165 heartbeat IPC: 0.4571 cumulative IPC: 0.4126 (Simulation time: 00 hr 05 min 48 sec)
Heartbeat CPU 0 instructions: 54500351 cycles: 25382849 heartbeat IPC: 0.3972 cumulative IPC: 0.4109 (Simulation time: 00 hr 05 min 59 sec)
Heartbeat CPU 0 instructions: 55000357 cycles: 26313583 heartbeat IPC: 0.5372 cumulative IPC: 0.4208 (Simulation time: 00 hr 06 min 07 sec)
Heartbeat CPU 0 instructions: 55500360 cycles: 27797034 heartbeat IPC: 0.3371 cumulative IPC: 0.4115 (Simulation time: 00 hr 06 min 19 sec)
Heartbeat CPU 0 instructions: 56000365 cycles: 29036141 heartbeat IPC: 0.4035 cumulative IPC: 0.4108 (Simulation time: 00 hr 06 min 29 sec)
Heartbeat CPU 0 instructions: 56500365 cycles: 30006544 heartbeat IPC: 0.5152 cumulative IPC: 0.4173 (Simulation time: 00 hr 06 min 37 sec)
Heartbeat CPU 0 instructions: 57000371 cycles: 31259083 heartbeat IPC: 0.3992 cumulative IPC: 0.416 (Simulation time: 00 hr 06 min 48 sec)
Heartbeat CPU 0 instructions: 57500372 cycles: 32239873 heartbeat IPC: 0.5098 cumulative IPC: 0.4211 (Simulation time: 00 hr 06 min 56 sec)
Heartbeat CPU 0 instructions: 58000377 cycles: 33352698 heartbeat IPC: 0.4493 cumulative IPC: 0.4228 (Simulation time: 00 hr 07 min 05 sec)
Heartbeat CPU 0 instructions: 58500377 cycles: 35667322 heartbeat IPC: 0.216 cumulative IPC: 0.4002 (Simulation time: 00 hr 07 min 21 sec)
Heartbeat CPU 0 instructions: 59000379 cycles: 36742165 heartbeat IPC: 0.4652 cumulative IPC: 0.4034 (Simulation time: 00 hr 07 min 30 sec)
Heartbeat CPU 0 instructions: 59500379 cycles: 38553990 heartbeat IPC: 0.276 cumulative IPC: 0.3938 (Simulation time: 00 hr 07 min 45 sec)
Heartbeat CPU 0 instructions: 60000385 cycles: 39529109 heartbeat IPC: 0.5128 cumulative IPC: 0.3984 (Simulation time: 00 hr 07 min 52 sec)
Heartbeat CPU 0 instructions: 60500386 cycles: 41962998 heartbeat IPC: 0.2054 cumulative IPC: 0.3814 (Simulation time: 00 hr 08 min 08 sec)
Heartbeat CPU 0 instructions: 61000386 cycles: 44502752 heartbeat IPC: 0.1969 cumulative IPC: 0.3658 (Simulation time: 00 hr 08 min 24 sec)
Heartbeat CPU 0 instructions: 61500390 cycles: 45707936 heartbeat IPC: 0.4149 cumulative IPC: 0.3677 (Simulation time: 00 hr 08 min 34 sec)
Heartbeat CPU 0 instructions: 62000396 cycles: 47228850 heartbeat IPC: 0.3288 cumulative IPC: 0.3659 (Simulation time: 00 hr 08 min 44 sec)
Heartbeat CPU 0 instructions: 62500396 cycles: 48519592 heartbeat IPC: 0.3874 cumulative IPC: 0.3667 (Simulation time: 00 hr 08 min 54 sec)
Heartbeat CPU 0 instructions: 63000396 cycles: 50542445 heartbeat IPC: 0.2472 cumulative IPC: 0.36 (Simulation time: 00 hr 09 min 07 sec)
Heartbeat CPU 0 instructions: 63500396 cycles: 52632180 heartbeat IPC: 0.2393 cumulative IPC: 0.3534 (Simulation time: 00 hr 09 min 22 sec)
Heartbeat CPU 0 instructions: 64000397 cycles: 54584225 heartbeat IPC: 0.2561 cumulative IPC: 0.3487 (Simulation time: 00 hr 09 min 37 sec)
Heartbeat CPU 0 instructions: 64500399 cycles: 57093106 heartbeat IPC: 0.1993 cumulative IPC: 0.3399 (Simulation time: 00 hr 09 min 53 sec)
Heartbeat CPU 0 instructions: 65000401 cycles: 58748655 heartbeat IPC: 0.302 cumulative IPC: 0.3385 (Simulation time: 00 hr 10 min 05 sec)
Heartbeat CPU 0 instructions: 65500401 cycles: 59076495 heartbeat IPC: 1.525 cumulative IPC: 0.3472 (Simulation time: 00 hr 10 min 09 sec)
Heartbeat CPU 0 instructions: 66000402 cycles: 59324725 heartbeat IPC: 2.014 cumulative IPC: 0.3564 (Simulation time: 00 hr 10 min 12 sec)
Heartbeat CPU 0 instructions: 66500402 cycles: 60542732 heartbeat IPC: 0.4105 cumulative IPC: 0.3578 (Simulation time: 00 hr 10 min 21 sec)
Heartbeat CPU 0 instructions: 67000407 cycles: 63896043 heartbeat IPC: 0.1491 cumulative IPC: 0.3437 (Simulation time: 00 hr 10 min 43 sec)
Heartbeat CPU 0 instructions: 67500410 cycles: 65310976 heartbeat IPC: 0.3534 cumulative IPC: 0.3439 (Simulation time: 00 hr 10 min 53 sec)
Heartbeat CPU 0 instructions: 68000414 cycles: 66135486 heartbeat IPC: 0.6064 cumulative IPC: 0.3481 (Simulation time: 00 hr 11 min 00 sec)
Heartbeat CPU 0 instructions: 68500414 cycles: 68085597 heartbeat IPC: 0.2564 cumulative IPC: 0.3448 (Simulation time: 00 hr 11 min 13 sec)
Heartbeat CPU 0 instructions: 69000419 cycles: 69868868 heartbeat IPC: 0.2804 cumulative IPC: 0.3427 (Simulation time: 00 hr 11 min 25 sec)
Heartbeat CPU 0 instructions: 69500421 cycles: 71140953 heartbeat IPC: 0.3931 cumulative IPC: 0.3439 (Simulation time: 00 hr 11 min 35 sec)
Heartbeat CPU 0 instructions: 70000422 cycles: 73130491 heartbeat IPC: 0.2513 cumulative IPC: 0.3407 (Simulation time: 00 hr 11 min 48 sec)
Heartbeat CPU 0 instructions: 70500429 cycles: 73950908 heartbeat IPC: 0.6095 cumulative IPC: 0.3444 (Simulation time: 00 hr 11 min 54 sec)
Heartbeat CPU 0 instructions: 71000433 cycles: 75553557 heartbeat IPC: 0.312 cumulative IPC: 0.3436 (Simulation time: 00 hr 12 min 05 sec)
Heartbeat CPU 0 instructions: 71500434 cycles: 76502941 heartbeat IPC: 0.5267 cumulative IPC: 0.3464 (Simulation time: 00 hr 12 min 13 sec)
Heartbeat CPU 0 instructions: 72000435 cycles: 77553910 heartbeat IPC: 0.4758 cumulative IPC: 0.3485 (Simulation time: 00 hr 12 min 20 sec)
Heartbeat CPU 0 instructions: 72500440 cycles: 79223277 heartbeat IPC: 0.2995 cumulative IPC: 0.3473 (Simulation time: 00 hr 12 min 32 sec)
Heartbeat CPU 0 instructions: 73000440 cycles: 79747713 heartbeat IPC: 0.9534 cumulative IPC: 0.3521 (Simulation time: 00 hr 12 min 36 sec)
Heartbeat CPU 0 instructions: 73500442 cycles: 81853325 heartbeat IPC: 0.2375 cumulative IPC: 0.3485 (Simulation time: 00 hr 12 min 50 sec)
Heartbeat CPU 0 instructions: 74000442 cycles: 83165875 heartbeat IPC: 0.3809 cumulative IPC: 0.3492 (Simulation time: 00 hr 12 min 59 sec)
Heartbeat CPU 0 instructions: 74500443 cycles: 83613833 heartbeat IPC: 1.116 cumulative IPC: 0.3541 (Simulation time: 00 hr 13 min 04 sec)
Heartbeat CPU 0 instructions: 75000445 cycles: 83853923 heartbeat IPC: 2.083 cumulative IPC: 0.3601 (Simulation time: 00 hr 13 min 07 sec)
Heartbeat CPU 0 instructions: 75500447 cycles: 84039623 heartbeat IPC: 2.693 cumulative IPC: 0.3663 (Simulation time: 00 hr 13 min 09 sec)
Heartbeat CPU 0 instructions: 76000447 cycles: 84705086 heartbeat IPC: 0.7514 cumulative IPC: 0.37 (Simulation time: 00 hr 13 min 15 sec)
Heartbeat CPU 0 instructions: 76500450 cycles: 85886805 heartbeat IPC: 0.4231 cumulative IPC: 0.3709 (Simulation time: 00 hr 13 min 23 sec)
Heartbeat CPU 0 instructions: 77000452 cycles: 88021602 heartbeat IPC: 0.2342 cumulative IPC: 0.3669 (Simulation time: 00 hr 13 min 37 sec)
Heartbeat CPU 0 instructions: 77500452 cycles: 89632737 heartbeat IPC: 0.3103 cumulative IPC: 0.3657 (Simulation time: 00 hr 13 min 48 sec)
Heartbeat CPU 0 instructions: 78000453 cycles: 91875101 heartbeat IPC: 0.223 cumulative IPC: 0.3615 (Simulation time: 00 hr 14 min 03 sec)
Heartbeat CPU 0 instructions: 78500459 cycles: 94556545 heartbeat IPC: 0.1865 cumulative IPC: 0.3557 (Simulation time: 00 hr 14 min 20 sec)
Heartbeat CPU 0 instructions: 79000465 cycles: 96304649 heartbeat IPC: 0.286 cumulative IPC: 0.3542 (Simulation time: 00 hr 14 min 32 sec)
Heartbeat CPU 0 instructions: 79500472 cycles: 98243556 heartbeat IPC: 0.2579 cumulative IPC: 0.352 (Simulation time: 00 hr 14 min 46 sec)
Heartbeat CPU 0 instructions: 80000477 cycles: 99160869 heartbeat IPC: 0.5451 cumulative IPC: 0.3541 (Simulation time: 00 hr 14 min 53 sec)
Heartbeat CPU 0 instructions: 80500482 cycles: 99681514 heartbeat IPC: 0.9604 cumulative IPC: 0.3578 (Simulation time: 00 hr 14 min 57 sec)
Heartbeat CPU 0 instructions: 81000482 cycles: 100138070 heartbeat IPC: 1.095 cumulative IPC: 0.3617 (Simulation time: 00 hr 15 min 01 sec)
Heartbeat CPU 0 instructions: 81500486 cycles: 102183005 heartbeat IPC: 0.2445 cumulative IPC: 0.359 (Simulation time: 00 hr 15 min 15 sec)
Heartbeat CPU 0 instructions: 82000487 cycles: 104310959 heartbeat IPC: 0.235 cumulative IPC: 0.356 (Simulation time: 00 hr 15 min 28 sec)
Heartbeat CPU 0 instructions: 82500488 cycles: 104877050 heartbeat IPC: 0.8833 cumulative IPC: 0.3593 (Simulation time: 00 hr 15 min 33 sec)
Heartbeat CPU 0 instructions: 83000494 cycles: 106434256 heartbeat IPC: 0.3211 cumulative IPC: 0.3587 (Simulation time: 00 hr 15 min 45 sec)
Heartbeat CPU 0 instructions: 83500496 cycles: 107326032 heartbeat IPC: 0.5607 cumulative IPC: 0.3606 (Simulation time: 00 hr 15 min 52 sec)
Heartbeat CPU 0 instructions: 84000501 cycles: 107989395 heartbeat IPC: 0.7537 cumulative IPC: 0.3634 (Simulation time: 00 hr 15 min 57 sec)
Heartbeat CPU 0 instructions: 84500502 cycles: 110044417 heartbeat IPC: 0.2433 cumulative IPC: 0.3608 (Simulation time: 00 hr 16 min 12 sec)
Heartbeat CPU 0 instructions: 85000509 cycles: 111530793 heartbeat IPC: 0.3364 cumulative IPC: 0.3605 (Simulation time: 00 hr 16 min 22 sec)
Heartbeat CPU 0 instructions: 85500510 cycles: 112720772 heartbeat IPC: 0.4202 cumulative IPC: 0.3612 (Simulation time: 00 hr 16 min 31 sec)
Heartbeat CPU 0 instructions: 86000512 cycles: 113640064 heartbeat IPC: 0.5439 cumulative IPC: 0.3629 (Simulation time: 00 hr 16 min 39 sec)
Heartbeat CPU 0 instructions: 86500512 cycles: 114383828 heartbeat IPC: 0.6723 cumulative IPC: 0.3652 (Simulation time: 00 hr 16 min 45 sec)
Heartbeat CPU 0 instructions: 87000513 cycles: 114890158 heartbeat IPC: 0.9875 cumulative IPC: 0.3683 (Simulation time: 00 hr 16 min 50 sec)
Heartbeat CPU 0 instructions: 87500513 cycles: 115193240 heartbeat IPC: 1.65 cumulative IPC: 0.3722 (Simulation time: 00 hr 16 min 53 sec)
Heartbeat CPU 0 instructions: 88000517 cycles: 115467186 heartbeat IPC: 1.825 cumulative IPC: 0.3761 (Simulation time: 00 hr 16 min 56 sec)
Heartbeat CPU 0 instructions: 88500522 cycles: 115832893 heartbeat IPC: 1.367 cumulative IPC: 0.3797 (Simulation time: 00 hr 16 min 59 sec)
Heartbeat CPU 0 instructions: 89000523 cycles: 116534723 heartbeat IPC: 0.7124 cumulative IPC: 0.382 (Simulation time: 00 hr 17 min 05 sec)
Heartbeat CPU 0 instructions: 89500524 cycles: 119089314 heartbeat IPC: 0.1957 cumulative IPC: 0.3774 (Simulation time: 00 hr 17 min 21 sec)
Heartbeat CPU 0 instructions: 90000530 cycles: 120109741 heartbeat IPC: 0.49 cumulative IPC: 0.3785 (Simulation time: 00 hr 17 min 29 sec)
Heartbeat CPU 0 instructions: 90500532 cycles: 120374930 heartbeat IPC: 1.885 cumulative IPC: 0.3823 (Simulation time: 00 hr 17 min 32 sec)
Heartbeat CPU 0 instructions: 91000533 cycles: 121743845 heartbeat IPC: 0.3653 cumulative IPC: 0.3821 (Simulation time: 00 hr 17 min 41 sec)
Heartbeat CPU 0 instructions: 91500535 cycles: 123444186 heartbeat IPC: 0.2941 cumulative IPC: 0.3807 (Simulation time: 00 hr 17 min 53 sec)
Heartbeat CPU 0 instructions: 92000536 cycles: 124861456 heartbeat IPC: 0.3528 cumulative IPC: 0.3803 (Simulation time: 00 hr 18 min 04 sec)
Heartbeat CPU 0 instructions: 92500536 cycles: 125539746 heartbeat IPC: 0.7371 cumulative IPC: 0.3825 (Simulation time: 00 hr 18 min 09 sec)
Heartbeat CPU 0 instructions: 93000540 cycles: 128507190 heartbeat IPC: 0.1685 cumulative IPC: 0.3769 (Simulation time: 00 hr 18 min 28 sec)
Heartbeat CPU 0 instructions: 93500541 cycles: 129490429 heartbeat IPC: 0.5085 cumulative IPC: 0.3781 (Simulation time: 00 hr 18 min 37 sec)
Heartbeat CPU 0 instructions: 94000541 cycles: 131011808 heartbeat IPC: 0.3286 cumulative IPC: 0.3774 (Simulation time: 00 hr 18 min 48 sec)
Heartbeat CPU 0 instructions: 94500544 cycles: 132208843 heartbeat IPC: 0.4177 cumulative IPC: 0.3778 (Simulation time: 00 hr 18 min 57 sec)
Heartbeat CPU 0 instructions: 95000544 cycles: 133375578 heartbeat IPC: 0.4285 cumulative IPC: 0.3783 (Simulation time: 00 hr 19 min 06 sec)
Heartbeat CPU 0 instructions: 95500544 cycles: 134576115 heartbeat IPC: 0.4165 cumulative IPC: 0.3787 (Simulation time: 00 hr 19 min 15 sec)
Heartbeat CPU 0 instructions: 96000544 cycles: 135869194 heartbeat IPC: 0.3867 cumulative IPC: 0.3788 (Simulation time: 00 hr 19 min 25 sec)
Heartbeat CPU 0 instructions: 96500544 cycles: 136218512 heartbeat IPC: 1.431 cumulative IPC: 0.3818 (Simulation time: 00 hr 19 min 29 sec)
Heartbeat CPU 0 instructions: 97000546 cycles: 136564565 heartbeat IPC: 1.445 cumulative IPC: 0.3848 (Simulation time: 00 hr 19 min 32 sec)
Heartbeat CPU 0 instructions: 97500549 cycles: 136925447 heartbeat IPC: 1.386 cumulative IPC: 0.3878 (Simulation time: 00 hr 19 min 35 sec)
Heartbeat CPU 0 instructions: 98000551 cycles: 137272122 heartbeat IPC: 1.442 cumulative IPC: 0.3907 (Simulation time: 00 hr 19 min 38 sec)
Heartbeat CPU 0 instructions: 98500556 cycles: 137618487 heartbeat IPC: 1.444 cumulative IPC: 0.3937 (Simulation time: 00 hr 19 min 42 sec)
Heartbeat CPU 0 instructions: 99000563 cycles: 137966777 heartbeat IPC: 1.436 cumulative IPC: 0.3966 (Simulation time: 00 hr 19 min 45 sec)
Heartbeat CPU 0 instructions: 99500565 cycles: 138313463 heartbeat IPC: 1.442 cumulative IPC: 0.3996 (Simulation time: 00 hr 19 min 48 sec)
Heartbeat CPU 0 instructions: 100000567 cycles: 138662445 heartbeat IPC: 1.433 cumulative IPC: 0.4025 (Simulation time: 00 hr 19 min 51 sec)
Heartbeat CPU 0 instructions: 100500571 cycles: 139004422 heartbeat IPC: 1.462 cumulative IPC: 0.4054 (Simulation time: 00 hr 19 min 55 sec)
Heartbeat CPU 0 instructions: 101000571 cycles: 139353752 heartbeat IPC: 1.431 cumulative IPC: 0.4083 (Simulation time: 00 hr 19 min 58 sec)
Heartbeat CPU 0 instructions: 101500573 cycles: 139687868 heartbeat IPC: 1.496 cumulative IPC: 0.4112 (Simulation time: 00 hr 20 min 01 sec)
Heartbeat CPU 0 instructions: 102000577 cycles: 140025739 heartbeat IPC: 1.48 cumulative IPC: 0.414 (Simulation time: 00 hr 20 min 04 sec)
Heartbeat CPU 0 instructions: 102500578 cycles: 140368893 heartbeat IPC: 1.457 cumulative IPC: 0.4169 (Simulation time: 00 hr 20 min 08 sec)
Heartbeat CPU 0 instructions: 103000581 cycles: 140712472 heartbeat IPC: 1.455 cumulative IPC: 0.4197 (Simulation time: 00 hr 20 min 11 sec)
Heartbeat CPU 0 instructions: 103500581 cycles: 142255108 heartbeat IPC: 0.3241 cumulative IPC: 0.4185 (Simulation time: 00 hr 20 min 21 sec)
Heartbeat CPU 0 instructions: 104000582 cycles: 143779769 heartbeat IPC: 0.3279 cumulative IPC: 0.4175 (Simulation time: 00 hr 20 min 32 sec)
Heartbeat CPU 0 instructions: 104500584 cycles: 146736032 heartbeat IPC: 0.1691 cumulative IPC: 0.4119 (Simulation time: 00 hr 20 min 50 sec)
Heartbeat CPU 0 instructions: 105000586 cycles: 148097107 heartbeat IPC: 0.3674 cumulative IPC: 0.4115 (Simulation time: 00 hr 21 min 01 sec)
Heartbeat CPU 0 instructions: 105500587 cycles: 149251634 heartbeat IPC: 0.4331 cumulative IPC: 0.4117 (Simulation time: 00 hr 21 min 10 sec)
Heartbeat CPU 0 instructions: 106000587 cycles: 150981623 heartbeat IPC: 0.289 cumulative IPC: 0.4101 (Simulation time: 00 hr 21 min 21 sec)
Heartbeat CPU 0 instructions: 106500592 cycles: 152254620 heartbeat IPC: 0.3928 cumulative IPC: 0.4099 (Simulation time: 00 hr 21 min 32 sec)
Heartbeat CPU 0 instructions: 107000593 cycles: 153972283 heartbeat IPC: 0.2911 cumulative IPC: 0.4085 (Simulation time: 00 hr 21 min 44 sec)
Heartbeat CPU 0 instructions: 107500594 cycles: 155742829 heartbeat IPC: 0.2824 cumulative IPC: 0.4069 (Simulation time: 00 hr 21 min 56 sec)
Heartbeat CPU 0 instructions: 108000594 cycles: 156652679 heartbeat IPC: 0.5495 cumulative IPC: 0.4078 (Simulation time: 00 hr 22 min 02 sec)
Heartbeat CPU 0 instructions: 108500599 cycles: 157776292 heartbeat IPC: 0.445 cumulative IPC: 0.4081 (Simulation time: 00 hr 22 min 10 sec)
Heartbeat CPU 0 instructions: 109000605 cycles: 159186492 heartbeat IPC: 0.3546 cumulative IPC: 0.4076 (Simulation time: 00 hr 22 min 20 sec)
Heartbeat CPU 0 instructions: 109500605 cycles: 160160550 heartbeat IPC: 0.5133 cumulative IPC: 0.4083 (Simulation time: 00 hr 22 min 29 sec)
Heartbeat CPU 0 instructions: 110000611 cycles: 160940952 heartbeat IPC: 0.6407 cumulative IPC: 0.4095 (Simulation time: 00 hr 22 min 38 sec)
Heartbeat CPU 0 instructions: 110500612 cycles: 162654869 heartbeat IPC: 0.2917 cumulative IPC: 0.4082 (Simulation time: 00 hr 22 min 50 sec)
Heartbeat CPU 0 instructions: 111000612 cycles: 164008834 heartbeat IPC: 0.3693 cumulative IPC: 0.4078 (Simulation time: 00 hr 22 min 59 sec)
Heartbeat CPU 0 instructions: 111500615 cycles: 165772229 heartbeat IPC: 0.2835 cumulative IPC: 0.4064 (Simulation time: 00 hr 23 min 12 sec)
Heartbeat CPU 0 instructions: 112000616 cycles: 167301958 heartbeat IPC: 0.3269 cumulative IPC: 0.4056 (Simulation time: 00 hr 23 min 23 sec)
Heartbeat CPU 0 instructions: 112500616 cycles: 168147535 heartbeat IPC: 0.5913 cumulative IPC: 0.4066 (Simulation time: 00 hr 23 min 31 sec)
Heartbeat CPU 0 instructions: 113000618 cycles: 169690953 heartbeat IPC: 0.324 cumulative IPC: 0.4058 (Simulation time: 00 hr 23 min 43 sec)
Heartbeat CPU 0 instructions: 113500619 cycles: 171312114 heartbeat IPC: 0.3084 cumulative IPC: 0.4048 (Simulation time: 00 hr 23 min 54 sec)
Heartbeat CPU 0 instructions: 114000621 cycles: 172798075 heartbeat IPC: 0.3365 cumulative IPC: 0.4041 (Simulation time: 00 hr 24 min 04 sec)
Heartbeat CPU 0 instructions: 114500622 cycles: 174947675 heartbeat IPC: 0.2326 cumulative IPC: 0.4018 (Simulation time: 00 hr 24 min 19 sec)
Heartbeat CPU 0 instructions: 115000629 cycles: 176191569 heartbeat IPC: 0.402 cumulative IPC: 0.4018 (Simulation time: 00 hr 24 min 28 sec)
Heartbeat CPU 0 instructions: 115500630 cycles: 177387217 heartbeat IPC: 0.4182 cumulative IPC: 0.4019 (Simulation time: 00 hr 24 min 37 sec)
Heartbeat CPU 0 instructions: 116000630 cycles: 179074720 heartbeat IPC: 0.2963 cumulative IPC: 0.4009 (Simulation time: 00 hr 24 min 49 sec)
Heartbeat CPU 0 instructions: 116500630 cycles: 180058365 heartbeat IPC: 0.5083 cumulative IPC: 0.4015 (Simulation time: 00 hr 24 min 56 sec)
Heartbeat CPU 0 instructions: 117000633 cycles: 181590208 heartbeat IPC: 0.3264 cumulative IPC: 0.4008 (Simulation time: 00 hr 25 min 06 sec)
Heartbeat CPU 0 instructions: 117500637 cycles: 183112795 heartbeat IPC: 0.3284 cumulative IPC: 0.4002 (Simulation time: 00 hr 25 min 16 sec)
Heartbeat CPU 0 instructions: 118000641 cycles: 184065190 heartbeat IPC: 0.525 cumulative IPC: 0.4009 (Simulation time: 00 hr 25 min 23 sec)
Heartbeat CPU 0 instructions: 118500641 cycles: 185443904 heartbeat IPC: 0.3627 cumulative IPC: 0.4006 (Simulation time: 00 hr 25 min 33 sec)
Heartbeat CPU 0 instructions: 119000641 cycles: 186182816 heartbeat IPC: 0.6767 cumulative IPC: 0.4017 (Simulation time: 00 hr 25 min 40 sec)
Heartbeat CPU 0 instructions: 119500646 cycles: 187754220 heartbeat IPC: 0.3182 cumulative IPC: 0.401 (Simulation time: 00 hr 25 min 51 sec)
Heartbeat CPU 0 instructions: 120000651 cycles: 189925869 heartbeat IPC: 0.2302 cumulative IPC: 0.3989 (Simulation time: 00 hr 26 min 04 sec)
Heartbeat CPU 0 instructions: 120500658 cycles: 191468602 heartbeat IPC: 0.3241 cumulative IPC: 0.3982 (Simulation time: 00 hr 26 min 14 sec)
Heartbeat CPU 0 instructions: 121000658 cycles: 195235343 heartbeat IPC: 0.1327 cumulative IPC: 0.3927 (Simulation time: 00 hr 26 min 35 sec)
Heartbeat CPU 0 instructions: 121500665 cycles: 197688645 heartbeat IPC: 0.2038 cumulative IPC: 0.3902 (Simulation time: 00 hr 26 min 50 sec)
Heartbeat CPU 0 instructions: 122000668 cycles: 198295396 heartbeat IPC: 0.8241 cumulative IPC: 0.3916 (Simulation time: 00 hr 26 min 55 sec)
Heartbeat CPU 0 instructions: 122500668 cycles: 199432905 heartbeat IPC: 0.4396 cumulative IPC: 0.3919 (Simulation time: 00 hr 27 min 03 sec)
Heartbeat CPU 0 instructions: 123000668 cycles: 201182920 heartbeat IPC: 0.2857 cumulative IPC: 0.3909 (Simulation time: 00 hr 27 min 14 sec)
Heartbeat CPU 0 instructions: 123500668 cycles: 204186381 heartbeat IPC: 0.1665 cumulative IPC: 0.3873 (Simulation time: 00 hr 27 min 34 sec)
Heartbeat CPU 0 instructions: 124000668 cycles: 205194633 heartbeat IPC: 0.4959 cumulative IPC: 0.3879 (Simulation time: 00 hr 27 min 41 sec)
Heartbeat CPU 0 instructions: 124500668 cycles: 206596578 heartbeat IPC: 0.3566 cumulative IPC: 0.3877 (Simulation time: 00 hr 27 min 50 sec)
Heartbeat CPU 0 instructions: 125000674 cycles: 207114337 heartbeat IPC: 0.9657 cumulative IPC: 0.3892 (Simulation time: 00 hr 27 min 54 sec)
Heartbeat CPU 0 instructions: 125500677 cycles: 208051551 heartbeat IPC: 0.5335 cumulative IPC: 0.3899 (Simulation time: 00 hr 28 min 01 sec)
Heartbeat CPU 0 instructions: 126000684 cycles: 208720636 heartbeat IPC: 0.7473 cumulative IPC: 0.3912 (Simulation time: 00 hr 28 min 06 sec)
Heartbeat CPU 0 instructions: 126500684 cycles: 210463292 heartbeat IPC: 0.2869 cumulative IPC: 0.3902 (Simulation time: 00 hr 28 min 17 sec)
Heartbeat CPU 0 instructions: 127000685 cycles: 212985263 heartbeat IPC: 0.1983 cumulative IPC: 0.3878 (Simulation time: 00 hr 28 min 33 sec)
Heartbeat CPU 0 instructions: 127500685 cycles: 214585845 heartbeat IPC: 0.3124 cumulative IPC: 0.3872 (Simulation time: 00 hr 28 min 43 sec)
Heartbeat CPU 0 instructions: 128000687 cycles: 215431776 heartbeat IPC: 0.5911 cumulative IPC: 0.3881 (Simulation time: 00 hr 28 min 49 sec)
Heartbeat CPU 0 instructions: 128500690 cycles: 215852225 heartbeat IPC: 1.189 cumulative IPC: 0.3897 (Simulation time: 00 hr 28 min 53 sec)
Heartbeat CPU 0 instructions: 129000690 cycles: 216110226 heartbeat IPC: 1.938 cumulative IPC: 0.3917 (Simulation time: 00 hr 28 min 55 sec)
Heartbeat CPU 0 instructions: 129500690 cycles: 216708788 heartbeat IPC: 0.8353 cumulative IPC: 0.393 (Simulation time: 00 hr 29 min 00 sec)
Heartbeat CPU 0 instructions: 130000695 cycles: 217385690 heartbeat IPC: 0.7387 cumulative IPC: 0.3942 (Simulation time: 00 hr 29 min 05 sec)
Heartbeat CPU 0 instructions: 130500695 cycles: 218056159 heartbeat IPC: 0.7457 cumulative IPC: 0.3953 (Simulation time: 00 hr 29 min 09 sec)
Heartbeat CPU 0 instructions: 131000696 cycles: 218613521 heartbeat IPC: 0.8971 cumulative IPC: 0.3967 (Simulation time: 00 hr 29 min 14 sec)
Heartbeat CPU 0 instructions: 131500697 cycles: 219215594 heartbeat IPC: 0.8305 cumulative IPC: 0.398 (Simulation time: 00 hr 29 min 18 sec)
Heartbeat CPU 0 instructions: 132000698 cycles: 219726558 heartbeat IPC: 0.9785 cumulative IPC: 0.3994 (Simulation time: 00 hr 29 min 22 sec)
Heartbeat CPU 0 instructions: 132500698 cycles: 220253197 heartbeat IPC: 0.9494 cumulative IPC: 0.4008 (Simulation time: 00 hr 29 min 26 sec)
Heartbeat CPU 0 instructions: 133000698 cycles: 222399688 heartbeat IPC: 0.2329 cumulative IPC: 0.3991 (Simulation time: 00 hr 29 min 39 sec)
Heartbeat CPU 0 instructions: 133500701 cycles: 225065166 heartbeat IPC: 0.1876 cumulative IPC: 0.3964 (Simulation time: 00 hr 29 min 55 sec)
Heartbeat CPU 0 instructions: 134000701 cycles: 226247821 heartbeat IPC: 0.4228 cumulative IPC: 0.3966 (Simulation time: 00 hr 30 min 03 sec)
Heartbeat CPU 0 instructions: 134500702 cycles: 228489264 heartbeat IPC: 0.2231 cumulative IPC: 0.3948 (Simulation time: 00 hr 30 min 16 sec)
Heartbeat CPU 0 instructions: 135000703 cycles: 230231155 heartbeat IPC: 0.287 cumulative IPC: 0.3939 (Simulation time: 00 hr 30 min 27 sec)
Heartbeat CPU 0 instructions: 135500705 cycles: 230681475 heartbeat IPC: 1.11 cumulative IPC: 0.3954 (Simulation time: 00 hr 30 min 30 sec)
Heartbeat CPU 0 instructions: 136000708 cycles: 231349806 heartbeat IPC: 0.7481 cumulative IPC: 0.3965 (Simulation time: 00 hr 30 min 35 sec)
Heartbeat CPU 0 instructions: 136500708 cycles: 231985030 heartbeat IPC: 0.7871 cumulative IPC: 0.3976 (Simulation time: 00 hr 30 min 40 sec)
Heartbeat CPU 0 instructions: 137000714 cycles: 232617796 heartbeat IPC: 0.7902 cumulative IPC: 0.3987 (Simulation time: 00 hr 30 min 44 sec)
Heartbeat CPU 0 instructions: 137500714 cycles: 233231982 heartbeat IPC: 0.8141 cumulative IPC: 0.3999 (Simulation time: 00 hr 30 min 49 sec)
Heartbeat CPU 0 instructions: 138000717 cycles: 233810753 heartbeat IPC: 0.8639 cumulative IPC: 0.4011 (Simulation time: 00 hr 30 min 53 sec)
Heartbeat CPU 0 instructions: 138500718 cycles: 234615874 heartbeat IPC: 0.621 cumulative IPC: 0.4019 (Simulation time: 00 hr 30 min 58 sec)
Heartbeat CPU 0 instructions: 139000720 cycles: 237184736 heartbeat IPC: 0.1946 cumulative IPC: 0.3995 (Simulation time: 00 hr 31 min 15 sec)
Heartbeat CPU 0 instructions: 139500725 cycles: 239093325 heartbeat IPC: 0.262 cumulative IPC: 0.3984 (Simulation time: 00 hr 31 min 26 sec)
Heartbeat CPU 0 instructions: 140000732 cycles: 240572792 heartbeat IPC: 0.338 cumulative IPC: 0.398 (Simulation time: 00 hr 31 min 36 sec)
Heartbeat CPU 0 instructions: 140500734 cycles: 242010436 heartbeat IPC: 0.3478 cumulative IPC: 0.3977 (Simulation time: 00 hr 31 min 45 sec)
Heartbeat CPU 0 instructions: 141000736 cycles: 243708050 heartbeat IPC: 0.2945 cumulative IPC: 0.3969 (Simulation time: 00 hr 31 min 56 sec)
Heartbeat CPU 0 instructions: 141500743 cycles: 245009651 heartbeat IPC: 0.3841 cumulative IPC: 0.3968 (Simulation time: 00 hr 32 min 05 sec)
Heartbeat CPU 0 instructions: 142000743 cycles: 247100606 heartbeat IPC: 0.2391 cumulative IPC: 0.3954 (Simulation time: 00 hr 32 min 17 sec)
Heartbeat CPU 0 instructions: 142500743 cycles: 248591598 heartbeat IPC: 0.3353 cumulative IPC: 0.395 (Simulation time: 00 hr 32 min 27 sec)
Heartbeat CPU 0 instructions: 143000747 cycles: 250315355 heartbeat IPC: 0.2901 cumulative IPC: 0.3943 (Simulation time: 00 hr 32 min 38 sec)
Heartbeat CPU 0 instructions: 143500747 cycles: 251661466 heartbeat IPC: 0.3714 cumulative IPC: 0.3941 (Simulation time: 00 hr 32 min 47 sec)
Heartbeat CPU 0 instructions: 144000753 cycles: 252538223 heartbeat IPC: 0.5703 cumulative IPC: 0.3948 (Simulation time: 00 hr 32 min 55 sec)
Heartbeat CPU 0 instructions: 144500754 cycles: 254308316 heartbeat IPC: 0.2825 cumulative IPC: 0.394 (Simulation time: 00 hr 33 min 08 sec)
Heartbeat CPU 0 instructions: 145000757 cycles: 255897404 heartbeat IPC: 0.3146 cumulative IPC: 0.3934 (Simulation time: 00 hr 33 min 18 sec)
Heartbeat CPU 0 instructions: 145500759 cycles: 257504473 heartbeat IPC: 0.3111 cumulative IPC: 0.3929 (Simulation time: 00 hr 33 min 28 sec)
Heartbeat CPU 0 instructions: 146000763 cycles: 258872465 heartbeat IPC: 0.3655 cumulative IPC: 0.3927 (Simulation time: 00 hr 33 min 38 sec)
Heartbeat CPU 0 instructions: 146500769 cycles: 259950580 heartbeat IPC: 0.4638 cumulative IPC: 0.393 (Simulation time: 00 hr 33 min 45 sec)
Heartbeat CPU 0 instructions: 147000770 cycles: 261246908 heartbeat IPC: 0.3857 cumulative IPC: 0.393 (Simulation time: 00 hr 33 min 53 sec)
Heartbeat CPU 0 instructions: 147500775 cycles: 262638890 heartbeat IPC: 0.3592 cumulative IPC: 0.3928 (Simulation time: 00 hr 34 min 03 sec)
Heartbeat CPU 0 instructions: 148000780 cycles: 264499891 heartbeat IPC: 0.2687 cumulative IPC: 0.3919 (Simulation time: 00 hr 34 min 14 sec)
Heartbeat CPU 0 instructions: 148500782 cycles: 266469270 heartbeat IPC: 0.2539 cumulative IPC: 0.3908 (Simulation time: 00 hr 34 min 26 sec)
Heartbeat CPU 0 instructions: 149000782 cycles: 266942278 heartbeat IPC: 1.057 cumulative IPC: 0.3921 (Simulation time: 00 hr 34 min 30 sec)
Heartbeat CPU 0 instructions: 149500784 cycles: 268026380 heartbeat IPC: 0.4612 cumulative IPC: 0.3924 (Simulation time: 00 hr 34 min 38 sec)
Heartbeat CPU 0 instructions: 150000786 cycles: 270020456 heartbeat IPC: 0.2507 cumulative IPC: 0.3913 (Simulation time: 00 hr 34 min 50 sec)
Heartbeat CPU 0 instructions: 150500786 cycles: 270866031 heartbeat IPC: 0.5913 cumulative IPC: 0.3919 (Simulation time: 00 hr 34 min 57 sec)
Heartbeat CPU 0 instructions: 151000793 cycles: 272053399 heartbeat IPC: 0.4211 cumulative IPC: 0.392 (Simulation time: 00 hr 35 min 05 sec)
Heartbeat CPU 0 instructions: 151500796 cycles: 274211890 heartbeat IPC: 0.2316 cumulative IPC: 0.3907 (Simulation time: 00 hr 35 min 17 sec)
Heartbeat CPU 0 instructions: 152000796 cycles: 275588790 heartbeat IPC: 0.3631 cumulative IPC: 0.3906 (Simulation time: 00 hr 35 min 26 sec)
Heartbeat CPU 0 instructions: 152500797 cycles: 277678729 heartbeat IPC: 0.2392 cumulative IPC: 0.3894 (Simulation time: 00 hr 35 min 39 sec)
Heartbeat CPU 0 instructions: 153000801 cycles: 279260743 heartbeat IPC: 0.3161 cumulative IPC: 0.3889 (Simulation time: 00 hr 35 min 48 sec)
Heartbeat CPU 0 instructions: 153500804 cycles: 281112440 heartbeat IPC: 0.27 cumulative IPC: 0.3881 (Simulation time: 00 hr 35 min 59 sec)
Heartbeat CPU 0 instructions: 154000810 cycles: 282267974 heartbeat IPC: 0.4327 cumulative IPC: 0.3883 (Simulation time: 00 hr 36 min 07 sec)
Heartbeat CPU 0 instructions: 154500811 cycles: 284590631 heartbeat IPC: 0.2153 cumulative IPC: 0.3868 (Simulation time: 00 hr 36 min 20 sec)
Heartbeat CPU 0 instructions: 155000811 cycles: 286015390 heartbeat IPC: 0.3509 cumulative IPC: 0.3866 (Simulation time: 00 hr 36 min 29 sec)
Heartbeat CPU 0 instructions: 155500815 cycles: 287961022 heartbeat IPC: 0.257 cumulative IPC: 0.3857 (Simulation time: 00 hr 36 min 41 sec)
Heartbeat CPU 0 instructions: 156000817 cycles: 288967877 heartbeat IPC: 0.4966 cumulative IPC: 0.3861 (Simulation time: 00 hr 36 min 48 sec)
Heartbeat CPU 0 instructions: 156500817 cycles: 290511323 heartbeat IPC: 0.324 cumulative IPC: 0.3858 (Simulation time: 00 hr 36 min 58 sec)
Heartbeat CPU 0 instructions: 157000818 cycles: 292106779 heartbeat IPC: 0.3134 cumulative IPC: 0.3853 (Simulation time: 00 hr 37 min 07 sec)
Heartbeat CPU 0 instructions: 157500818 cycles: 293704041 heartbeat IPC: 0.313 cumulative IPC: 0.3849 (Simulation time: 00 hr 37 min 16 sec)
Heartbeat CPU 0 instructions: 158000818 cycles: 295981611 heartbeat IPC: 0.2195 cumulative IPC: 0.3836 (Simulation time: 00 hr 37 min 29 sec)
Heartbeat CPU 0 instructions: 158500818 cycles: 298217557 heartbeat IPC: 0.2236 cumulative IPC: 0.3823 (Simulation time: 00 hr 37 min 41 sec)
Heartbeat CPU 0 instructions: 159000822 cycles: 299068016 heartbeat IPC: 0.5879 cumulative IPC: 0.3829 (Simulation time: 00 hr 37 min 47 sec)
Heartbeat CPU 0 instructions: 159500823 cycles: 300169877 heartbeat IPC: 0.4538 cumulative IPC: 0.3832 (Simulation time: 00 hr 37 min 54 sec)
Heartbeat CPU 0 instructions: 160000823 cycles: 302090249 heartbeat IPC: 0.2604 cumulative IPC: 0.3824 (Simulation time: 00 hr 38 min 05 sec)
Heartbeat CPU 0 instructions: 160500826 cycles: 303317286 heartbeat IPC: 0.4075 cumulative IPC: 0.3825 (Simulation time: 00 hr 38 min 13 sec)
Heartbeat CPU 0 instructions: 161000828 cycles: 305297420 heartbeat IPC: 0.2525 cumulative IPC: 0.3816 (Simulation time: 00 hr 38 min 25 sec)
Heartbeat CPU 0 instructions: 161500828 cycles: 307017266 heartbeat IPC: 0.2907 cumulative IPC: 0.3811 (Simulation time: 00 hr 38 min 36 sec)
Heartbeat CPU 0 instructions: 162000833 cycles: 307803014 heartbeat IPC: 0.6363 cumulative IPC: 0.3818 (Simulation time: 00 hr 38 min 42 sec)
Heartbeat CPU 0 instructions: 162500837 cycles: 308528456 heartbeat IPC: 0.6892 cumulative IPC: 0.3825 (Simulation time: 00 hr 38 min 49 sec)
Heartbeat CPU 0 instructions: 163000837 cycles: 309751508 heartbeat IPC: 0.4088 cumulative IPC: 0.3826 (Simulation time: 00 hr 38 min 57 sec)
Heartbeat CPU 0 instructions: 163500837 cycles: 311759379 heartbeat IPC: 0.249 cumulative IPC: 0.3817 (Simulation time: 00 hr 39 min 08 sec)
Heartbeat CPU 0 instructions: 164000838 cycles: 314332173 heartbeat IPC: 0.1943 cumulative IPC: 0.3801 (Simulation time: 00 hr 39 min 23 sec)
Heartbeat CPU 0 instructions: 164500843 cycles: 315767419 heartbeat IPC: 0.3484 cumulative IPC: 0.38 (Simulation time: 00 hr 39 min 31 sec)
Heartbeat CPU 0 instructions: 165000843 cycles: 316999050 heartbeat IPC: 0.406 cumulative IPC: 0.3801 (Simulation time: 00 hr 39 min 40 sec)
Heartbeat CPU 0 instructions: 165500848 cycles: 318170670 heartbeat IPC: 0.4268 cumulative IPC: 0.3803 (Simulation time: 00 hr 39 min 47 sec)
Heartbeat CPU 0 instructions: 166000851 cycles: 319403580 heartbeat IPC: 0.4055 cumulative IPC: 0.3804 (Simulation time: 00 hr 39 min 56 sec)
Heartbeat CPU 0 instructions: 166500852 cycles: 319678607 heartbeat IPC: 1.818 cumulative IPC: 0.3817 (Simulation time: 00 hr 39 min 58 sec)
Heartbeat CPU 0 instructions: 167000857 cycles: 319876711 heartbeat IPC: 2.524 cumulative IPC: 0.383 (Simulation time: 00 hr 40 min 00 sec)
Heartbeat CPU 0 instructions: 167500862 cycles: 321396050 heartbeat IPC: 0.3291 cumulative IPC: 0.3828 (Simulation time: 00 hr 40 min 09 sec)
Heartbeat CPU 0 instructions: 168000864 cycles: 322815606 heartbeat IPC: 0.3522 cumulative IPC: 0.3826 (Simulation time: 00 hr 40 min 18 sec)
Heartbeat CPU 0 instructions: 168500864 cycles: 323895804 heartbeat IPC: 0.4629 cumulative IPC: 0.3829 (Simulation time: 00 hr 40 min 25 sec)
Heartbeat CPU 0 instructions: 169000865 cycles: 325300298 heartbeat IPC: 0.356 cumulative IPC: 0.3828 (Simulation time: 00 hr 40 min 34 sec)
Heartbeat CPU 0 instructions: 169500865 cycles: 328633871 heartbeat IPC: 0.15 cumulative IPC: 0.3803 (Simulation time: 00 hr 40 min 55 sec)
Heartbeat CPU 0 instructions: 170000865 cycles: 330225955 heartbeat IPC: 0.3141 cumulative IPC: 0.38 (Simulation time: 00 hr 41 min 05 sec)
Heartbeat CPU 0 instructions: 170500865 cycles: 332336768 heartbeat IPC: 0.2369 cumulative IPC: 0.379 (Simulation time: 00 hr 41 min 16 sec)
Heartbeat CPU 0 instructions: 171000869 cycles: 334471173 heartbeat IPC: 0.2343 cumulative IPC: 0.3781 (Simulation time: 00 hr 41 min 28 sec)
Heartbeat CPU 0 instructions: 171500876 cycles: 336367333 heartbeat IPC: 0.2637 cumulative IPC: 0.3774 (Simulation time: 00 hr 41 min 39 sec)
Heartbeat CPU 0 instructions: 172000877 cycles: 337412973 heartbeat IPC: 0.4782 cumulative IPC: 0.3777 (Simulation time: 00 hr 41 min 45 sec)
Heartbeat CPU 0 instructions: 172500878 cycles: 338793151 heartbeat IPC: 0.3623 cumulative IPC: 0.3777 (Simulation time: 00 hr 41 min 54 sec)
Heartbeat CPU 0 instructions: 173000878 cycles: 340284453 heartbeat IPC: 0.3353 cumulative IPC: 0.3775 (Simulation time: 00 hr 42 min 03 sec)
Heartbeat CPU 0 instructions: 173500878 cycles: 340655331 heartbeat IPC: 1.348 cumulative IPC: 0.3786 (Simulation time: 00 hr 42 min 06 sec)
Heartbeat CPU 0 instructions: 174000880 cycles: 340806583 heartbeat IPC: 3.306 cumulative IPC: 0.3799 (Simulation time: 00 hr 42 min 08 sec)
Heartbeat CPU 0 instructions: 174500883 cycles: 340962209 heartbeat IPC: 3.213 cumulative IPC: 0.3813 (Simulation time: 00 hr 42 min 10 sec)
Heartbeat CPU 0 instructions: 175000885 cycles: 341623484 heartbeat IPC: 0.7561 cumulative IPC: 0.382 (Simulation time: 00 hr 42 min 15 sec)
Heartbeat CPU 0 instructions: 175500887 cycles: 341986107 heartbeat IPC: 1.379 cumulative IPC: 0.3831 (Simulation time: 00 hr 42 min 18 sec)
Heartbeat CPU 0 instructions: 176000889 cycles: 342138863 heartbeat IPC: 3.273 cumulative IPC: 0.3845 (Simulation time: 00 hr 42 min 20 sec)
Heartbeat CPU 0 instructions: 176500893 cycles: 342292108 heartbeat IPC: 3.263 cumulative IPC: 0.3858 (Simulation time: 00 hr 42 min 22 sec)
Heartbeat CPU 0 instructions: 177000899 cycles: 342450322 heartbeat IPC: 3.16 cumulative IPC: 0.3872 (Simulation time: 00 hr 42 min 24 sec)
Heartbeat CPU 0 instructions: 177500900 cycles: 342606155 heartbeat IPC: 3.209 cumulative IPC: 0.3885 (Simulation time: 00 hr 42 min 26 sec)
Heartbeat CPU 0 instructions: 178000901 cycles: 342762442 heartbeat IPC: 3.199 cumulative IPC: 0.3899 (Simulation time: 00 hr 42 min 28 sec)
Heartbeat CPU 0 instructions: 178500903 cycles: 342929383 heartbeat IPC: 2.995 cumulative IPC: 0.3912 (Simulation time: 00 hr 42 min 30 sec)
Heartbeat CPU 0 instructions: 179000903 cycles: 343091881 heartbeat IPC: 3.077 cumulative IPC: 0.3925 (Simulation time: 00 hr 42 min 32 sec)
Heartbeat CPU 0 instructions: 179500905 cycles: 343249393 heartbeat IPC: 3.174 cumulative IPC: 0.3938 (Simulation time: 00 hr 42 min 34 sec)
Heartbeat CPU 0 instructions: 180000907 cycles: 343405791 heartbeat IPC: 3.197 cumulative IPC: 0.3952 (Simulation time: 00 hr 42 min 36 sec)
Heartbeat CPU 0 instructions: 180500908 cycles: 343570058 heartbeat IPC: 3.044 cumulative IPC: 0.3965 (Simulation time: 00 hr 42 min 39 sec)
Heartbeat CPU 0 instructions: 181000913 cycles: 343728656 heartbeat IPC: 3.153 cumulative IPC: 0.3978 (Simulation time: 00 hr 42 min 41 sec)
Heartbeat CPU 0 instructions: 181500919 cycles: 343886215 heartbeat IPC: 3.173 cumulative IPC: 0.3991 (Simulation time: 00 hr 42 min 43 sec)
Heartbeat CPU 0 instructions: 182000920 cycles: 344072793 heartbeat IPC: 2.68 cumulative IPC: 0.4004 (Simulation time: 00 hr 42 min 45 sec)
Heartbeat CPU 0 instructions: 182500920 cycles: 345400372 heartbeat IPC: 0.3766 cumulative IPC: 0.4003 (Simulation time: 00 hr 42 min 54 sec)
Heartbeat CPU 0 instructions: 183000922 cycles: 346842821 heartbeat IPC: 0.3466 cumulative IPC: 0.4001 (Simulation time: 00 hr 43 min 03 sec)
Heartbeat CPU 0 instructions: 183500925 cycles: 347439228 heartbeat IPC: 0.8384 cumulative IPC: 0.4009 (Simulation time: 00 hr 43 min 07 sec)
Heartbeat CPU 0 instructions: 184000925 cycles: 347591100 heartbeat IPC: 3.292 cumulative IPC: 0.4022 (Simulation time: 00 hr 43 min 09 sec)
Heartbeat CPU 0 instructions: 184500927 cycles: 347751132 heartbeat IPC: 3.124 cumulative IPC: 0.4035 (Simulation time: 00 hr 43 min 11 sec)
Heartbeat CPU 0 instructions: 185000929 cycles: 347902887 heartbeat IPC: 3.295 cumulative IPC: 0.4048 (Simulation time: 00 hr 43 min 13 sec)
Heartbeat CPU 0 instructions: 185500930 cycles: 348061858 heartbeat IPC: 3.145 cumulative IPC: 0.4061 (Simulation time: 00 hr 43 min 15 sec)
Heartbeat CPU 0 instructions: 186000931 cycles: 348223017 heartbeat IPC: 3.103 cumulative IPC: 0.4074 (Simulation time: 00 hr 43 min 17 sec)
Heartbeat CPU 0 instructions: 186500932 cycles: 348378059 heartbeat IPC: 3.225 cumulative IPC: 0.4087 (Simulation time: 00 hr 43 min 19 sec)
Heartbeat CPU 0 instructions: 187000938 cycles: 348539797 heartbeat IPC: 3.091 cumulative IPC: 0.41 (Simulation time: 00 hr 43 min 22 sec)
Heartbeat CPU 0 instructions: 187500939 cycles: 348701154 heartbeat IPC: 3.099 cumulative IPC: 0.4113 (Simulation time: 00 hr 43 min 24 sec)
Heartbeat CPU 0 instructions: 188000942 cycles: 348861036 heartbeat IPC: 3.127 cumulative IPC: 0.4126 (Simulation time: 00 hr 43 min 26 sec)
Heartbeat CPU 0 instructions: 188500944 cycles: 349028686 heartbeat IPC: 2.982 cumulative IPC: 0.4139 (Simulation time: 00 hr 43 min 28 sec)
Heartbeat CPU 0 instructions: 189000946 cycles: 349196611 heartbeat IPC: 2.978 cumulative IPC: 0.4152 (Simulation time: 00 hr 43 min 30 sec)
Heartbeat CPU 0 instructions: 189500946 cycles: 349361548 heartbeat IPC: 3.031 cumulative IPC: 0.4165 (Simulation time: 00 hr 43 min 32 sec)
Heartbeat CPU 0 instructions: 190000952 cycles: 349519780 heartbeat IPC: 3.16 cumulative IPC: 0.4178 (Simulation time: 00 hr 43 min 34 sec)
Heartbeat CPU 0 instructions: 190500954 cycles: 349689330 heartbeat IPC: 2.949 cumulative IPC: 0.4191 (Simulation time: 00 hr 43 min 36 sec)
Heartbeat CPU 0 instructions: 191000956 cycles: 349857991 heartbeat IPC: 2.965 cumulative IPC: 0.4204 (Simulation time: 00 hr 43 min 38 sec)
Heartbeat CPU 0 instructions: 191500960 cycles: 350033278 heartbeat IPC: 2.852 cumulative IPC: 0.4216 (Simulation time: 00 hr 43 min 40 sec)
Heartbeat CPU 0 instructions: 192000961 cycles: 350205344 heartbeat IPC: 2.906 cumulative IPC: 0.4229 (Simulation time: 00 hr 43 min 42 sec)
Heartbeat CPU 0 instructions: 192500964 cycles: 350380563 heartbeat IPC: 2.854 cumulative IPC: 0.4242 (Simulation time: 00 hr 43 min 44 sec)
Heartbeat CPU 0 instructions: 193000967 cycles: 350548995 heartbeat IPC: 2.969 cumulative IPC: 0.4254 (Simulation time: 00 hr 43 min 46 sec)
Heartbeat CPU 0 instructions: 193500967 cycles: 350725502 heartbeat IPC: 2.833 cumulative IPC: 0.4267 (Simulation time: 00 hr 43 min 48 sec)
Heartbeat CPU 0 instructions: 194000971 cycles: 350898819 heartbeat IPC: 2.885 cumulative IPC: 0.428 (Simulation time: 00 hr 43 min 51 sec)
Heartbeat CPU 0 instructions: 194500976 cycles: 351623259 heartbeat IPC: 0.6902 cumulative IPC: 0.4285 (Simulation time: 00 hr 43 min 56 sec)
Heartbeat CPU 0 instructions: 195000977 cycles: 353343458 heartbeat IPC: 0.2907 cumulative IPC: 0.4278 (Simulation time: 00 hr 44 min 07 sec)
Heartbeat CPU 0 instructions: 195500978 cycles: 354819834 heartbeat IPC: 0.3387 cumulative IPC: 0.4275 (Simulation time: 00 hr 44 min 16 sec)
Heartbeat CPU 0 instructions: 196000981 cycles: 356106700 heartbeat IPC: 0.3885 cumulative IPC: 0.4273 (Simulation time: 00 hr 44 min 24 sec)
Heartbeat CPU 0 instructions: 196500981 cycles: 357492566 heartbeat IPC: 0.3608 cumulative IPC: 0.427 (Simulation time: 00 hr 44 min 33 sec)
Heartbeat CPU 0 instructions: 197000981 cycles: 358666738 heartbeat IPC: 0.4258 cumulative IPC: 0.427 (Simulation time: 00 hr 44 min 40 sec)
Heartbeat CPU 0 instructions: 197500983 cycles: 360773952 heartbeat IPC: 0.2373 cumulative IPC: 0.4259 (Simulation time: 00 hr 44 min 51 sec)
Heartbeat CPU 0 instructions: 198000990 cycles: 361770815 heartbeat IPC: 0.5016 cumulative IPC: 0.4261 (Simulation time: 00 hr 44 min 58 sec)
Heartbeat CPU 0 instructions: 198500990 cycles: 363477725 heartbeat IPC: 0.2929 cumulative IPC: 0.4254 (Simulation time: 00 hr 45 min 08 sec)
Heartbeat CPU 0 instructions: 199000990 cycles: 364348852 heartbeat IPC: 0.574 cumulative IPC: 0.4258 (Simulation time: 00 hr 45 min 14 sec)
Heartbeat CPU 0 instructions: 199500995 cycles: 365452059 heartbeat IPC: 0.4532 cumulative IPC: 0.4259 (Simulation time: 00 hr 45 min 21 sec)
Heartbeat CPU 0 instructions: 200000995 cycles: 367367677 heartbeat IPC: 0.261 cumulative IPC: 0.425 (Simulation time: 00 hr 45 min 31 sec)
Heartbeat CPU 0 instructions: 200501001 cycles: 368600548 heartbeat IPC: 0.4056 cumulative IPC: 0.4249 (Simulation time: 00 hr 45 min 39 sec)
Heartbeat CPU 0 instructions: 201001001 cycles: 371442927 heartbeat IPC: 0.1759 cumulative IPC: 0.423 (Simulation time: 00 hr 45 min 55 sec)
Heartbeat CPU 0 instructions: 201501005 cycles: 373840831 heartbeat IPC: 0.2085 cumulative IPC: 0.4215 (Simulation time: 00 hr 46 min 07 sec)
Heartbeat CPU 0 instructions: 202001005 cycles: 375128335 heartbeat IPC: 0.3883 cumulative IPC: 0.4214 (Simulation time: 00 hr 46 min 15 sec)
Heartbeat CPU 0 instructions: 202501007 cycles: 376824655 heartbeat IPC: 0.2948 cumulative IPC: 0.4208 (Simulation time: 00 hr 46 min 24 sec)
Heartbeat CPU 0 instructions: 203001007 cycles: 377782023 heartbeat IPC: 0.5223 cumulative IPC: 0.4211 (Simulation time: 00 hr 46 min 30 sec)
Heartbeat CPU 0 instructions: 203501012 cycles: 379520380 heartbeat IPC: 0.2876 cumulative IPC: 0.4204 (Simulation time: 00 hr 46 min 40 sec)
Heartbeat CPU 0 instructions: 204001012 cycles: 381783172 heartbeat IPC: 0.221 cumulative IPC: 0.4192 (Simulation time: 00 hr 46 min 53 sec)
Heartbeat CPU 0 instructions: 204501012 cycles: 383033627 heartbeat IPC: 0.3999 cumulative IPC: 0.4192 (Simulation time: 00 hr 47 min 01 sec)
Heartbeat CPU 0 instructions: 205001013 cycles: 383916008 heartbeat IPC: 0.5666 cumulative IPC: 0.4195 (Simulation time: 00 hr 47 min 08 sec)
Heartbeat CPU 0 instructions: 205501016 cycles: 384781948 heartbeat IPC: 0.5774 cumulative IPC: 0.4199 (Simulation time: 00 hr 47 min 16 sec)
Heartbeat CPU 0 instructions: 206001017 cycles: 386642279 heartbeat IPC: 0.2688 cumulative IPC: 0.4191 (Simulation time: 00 hr 47 min 26 sec)
Heartbeat CPU 0 instructions: 206501017 cycles: 387711865 heartbeat IPC: 0.4675 cumulative IPC: 0.4193 (Simulation time: 00 hr 47 min 33 sec)
Heartbeat CPU 0 instructions: 207001017 cycles: 388794335 heartbeat IPC: 0.4619 cumulative IPC: 0.4194 (Simulation time: 00 hr 47 min 39 sec)
Heartbeat CPU 0 instructions: 207501021 cycles: 389168422 heartbeat IPC: 1.337 cumulative IPC: 0.4203 (Simulation time: 00 hr 47 min 42 sec)
Heartbeat CPU 0 instructions: 208001025 cycles: 389615798 heartbeat IPC: 1.118 cumulative IPC: 0.4211 (Simulation time: 00 hr 47 min 45 sec)
Heartbeat CPU 0 instructions: 208501025 cycles: 390012727 heartbeat IPC: 1.26 cumulative IPC: 0.422 (Simulation time: 00 hr 47 min 48 sec)
Heartbeat CPU 0 instructions: 209001026 cycles: 391554659 heartbeat IPC: 0.3243 cumulative IPC: 0.4216 (Simulation time: 00 hr 47 min 57 sec)
Heartbeat CPU 0 instructions: 209501030 cycles: 391928445 heartbeat IPC: 1.338 cumulative IPC: 0.4225 (Simulation time: 00 hr 47 min 59 sec)
Heartbeat CPU 0 instructions: 210001030 cycles: 392314211 heartbeat IPC: 1.296 cumulative IPC: 0.4234 (Simulation time: 00 hr 48 min 02 sec)
Heartbeat CPU 0 instructions: 210501030 cycles: 392711737 heartbeat IPC: 1.258 cumulative IPC: 0.4243 (Simulation time: 00 hr 48 min 05 sec)
Heartbeat CPU 0 instructions: 211001033 cycles: 393072434 heartbeat IPC: 1.386 cumulative IPC: 0.4252 (Simulation time: 00 hr 48 min 08 sec)
Heartbeat CPU 0 instructions: 211501033 cycles: 394598678 heartbeat IPC: 0.3276 cumulative IPC: 0.4248 (Simulation time: 00 hr 48 min 16 sec)
Heartbeat CPU 0 instructions: 212001037 cycles: 394981070 heartbeat IPC: 1.308 cumulative IPC: 0.4257 (Simulation time: 00 hr 48 min 18 sec)
Heartbeat CPU 0 instructions: 212501040 cycles: 395339841 heartbeat IPC: 1.394 cumulative IPC: 0.4266 (Simulation time: 00 hr 48 min 21 sec)
Heartbeat CPU 0 instructions: 213001040 cycles: 395701513 heartbeat IPC: 1.382 cumulative IPC: 0.4275 (Simulation time: 00 hr 48 min 24 sec)
Heartbeat CPU 0 instructions: 213501042 cycles: 396071887 heartbeat IPC: 1.35 cumulative IPC: 0.4284 (Simulation time: 00 hr 48 min 26 sec)
Heartbeat CPU 0 instructions: 214001043 cycles: 396430912 heartbeat IPC: 1.393 cumulative IPC: 0.4293 (Simulation time: 00 hr 48 min 29 sec)
Heartbeat CPU 0 instructions: 214501049 cycles: 396791243 heartbeat IPC: 1.388 cumulative IPC: 0.4302 (Simulation time: 00 hr 48 min 32 sec)
Heartbeat CPU 0 instructions: 215001053 cycles: 397148531 heartbeat IPC: 1.399 cumulative IPC: 0.4311 (Simulation time: 00 hr 48 min 34 sec)
Heartbeat CPU 0 instructions: 215501055 cycles: 397513635 heartbeat IPC: 1.369 cumulative IPC: 0.432 (Simulation time: 00 hr 48 min 37 sec)
Heartbeat CPU 0 instructions: 216001055 cycles: 397869416 heartbeat IPC: 1.405 cumulative IPC: 0.4329 (Simulation time: 00 hr 48 min 40 sec)
Heartbeat CPU 0 instructions: 216501057 cycles: 398225883 heartbeat IPC: 1.403 cumulative IPC: 0.4338 (Simulation time: 00 hr 48 min 42 sec)
Heartbeat CPU 0 instructions: 217001058 cycles: 398580812 heartbeat IPC: 1.409 cumulative IPC: 0.4347 (Simulation time: 00 hr 48 min 45 sec)
Heartbeat CPU 0 instructions: 217501061 cycles: 398971229 heartbeat IPC: 1.281 cumulative IPC: 0.4356 (Simulation time: 00 hr 48 min 47 sec)
Heartbeat CPU 0 instructions: 218001063 cycles: 399337406 heartbeat IPC: 1.365 cumulative IPC: 0.4365 (Simulation time: 00 hr 48 min 50 sec)
Heartbeat CPU 0 instructions: 218501066 cycles: 399696683 heartbeat IPC: 1.392 cumulative IPC: 0.4374 (Simulation time: 00 hr 48 min 53 sec)
Heartbeat CPU 0 instructions: 219001069 cycles: 400060270 heartbeat IPC: 1.375 cumulative IPC: 0.4382 (Simulation time: 00 hr 48 min 55 sec)
Heartbeat CPU 0 instructions: 219501071 cycles: 400429388 heartbeat IPC: 1.355 cumulative IPC: 0.4391 (Simulation time: 00 hr 48 min 58 sec)
Heartbeat CPU 0 instructions: 220001071 cycles: 400789151 heartbeat IPC: 1.39 cumulative IPC: 0.44 (Simulation time: 00 hr 49 min 01 sec)
Heartbeat CPU 0 instructions: 220501075 cycles: 401149277 heartbeat IPC: 1.388 cumulative IPC: 0.4409 (Simulation time: 00 hr 49 min 03 sec)
Heartbeat CPU 0 instructions: 221001079 cycles: 401502290 heartbeat IPC: 1.416 cumulative IPC: 0.4418 (Simulation time: 00 hr 49 min 06 sec)
Heartbeat CPU 0 instructions: 221501084 cycles: 402123614 heartbeat IPC: 0.8047 cumulative IPC: 0.4424 (Simulation time: 00 hr 49 min 10 sec)
Heartbeat CPU 0 instructions: 222001087 cycles: 403096278 heartbeat IPC: 0.5141 cumulative IPC: 0.4425 (Simulation time: 00 hr 49 min 15 sec)
Heartbeat CPU 0 instructions: 222501089 cycles: 403450909 heartbeat IPC: 1.41 cumulative IPC: 0.4434 (Simulation time: 00 hr 49 min 18 sec)
Heartbeat CPU 0 instructions: 223001090 cycles: 403817162 heartbeat IPC: 1.365 cumulative IPC: 0.4443 (Simulation time: 00 hr 49 min 21 sec)
Heartbeat CPU 0 instructions: 223501090 cycles: 404177870 heartbeat IPC: 1.386 cumulative IPC: 0.4452 (Simulation time: 00 hr 49 min 23 sec)
Heartbeat CPU 0 instructions: 224001090 cycles: 404549239 heartbeat IPC: 1.346 cumulative IPC: 0.446 (Simulation time: 00 hr 49 min 26 sec)
Heartbeat CPU 0 instructions: 224501093 cycles: 404909338 heartbeat IPC: 1.389 cumulative IPC: 0.4469 (Simulation time: 00 hr 49 min 29 sec)
Heartbeat CPU 0 instructions: 225001096 cycles: 405268792 heartbeat IPC: 1.391 cumulative IPC: 0.4478 (Simulation time: 00 hr 49 min 31 sec)
Heartbeat CPU 0 instructions: 225501102 cycles: 405633464 heartbeat IPC: 1.371 cumulative IPC: 0.4486 (Simulation time: 00 hr 49 min 34 sec)
Heartbeat CPU 0 instructions: 226001104 cycles: 405995002 heartbeat IPC: 1.383 cumulative IPC: 0.4495 (Simulation time: 00 hr 49 min 36 sec)
Heartbeat CPU 0 instructions: 226501107 cycles: 406355633 heartbeat IPC: 1.386 cumulative IPC: 0.4503 (Simulation time: 00 hr 49 min 39 sec)
Heartbeat CPU 0 instructions: 227001109 cycles: 406711299 heartbeat IPC: 1.406 cumulative IPC: 0.4512 (Simulation time: 00 hr 49 min 42 sec)
Heartbeat CPU 0 instructions: 227501110 cycles: 407070574 heartbeat IPC: 1.392 cumulative IPC: 0.4521 (Simulation time: 00 hr 49 min 44 sec)
Heartbeat CPU 0 instructions: 228001112 cycles: 407436042 heartbeat IPC: 1.368 cumulative IPC: 0.4529 (Simulation time: 00 hr 49 min 47 sec)
Heartbeat CPU 0 instructions: 228501115 cycles: 407802835 heartbeat IPC: 1.363 cumulative IPC: 0.4538 (Simulation time: 00 hr 49 min 49 sec)
Heartbeat CPU 0 instructions: 229001115 cycles: 408165040 heartbeat IPC: 1.38 cumulative IPC: 0.4546 (Simulation time: 00 hr 49 min 52 sec)
Heartbeat CPU 0 instructions: 229501117 cycles: 408531839 heartbeat IPC: 1.363 cumulative IPC: 0.4555 (Simulation time: 00 hr 49 min 55 sec)
Heartbeat CPU 0 instructions: 230001118 cycles: 408901325 heartbeat IPC: 1.353 cumulative IPC: 0.4563 (Simulation time: 00 hr 49 min 57 sec)
Heartbeat CPU 0 instructions: 230501118 cycles: 409267725 heartbeat IPC: 1.365 cumulative IPC: 0.4572 (Simulation time: 00 hr 50 min 00 sec)
Heartbeat CPU 0 instructions: 231001118 cycles: 409627508 heartbeat IPC: 1.39 cumulative IPC: 0.458 (Simulation time: 00 hr 50 min 02 sec)
Heartbeat CPU 0 instructions: 231501120 cycles: 409986448 heartbeat IPC: 1.393 cumulative IPC: 0.4588 (Simulation time: 00 hr 50 min 05 sec)
Heartbeat CPU 0 instructions: 232001121 cycles: 410723912 heartbeat IPC: 0.678 cumulative IPC: 0.4593 (Simulation time: 00 hr 50 min 10 sec)
Heartbeat CPU 0 instructions: 232501121 cycles: 411136904 heartbeat IPC: 1.211 cumulative IPC: 0.46 (Simulation time: 00 hr 50 min 13 sec)
Heartbeat CPU 0 instructions: 233001121 cycles: 411543754 heartbeat IPC: 1.229 cumulative IPC: 0.4608 (Simulation time: 00 hr 50 min 15 sec)
Heartbeat CPU 0 instructions: 233501127 cycles: 411897802 heartbeat IPC: 1.412 cumulative IPC: 0.4617 (Simulation time: 00 hr 50 min 18 sec)
Heartbeat CPU 0 instructions: 234001131 cycles: 412243112 heartbeat IPC: 1.448 cumulative IPC: 0.4625 (Simulation time: 00 hr 50 min 21 sec)
Heartbeat CPU 0 instructions: 234501134 cycles: 412598179 heartbeat IPC: 1.408 cumulative IPC: 0.4634 (Simulation time: 00 hr 50 min 23 sec)
Heartbeat CPU 0 instructions: 235001134 cycles: 412965458 heartbeat IPC: 1.361 cumulative IPC: 0.4642 (Simulation time: 00 hr 50 min 26 sec)
Heartbeat CPU 0 instructions: 235501136 cycles: 413320479 heartbeat IPC: 1.408 cumulative IPC: 0.465 (Simulation time: 00 hr 50 min 28 sec)
Heartbeat CPU 0 instructions: 236001136 cycles: 413672542 heartbeat IPC: 1.42 cumulative IPC: 0.4659 (Simulation time: 00 hr 50 min 31 sec)
Heartbeat CPU 0 instructions: 236501142 cycles: 414034502 heartbeat IPC: 1.381 cumulative IPC: 0.4667 (Simulation time: 00 hr 50 min 33 sec)
Heartbeat CPU 0 instructions: 237001142 cycles: 414393821 heartbeat IPC: 1.392 cumulative IPC: 0.4675 (Simulation time: 00 hr 50 min 36 sec)
Heartbeat CPU 0 instructions: 237501145 cycles: 414753112 heartbeat IPC: 1.392 cumulative IPC: 0.4684 (Simulation time: 00 hr 50 min 39 sec)
Heartbeat CPU 0 instructions: 238001145 cycles: 415114810 heartbeat IPC: 1.382 cumulative IPC: 0.4692 (Simulation time: 00 hr 50 min 41 sec)
Heartbeat CPU 0 instructions: 238501149 cycles: 415462811 heartbeat IPC: 1.437 cumulative IPC: 0.47 (Simulation time: 00 hr 50 min 44 sec)
Heartbeat CPU 0 instructions: 239001153 cycles: 415812961 heartbeat IPC: 1.428 cumulative IPC: 0.4709 (Simulation time: 00 hr 50 min 46 sec)
Heartbeat CPU 0 instructions: 239501156 cycles: 416167688 heartbeat IPC: 1.41 cumulative IPC: 0.4717 (Simulation time: 00 hr 50 min 49 sec)
Heartbeat CPU 0 instructions: 240001157 cycles: 416520448 heartbeat IPC: 1.417 cumulative IPC: 0.4725 (Simulation time: 00 hr 50 min 51 sec)
Heartbeat CPU 0 instructions: 240501160 cycles: 416869928 heartbeat IPC: 1.431 cumulative IPC: 0.4734 (Simulation time: 00 hr 50 min 54 sec)
Heartbeat CPU 0 instructions: 241001160 cycles: 417224907 heartbeat IPC: 1.409 cumulative IPC: 0.4742 (Simulation time: 00 hr 50 min 56 sec)
Heartbeat CPU 0 instructions: 241501164 cycles: 417581898 heartbeat IPC: 1.401 cumulative IPC: 0.475 (Simulation time: 00 hr 50 min 59 sec)
Heartbeat CPU 0 instructions: 242001167 cycles: 417936439 heartbeat IPC: 1.41 cumulative IPC: 0.4758 (Simulation time: 00 hr 51 min 02 sec)
Heartbeat CPU 0 instructions: 242501167 cycles: 418290921 heartbeat IPC: 1.411 cumulative IPC: 0.4767 (Simulation time: 00 hr 51 min 04 sec)
Heartbeat CPU 0 instructions: 243001167 cycles: 418777019 heartbeat IPC: 1.029 cumulative IPC: 0.4773 (Simulation time: 00 hr 51 min 07 sec)
Heartbeat CPU 0 instructions: 243501171 cycles: 419191436 heartbeat IPC: 1.207 cumulative IPC: 0.4781 (Simulation time: 00 hr 51 min 10 sec)
Heartbeat CPU 0 instructions: 244001171 cycles: 419552925 heartbeat IPC: 1.383 cumulative IPC: 0.4789 (Simulation time: 00 hr 51 min 13 sec)
Heartbeat CPU 0 instructions: 244501172 cycles: 419922022 heartbeat IPC: 1.355 cumulative IPC: 0.4797 (Simulation time: 00 hr 51 min 15 sec)
Heartbeat CPU 0 instructions: 245001173 cycles: 420314091 heartbeat IPC: 1.275 cumulative IPC: 0.4804 (Simulation time: 00 hr 51 min 18 sec)
Heartbeat CPU 0 instructions: 245501178 cycles: 420680872 heartbeat IPC: 1.363 cumulative IPC: 0.4812 (Simulation time: 00 hr 51 min 21 sec)
Heartbeat CPU 0 instructions: 246001181 cycles: 421040268 heartbeat IPC: 1.391 cumulative IPC: 0.482 (Simulation time: 00 hr 51 min 23 sec)
Heartbeat CPU 0 instructions: 246501182 cycles: 421393329 heartbeat IPC: 1.416 cumulative IPC: 0.4828 (Simulation time: 00 hr 51 min 26 sec)
Heartbeat CPU 0 instructions: 247001185 cycles: 421750539 heartbeat IPC: 1.4 cumulative IPC: 0.4837 (Simulation time: 00 hr 51 min 28 sec)
Heartbeat CPU 0 instructions: 247501189 cycles: 422108735 heartbeat IPC: 1.396 cumulative IPC: 0.4845 (Simulation time: 00 hr 51 min 31 sec)
Heartbeat CPU 0 instructions: 248001193 cycles: 422465798 heartbeat IPC: 1.4 cumulative IPC: 0.4853 (Simulation time: 00 hr 51 min 33 sec)
Heartbeat CPU 0 instructions: 248501193 cycles: 422822745 heartbeat IPC: 1.401 cumulative IPC: 0.4861 (Simulation time: 00 hr 51 min 36 sec)
Heartbeat CPU 0 instructions: 249001198 cycles: 423175413 heartbeat IPC: 1.418 cumulative IPC: 0.4869 (Simulation time: 00 hr 51 min 38 sec)
Heartbeat CPU 0 instructions: 249501198 cycles: 423536426 heartbeat IPC: 1.385 cumulative IPC: 0.4877 (Simulation time: 00 hr 51 min 41 sec)
Simulation finished CPU 0 instructions: 200000001 cycles: 409464763 cumulative IPC: 0.4884 (Simulation time: 00 hr 51 min 44 sec)
Simulation complete CPU 0 instructions: 200000001 cycles: 409464763 cumulative IPC: 0.4884 (Simulation time: 00 hr 51 min 44 sec)

ChampSim completed all CPUs

=== Simulation ===
CPU 0 runs /local-ssd/ben/dpc4-traces/gtraces_v2/tahoe_0000.champsim.gz

Region of Interest Statistics

CPU 0 cumulative IPC: 0.4884 instructions: 200000001 cycles: 409464763
CPU 0 Branch Prediction Accuracy: 91.57% MPKI: 17.21 Average ROB Occupancy at Mispredict: 27.35
Branch type MPKI
BRANCH_DIRECT_JUMP: 0.5547
BRANCH_INDIRECT: 0.2599
BRANCH_CONDITIONAL: 14.62
BRANCH_DIRECT_CALL: 0.6872
BRANCH_INDIRECT_CALL: 0.4285
BRANCH_RETURN: 0.6621

cpu0->cpu0_STLB TOTAL        ACCESS:    1735195 HIT:    1183085 MISS:     552110 MSHR_MERGE:          0
cpu0->cpu0_STLB LOAD         ACCESS:    1735195 HIT:    1183085 MISS:     552110 MSHR_MERGE:          0
cpu0->cpu0_STLB RFO          ACCESS:          0 HIT:          0 MISS:          0 MSHR_MERGE:          0
cpu0->cpu0_STLB PREFETCH     ACCESS:          0 HIT:          0 MISS:          0 MSHR_MERGE:          0
cpu0->cpu0_STLB WRITE        ACCESS:          0 HIT:          0 MISS:          0 MSHR_MERGE:          0
cpu0->cpu0_STLB TRANSLATION  ACCESS:          0 HIT:          0 MISS:          0 MSHR_MERGE:          0
cpu0->cpu0_STLB PREFETCH REQUESTED:          0 ISSUED:          0 USEFUL:          0 USELESS:          0
cpu0->cpu0_STLB AVERAGE MISS LATENCY: 214.3 cycles
cpu0->cpu0_L2C TOTAL        ACCESS:   10203557 HIT:    5620991 MISS:    4582566 MSHR_MERGE:     961561
cpu0->cpu0_L2C LOAD         ACCESS:    2923797 HIT:    1563361 MISS:    1360436 MSHR_MERGE:      33772
cpu0->cpu0_L2C RFO          ACCESS:     473678 HIT:     156456 MISS:     317222 MSHR_MERGE:       3047
cpu0->cpu0_L2C PREFETCH     ACCESS:    5401524 HIT:    2777336 MISS:    2624188 MSHR_MERGE:     924742
cpu0->cpu0_L2C WRITE        ACCESS:     782554 HIT:     782507 MISS:         47 MSHR_MERGE:          0
cpu0->cpu0_L2C TRANSLATION  ACCESS:     622004 HIT:     341331 MISS:     280673 MSHR_MERGE:          0
cpu0->cpu0_L2C PREFETCH REQUESTED:    4643925 ISSUED:    4429365 USEFUL:     378788 USELESS:     929901
cpu0->cpu0_L2C AVERAGE MISS LATENCY: 281.5 cycles
cpu0->cpu0_L1I TOTAL        ACCESS:   12814383 HIT:   10784705 MISS:    2029678 MSHR_MERGE:     378444
cpu0->cpu0_L1I LOAD         ACCESS:   12814383 HIT:   10784705 MISS:    2029678 MSHR_MERGE:     378444
cpu0->cpu0_L1I RFO          ACCESS:          0 HIT:          0 MISS:          0 MSHR_MERGE:          0
cpu0->cpu0_L1I PREFETCH     ACCESS:          0 HIT:          0 MISS:          0 MSHR_MERGE:          0
cpu0->cpu0_L1I WRITE        ACCESS:          0 HIT:          0 MISS:          0 MSHR_MERGE:          0
cpu0->cpu0_L1I TRANSLATION  ACCESS:          0 HIT:          0 MISS:          0 MSHR_MERGE:          0
cpu0->cpu0_L1I PREFETCH REQUESTED:          0 ISSUED:          0 USEFUL:          0 USELESS:          0
cpu0->cpu0_L1I AVERAGE MISS LATENCY: 106.3 cycles
cpu0->cpu0_L1D TOTAL        ACCESS:   62059341 HIT:   56775682 MISS:    5283659 MSHR_MERGE:    1943235
cpu0->cpu0_L1D LOAD         ACCESS:   36382102 HIT:   34558879 MISS:    1823223 MSHR_MERGE:     550655
cpu0->cpu0_L1D RFO          ACCESS:          0 HIT:          0 MISS:          0 MSHR_MERGE:          0
cpu0->cpu0_L1D PREFETCH     ACCESS:    2152057 HIT:     994225 MISS:    1157832 MSHR_MERGE:     185673
cpu0->cpu0_L1D WRITE        ACCESS:   22057037 HIT:   20381178 MISS:    1675859 MSHR_MERGE:    1202166
cpu0->cpu0_L1D TRANSLATION  ACCESS:    1468145 HIT:     841400 MISS:     626745 MSHR_MERGE:       4741
cpu0->cpu0_L1D PREFETCH REQUESTED:    6729919 ISSUED:    2152055 USEFUL:     405502 USELESS:     566438
cpu0->cpu0_L1D AVERAGE MISS LATENCY: 175.8 cycles
cpu0->cpu0_ITLB TOTAL        ACCESS:   10755360 HIT:   10443886 MISS:     311474 MSHR_MERGE:     134900
cpu0->cpu0_ITLB LOAD         ACCESS:   10755360 HIT:   10443886 MISS:     311474 MSHR_MERGE:     134900
cpu0->cpu0_ITLB RFO          ACCESS:          0 HIT:          0 MISS:          0 MSHR_MERGE:          0
cpu0->cpu0_ITLB PREFETCH     ACCESS:          0 HIT:          0 MISS:          0 MSHR_MERGE:          0
cpu0->cpu0_ITLB WRITE        ACCESS:          0 HIT:          0 MISS:          0 MSHR_MERGE:          0
cpu0->cpu0_ITLB TRANSLATION  ACCESS:          0 HIT:          0 MISS:          0 MSHR_MERGE:          0
cpu0->cpu0_ITLB PREFETCH REQUESTED:          0 ISSUED:          0 USEFUL:          0 USELESS:          0
cpu0->cpu0_ITLB AVERAGE MISS LATENCY: 39.44 cycles
cpu0->cpu0_DTLB TOTAL        ACCESS:   57249112 HIT:   54761442 MISS:    2487670 MSHR_MERGE:     929049
cpu0->cpu0_DTLB LOAD         ACCESS:   57249112 HIT:   54761442 MISS:    2487670 MSHR_MERGE:     929049
cpu0->cpu0_DTLB RFO          ACCESS:          0 HIT:          0 MISS:          0 MSHR_MERGE:          0
cpu0->cpu0_DTLB PREFETCH     ACCESS:          0 HIT:          0 MISS:          0 MSHR_MERGE:          0
cpu0->cpu0_DTLB WRITE        ACCESS:          0 HIT:          0 MISS:          0 MSHR_MERGE:          0
cpu0->cpu0_DTLB TRANSLATION  ACCESS:          0 HIT:          0 MISS:          0 MSHR_MERGE:          0
cpu0->cpu0_DTLB PREFETCH REQUESTED:          0 ISSUED:          0 USEFUL:          0 USELESS:          0
cpu0->cpu0_DTLB AVERAGE MISS LATENCY: 77.36 cycles
cpu0->LLC TOTAL        ACCESS:    4138318 HIT:     799173 MISS:    3339145 MSHR_MERGE:          0
cpu0->LLC LOAD         ACCESS:    1326664 HIT:     399392 MISS:     927272 MSHR_MERGE:          0
cpu0->LLC RFO          ACCESS:     314175 HIT:      14205 MISS:     299970 MSHR_MERGE:          0
cpu0->LLC PREFETCH     ACCESS:    1699446 HIT:     196875 MISS:    1502571 MSHR_MERGE:          0
cpu0->LLC WRITE        ACCESS:     517360 HIT:     125181 MISS:     392179 MSHR_MERGE:          0
cpu0->LLC TRANSLATION  ACCESS:     280673 HIT:      63520 MISS:     217153 MSHR_MERGE:          0
cpu0->LLC PREFETCH REQUESTED:          0 ISSUED:          0 USEFUL:          0 USELESS:          0
cpu0->LLC AVERAGE MISS LATENCY: 272.8 cycles

DRAM Statistics

Channel 0 RQ ROW_BUFFER_HIT:      65492
  ROW_BUFFER_MISS:    2881410
  AVG DBUS CONGESTED CYCLE: 4.18
Channel 0 WQ ROW_BUFFER_HIT:     107887
  ROW_BUFFER_MISS:     349337
  FULL:          0
Channel 0 REFRESHES ISSUED:      34122
