[VMEM] WARNING: physical memory size is smaller than virtual memory size.

*** ChampSim Multicore Out-of-Order Simulator ***
Warmup Instructions: 50000000
Simulation Instructions: 200000000
Number of CPUs: 1
Page size: 4096
Core 0: /local-ssd/ben/dpc4-traces/gtraces_v2/sierra.a.3_0001.champsim.gz
sBerti (Smart Stride + Berti) Prefetcher Initialized
Off-chip DRAM Size: 64 GiB Channels: 1 Width: 64-bit Data Rate: 800 MT/s
[BTB] WARNING: target of return is a lower address than the corresponding call. This is usually a problem with your trace.
[BTB] WARNING: target of return is a lower address than the corresponding call. This is usually a problem with your trace.
[BTB] WARNING: target of return is a lower address than the corresponding call. This is usually a problem with your trace.
[BTB] WARNING: target of return is a lower address than the corresponding call. This is usually a problem with your trace.
[BTB] WARNING: target of return is a lower address than the corresponding call. This is usually a problem with your trace.
[BTB] WARNING: target of return is a lower address than the corresponding call. This is usually a problem with your trace.
[BTB] WARNING: target of return is a lower address than the corresponding call. This is usually a problem with your trace.
[BTB] WARNING: target of return is a lower address than the corresponding call. This is usually a problem with your trace.
[BTB] WARNING: target of return is a lower address than the corresponding call. This is usually a problem with your trace.
[BTB] WARNING: target of return is a lower address than the corresponding call. This is usually a problem with your trace.
Heartbeat CPU 0 instructions: 500006 cycles: 306481 heartbeat IPC: 1.631 cumulative IPC: 1.631 (Simulation time: 00 hr 00 min 07 sec)
Heartbeat CPU 0 instructions: 1000006 cycles: 489879 heartbeat IPC: 2.726 cumulative IPC: 2.041 (Simulation time: 00 hr 00 min 12 sec)
Heartbeat CPU 0 instructions: 1500012 cycles: 623258 heartbeat IPC: 3.749 cumulative IPC: 2.407 (Simulation time: 00 hr 00 min 16 sec)
Heartbeat CPU 0 instructions: 2000017 cycles: 758960 heartbeat IPC: 3.685 cumulative IPC: 2.635 (Simulation time: 00 hr 00 min 20 sec)
Heartbeat CPU 0 instructions: 2500017 cycles: 878782 heartbeat IPC: 4.173 cumulative IPC: 2.845 (Simulation time: 00 hr 00 min 23 sec)
Heartbeat CPU 0 instructions: 3000022 cycles: 998597 heartbeat IPC: 4.173 cumulative IPC: 3.004 (Simulation time: 00 hr 00 min 26 sec)
Heartbeat CPU 0 instructions: 3500029 cycles: 1115461 heartbeat IPC: 4.279 cumulative IPC: 3.138 (Simulation time: 00 hr 00 min 30 sec)
Heartbeat CPU 0 instructions: 4000036 cycles: 1232860 heartbeat IPC: 4.259 cumulative IPC: 3.245 (Simulation time: 00 hr 00 min 33 sec)
Heartbeat CPU 0 instructions: 4500041 cycles: 1362342 heartbeat IPC: 3.862 cumulative IPC: 3.303 (Simulation time: 00 hr 00 min 37 sec)
Heartbeat CPU 0 instructions: 5000047 cycles: 1481214 heartbeat IPC: 4.206 cumulative IPC: 3.376 (Simulation time: 00 hr 00 min 40 sec)
Heartbeat CPU 0 instructions: 5500052 cycles: 1595893 heartbeat IPC: 4.36 cumulative IPC: 3.446 (Simulation time: 00 hr 00 min 44 sec)
Heartbeat CPU 0 instructions: 6000055 cycles: 1712322 heartbeat IPC: 4.294 cumulative IPC: 3.504 (Simulation time: 00 hr 00 min 47 sec)
Heartbeat CPU 0 instructions: 6500059 cycles: 1829529 heartbeat IPC: 4.266 cumulative IPC: 3.553 (Simulation time: 00 hr 00 min 50 sec)
Heartbeat CPU 0 instructions: 7000060 cycles: 1949608 heartbeat IPC: 4.164 cumulative IPC: 3.59 (Simulation time: 00 hr 00 min 54 sec)
Heartbeat CPU 0 instructions: 7500063 cycles: 2060281 heartbeat IPC: 4.518 cumulative IPC: 3.64 (Simulation time: 00 hr 00 min 57 sec)
Heartbeat CPU 0 instructions: 8000065 cycles: 2177598 heartbeat IPC: 4.262 cumulative IPC: 3.674 (Simulation time: 00 hr 01 min 01 sec)
Heartbeat CPU 0 instructions: 8500068 cycles: 2292078 heartbeat IPC: 4.368 cumulative IPC: 3.708 (Simulation time: 00 hr 01 min 04 sec)
Heartbeat CPU 0 instructions: 9000071 cycles: 2403077 heartbeat IPC: 4.505 cumulative IPC: 3.745 (Simulation time: 00 hr 01 min 07 sec)
Heartbeat CPU 0 instructions: 9500077 cycles: 2520651 heartbeat IPC: 4.253 cumulative IPC: 3.769 (Simulation time: 00 hr 01 min 11 sec)
Heartbeat CPU 0 instructions: 10000084 cycles: 2635313 heartbeat IPC: 4.361 cumulative IPC: 3.795 (Simulation time: 00 hr 01 min 14 sec)
Heartbeat CPU 0 instructions: 10500087 cycles: 2750876 heartbeat IPC: 4.327 cumulative IPC: 3.817 (Simulation time: 00 hr 01 min 17 sec)
Heartbeat CPU 0 instructions: 11000088 cycles: 2954565 heartbeat IPC: 2.455 cumulative IPC: 3.723 (Simulation time: 00 hr 01 min 23 sec)
Heartbeat CPU 0 instructions: 11500088 cycles: 3145012 heartbeat IPC: 2.625 cumulative IPC: 3.657 (Simulation time: 00 hr 01 min 28 sec)
Heartbeat CPU 0 instructions: 12000091 cycles: 3306700 heartbeat IPC: 3.092 cumulative IPC: 3.629 (Simulation time: 00 hr 01 min 32 sec)
Heartbeat CPU 0 instructions: 12500096 cycles: 3490352 heartbeat IPC: 2.723 cumulative IPC: 3.581 (Simulation time: 00 hr 01 min 37 sec)
Heartbeat CPU 0 instructions: 13000098 cycles: 3652739 heartbeat IPC: 3.079 cumulative IPC: 3.559 (Simulation time: 00 hr 01 min 42 sec)
Heartbeat CPU 0 instructions: 13500104 cycles: 3798004 heartbeat IPC: 3.442 cumulative IPC: 3.555 (Simulation time: 00 hr 01 min 46 sec)
Heartbeat CPU 0 instructions: 14000109 cycles: 3947793 heartbeat IPC: 3.338 cumulative IPC: 3.546 (Simulation time: 00 hr 01 min 51 sec)
Heartbeat CPU 0 instructions: 14500114 cycles: 4084208 heartbeat IPC: 3.665 cumulative IPC: 3.55 (Simulation time: 00 hr 01 min 55 sec)
Heartbeat CPU 0 instructions: 15000119 cycles: 4285837 heartbeat IPC: 2.48 cumulative IPC: 3.5 (Simulation time: 00 hr 02 min 00 sec)
Heartbeat CPU 0 instructions: 15500121 cycles: 4433934 heartbeat IPC: 3.376 cumulative IPC: 3.496 (Simulation time: 00 hr 02 min 05 sec)
Heartbeat CPU 0 instructions: 16000128 cycles: 4568533 heartbeat IPC: 3.715 cumulative IPC: 3.502 (Simulation time: 00 hr 02 min 09 sec)
Heartbeat CPU 0 instructions: 16500129 cycles: 4718777 heartbeat IPC: 3.328 cumulative IPC: 3.497 (Simulation time: 00 hr 02 min 13 sec)
Heartbeat CPU 0 instructions: 17000132 cycles: 4887132 heartbeat IPC: 2.97 cumulative IPC: 3.479 (Simulation time: 00 hr 02 min 17 sec)
Heartbeat CPU 0 instructions: 17500136 cycles: 5041201 heartbeat IPC: 3.245 cumulative IPC: 3.471 (Simulation time: 00 hr 02 min 22 sec)
Heartbeat CPU 0 instructions: 18000141 cycles: 5188709 heartbeat IPC: 3.39 cumulative IPC: 3.469 (Simulation time: 00 hr 02 min 26 sec)
Heartbeat CPU 0 instructions: 18500148 cycles: 5323880 heartbeat IPC: 3.699 cumulative IPC: 3.475 (Simulation time: 00 hr 02 min 30 sec)
Heartbeat CPU 0 instructions: 19000155 cycles: 5453921 heartbeat IPC: 3.845 cumulative IPC: 3.484 (Simulation time: 00 hr 02 min 35 sec)
Heartbeat CPU 0 instructions: 19500155 cycles: 5586581 heartbeat IPC: 3.769 cumulative IPC: 3.491 (Simulation time: 00 hr 02 min 39 sec)
Heartbeat CPU 0 instructions: 20000156 cycles: 5745900 heartbeat IPC: 3.138 cumulative IPC: 3.481 (Simulation time: 00 hr 02 min 43 sec)
Heartbeat CPU 0 instructions: 20500159 cycles: 5892638 heartbeat IPC: 3.407 cumulative IPC: 3.479 (Simulation time: 00 hr 02 min 46 sec)
Heartbeat CPU 0 instructions: 21000163 cycles: 6029954 heartbeat IPC: 3.641 cumulative IPC: 3.483 (Simulation time: 00 hr 02 min 51 sec)
Heartbeat CPU 0 instructions: 21500164 cycles: 6158921 heartbeat IPC: 3.877 cumulative IPC: 3.491 (Simulation time: 00 hr 02 min 54 sec)
Heartbeat CPU 0 instructions: 22000169 cycles: 6285484 heartbeat IPC: 3.951 cumulative IPC: 3.5 (Simulation time: 00 hr 02 min 57 sec)
Heartbeat CPU 0 instructions: 22500169 cycles: 6412890 heartbeat IPC: 3.924 cumulative IPC: 3.509 (Simulation time: 00 hr 03 min 00 sec)
Heartbeat CPU 0 instructions: 23000175 cycles: 6537666 heartbeat IPC: 4.007 cumulative IPC: 3.518 (Simulation time: 00 hr 03 min 02 sec)
Heartbeat CPU 0 instructions: 23500175 cycles: 6659458 heartbeat IPC: 4.105 cumulative IPC: 3.529 (Simulation time: 00 hr 03 min 05 sec)
Heartbeat CPU 0 instructions: 24000181 cycles: 6793270 heartbeat IPC: 3.737 cumulative IPC: 3.533 (Simulation time: 00 hr 03 min 08 sec)
Heartbeat CPU 0 instructions: 24500188 cycles: 6928490 heartbeat IPC: 3.698 cumulative IPC: 3.536 (Simulation time: 00 hr 03 min 10 sec)
Heartbeat CPU 0 instructions: 25000188 cycles: 7071179 heartbeat IPC: 3.504 cumulative IPC: 3.536 (Simulation time: 00 hr 03 min 13 sec)
Heartbeat CPU 0 instructions: 25500195 cycles: 7231424 heartbeat IPC: 3.12 cumulative IPC: 3.526 (Simulation time: 00 hr 03 min 16 sec)
Heartbeat CPU 0 instructions: 26000202 cycles: 7385231 heartbeat IPC: 3.251 cumulative IPC: 3.521 (Simulation time: 00 hr 03 min 19 sec)
Heartbeat CPU 0 instructions: 26500205 cycles: 7532050 heartbeat IPC: 3.406 cumulative IPC: 3.518 (Simulation time: 00 hr 03 min 22 sec)
Heartbeat CPU 0 instructions: 27000211 cycles: 7661431 heartbeat IPC: 3.865 cumulative IPC: 3.524 (Simulation time: 00 hr 03 min 24 sec)
Heartbeat CPU 0 instructions: 27500214 cycles: 7776545 heartbeat IPC: 4.344 cumulative IPC: 3.536 (Simulation time: 00 hr 03 min 26 sec)
Heartbeat CPU 0 instructions: 28000218 cycles: 7891406 heartbeat IPC: 4.353 cumulative IPC: 3.548 (Simulation time: 00 hr 03 min 29 sec)
Heartbeat CPU 0 instructions: 28500221 cycles: 8005898 heartbeat IPC: 4.367 cumulative IPC: 3.56 (Simulation time: 00 hr 03 min 31 sec)
Heartbeat CPU 0 instructions: 29000228 cycles: 8119030 heartbeat IPC: 4.42 cumulative IPC: 3.572 (Simulation time: 00 hr 03 min 33 sec)
Heartbeat CPU 0 instructions: 29500232 cycles: 8234998 heartbeat IPC: 4.312 cumulative IPC: 3.582 (Simulation time: 00 hr 03 min 35 sec)
Heartbeat CPU 0 instructions: 30000234 cycles: 8347940 heartbeat IPC: 4.427 cumulative IPC: 3.594 (Simulation time: 00 hr 03 min 38 sec)
Heartbeat CPU 0 instructions: 30500241 cycles: 8465063 heartbeat IPC: 4.269 cumulative IPC: 3.603 (Simulation time: 00 hr 03 min 40 sec)
Heartbeat CPU 0 instructions: 31000245 cycles: 8578380 heartbeat IPC: 4.412 cumulative IPC: 3.614 (Simulation time: 00 hr 03 min 42 sec)
Heartbeat CPU 0 instructions: 31500245 cycles: 8692748 heartbeat IPC: 4.372 cumulative IPC: 3.624 (Simulation time: 00 hr 03 min 44 sec)
Heartbeat CPU 0 instructions: 32000249 cycles: 8806215 heartbeat IPC: 4.407 cumulative IPC: 3.634 (Simulation time: 00 hr 03 min 46 sec)
Heartbeat CPU 0 instructions: 32500253 cycles: 8920155 heartbeat IPC: 4.388 cumulative IPC: 3.643 (Simulation time: 00 hr 03 min 49 sec)
Heartbeat CPU 0 instructions: 33000253 cycles: 9033712 heartbeat IPC: 4.403 cumulative IPC: 3.653 (Simulation time: 00 hr 03 min 51 sec)
Heartbeat CPU 0 instructions: 33500257 cycles: 9150260 heartbeat IPC: 4.29 cumulative IPC: 3.661 (Simulation time: 00 hr 03 min 53 sec)
Heartbeat CPU 0 instructions: 34000264 cycles: 9271771 heartbeat IPC: 4.115 cumulative IPC: 3.667 (Simulation time: 00 hr 03 min 55 sec)
Heartbeat CPU 0 instructions: 34500265 cycles: 9391741 heartbeat IPC: 4.168 cumulative IPC: 3.673 (Simulation time: 00 hr 03 min 58 sec)
Heartbeat CPU 0 instructions: 35000269 cycles: 9506671 heartbeat IPC: 4.351 cumulative IPC: 3.682 (Simulation time: 00 hr 04 min 00 sec)
Heartbeat CPU 0 instructions: 35500275 cycles: 9624915 heartbeat IPC: 4.229 cumulative IPC: 3.688 (Simulation time: 00 hr 04 min 02 sec)
Heartbeat CPU 0 instructions: 36000281 cycles: 9743227 heartbeat IPC: 4.226 cumulative IPC: 3.695 (Simulation time: 00 hr 04 min 05 sec)
Heartbeat CPU 0 instructions: 36500287 cycles: 9857086 heartbeat IPC: 4.391 cumulative IPC: 3.703 (Simulation time: 00 hr 04 min 07 sec)
Heartbeat CPU 0 instructions: 37000292 cycles: 9987279 heartbeat IPC: 3.84 cumulative IPC: 3.705 (Simulation time: 00 hr 04 min 09 sec)
Heartbeat CPU 0 instructions: 37500292 cycles: 10101841 heartbeat IPC: 4.364 cumulative IPC: 3.712 (Simulation time: 00 hr 04 min 11 sec)
Heartbeat CPU 0 instructions: 38000293 cycles: 10217089 heartbeat IPC: 4.338 cumulative IPC: 3.719 (Simulation time: 00 hr 04 min 14 sec)
Heartbeat CPU 0 instructions: 38500300 cycles: 10329574 heartbeat IPC: 4.445 cumulative IPC: 3.727 (Simulation time: 00 hr 04 min 16 sec)
Heartbeat CPU 0 instructions: 39000303 cycles: 10444283 heartbeat IPC: 4.359 cumulative IPC: 3.734 (Simulation time: 00 hr 04 min 18 sec)
Heartbeat CPU 0 instructions: 39500303 cycles: 10562211 heartbeat IPC: 4.24 cumulative IPC: 3.74 (Simulation time: 00 hr 04 min 20 sec)
Heartbeat CPU 0 instructions: 40000305 cycles: 10674434 heartbeat IPC: 4.455 cumulative IPC: 3.747 (Simulation time: 00 hr 04 min 23 sec)
Heartbeat CPU 0 instructions: 40500307 cycles: 10788476 heartbeat IPC: 4.384 cumulative IPC: 3.754 (Simulation time: 00 hr 04 min 25 sec)
Heartbeat CPU 0 instructions: 41000313 cycles: 10901462 heartbeat IPC: 4.425 cumulative IPC: 3.761 (Simulation time: 00 hr 04 min 27 sec)
Heartbeat CPU 0 instructions: 41500320 cycles: 11015110 heartbeat IPC: 4.4 cumulative IPC: 3.768 (Simulation time: 00 hr 04 min 29 sec)
Heartbeat CPU 0 instructions: 42000322 cycles: 11126951 heartbeat IPC: 4.471 cumulative IPC: 3.775 (Simulation time: 00 hr 04 min 31 sec)
Heartbeat CPU 0 instructions: 42500324 cycles: 11242492 heartbeat IPC: 4.327 cumulative IPC: 3.78 (Simulation time: 00 hr 04 min 34 sec)
Heartbeat CPU 0 instructions: 43000329 cycles: 11360113 heartbeat IPC: 4.251 cumulative IPC: 3.785 (Simulation time: 00 hr 04 min 36 sec)
Heartbeat CPU 0 instructions: 43500332 cycles: 11477090 heartbeat IPC: 4.274 cumulative IPC: 3.79 (Simulation time: 00 hr 04 min 38 sec)
Heartbeat CPU 0 instructions: 44000338 cycles: 11588361 heartbeat IPC: 4.494 cumulative IPC: 3.797 (Simulation time: 00 hr 04 min 40 sec)
Heartbeat CPU 0 instructions: 44500341 cycles: 11765859 heartbeat IPC: 2.817 cumulative IPC: 3.782 (Simulation time: 00 hr 04 min 44 sec)
Heartbeat CPU 0 instructions: 45000341 cycles: 11947817 heartbeat IPC: 2.748 cumulative IPC: 3.766 (Simulation time: 00 hr 04 min 47 sec)
Heartbeat CPU 0 instructions: 45500341 cycles: 12104059 heartbeat IPC: 3.2 cumulative IPC: 3.759 (Simulation time: 00 hr 04 min 50 sec)
Heartbeat CPU 0 instructions: 46000344 cycles: 12255853 heartbeat IPC: 3.294 cumulative IPC: 3.753 (Simulation time: 00 hr 04 min 53 sec)
Heartbeat CPU 0 instructions: 46500347 cycles: 12410817 heartbeat IPC: 3.227 cumulative IPC: 3.747 (Simulation time: 00 hr 04 min 56 sec)
Heartbeat CPU 0 instructions: 47000352 cycles: 12573744 heartbeat IPC: 3.069 cumulative IPC: 3.738 (Simulation time: 00 hr 04 min 59 sec)
Heartbeat CPU 0 instructions: 47500356 cycles: 12738985 heartbeat IPC: 3.026 cumulative IPC: 3.729 (Simulation time: 00 hr 05 min 03 sec)
Heartbeat CPU 0 instructions: 48000357 cycles: 12902054 heartbeat IPC: 3.066 cumulative IPC: 3.72 (Simulation time: 00 hr 05 min 06 sec)
Heartbeat CPU 0 instructions: 48500364 cycles: 13051652 heartbeat IPC: 3.342 cumulative IPC: 3.716 (Simulation time: 00 hr 05 min 09 sec)
Heartbeat CPU 0 instructions: 49000369 cycles: 13220857 heartbeat IPC: 2.955 cumulative IPC: 3.706 (Simulation time: 00 hr 05 min 12 sec)
Heartbeat CPU 0 instructions: 49500370 cycles: 13370479 heartbeat IPC: 3.342 cumulative IPC: 3.702 (Simulation time: 00 hr 05 min 15 sec)
Warmup halting CPU 0 at instruction 50000000 cycle 13504910 for remainder of phase
Warmup finished CPU 0 instructions: 50000000 cycles: 13504910 cumulative IPC: 3.702 (Simulation time: 00 hr 05 min 18 sec)
Warmup complete CPU 0 instructions: 50000000 cycles: 13504910 cumulative IPC: 3.702 (Simulation time: 00 hr 05 min 18 sec)
Heartbeat CPU 0 instructions: 50000374 cycles: 13505191 heartbeat IPC: 3.712 cumulative IPC: 1.331 (Simulation time: 00 hr 05 min 18 sec)
Heartbeat CPU 0 instructions: 50500374 cycles: 14928072 heartbeat IPC: 0.3514 cumulative IPC: 0.3516 (Simulation time: 00 hr 05 min 28 sec)
Heartbeat CPU 0 instructions: 51000377 cycles: 16093859 heartbeat IPC: 0.4289 cumulative IPC: 0.3864 (Simulation time: 00 hr 05 min 37 sec)
Heartbeat CPU 0 instructions: 51500384 cycles: 16572854 heartbeat IPC: 1.044 cumulative IPC: 0.4891 (Simulation time: 00 hr 05 min 41 sec)
Heartbeat CPU 0 instructions: 52000384 cycles: 17190025 heartbeat IPC: 0.8101 cumulative IPC: 0.5428 (Simulation time: 00 hr 05 min 46 sec)
Heartbeat CPU 0 instructions: 52500384 cycles: 18839762 heartbeat IPC: 0.3031 cumulative IPC: 0.4687 (Simulation time: 00 hr 05 min 58 sec)
Heartbeat CPU 0 instructions: 53000385 cycles: 21900113 heartbeat IPC: 0.1634 cumulative IPC: 0.3574 (Simulation time: 00 hr 06 min 21 sec)
Heartbeat CPU 0 instructions: 53500389 cycles: 23266591 heartbeat IPC: 0.3659 cumulative IPC: 0.3586 (Simulation time: 00 hr 06 min 31 sec)
Heartbeat CPU 0 instructions: 54000393 cycles: 24288044 heartbeat IPC: 0.4895 cumulative IPC: 0.371 (Simulation time: 00 hr 06 min 39 sec)
Heartbeat CPU 0 instructions: 54500394 cycles: 26201347 heartbeat IPC: 0.2613 cumulative IPC: 0.3545 (Simulation time: 00 hr 06 min 52 sec)
Heartbeat CPU 0 instructions: 55000399 cycles: 27639497 heartbeat IPC: 0.3477 cumulative IPC: 0.3538 (Simulation time: 00 hr 07 min 02 sec)
Heartbeat CPU 0 instructions: 55500400 cycles: 28498575 heartbeat IPC: 0.582 cumulative IPC: 0.3668 (Simulation time: 00 hr 07 min 09 sec)
Heartbeat CPU 0 instructions: 56000401 cycles: 31491263 heartbeat IPC: 0.1671 cumulative IPC: 0.3336 (Simulation time: 00 hr 07 min 28 sec)
Heartbeat CPU 0 instructions: 56500401 cycles: 34034158 heartbeat IPC: 0.1966 cumulative IPC: 0.3166 (Simulation time: 00 hr 07 min 45 sec)
Heartbeat CPU 0 instructions: 57000401 cycles: 36473012 heartbeat IPC: 0.205 cumulative IPC: 0.3048 (Simulation time: 00 hr 08 min 02 sec)
Heartbeat CPU 0 instructions: 57500401 cycles: 38480318 heartbeat IPC: 0.2491 cumulative IPC: 0.3003 (Simulation time: 00 hr 08 min 16 sec)
Heartbeat CPU 0 instructions: 58000408 cycles: 39126445 heartbeat IPC: 0.7739 cumulative IPC: 0.3123 (Simulation time: 00 hr 08 min 21 sec)
Heartbeat CPU 0 instructions: 58500409 cycles: 39875270 heartbeat IPC: 0.6677 cumulative IPC: 0.3223 (Simulation time: 00 hr 08 min 27 sec)
Heartbeat CPU 0 instructions: 59000415 cycles: 40217542 heartbeat IPC: 1.461 cumulative IPC: 0.3369 (Simulation time: 00 hr 08 min 31 sec)
Heartbeat CPU 0 instructions: 59500418 cycles: 40493790 heartbeat IPC: 1.81 cumulative IPC: 0.352 (Simulation time: 00 hr 08 min 34 sec)
Heartbeat CPU 0 instructions: 60000419 cycles: 40766219 heartbeat IPC: 1.835 cumulative IPC: 0.3668 (Simulation time: 00 hr 08 min 37 sec)
Heartbeat CPU 0 instructions: 60500422 cycles: 43643193 heartbeat IPC: 0.1738 cumulative IPC: 0.3484 (Simulation time: 00 hr 08 min 55 sec)
Heartbeat CPU 0 instructions: 61000423 cycles: 46255518 heartbeat IPC: 0.1914 cumulative IPC: 0.3359 (Simulation time: 00 hr 09 min 15 sec)
Heartbeat CPU 0 instructions: 61500426 cycles: 49633525 heartbeat IPC: 0.148 cumulative IPC: 0.3183 (Simulation time: 00 hr 09 min 37 sec)
Heartbeat CPU 0 instructions: 62000428 cycles: 51608155 heartbeat IPC: 0.2532 cumulative IPC: 0.3149 (Simulation time: 00 hr 09 min 50 sec)
Heartbeat CPU 0 instructions: 62500429 cycles: 53131363 heartbeat IPC: 0.3283 cumulative IPC: 0.3155 (Simulation time: 00 hr 10 min 01 sec)
Heartbeat CPU 0 instructions: 63000429 cycles: 54308626 heartbeat IPC: 0.4247 cumulative IPC: 0.3186 (Simulation time: 00 hr 10 min 10 sec)
Heartbeat CPU 0 instructions: 63500429 cycles: 56356599 heartbeat IPC: 0.2441 cumulative IPC: 0.3151 (Simulation time: 00 hr 10 min 25 sec)
Heartbeat CPU 0 instructions: 64000429 cycles: 59170263 heartbeat IPC: 0.1777 cumulative IPC: 0.3066 (Simulation time: 00 hr 10 min 43 sec)
Heartbeat CPU 0 instructions: 64500429 cycles: 61431279 heartbeat IPC: 0.2211 cumulative IPC: 0.3026 (Simulation time: 00 hr 10 min 59 sec)
Heartbeat CPU 0 instructions: 65000429 cycles: 62781446 heartbeat IPC: 0.3703 cumulative IPC: 0.3044 (Simulation time: 00 hr 11 min 09 sec)
Heartbeat CPU 0 instructions: 65500430 cycles: 64437988 heartbeat IPC: 0.3018 cumulative IPC: 0.3043 (Simulation time: 00 hr 11 min 21 sec)
Heartbeat CPU 0 instructions: 66000434 cycles: 65897053 heartbeat IPC: 0.3427 cumulative IPC: 0.3054 (Simulation time: 00 hr 11 min 31 sec)
Heartbeat CPU 0 instructions: 66500434 cycles: 67151943 heartbeat IPC: 0.3984 cumulative IPC: 0.3076 (Simulation time: 00 hr 11 min 41 sec)
Heartbeat CPU 0 instructions: 67000435 cycles: 69106187 heartbeat IPC: 0.2559 cumulative IPC: 0.3058 (Simulation time: 00 hr 11 min 54 sec)
Heartbeat CPU 0 instructions: 67500435 cycles: 70867099 heartbeat IPC: 0.2839 cumulative IPC: 0.3051 (Simulation time: 00 hr 12 min 06 sec)
Heartbeat CPU 0 instructions: 68000436 cycles: 71792331 heartbeat IPC: 0.5404 cumulative IPC: 0.3088 (Simulation time: 00 hr 12 min 13 sec)
Heartbeat CPU 0 instructions: 68500440 cycles: 72973600 heartbeat IPC: 0.4233 cumulative IPC: 0.3111 (Simulation time: 00 hr 12 min 22 sec)
Heartbeat CPU 0 instructions: 69000447 cycles: 74566620 heartbeat IPC: 0.3139 cumulative IPC: 0.3112 (Simulation time: 00 hr 12 min 33 sec)
Heartbeat CPU 0 instructions: 69500447 cycles: 77139535 heartbeat IPC: 0.1943 cumulative IPC: 0.3064 (Simulation time: 00 hr 12 min 50 sec)
Heartbeat CPU 0 instructions: 70000447 cycles: 78935931 heartbeat IPC: 0.2783 cumulative IPC: 0.3057 (Simulation time: 00 hr 13 min 02 sec)
Heartbeat CPU 0 instructions: 70500453 cycles: 80096756 heartbeat IPC: 0.4307 cumulative IPC: 0.3079 (Simulation time: 00 hr 13 min 11 sec)
Heartbeat CPU 0 instructions: 71000454 cycles: 82544318 heartbeat IPC: 0.2043 cumulative IPC: 0.3042 (Simulation time: 00 hr 13 min 27 sec)
Heartbeat CPU 0 instructions: 71500458 cycles: 84257626 heartbeat IPC: 0.2918 cumulative IPC: 0.3039 (Simulation time: 00 hr 13 min 38 sec)
Heartbeat CPU 0 instructions: 72000462 cycles: 85712618 heartbeat IPC: 0.3436 cumulative IPC: 0.3047 (Simulation time: 00 hr 13 min 48 sec)
Heartbeat CPU 0 instructions: 72500463 cycles: 86138901 heartbeat IPC: 1.173 cumulative IPC: 0.3098 (Simulation time: 00 hr 13 min 53 sec)
Heartbeat CPU 0 instructions: 73000465 cycles: 86417594 heartbeat IPC: 1.794 cumulative IPC: 0.3155 (Simulation time: 00 hr 13 min 56 sec)
Heartbeat CPU 0 instructions: 73500469 cycles: 86694364 heartbeat IPC: 1.807 cumulative IPC: 0.3211 (Simulation time: 00 hr 13 min 59 sec)
Heartbeat CPU 0 instructions: 74000474 cycles: 86984517 heartbeat IPC: 1.723 cumulative IPC: 0.3266 (Simulation time: 00 hr 14 min 02 sec)
Heartbeat CPU 0 instructions: 74500474 cycles: 87320367 heartbeat IPC: 1.489 cumulative IPC: 0.3319 (Simulation time: 00 hr 14 min 06 sec)
Heartbeat CPU 0 instructions: 75000475 cycles: 87496885 heartbeat IPC: 2.833 cumulative IPC: 0.3379 (Simulation time: 00 hr 14 min 08 sec)
Heartbeat CPU 0 instructions: 75500476 cycles: 89075441 heartbeat IPC: 0.3167 cumulative IPC: 0.3374 (Simulation time: 00 hr 14 min 19 sec)
Heartbeat CPU 0 instructions: 76000477 cycles: 90835911 heartbeat IPC: 0.284 cumulative IPC: 0.3362 (Simulation time: 00 hr 14 min 31 sec)
Heartbeat CPU 0 instructions: 76500483 cycles: 92789109 heartbeat IPC: 0.256 cumulative IPC: 0.3342 (Simulation time: 00 hr 14 min 44 sec)
Heartbeat CPU 0 instructions: 77000486 cycles: 94324736 heartbeat IPC: 0.3256 cumulative IPC: 0.3341 (Simulation time: 00 hr 14 min 55 sec)
Heartbeat CPU 0 instructions: 77500488 cycles: 95829288 heartbeat IPC: 0.3323 cumulative IPC: 0.3341 (Simulation time: 00 hr 15 min 05 sec)
Heartbeat CPU 0 instructions: 78000488 cycles: 96732611 heartbeat IPC: 0.5535 cumulative IPC: 0.3364 (Simulation time: 00 hr 15 min 12 sec)
Heartbeat CPU 0 instructions: 78500488 cycles: 98906383 heartbeat IPC: 0.23 cumulative IPC: 0.3337 (Simulation time: 00 hr 15 min 27 sec)
Heartbeat CPU 0 instructions: 79000493 cycles: 101003675 heartbeat IPC: 0.2384 cumulative IPC: 0.3314 (Simulation time: 00 hr 15 min 40 sec)
Heartbeat CPU 0 instructions: 79500493 cycles: 103268940 heartbeat IPC: 0.2207 cumulative IPC: 0.3286 (Simulation time: 00 hr 15 min 55 sec)
Heartbeat CPU 0 instructions: 80000494 cycles: 105538773 heartbeat IPC: 0.2203 cumulative IPC: 0.326 (Simulation time: 00 hr 16 min 10 sec)
Heartbeat CPU 0 instructions: 80500494 cycles: 107558830 heartbeat IPC: 0.2475 cumulative IPC: 0.3243 (Simulation time: 00 hr 16 min 23 sec)
Heartbeat CPU 0 instructions: 81000495 cycles: 109226989 heartbeat IPC: 0.2997 cumulative IPC: 0.3239 (Simulation time: 00 hr 16 min 34 sec)
Heartbeat CPU 0 instructions: 81500495 cycles: 111999955 heartbeat IPC: 0.1803 cumulative IPC: 0.3198 (Simulation time: 00 hr 16 min 52 sec)
Heartbeat CPU 0 instructions: 82000497 cycles: 113659776 heartbeat IPC: 0.3012 cumulative IPC: 0.3195 (Simulation time: 00 hr 17 min 03 sec)
Heartbeat CPU 0 instructions: 82500497 cycles: 114424890 heartbeat IPC: 0.6535 cumulative IPC: 0.322 (Simulation time: 00 hr 17 min 08 sec)
Heartbeat CPU 0 instructions: 83000503 cycles: 114849730 heartbeat IPC: 1.177 cumulative IPC: 0.3256 (Simulation time: 00 hr 17 min 12 sec)
Heartbeat CPU 0 instructions: 83500508 cycles: 115127694 heartbeat IPC: 1.799 cumulative IPC: 0.3297 (Simulation time: 00 hr 17 min 15 sec)
Heartbeat CPU 0 instructions: 84000508 cycles: 115413787 heartbeat IPC: 1.748 cumulative IPC: 0.3336 (Simulation time: 00 hr 17 min 18 sec)
Heartbeat CPU 0 instructions: 84500513 cycles: 116926927 heartbeat IPC: 0.3304 cumulative IPC: 0.3336 (Simulation time: 00 hr 17 min 28 sec)
Heartbeat CPU 0 instructions: 85000515 cycles: 118530859 heartbeat IPC: 0.3117 cumulative IPC: 0.3333 (Simulation time: 00 hr 17 min 38 sec)
Heartbeat CPU 0 instructions: 85500516 cycles: 120692667 heartbeat IPC: 0.2313 cumulative IPC: 0.3312 (Simulation time: 00 hr 17 min 52 sec)
Heartbeat CPU 0 instructions: 86000519 cycles: 122496021 heartbeat IPC: 0.2773 cumulative IPC: 0.3303 (Simulation time: 00 hr 18 min 04 sec)
Heartbeat CPU 0 instructions: 86500519 cycles: 124323001 heartbeat IPC: 0.2737 cumulative IPC: 0.3294 (Simulation time: 00 hr 18 min 16 sec)
Heartbeat CPU 0 instructions: 87000522 cycles: 126638604 heartbeat IPC: 0.2159 cumulative IPC: 0.3271 (Simulation time: 00 hr 18 min 30 sec)
Heartbeat CPU 0 instructions: 87500522 cycles: 128707032 heartbeat IPC: 0.2417 cumulative IPC: 0.3255 (Simulation time: 00 hr 18 min 43 sec)
Heartbeat CPU 0 instructions: 88000527 cycles: 129073467 heartbeat IPC: 1.365 cumulative IPC: 0.3288 (Simulation time: 00 hr 18 min 47 sec)
Heartbeat CPU 0 instructions: 88500529 cycles: 129479932 heartbeat IPC: 1.23 cumulative IPC: 0.332 (Simulation time: 00 hr 18 min 50 sec)
Heartbeat CPU 0 instructions: 89000529 cycles: 129747770 heartbeat IPC: 1.867 cumulative IPC: 0.3355 (Simulation time: 00 hr 18 min 53 sec)
Heartbeat CPU 0 instructions: 89500533 cycles: 130792384 heartbeat IPC: 0.4786 cumulative IPC: 0.3368 (Simulation time: 00 hr 19 min 00 sec)
Heartbeat CPU 0 instructions: 90000533 cycles: 132154917 heartbeat IPC: 0.367 cumulative IPC: 0.3371 (Simulation time: 00 hr 19 min 09 sec)
Heartbeat CPU 0 instructions: 90500533 cycles: 132430337 heartbeat IPC: 1.815 cumulative IPC: 0.3406 (Simulation time: 00 hr 19 min 11 sec)
Heartbeat CPU 0 instructions: 91000533 cycles: 132772956 heartbeat IPC: 1.459 cumulative IPC: 0.3438 (Simulation time: 00 hr 19 min 14 sec)
Heartbeat CPU 0 instructions: 91500534 cycles: 133034166 heartbeat IPC: 1.914 cumulative IPC: 0.3472 (Simulation time: 00 hr 19 min 17 sec)
Heartbeat CPU 0 instructions: 92000534 cycles: 133282873 heartbeat IPC: 2.01 cumulative IPC: 0.3507 (Simulation time: 00 hr 19 min 19 sec)
Heartbeat CPU 0 instructions: 92500535 cycles: 134973787 heartbeat IPC: 0.2957 cumulative IPC: 0.3499 (Simulation time: 00 hr 19 min 30 sec)
Heartbeat CPU 0 instructions: 93000536 cycles: 136383697 heartbeat IPC: 0.3546 cumulative IPC: 0.3499 (Simulation time: 00 hr 19 min 39 sec)
Heartbeat CPU 0 instructions: 93500537 cycles: 137829078 heartbeat IPC: 0.3459 cumulative IPC: 0.3499 (Simulation time: 00 hr 19 min 49 sec)
Heartbeat CPU 0 instructions: 94000537 cycles: 139638749 heartbeat IPC: 0.2763 cumulative IPC: 0.3488 (Simulation time: 00 hr 20 min 00 sec)
Heartbeat CPU 0 instructions: 94500544 cycles: 142732995 heartbeat IPC: 0.1616 cumulative IPC: 0.3444 (Simulation time: 00 hr 20 min 19 sec)
Heartbeat CPU 0 instructions: 95000545 cycles: 144521998 heartbeat IPC: 0.2795 cumulative IPC: 0.3435 (Simulation time: 00 hr 20 min 30 sec)
Heartbeat CPU 0 instructions: 95500545 cycles: 146105345 heartbeat IPC: 0.3158 cumulative IPC: 0.3431 (Simulation time: 00 hr 20 min 40 sec)
Heartbeat CPU 0 instructions: 96000545 cycles: 148587768 heartbeat IPC: 0.2014 cumulative IPC: 0.3405 (Simulation time: 00 hr 20 min 56 sec)
Heartbeat CPU 0 instructions: 96500550 cycles: 152283883 heartbeat IPC: 0.1353 cumulative IPC: 0.3351 (Simulation time: 00 hr 21 min 17 sec)
Heartbeat CPU 0 instructions: 97000554 cycles: 154117833 heartbeat IPC: 0.2726 cumulative IPC: 0.3343 (Simulation time: 00 hr 21 min 28 sec)
Heartbeat CPU 0 instructions: 97500558 cycles: 155375064 heartbeat IPC: 0.3977 cumulative IPC: 0.3348 (Simulation time: 00 hr 21 min 37 sec)
Heartbeat CPU 0 instructions: 98000559 cycles: 157136686 heartbeat IPC: 0.2838 cumulative IPC: 0.3342 (Simulation time: 00 hr 21 min 48 sec)
Heartbeat CPU 0 instructions: 98500564 cycles: 160422687 heartbeat IPC: 0.1522 cumulative IPC: 0.3301 (Simulation time: 00 hr 22 min 08 sec)
Heartbeat CPU 0 instructions: 99000564 cycles: 162753219 heartbeat IPC: 0.2145 cumulative IPC: 0.3283 (Simulation time: 00 hr 22 min 22 sec)
Heartbeat CPU 0 instructions: 99500566 cycles: 164650208 heartbeat IPC: 0.2636 cumulative IPC: 0.3275 (Simulation time: 00 hr 22 min 34 sec)
Heartbeat CPU 0 instructions: 100000566 cycles: 165970891 heartbeat IPC: 0.3786 cumulative IPC: 0.3279 (Simulation time: 00 hr 22 min 43 sec)
Heartbeat CPU 0 instructions: 100500566 cycles: 167675702 heartbeat IPC: 0.2933 cumulative IPC: 0.3276 (Simulation time: 00 hr 22 min 54 sec)
Heartbeat CPU 0 instructions: 101000566 cycles: 169609605 heartbeat IPC: 0.2585 cumulative IPC: 0.3267 (Simulation time: 00 hr 23 min 06 sec)
Heartbeat CPU 0 instructions: 101500569 cycles: 171046421 heartbeat IPC: 0.348 cumulative IPC: 0.3269 (Simulation time: 00 hr 23 min 15 sec)
Heartbeat CPU 0 instructions: 102000571 cycles: 173160158 heartbeat IPC: 0.2365 cumulative IPC: 0.3257 (Simulation time: 00 hr 23 min 28 sec)
Heartbeat CPU 0 instructions: 102500574 cycles: 175579901 heartbeat IPC: 0.2066 cumulative IPC: 0.3239 (Simulation time: 00 hr 23 min 42 sec)
Heartbeat CPU 0 instructions: 103000574 cycles: 177742765 heartbeat IPC: 0.2312 cumulative IPC: 0.3227 (Simulation time: 00 hr 23 min 55 sec)
Heartbeat CPU 0 instructions: 103500576 cycles: 180422491 heartbeat IPC: 0.1866 cumulative IPC: 0.3205 (Simulation time: 00 hr 24 min 11 sec)
Heartbeat CPU 0 instructions: 104000576 cycles: 182265189 heartbeat IPC: 0.2713 cumulative IPC: 0.32 (Simulation time: 00 hr 24 min 22 sec)
Heartbeat CPU 0 instructions: 104500583 cycles: 183814050 heartbeat IPC: 0.3228 cumulative IPC: 0.32 (Simulation time: 00 hr 24 min 32 sec)
Heartbeat CPU 0 instructions: 105000588 cycles: 185625453 heartbeat IPC: 0.276 cumulative IPC: 0.3195 (Simulation time: 00 hr 24 min 43 sec)
Heartbeat CPU 0 instructions: 105500590 cycles: 186867797 heartbeat IPC: 0.4025 cumulative IPC: 0.3201 (Simulation time: 00 hr 24 min 51 sec)
Heartbeat CPU 0 instructions: 106000595 cycles: 188318796 heartbeat IPC: 0.3446 cumulative IPC: 0.3203 (Simulation time: 00 hr 25 min 00 sec)
Heartbeat CPU 0 instructions: 106500595 cycles: 190126385 heartbeat IPC: 0.2766 cumulative IPC: 0.3199 (Simulation time: 00 hr 25 min 11 sec)
Heartbeat CPU 0 instructions: 107000595 cycles: 191347255 heartbeat IPC: 0.4095 cumulative IPC: 0.3205 (Simulation time: 00 hr 25 min 19 sec)
Heartbeat CPU 0 instructions: 107500595 cycles: 192627092 heartbeat IPC: 0.3907 cumulative IPC: 0.321 (Simulation time: 00 hr 25 min 28 sec)
Heartbeat CPU 0 instructions: 108000597 cycles: 192967173 heartbeat IPC: 1.47 cumulative IPC: 0.3232 (Simulation time: 00 hr 25 min 31 sec)
Heartbeat CPU 0 instructions: 108500597 cycles: 193314626 heartbeat IPC: 1.439 cumulative IPC: 0.3253 (Simulation time: 00 hr 25 min 34 sec)
Heartbeat CPU 0 instructions: 109000600 cycles: 193638182 heartbeat IPC: 1.545 cumulative IPC: 0.3275 (Simulation time: 00 hr 25 min 37 sec)
Heartbeat CPU 0 instructions: 109500601 cycles: 194030085 heartbeat IPC: 1.276 cumulative IPC: 0.3296 (Simulation time: 00 hr 25 min 41 sec)
Heartbeat CPU 0 instructions: 110000601 cycles: 194214425 heartbeat IPC: 2.712 cumulative IPC: 0.332 (Simulation time: 00 hr 25 min 43 sec)
Heartbeat CPU 0 instructions: 110500604 cycles: 195256459 heartbeat IPC: 0.4798 cumulative IPC: 0.3329 (Simulation time: 00 hr 25 min 50 sec)
Heartbeat CPU 0 instructions: 111000607 cycles: 197094096 heartbeat IPC: 0.2721 cumulative IPC: 0.3323 (Simulation time: 00 hr 26 min 01 sec)
Heartbeat CPU 0 instructions: 111500607 cycles: 198756792 heartbeat IPC: 0.3007 cumulative IPC: 0.332 (Simulation time: 00 hr 26 min 11 sec)
Heartbeat CPU 0 instructions: 112000608 cycles: 199949280 heartbeat IPC: 0.4193 cumulative IPC: 0.3325 (Simulation time: 00 hr 26 min 19 sec)
Heartbeat CPU 0 instructions: 112500613 cycles: 200613067 heartbeat IPC: 0.7533 cumulative IPC: 0.334 (Simulation time: 00 hr 26 min 24 sec)
Heartbeat CPU 0 instructions: 113000615 cycles: 202135553 heartbeat IPC: 0.3284 cumulative IPC: 0.334 (Simulation time: 00 hr 26 min 33 sec)
Heartbeat CPU 0 instructions: 113500619 cycles: 203753660 heartbeat IPC: 0.309 cumulative IPC: 0.3338 (Simulation time: 00 hr 26 min 43 sec)
Heartbeat CPU 0 instructions: 114000626 cycles: 205427406 heartbeat IPC: 0.2987 cumulative IPC: 0.3335 (Simulation time: 00 hr 26 min 54 sec)
Heartbeat CPU 0 instructions: 114500629 cycles: 206518411 heartbeat IPC: 0.4583 cumulative IPC: 0.3342 (Simulation time: 00 hr 27 min 01 sec)
Heartbeat CPU 0 instructions: 115000633 cycles: 208788416 heartbeat IPC: 0.2203 cumulative IPC: 0.3329 (Simulation time: 00 hr 27 min 15 sec)
Heartbeat CPU 0 instructions: 115500635 cycles: 210719181 heartbeat IPC: 0.259 cumulative IPC: 0.3321 (Simulation time: 00 hr 27 min 26 sec)
Heartbeat CPU 0 instructions: 116000641 cycles: 211935195 heartbeat IPC: 0.4112 cumulative IPC: 0.3326 (Simulation time: 00 hr 27 min 34 sec)
Heartbeat CPU 0 instructions: 116500641 cycles: 213784399 heartbeat IPC: 0.2704 cumulative IPC: 0.332 (Simulation time: 00 hr 27 min 45 sec)
Heartbeat CPU 0 instructions: 117000641 cycles: 214770620 heartbeat IPC: 0.507 cumulative IPC: 0.3329 (Simulation time: 00 hr 27 min 52 sec)
Heartbeat CPU 0 instructions: 117500644 cycles: 215163046 heartbeat IPC: 1.274 cumulative IPC: 0.3347 (Simulation time: 00 hr 27 min 55 sec)
Heartbeat CPU 0 instructions: 118000651 cycles: 215424108 heartbeat IPC: 1.915 cumulative IPC: 0.3368 (Simulation time: 00 hr 27 min 58 sec)
Heartbeat CPU 0 instructions: 118500658 cycles: 215754809 heartbeat IPC: 1.512 cumulative IPC: 0.3387 (Simulation time: 00 hr 28 min 01 sec)
Heartbeat CPU 0 instructions: 119000663 cycles: 216061377 heartbeat IPC: 1.631 cumulative IPC: 0.3406 (Simulation time: 00 hr 28 min 04 sec)
Heartbeat CPU 0 instructions: 119500663 cycles: 216410972 heartbeat IPC: 1.43 cumulative IPC: 0.3425 (Simulation time: 00 hr 28 min 07 sec)
Heartbeat CPU 0 instructions: 120000668 cycles: 216614098 heartbeat IPC: 2.462 cumulative IPC: 0.3446 (Simulation time: 00 hr 28 min 09 sec)
Heartbeat CPU 0 instructions: 120500671 cycles: 217871542 heartbeat IPC: 0.3976 cumulative IPC: 0.345 (Simulation time: 00 hr 28 min 17 sec)
Heartbeat CPU 0 instructions: 121000672 cycles: 218790676 heartbeat IPC: 0.544 cumulative IPC: 0.3459 (Simulation time: 00 hr 28 min 23 sec)
Heartbeat CPU 0 instructions: 121500672 cycles: 219118678 heartbeat IPC: 1.524 cumulative IPC: 0.3477 (Simulation time: 00 hr 28 min 25 sec)
Heartbeat CPU 0 instructions: 122000679 cycles: 219445029 heartbeat IPC: 1.532 cumulative IPC: 0.3496 (Simulation time: 00 hr 28 min 28 sec)
Heartbeat CPU 0 instructions: 122500679 cycles: 219742198 heartbeat IPC: 1.683 cumulative IPC: 0.3515 (Simulation time: 00 hr 28 min 31 sec)
Heartbeat CPU 0 instructions: 123000679 cycles: 222241761 heartbeat IPC: 0.2 cumulative IPC: 0.3497 (Simulation time: 00 hr 28 min 45 sec)
Heartbeat CPU 0 instructions: 123500679 cycles: 223338142 heartbeat IPC: 0.456 cumulative IPC: 0.3503 (Simulation time: 00 hr 28 min 52 sec)
Heartbeat CPU 0 instructions: 124000681 cycles: 225702446 heartbeat IPC: 0.2115 cumulative IPC: 0.3487 (Simulation time: 00 hr 29 min 05 sec)
Heartbeat CPU 0 instructions: 124500683 cycles: 227176488 heartbeat IPC: 0.3392 cumulative IPC: 0.3487 (Simulation time: 00 hr 29 min 15 sec)
Heartbeat CPU 0 instructions: 125000685 cycles: 229197841 heartbeat IPC: 0.2474 cumulative IPC: 0.3477 (Simulation time: 00 hr 29 min 27 sec)
Heartbeat CPU 0 instructions: 125500686 cycles: 229596299 heartbeat IPC: 1.255 cumulative IPC: 0.3494 (Simulation time: 00 hr 29 min 30 sec)
Heartbeat CPU 0 instructions: 126000687 cycles: 229951453 heartbeat IPC: 1.408 cumulative IPC: 0.3511 (Simulation time: 00 hr 29 min 34 sec)
Heartbeat CPU 0 instructions: 126500689 cycles: 230275977 heartbeat IPC: 1.541 cumulative IPC: 0.3529 (Simulation time: 00 hr 29 min 37 sec)
Heartbeat CPU 0 instructions: 127000690 cycles: 230559741 heartbeat IPC: 1.762 cumulative IPC: 0.3548 (Simulation time: 00 hr 29 min 39 sec)
Heartbeat CPU 0 instructions: 127500692 cycles: 230837271 heartbeat IPC: 1.802 cumulative IPC: 0.3566 (Simulation time: 00 hr 29 min 42 sec)
Heartbeat CPU 0 instructions: 128000693 cycles: 231091002 heartbeat IPC: 1.971 cumulative IPC: 0.3585 (Simulation time: 00 hr 29 min 45 sec)
Heartbeat CPU 0 instructions: 128500699 cycles: 231332013 heartbeat IPC: 2.075 cumulative IPC: 0.3604 (Simulation time: 00 hr 29 min 47 sec)
Heartbeat CPU 0 instructions: 129000705 cycles: 231623366 heartbeat IPC: 1.716 cumulative IPC: 0.3622 (Simulation time: 00 hr 29 min 50 sec)
Heartbeat CPU 0 instructions: 129500709 cycles: 231924415 heartbeat IPC: 1.661 cumulative IPC: 0.364 (Simulation time: 00 hr 29 min 53 sec)
Heartbeat CPU 0 instructions: 130000711 cycles: 232192683 heartbeat IPC: 1.864 cumulative IPC: 0.3658 (Simulation time: 00 hr 29 min 56 sec)
Heartbeat CPU 0 instructions: 130500712 cycles: 232447018 heartbeat IPC: 1.966 cumulative IPC: 0.3677 (Simulation time: 00 hr 29 min 58 sec)
Heartbeat CPU 0 instructions: 131000713 cycles: 232752524 heartbeat IPC: 1.637 cumulative IPC: 0.3694 (Simulation time: 00 hr 30 min 01 sec)
Heartbeat CPU 0 instructions: 131500714 cycles: 232936339 heartbeat IPC: 2.72 cumulative IPC: 0.3714 (Simulation time: 00 hr 30 min 03 sec)
Heartbeat CPU 0 instructions: 132000715 cycles: 233111609 heartbeat IPC: 2.853 cumulative IPC: 0.3734 (Simulation time: 00 hr 30 min 05 sec)
Heartbeat CPU 0 instructions: 132500717 cycles: 233279484 heartbeat IPC: 2.978 cumulative IPC: 0.3754 (Simulation time: 00 hr 30 min 08 sec)
Heartbeat CPU 0 instructions: 133000717 cycles: 233445982 heartbeat IPC: 3.003 cumulative IPC: 0.3774 (Simulation time: 00 hr 30 min 10 sec)
Heartbeat CPU 0 instructions: 133500720 cycles: 234425589 heartbeat IPC: 0.5104 cumulative IPC: 0.378 (Simulation time: 00 hr 30 min 16 sec)
Heartbeat CPU 0 instructions: 134000721 cycles: 237234094 heartbeat IPC: 0.178 cumulative IPC: 0.3755 (Simulation time: 00 hr 30 min 32 sec)
Heartbeat CPU 0 instructions: 134500721 cycles: 239022415 heartbeat IPC: 0.2796 cumulative IPC: 0.3747 (Simulation time: 00 hr 30 min 42 sec)
Heartbeat CPU 0 instructions: 135000726 cycles: 241144601 heartbeat IPC: 0.2356 cumulative IPC: 0.3734 (Simulation time: 00 hr 30 min 54 sec)
Heartbeat CPU 0 instructions: 135500729 cycles: 242347386 heartbeat IPC: 0.4157 cumulative IPC: 0.3736 (Simulation time: 00 hr 31 min 02 sec)
Heartbeat CPU 0 instructions: 136000730 cycles: 244232817 heartbeat IPC: 0.2652 cumulative IPC: 0.3727 (Simulation time: 00 hr 31 min 13 sec)
Heartbeat CPU 0 instructions: 136500736 cycles: 245858813 heartbeat IPC: 0.3075 cumulative IPC: 0.3723 (Simulation time: 00 hr 31 min 23 sec)
Heartbeat CPU 0 instructions: 137000740 cycles: 247091425 heartbeat IPC: 0.4056 cumulative IPC: 0.3725 (Simulation time: 00 hr 31 min 31 sec)
Heartbeat CPU 0 instructions: 137500745 cycles: 247962584 heartbeat IPC: 0.574 cumulative IPC: 0.3732 (Simulation time: 00 hr 31 min 36 sec)
Heartbeat CPU 0 instructions: 138000745 cycles: 248292918 heartbeat IPC: 1.514 cumulative IPC: 0.3748 (Simulation time: 00 hr 31 min 39 sec)
Heartbeat CPU 0 instructions: 138500745 cycles: 248620846 heartbeat IPC: 1.525 cumulative IPC: 0.3764 (Simulation time: 00 hr 31 min 42 sec)
Heartbeat CPU 0 instructions: 139000749 cycles: 248978546 heartbeat IPC: 1.398 cumulative IPC: 0.378 (Simulation time: 00 hr 31 min 45 sec)
Heartbeat CPU 0 instructions: 139500754 cycles: 249648755 heartbeat IPC: 0.746 cumulative IPC: 0.379 (Simulation time: 00 hr 31 min 49 sec)
Heartbeat CPU 0 instructions: 140000754 cycles: 250161437 heartbeat IPC: 0.9753 cumulative IPC: 0.3803 (Simulation time: 00 hr 31 min 54 sec)
Heartbeat CPU 0 instructions: 140500761 cycles: 250387289 heartbeat IPC: 2.214 cumulative IPC: 0.382 (Simulation time: 00 hr 31 min 56 sec)
Heartbeat CPU 0 instructions: 141000761 cycles: 250512380 heartbeat IPC: 3.997 cumulative IPC: 0.384 (Simulation time: 00 hr 31 min 58 sec)
Heartbeat CPU 0 instructions: 141500761 cycles: 250686768 heartbeat IPC: 2.867 cumulative IPC: 0.3858 (Simulation time: 00 hr 32 min 00 sec)
Heartbeat CPU 0 instructions: 142000767 cycles: 250812097 heartbeat IPC: 3.99 cumulative IPC: 0.3877 (Simulation time: 00 hr 32 min 02 sec)
Heartbeat CPU 0 instructions: 142500769 cycles: 250939443 heartbeat IPC: 3.926 cumulative IPC: 0.3896 (Simulation time: 00 hr 32 min 04 sec)
Heartbeat CPU 0 instructions: 143000772 cycles: 251329086 heartbeat IPC: 1.283 cumulative IPC: 0.391 (Simulation time: 00 hr 32 min 07 sec)
Heartbeat CPU 0 instructions: 143500778 cycles: 253398309 heartbeat IPC: 0.2416 cumulative IPC: 0.3898 (Simulation time: 00 hr 32 min 19 sec)
Heartbeat CPU 0 instructions: 144000778 cycles: 254558529 heartbeat IPC: 0.431 cumulative IPC: 0.39 (Simulation time: 00 hr 32 min 26 sec)
Heartbeat CPU 0 instructions: 144500778 cycles: 255814959 heartbeat IPC: 0.398 cumulative IPC: 0.39 (Simulation time: 00 hr 32 min 34 sec)
Heartbeat CPU 0 instructions: 145000779 cycles: 256920059 heartbeat IPC: 0.4524 cumulative IPC: 0.3903 (Simulation time: 00 hr 32 min 41 sec)
Heartbeat CPU 0 instructions: 145500779 cycles: 258621686 heartbeat IPC: 0.2938 cumulative IPC: 0.3896 (Simulation time: 00 hr 32 min 51 sec)
Heartbeat CPU 0 instructions: 146000779 cycles: 258997550 heartbeat IPC: 1.33 cumulative IPC: 0.3911 (Simulation time: 00 hr 32 min 54 sec)
Heartbeat CPU 0 instructions: 146500780 cycles: 259331245 heartbeat IPC: 1.498 cumulative IPC: 0.3926 (Simulation time: 00 hr 32 min 57 sec)
Heartbeat CPU 0 instructions: 147000782 cycles: 259612648 heartbeat IPC: 1.777 cumulative IPC: 0.3941 (Simulation time: 00 hr 33 min 00 sec)
Heartbeat CPU 0 instructions: 147500782 cycles: 260657242 heartbeat IPC: 0.4787 cumulative IPC: 0.3945 (Simulation time: 00 hr 33 min 06 sec)
Heartbeat CPU 0 instructions: 148000789 cycles: 262107969 heartbeat IPC: 0.3447 cumulative IPC: 0.3942 (Simulation time: 00 hr 33 min 15 sec)
Heartbeat CPU 0 instructions: 148500793 cycles: 263973092 heartbeat IPC: 0.2681 cumulative IPC: 0.3933 (Simulation time: 00 hr 33 min 26 sec)
Heartbeat CPU 0 instructions: 149000794 cycles: 265928251 heartbeat IPC: 0.2557 cumulative IPC: 0.3922 (Simulation time: 00 hr 33 min 38 sec)
Heartbeat CPU 0 instructions: 149500801 cycles: 267323261 heartbeat IPC: 0.3584 cumulative IPC: 0.392 (Simulation time: 00 hr 33 min 46 sec)
Heartbeat CPU 0 instructions: 150000807 cycles: 268649851 heartbeat IPC: 0.3769 cumulative IPC: 0.3919 (Simulation time: 00 hr 33 min 55 sec)
Heartbeat CPU 0 instructions: 150500807 cycles: 269052579 heartbeat IPC: 1.242 cumulative IPC: 0.3933 (Simulation time: 00 hr 33 min 58 sec)
Heartbeat CPU 0 instructions: 151000808 cycles: 269355354 heartbeat IPC: 1.651 cumulative IPC: 0.3948 (Simulation time: 00 hr 34 min 00 sec)
Heartbeat CPU 0 instructions: 151500812 cycles: 269648709 heartbeat IPC: 1.704 cumulative IPC: 0.3963 (Simulation time: 00 hr 34 min 03 sec)
Heartbeat CPU 0 instructions: 152000812 cycles: 271426939 heartbeat IPC: 0.2812 cumulative IPC: 0.3955 (Simulation time: 00 hr 34 min 13 sec)
Heartbeat CPU 0 instructions: 152500812 cycles: 273032556 heartbeat IPC: 0.3114 cumulative IPC: 0.395 (Simulation time: 00 hr 34 min 22 sec)
Heartbeat CPU 0 instructions: 153000816 cycles: 275041275 heartbeat IPC: 0.2489 cumulative IPC: 0.3938 (Simulation time: 00 hr 34 min 34 sec)
Heartbeat CPU 0 instructions: 153500817 cycles: 276063938 heartbeat IPC: 0.4889 cumulative IPC: 0.3942 (Simulation time: 00 hr 34 min 41 sec)
Heartbeat CPU 0 instructions: 154000820 cycles: 277586887 heartbeat IPC: 0.3283 cumulative IPC: 0.3938 (Simulation time: 00 hr 34 min 50 sec)
Heartbeat CPU 0 instructions: 154500821 cycles: 278131724 heartbeat IPC: 0.9177 cumulative IPC: 0.3949 (Simulation time: 00 hr 34 min 54 sec)
Heartbeat CPU 0 instructions: 155000822 cycles: 280133252 heartbeat IPC: 0.2498 cumulative IPC: 0.3938 (Simulation time: 00 hr 35 min 05 sec)
Heartbeat CPU 0 instructions: 155500823 cycles: 281728356 heartbeat IPC: 0.3135 cumulative IPC: 0.3933 (Simulation time: 00 hr 35 min 14 sec)
Heartbeat CPU 0 instructions: 156000823 cycles: 282544078 heartbeat IPC: 0.613 cumulative IPC: 0.394 (Simulation time: 00 hr 35 min 20 sec)
Heartbeat CPU 0 instructions: 156500827 cycles: 282914176 heartbeat IPC: 1.351 cumulative IPC: 0.3953 (Simulation time: 00 hr 35 min 23 sec)
Heartbeat CPU 0 instructions: 157000833 cycles: 283209107 heartbeat IPC: 1.695 cumulative IPC: 0.3967 (Simulation time: 00 hr 35 min 26 sec)
Heartbeat CPU 0 instructions: 157500833 cycles: 284652761 heartbeat IPC: 0.3463 cumulative IPC: 0.3965 (Simulation time: 00 hr 35 min 34 sec)
Heartbeat CPU 0 instructions: 158000838 cycles: 285367705 heartbeat IPC: 0.6994 cumulative IPC: 0.3973 (Simulation time: 00 hr 35 min 39 sec)
Heartbeat CPU 0 instructions: 158500843 cycles: 286964727 heartbeat IPC: 0.3131 cumulative IPC: 0.3968 (Simulation time: 00 hr 35 min 50 sec)
Heartbeat CPU 0 instructions: 159000848 cycles: 287298314 heartbeat IPC: 1.499 cumulative IPC: 0.3981 (Simulation time: 00 hr 35 min 53 sec)
Heartbeat CPU 0 instructions: 159500848 cycles: 287643973 heartbeat IPC: 1.447 cumulative IPC: 0.3994 (Simulation time: 00 hr 35 min 55 sec)
Heartbeat CPU 0 instructions: 160000848 cycles: 287931832 heartbeat IPC: 1.737 cumulative IPC: 0.4008 (Simulation time: 00 hr 35 min 58 sec)
Heartbeat CPU 0 instructions: 160500851 cycles: 289611794 heartbeat IPC: 0.2976 cumulative IPC: 0.4002 (Simulation time: 00 hr 36 min 07 sec)
Heartbeat CPU 0 instructions: 161000851 cycles: 291684345 heartbeat IPC: 0.2412 cumulative IPC: 0.399 (Simulation time: 00 hr 36 min 19 sec)
Heartbeat CPU 0 instructions: 161500851 cycles: 293707672 heartbeat IPC: 0.2471 cumulative IPC: 0.3979 (Simulation time: 00 hr 36 min 31 sec)
Heartbeat CPU 0 instructions: 162000852 cycles: 294869611 heartbeat IPC: 0.4303 cumulative IPC: 0.3981 (Simulation time: 00 hr 36 min 38 sec)
Heartbeat CPU 0 instructions: 162500852 cycles: 295941920 heartbeat IPC: 0.4663 cumulative IPC: 0.3983 (Simulation time: 00 hr 36 min 45 sec)
Heartbeat CPU 0 instructions: 163000857 cycles: 297367725 heartbeat IPC: 0.3507 cumulative IPC: 0.3981 (Simulation time: 00 hr 36 min 54 sec)
Heartbeat CPU 0 instructions: 163500861 cycles: 298151909 heartbeat IPC: 0.6376 cumulative IPC: 0.3987 (Simulation time: 00 hr 36 min 59 sec)
Heartbeat CPU 0 instructions: 164000861 cycles: 298474196 heartbeat IPC: 1.551 cumulative IPC: 0.4 (Simulation time: 00 hr 37 min 02 sec)
Heartbeat CPU 0 instructions: 164500865 cycles: 298812374 heartbeat IPC: 1.479 cumulative IPC: 0.4013 (Simulation time: 00 hr 37 min 05 sec)
Heartbeat CPU 0 instructions: 165000872 cycles: 299154663 heartbeat IPC: 1.461 cumulative IPC: 0.4026 (Simulation time: 00 hr 37 min 08 sec)
Heartbeat CPU 0 instructions: 165500875 cycles: 299527615 heartbeat IPC: 1.341 cumulative IPC: 0.4038 (Simulation time: 00 hr 37 min 11 sec)
Heartbeat CPU 0 instructions: 166000877 cycles: 299735502 heartbeat IPC: 2.405 cumulative IPC: 0.4053 (Simulation time: 00 hr 37 min 13 sec)
Heartbeat CPU 0 instructions: 166500880 cycles: 301044255 heartbeat IPC: 0.382 cumulative IPC: 0.4052 (Simulation time: 00 hr 37 min 21 sec)
Heartbeat CPU 0 instructions: 167000884 cycles: 302360140 heartbeat IPC: 0.38 cumulative IPC: 0.4051 (Simulation time: 00 hr 37 min 28 sec)
Heartbeat CPU 0 instructions: 167500884 cycles: 302818478 heartbeat IPC: 1.091 cumulative IPC: 0.4061 (Simulation time: 00 hr 37 min 32 sec)
Heartbeat CPU 0 instructions: 168000885 cycles: 303108589 heartbeat IPC: 1.723 cumulative IPC: 0.4075 (Simulation time: 00 hr 37 min 34 sec)
Heartbeat CPU 0 instructions: 168500885 cycles: 303911001 heartbeat IPC: 0.6231 cumulative IPC: 0.4081 (Simulation time: 00 hr 37 min 39 sec)
Heartbeat CPU 0 instructions: 169000885 cycles: 305755119 heartbeat IPC: 0.2711 cumulative IPC: 0.4072 (Simulation time: 00 hr 37 min 50 sec)
Heartbeat CPU 0 instructions: 169500887 cycles: 307177397 heartbeat IPC: 0.3516 cumulative IPC: 0.4069 (Simulation time: 00 hr 37 min 58 sec)
Heartbeat CPU 0 instructions: 170000887 cycles: 308332036 heartbeat IPC: 0.433 cumulative IPC: 0.407 (Simulation time: 00 hr 38 min 05 sec)
Heartbeat CPU 0 instructions: 170500893 cycles: 309690613 heartbeat IPC: 0.368 cumulative IPC: 0.4068 (Simulation time: 00 hr 38 min 13 sec)
Heartbeat CPU 0 instructions: 171000897 cycles: 309899646 heartbeat IPC: 2.392 cumulative IPC: 0.4082 (Simulation time: 00 hr 38 min 15 sec)
Heartbeat CPU 0 instructions: 171500897 cycles: 310084283 heartbeat IPC: 2.708 cumulative IPC: 0.4097 (Simulation time: 00 hr 38 min 17 sec)
Heartbeat CPU 0 instructions: 172000898 cycles: 310635177 heartbeat IPC: 0.9076 cumulative IPC: 0.4106 (Simulation time: 00 hr 38 min 21 sec)
Heartbeat CPU 0 instructions: 172500901 cycles: 311141611 heartbeat IPC: 0.9873 cumulative IPC: 0.4116 (Simulation time: 00 hr 38 min 25 sec)
Heartbeat CPU 0 instructions: 173000901 cycles: 312477300 heartbeat IPC: 0.3743 cumulative IPC: 0.4114 (Simulation time: 00 hr 38 min 33 sec)
Heartbeat CPU 0 instructions: 173500902 cycles: 313995346 heartbeat IPC: 0.3294 cumulative IPC: 0.411 (Simulation time: 00 hr 38 min 42 sec)
Heartbeat CPU 0 instructions: 174000902 cycles: 315159237 heartbeat IPC: 0.4296 cumulative IPC: 0.4111 (Simulation time: 00 hr 38 min 49 sec)
Heartbeat CPU 0 instructions: 174500902 cycles: 317332162 heartbeat IPC: 0.2301 cumulative IPC: 0.4098 (Simulation time: 00 hr 39 min 00 sec)
Heartbeat CPU 0 instructions: 175000902 cycles: 319476289 heartbeat IPC: 0.2332 cumulative IPC: 0.4085 (Simulation time: 00 hr 39 min 12 sec)
Heartbeat CPU 0 instructions: 175500906 cycles: 320705168 heartbeat IPC: 0.4069 cumulative IPC: 0.4085 (Simulation time: 00 hr 39 min 19 sec)
Heartbeat CPU 0 instructions: 176000907 cycles: 322330827 heartbeat IPC: 0.3076 cumulative IPC: 0.408 (Simulation time: 00 hr 39 min 29 sec)
Heartbeat CPU 0 instructions: 176500907 cycles: 323829558 heartbeat IPC: 0.3336 cumulative IPC: 0.4076 (Simulation time: 00 hr 39 min 38 sec)
Heartbeat CPU 0 instructions: 177000907 cycles: 325109599 heartbeat IPC: 0.3906 cumulative IPC: 0.4076 (Simulation time: 00 hr 39 min 45 sec)
Heartbeat CPU 0 instructions: 177500913 cycles: 326948510 heartbeat IPC: 0.2719 cumulative IPC: 0.4068 (Simulation time: 00 hr 39 min 56 sec)
Heartbeat CPU 0 instructions: 178000913 cycles: 330207821 heartbeat IPC: 0.1534 cumulative IPC: 0.4042 (Simulation time: 00 hr 40 min 12 sec)
Heartbeat CPU 0 instructions: 178500916 cycles: 332276671 heartbeat IPC: 0.2417 cumulative IPC: 0.4031 (Simulation time: 00 hr 40 min 24 sec)
Heartbeat CPU 0 instructions: 179000917 cycles: 333311507 heartbeat IPC: 0.4832 cumulative IPC: 0.4034 (Simulation time: 00 hr 40 min 30 sec)
Heartbeat CPU 0 instructions: 179500921 cycles: 334184073 heartbeat IPC: 0.573 cumulative IPC: 0.4038 (Simulation time: 00 hr 40 min 36 sec)
Heartbeat CPU 0 instructions: 180000928 cycles: 335391259 heartbeat IPC: 0.4142 cumulative IPC: 0.4039 (Simulation time: 00 hr 40 min 43 sec)
Heartbeat CPU 0 instructions: 180500934 cycles: 336846375 heartbeat IPC: 0.3436 cumulative IPC: 0.4036 (Simulation time: 00 hr 40 min 53 sec)
Heartbeat CPU 0 instructions: 181000940 cycles: 338592572 heartbeat IPC: 0.2863 cumulative IPC: 0.403 (Simulation time: 00 hr 41 min 03 sec)
Heartbeat CPU 0 instructions: 181500942 cycles: 339646432 heartbeat IPC: 0.4744 cumulative IPC: 0.4032 (Simulation time: 00 hr 41 min 09 sec)
Heartbeat CPU 0 instructions: 182000945 cycles: 341295357 heartbeat IPC: 0.3032 cumulative IPC: 0.4027 (Simulation time: 00 hr 41 min 18 sec)
Heartbeat CPU 0 instructions: 182500946 cycles: 342486296 heartbeat IPC: 0.4198 cumulative IPC: 0.4028 (Simulation time: 00 hr 41 min 25 sec)
Heartbeat CPU 0 instructions: 183000946 cycles: 343873279 heartbeat IPC: 0.3605 cumulative IPC: 0.4026 (Simulation time: 00 hr 41 min 33 sec)
Heartbeat CPU 0 instructions: 183500949 cycles: 345062088 heartbeat IPC: 0.4206 cumulative IPC: 0.4026 (Simulation time: 00 hr 41 min 40 sec)
Heartbeat CPU 0 instructions: 184000950 cycles: 346423735 heartbeat IPC: 0.3672 cumulative IPC: 0.4025 (Simulation time: 00 hr 41 min 48 sec)
Heartbeat CPU 0 instructions: 184500952 cycles: 349362558 heartbeat IPC: 0.1701 cumulative IPC: 0.4005 (Simulation time: 00 hr 42 min 03 sec)
Heartbeat CPU 0 instructions: 185000954 cycles: 350903995 heartbeat IPC: 0.3244 cumulative IPC: 0.4001 (Simulation time: 00 hr 42 min 11 sec)
Heartbeat CPU 0 instructions: 185500955 cycles: 352254381 heartbeat IPC: 0.3703 cumulative IPC: 0.4 (Simulation time: 00 hr 42 min 19 sec)
Heartbeat CPU 0 instructions: 186000956 cycles: 353780673 heartbeat IPC: 0.3276 cumulative IPC: 0.3997 (Simulation time: 00 hr 42 min 28 sec)
Heartbeat CPU 0 instructions: 186500959 cycles: 354938725 heartbeat IPC: 0.4318 cumulative IPC: 0.3998 (Simulation time: 00 hr 42 min 34 sec)
Heartbeat CPU 0 instructions: 187000959 cycles: 355960964 heartbeat IPC: 0.4891 cumulative IPC: 0.4001 (Simulation time: 00 hr 42 min 40 sec)
Heartbeat CPU 0 instructions: 187500961 cycles: 356378409 heartbeat IPC: 1.198 cumulative IPC: 0.401 (Simulation time: 00 hr 42 min 43 sec)
Heartbeat CPU 0 instructions: 188000962 cycles: 356693376 heartbeat IPC: 1.587 cumulative IPC: 0.4021 (Simulation time: 00 hr 42 min 46 sec)
Heartbeat CPU 0 instructions: 188500964 cycles: 356982049 heartbeat IPC: 1.732 cumulative IPC: 0.4032 (Simulation time: 00 hr 42 min 48 sec)
Heartbeat CPU 0 instructions: 189000969 cycles: 358677777 heartbeat IPC: 0.2949 cumulative IPC: 0.4027 (Simulation time: 00 hr 42 min 57 sec)
Heartbeat CPU 0 instructions: 189500972 cycles: 358996528 heartbeat IPC: 1.569 cumulative IPC: 0.4038 (Simulation time: 00 hr 42 min 59 sec)
Heartbeat CPU 0 instructions: 190000974 cycles: 360146488 heartbeat IPC: 0.4348 cumulative IPC: 0.4039 (Simulation time: 00 hr 43 min 06 sec)
Heartbeat CPU 0 instructions: 190500981 cycles: 361456996 heartbeat IPC: 0.3815 cumulative IPC: 0.4038 (Simulation time: 00 hr 43 min 13 sec)
Heartbeat CPU 0 instructions: 191000981 cycles: 362600067 heartbeat IPC: 0.4374 cumulative IPC: 0.4039 (Simulation time: 00 hr 43 min 20 sec)
Heartbeat CPU 0 instructions: 191500982 cycles: 363704841 heartbeat IPC: 0.4526 cumulative IPC: 0.4041 (Simulation time: 00 hr 43 min 26 sec)
Heartbeat CPU 0 instructions: 192000983 cycles: 365315654 heartbeat IPC: 0.3104 cumulative IPC: 0.4036 (Simulation time: 00 hr 43 min 35 sec)
Heartbeat CPU 0 instructions: 192500988 cycles: 366040443 heartbeat IPC: 0.6899 cumulative IPC: 0.4042 (Simulation time: 00 hr 43 min 40 sec)
Heartbeat CPU 0 instructions: 193000988 cycles: 366501546 heartbeat IPC: 1.084 cumulative IPC: 0.4051 (Simulation time: 00 hr 43 min 44 sec)
Heartbeat CPU 0 instructions: 193500990 cycles: 366852560 heartbeat IPC: 1.424 cumulative IPC: 0.4061 (Simulation time: 00 hr 43 min 47 sec)
Heartbeat CPU 0 instructions: 194000997 cycles: 367205041 heartbeat IPC: 1.419 cumulative IPC: 0.4071 (Simulation time: 00 hr 43 min 50 sec)
Heartbeat CPU 0 instructions: 194501000 cycles: 368396483 heartbeat IPC: 0.4197 cumulative IPC: 0.4072 (Simulation time: 00 hr 43 min 56 sec)
Heartbeat CPU 0 instructions: 195001002 cycles: 370237853 heartbeat IPC: 0.2715 cumulative IPC: 0.4065 (Simulation time: 00 hr 44 min 06 sec)
Heartbeat CPU 0 instructions: 195501009 cycles: 370549707 heartbeat IPC: 1.603 cumulative IPC: 0.4075 (Simulation time: 00 hr 44 min 09 sec)
Heartbeat CPU 0 instructions: 196001011 cycles: 370911602 heartbeat IPC: 1.382 cumulative IPC: 0.4085 (Simulation time: 00 hr 44 min 13 sec)
Heartbeat CPU 0 instructions: 196501014 cycles: 371243628 heartbeat IPC: 1.506 cumulative IPC: 0.4095 (Simulation time: 00 hr 44 min 16 sec)
Heartbeat CPU 0 instructions: 197001021 cycles: 373648676 heartbeat IPC: 0.2079 cumulative IPC: 0.4082 (Simulation time: 00 hr 44 min 33 sec)
Heartbeat CPU 0 instructions: 197501023 cycles: 376209628 heartbeat IPC: 0.1952 cumulative IPC: 0.4067 (Simulation time: 00 hr 44 min 52 sec)
Heartbeat CPU 0 instructions: 198001026 cycles: 377918664 heartbeat IPC: 0.2926 cumulative IPC: 0.4061 (Simulation time: 00 hr 45 min 01 sec)
Heartbeat CPU 0 instructions: 198501030 cycles: 380387622 heartbeat IPC: 0.2025 cumulative IPC: 0.4048 (Simulation time: 00 hr 45 min 14 sec)
Heartbeat CPU 0 instructions: 199001032 cycles: 381957013 heartbeat IPC: 0.3186 cumulative IPC: 0.4044 (Simulation time: 00 hr 45 min 22 sec)
Heartbeat CPU 0 instructions: 199501033 cycles: 383035390 heartbeat IPC: 0.4637 cumulative IPC: 0.4046 (Simulation time: 00 hr 45 min 29 sec)
Heartbeat CPU 0 instructions: 200001033 cycles: 385146993 heartbeat IPC: 0.2368 cumulative IPC: 0.4036 (Simulation time: 00 hr 45 min 40 sec)
Heartbeat CPU 0 instructions: 200501033 cycles: 386331939 heartbeat IPC: 0.422 cumulative IPC: 0.4037 (Simulation time: 00 hr 45 min 48 sec)
Heartbeat CPU 0 instructions: 201001036 cycles: 386860675 heartbeat IPC: 0.9457 cumulative IPC: 0.4044 (Simulation time: 00 hr 45 min 52 sec)
Heartbeat CPU 0 instructions: 201501037 cycles: 387348736 heartbeat IPC: 1.024 cumulative IPC: 0.4053 (Simulation time: 00 hr 45 min 56 sec)
Heartbeat CPU 0 instructions: 202001039 cycles: 387687974 heartbeat IPC: 1.474 cumulative IPC: 0.4062 (Simulation time: 00 hr 45 min 59 sec)
Heartbeat CPU 0 instructions: 202501039 cycles: 388228887 heartbeat IPC: 0.9244 cumulative IPC: 0.407 (Simulation time: 00 hr 46 min 03 sec)
Heartbeat CPU 0 instructions: 203001040 cycles: 390880947 heartbeat IPC: 0.1885 cumulative IPC: 0.4054 (Simulation time: 00 hr 46 min 17 sec)
Heartbeat CPU 0 instructions: 203501045 cycles: 392773996 heartbeat IPC: 0.2641 cumulative IPC: 0.4047 (Simulation time: 00 hr 46 min 28 sec)
Heartbeat CPU 0 instructions: 204001045 cycles: 393118971 heartbeat IPC: 1.449 cumulative IPC: 0.4057 (Simulation time: 00 hr 46 min 30 sec)
Heartbeat CPU 0 instructions: 204501052 cycles: 393500802 heartbeat IPC: 1.309 cumulative IPC: 0.4066 (Simulation time: 00 hr 46 min 34 sec)
Heartbeat CPU 0 instructions: 205001058 cycles: 393827022 heartbeat IPC: 1.533 cumulative IPC: 0.4076 (Simulation time: 00 hr 46 min 36 sec)
Heartbeat CPU 0 instructions: 205501062 cycles: 394224080 heartbeat IPC: 1.259 cumulative IPC: 0.4084 (Simulation time: 00 hr 46 min 39 sec)
Heartbeat CPU 0 instructions: 206001063 cycles: 394484616 heartbeat IPC: 1.919 cumulative IPC: 0.4095 (Simulation time: 00 hr 46 min 41 sec)
Heartbeat CPU 0 instructions: 206501063 cycles: 396059951 heartbeat IPC: 0.3174 cumulative IPC: 0.4091 (Simulation time: 00 hr 46 min 50 sec)
Heartbeat CPU 0 instructions: 207001065 cycles: 398231716 heartbeat IPC: 0.2302 cumulative IPC: 0.4081 (Simulation time: 00 hr 47 min 01 sec)
Heartbeat CPU 0 instructions: 207501068 cycles: 400602237 heartbeat IPC: 0.2109 cumulative IPC: 0.4069 (Simulation time: 00 hr 47 min 14 sec)
Heartbeat CPU 0 instructions: 208001069 cycles: 402672428 heartbeat IPC: 0.2415 cumulative IPC: 0.406 (Simulation time: 00 hr 47 min 25 sec)
Heartbeat CPU 0 instructions: 208501072 cycles: 403807840 heartbeat IPC: 0.4404 cumulative IPC: 0.4061 (Simulation time: 00 hr 47 min 31 sec)
Heartbeat CPU 0 instructions: 209001072 cycles: 405306399 heartbeat IPC: 0.3337 cumulative IPC: 0.4058 (Simulation time: 00 hr 47 min 40 sec)
Heartbeat CPU 0 instructions: 209501079 cycles: 406606063 heartbeat IPC: 0.3847 cumulative IPC: 0.4058 (Simulation time: 00 hr 47 min 47 sec)
Heartbeat CPU 0 instructions: 210001080 cycles: 407966718 heartbeat IPC: 0.3675 cumulative IPC: 0.4056 (Simulation time: 00 hr 47 min 55 sec)
Heartbeat CPU 0 instructions: 210501081 cycles: 409798526 heartbeat IPC: 0.273 cumulative IPC: 0.405 (Simulation time: 00 hr 48 min 05 sec)
Heartbeat CPU 0 instructions: 211001083 cycles: 412144949 heartbeat IPC: 0.2131 cumulative IPC: 0.4039 (Simulation time: 00 hr 48 min 17 sec)
Heartbeat CPU 0 instructions: 211501084 cycles: 414809693 heartbeat IPC: 0.1876 cumulative IPC: 0.4024 (Simulation time: 00 hr 48 min 31 sec)
Heartbeat CPU 0 instructions: 212001091 cycles: 415880373 heartbeat IPC: 0.467 cumulative IPC: 0.4026 (Simulation time: 00 hr 48 min 37 sec)
Heartbeat CPU 0 instructions: 212501092 cycles: 417165773 heartbeat IPC: 0.389 cumulative IPC: 0.4026 (Simulation time: 00 hr 48 min 45 sec)
Heartbeat CPU 0 instructions: 213001094 cycles: 419155613 heartbeat IPC: 0.2513 cumulative IPC: 0.4018 (Simulation time: 00 hr 48 min 55 sec)
Heartbeat CPU 0 instructions: 213501094 cycles: 421217234 heartbeat IPC: 0.2425 cumulative IPC: 0.401 (Simulation time: 00 hr 49 min 06 sec)
Heartbeat CPU 0 instructions: 214001100 cycles: 423270770 heartbeat IPC: 0.2435 cumulative IPC: 0.4002 (Simulation time: 00 hr 49 min 16 sec)
Heartbeat CPU 0 instructions: 214501102 cycles: 424870773 heartbeat IPC: 0.3125 cumulative IPC: 0.3999 (Simulation time: 00 hr 49 min 25 sec)
Heartbeat CPU 0 instructions: 215001108 cycles: 425801097 heartbeat IPC: 0.5375 cumulative IPC: 0.4002 (Simulation time: 00 hr 49 min 30 sec)
Heartbeat CPU 0 instructions: 215501108 cycles: 427474163 heartbeat IPC: 0.2989 cumulative IPC: 0.3998 (Simulation time: 00 hr 49 min 40 sec)
Heartbeat CPU 0 instructions: 216001113 cycles: 429069730 heartbeat IPC: 0.3134 cumulative IPC: 0.3995 (Simulation time: 00 hr 49 min 48 sec)
Heartbeat CPU 0 instructions: 216501114 cycles: 431185947 heartbeat IPC: 0.2363 cumulative IPC: 0.3986 (Simulation time: 00 hr 49 min 59 sec)
Heartbeat CPU 0 instructions: 217001114 cycles: 433070078 heartbeat IPC: 0.2654 cumulative IPC: 0.398 (Simulation time: 00 hr 50 min 09 sec)
Heartbeat CPU 0 instructions: 217501114 cycles: 433445612 heartbeat IPC: 1.331 cumulative IPC: 0.3989 (Simulation time: 00 hr 50 min 12 sec)
Heartbeat CPU 0 instructions: 218001114 cycles: 434103868 heartbeat IPC: 0.7596 cumulative IPC: 0.3994 (Simulation time: 00 hr 50 min 18 sec)
Heartbeat CPU 0 instructions: 218501116 cycles: 434388386 heartbeat IPC: 1.757 cumulative IPC: 0.4004 (Simulation time: 00 hr 50 min 20 sec)
Heartbeat CPU 0 instructions: 219001117 cycles: 435078775 heartbeat IPC: 0.7242 cumulative IPC: 0.4009 (Simulation time: 00 hr 50 min 24 sec)
Heartbeat CPU 0 instructions: 219501117 cycles: 437799438 heartbeat IPC: 0.1838 cumulative IPC: 0.3995 (Simulation time: 00 hr 50 min 37 sec)
Heartbeat CPU 0 instructions: 220001118 cycles: 439240202 heartbeat IPC: 0.347 cumulative IPC: 0.3993 (Simulation time: 00 hr 50 min 45 sec)
Heartbeat CPU 0 instructions: 220501118 cycles: 440144789 heartbeat IPC: 0.5527 cumulative IPC: 0.3996 (Simulation time: 00 hr 50 min 50 sec)
Heartbeat CPU 0 instructions: 221001122 cycles: 440466836 heartbeat IPC: 1.553 cumulative IPC: 0.4005 (Simulation time: 00 hr 50 min 53 sec)
Heartbeat CPU 0 instructions: 221501128 cycles: 440768166 heartbeat IPC: 1.659 cumulative IPC: 0.4014 (Simulation time: 00 hr 50 min 55 sec)
Heartbeat CPU 0 instructions: 222001128 cycles: 441541340 heartbeat IPC: 0.6467 cumulative IPC: 0.4018 (Simulation time: 00 hr 51 min 00 sec)
Heartbeat CPU 0 instructions: 222501132 cycles: 443783137 heartbeat IPC: 0.223 cumulative IPC: 0.4009 (Simulation time: 00 hr 51 min 12 sec)
Heartbeat CPU 0 instructions: 223001132 cycles: 445361409 heartbeat IPC: 0.3168 cumulative IPC: 0.4006 (Simulation time: 00 hr 51 min 21 sec)
Heartbeat CPU 0 instructions: 223501138 cycles: 446766497 heartbeat IPC: 0.3559 cumulative IPC: 0.4005 (Simulation time: 00 hr 51 min 29 sec)
Heartbeat CPU 0 instructions: 224001141 cycles: 448120953 heartbeat IPC: 0.3692 cumulative IPC: 0.4004 (Simulation time: 00 hr 51 min 36 sec)
Heartbeat CPU 0 instructions: 224501141 cycles: 449934744 heartbeat IPC: 0.2757 cumulative IPC: 0.3998 (Simulation time: 00 hr 51 min 45 sec)
Heartbeat CPU 0 instructions: 225001141 cycles: 451002966 heartbeat IPC: 0.4681 cumulative IPC: 0.4 (Simulation time: 00 hr 51 min 52 sec)
Heartbeat CPU 0 instructions: 225501146 cycles: 452838334 heartbeat IPC: 0.2724 cumulative IPC: 0.3995 (Simulation time: 00 hr 52 min 03 sec)
Heartbeat CPU 0 instructions: 226001146 cycles: 454394906 heartbeat IPC: 0.3212 cumulative IPC: 0.3992 (Simulation time: 00 hr 52 min 12 sec)
Heartbeat CPU 0 instructions: 226501147 cycles: 455835879 heartbeat IPC: 0.347 cumulative IPC: 0.399 (Simulation time: 00 hr 52 min 20 sec)
Heartbeat CPU 0 instructions: 227001150 cycles: 458000352 heartbeat IPC: 0.231 cumulative IPC: 0.3982 (Simulation time: 00 hr 52 min 31 sec)
Heartbeat CPU 0 instructions: 227501154 cycles: 459490318 heartbeat IPC: 0.3356 cumulative IPC: 0.398 (Simulation time: 00 hr 52 min 40 sec)
Heartbeat CPU 0 instructions: 228001156 cycles: 461154104 heartbeat IPC: 0.3005 cumulative IPC: 0.3976 (Simulation time: 00 hr 52 min 49 sec)
Heartbeat CPU 0 instructions: 228501162 cycles: 462415577 heartbeat IPC: 0.3964 cumulative IPC: 0.3976 (Simulation time: 00 hr 52 min 56 sec)
Heartbeat CPU 0 instructions: 229001164 cycles: 463838595 heartbeat IPC: 0.3514 cumulative IPC: 0.3975 (Simulation time: 00 hr 53 min 04 sec)
Heartbeat CPU 0 instructions: 229501165 cycles: 465067228 heartbeat IPC: 0.407 cumulative IPC: 0.3975 (Simulation time: 00 hr 53 min 12 sec)
Heartbeat CPU 0 instructions: 230001165 cycles: 466262631 heartbeat IPC: 0.4183 cumulative IPC: 0.3976 (Simulation time: 00 hr 53 min 19 sec)
Heartbeat CPU 0 instructions: 230501169 cycles: 468416843 heartbeat IPC: 0.2321 cumulative IPC: 0.3968 (Simulation time: 00 hr 53 min 29 sec)
Heartbeat CPU 0 instructions: 231001170 cycles: 469415130 heartbeat IPC: 0.5009 cumulative IPC: 0.397 (Simulation time: 00 hr 53 min 35 sec)
Heartbeat CPU 0 instructions: 231501170 cycles: 470122380 heartbeat IPC: 0.707 cumulative IPC: 0.3975 (Simulation time: 00 hr 53 min 39 sec)
Heartbeat CPU 0 instructions: 232001174 cycles: 472153787 heartbeat IPC: 0.2461 cumulative IPC: 0.3968 (Simulation time: 00 hr 53 min 49 sec)
Heartbeat CPU 0 instructions: 232501176 cycles: 474149491 heartbeat IPC: 0.2505 cumulative IPC: 0.3962 (Simulation time: 00 hr 54 min 00 sec)
Heartbeat CPU 0 instructions: 233001180 cycles: 475697967 heartbeat IPC: 0.3229 cumulative IPC: 0.3959 (Simulation time: 00 hr 54 min 08 sec)
Heartbeat CPU 0 instructions: 233501183 cycles: 477280149 heartbeat IPC: 0.316 cumulative IPC: 0.3957 (Simulation time: 00 hr 54 min 17 sec)
Heartbeat CPU 0 instructions: 234001189 cycles: 477846227 heartbeat IPC: 0.8833 cumulative IPC: 0.3963 (Simulation time: 00 hr 54 min 21 sec)
Heartbeat CPU 0 instructions: 234501191 cycles: 478151765 heartbeat IPC: 1.636 cumulative IPC: 0.3971 (Simulation time: 00 hr 54 min 23 sec)
Heartbeat CPU 0 instructions: 235001191 cycles: 478435308 heartbeat IPC: 1.763 cumulative IPC: 0.3979 (Simulation time: 00 hr 54 min 26 sec)
Heartbeat CPU 0 instructions: 235501194 cycles: 480022092 heartbeat IPC: 0.3151 cumulative IPC: 0.3976 (Simulation time: 00 hr 54 min 34 sec)
Heartbeat CPU 0 instructions: 236001195 cycles: 481689027 heartbeat IPC: 0.3 cumulative IPC: 0.3973 (Simulation time: 00 hr 54 min 43 sec)
Heartbeat CPU 0 instructions: 236501200 cycles: 482175447 heartbeat IPC: 1.028 cumulative IPC: 0.3979 (Simulation time: 00 hr 54 min 46 sec)
Heartbeat CPU 0 instructions: 237001205 cycles: 482447643 heartbeat IPC: 1.837 cumulative IPC: 0.3988 (Simulation time: 00 hr 54 min 49 sec)
Heartbeat CPU 0 instructions: 237501211 cycles: 482865479 heartbeat IPC: 1.197 cumulative IPC: 0.3995 (Simulation time: 00 hr 54 min 52 sec)
Heartbeat CPU 0 instructions: 238001211 cycles: 483177657 heartbeat IPC: 1.602 cumulative IPC: 0.4003 (Simulation time: 00 hr 54 min 55 sec)
Heartbeat CPU 0 instructions: 238501212 cycles: 483532399 heartbeat IPC: 1.409 cumulative IPC: 0.401 (Simulation time: 00 hr 54 min 57 sec)
Heartbeat CPU 0 instructions: 239001217 cycles: 483714235 heartbeat IPC: 2.75 cumulative IPC: 0.402 (Simulation time: 00 hr 54 min 59 sec)
Heartbeat CPU 0 instructions: 239501218 cycles: 484711683 heartbeat IPC: 0.5013 cumulative IPC: 0.4022 (Simulation time: 00 hr 55 min 05 sec)
Heartbeat CPU 0 instructions: 240001219 cycles: 485261392 heartbeat IPC: 0.9096 cumulative IPC: 0.4028 (Simulation time: 00 hr 55 min 08 sec)
Heartbeat CPU 0 instructions: 240501223 cycles: 485447024 heartbeat IPC: 2.694 cumulative IPC: 0.4037 (Simulation time: 00 hr 55 min 10 sec)
Heartbeat CPU 0 instructions: 241001226 cycles: 485626033 heartbeat IPC: 2.793 cumulative IPC: 0.4046 (Simulation time: 00 hr 55 min 12 sec)
Heartbeat CPU 0 instructions: 241501227 cycles: 485816846 heartbeat IPC: 2.62 cumulative IPC: 0.4055 (Simulation time: 00 hr 55 min 14 sec)
Heartbeat CPU 0 instructions: 242001227 cycles: 486187631 heartbeat IPC: 1.348 cumulative IPC: 0.4062 (Simulation time: 00 hr 55 min 17 sec)
Heartbeat CPU 0 instructions: 242501230 cycles: 489535037 heartbeat IPC: 0.1494 cumulative IPC: 0.4044 (Simulation time: 00 hr 55 min 34 sec)
Heartbeat CPU 0 instructions: 243001235 cycles: 492227518 heartbeat IPC: 0.1857 cumulative IPC: 0.4032 (Simulation time: 00 hr 55 min 47 sec)
Heartbeat CPU 0 instructions: 243501241 cycles: 494201534 heartbeat IPC: 0.2533 cumulative IPC: 0.4025 (Simulation time: 00 hr 55 min 58 sec)
Heartbeat CPU 0 instructions: 244001241 cycles: 496932423 heartbeat IPC: 0.1831 cumulative IPC: 0.4013 (Simulation time: 00 hr 56 min 12 sec)
Heartbeat CPU 0 instructions: 244501241 cycles: 498246988 heartbeat IPC: 0.3804 cumulative IPC: 0.4012 (Simulation time: 00 hr 56 min 19 sec)
Heartbeat CPU 0 instructions: 245001242 cycles: 500180555 heartbeat IPC: 0.2586 cumulative IPC: 0.4007 (Simulation time: 00 hr 56 min 30 sec)
Heartbeat CPU 0 instructions: 245501244 cycles: 502111784 heartbeat IPC: 0.2589 cumulative IPC: 0.4001 (Simulation time: 00 hr 56 min 41 sec)
Heartbeat CPU 0 instructions: 246001251 cycles: 502998130 heartbeat IPC: 0.5641 cumulative IPC: 0.4004 (Simulation time: 00 hr 56 min 46 sec)
Heartbeat CPU 0 instructions: 246501251 cycles: 503328816 heartbeat IPC: 1.512 cumulative IPC: 0.4012 (Simulation time: 00 hr 56 min 49 sec)
Heartbeat CPU 0 instructions: 247001252 cycles: 503651102 heartbeat IPC: 1.551 cumulative IPC: 0.4019 (Simulation time: 00 hr 56 min 52 sec)
Heartbeat CPU 0 instructions: 247501258 cycles: 503963008 heartbeat IPC: 1.603 cumulative IPC: 0.4027 (Simulation time: 00 hr 56 min 56 sec)
Heartbeat CPU 0 instructions: 248001259 cycles: 506423112 heartbeat IPC: 0.2032 cumulative IPC: 0.4017 (Simulation time: 00 hr 57 min 13 sec)
Heartbeat CPU 0 instructions: 248501260 cycles: 508960201 heartbeat IPC: 0.1971 cumulative IPC: 0.4006 (Simulation time: 00 hr 57 min 31 sec)
Heartbeat CPU 0 instructions: 249001266 cycles: 511314361 heartbeat IPC: 0.2124 cumulative IPC: 0.3998 (Simulation time: 00 hr 57 min 44 sec)
Heartbeat CPU 0 instructions: 249501269 cycles: 512115810 heartbeat IPC: 0.6239 cumulative IPC: 0.4001 (Simulation time: 00 hr 57 min 49 sec)
Simulation finished CPU 0 instructions: 200000002 cycles: 499189577 cumulative IPC: 0.4006 (Simulation time: 00 hr 57 min 53 sec)
Simulation complete CPU 0 instructions: 200000002 cycles: 499189577 cumulative IPC: 0.4006 (Simulation time: 00 hr 57 min 53 sec)

ChampSim completed all CPUs

=== Simulation ===
CPU 0 runs /local-ssd/ben/dpc4-traces/gtraces_v2/sierra.a.3_0001.champsim.gz

Region of Interest Statistics

CPU 0 cumulative IPC: 0.4006 instructions: 200000002 cycles: 499189577
CPU 0 Branch Prediction Accuracy: 86.47% MPKI: 22.58 Average ROB Occupancy at Mispredict: 20.68
Branch type MPKI
BRANCH_DIRECT_JUMP: 1.988
BRANCH_INDIRECT: 0.226
BRANCH_CONDITIONAL: 17.42
BRANCH_DIRECT_CALL: 1.537
BRANCH_INDIRECT_CALL: 0.364
BRANCH_RETURN: 1.052

cpu0->cpu0_STLB TOTAL        ACCESS:    3016787 HIT:    2339729 MISS:     677058 MSHR_MERGE:          0
cpu0->cpu0_STLB LOAD         ACCESS:    3016787 HIT:    2339729 MISS:     677058 MSHR_MERGE:          0
cpu0->cpu0_STLB RFO          ACCESS:          0 HIT:          0 MISS:          0 MSHR_MERGE:          0
cpu0->cpu0_STLB PREFETCH     ACCESS:          0 HIT:          0 MISS:          0 MSHR_MERGE:          0
cpu0->cpu0_STLB WRITE        ACCESS:          0 HIT:          0 MISS:          0 MSHR_MERGE:          0
cpu0->cpu0_STLB TRANSLATION  ACCESS:          0 HIT:          0 MISS:          0 MSHR_MERGE:          0
cpu0->cpu0_STLB PREFETCH REQUESTED:          0 ISSUED:          0 USEFUL:          0 USELESS:          0
cpu0->cpu0_STLB AVERAGE MISS LATENCY: 198.8 cycles
cpu0->cpu0_L2C TOTAL        ACCESS:   17368211 HIT:   12163284 MISS:    5204927 MSHR_MERGE:     779788
cpu0->cpu0_L2C LOAD         ACCESS:    7065105 HIT:    5030677 MISS:    2034428 MSHR_MERGE:      31981
cpu0->cpu0_L2C RFO          ACCESS:     962714 HIT:     538959 MISS:     423755 MSHR_MERGE:       3671
cpu0->cpu0_L2C PREFETCH     ACCESS:    6877918 HIT:    4478559 MISS:    2399359 MSHR_MERGE:     744136
cpu0->cpu0_L2C WRITE        ACCESS:    1677124 HIT:    1677041 MISS:         83 MSHR_MERGE:          0
cpu0->cpu0_L2C TRANSLATION  ACCESS:     785350 HIT:     438048 MISS:     347302 MSHR_MERGE:          0
cpu0->cpu0_L2C PREFETCH REQUESTED:    6275057 ISSUED:    5771000 USEFUL:     388507 USELESS:     862894
cpu0->cpu0_L2C AVERAGE MISS LATENCY: 255.7 cycles
cpu0->cpu0_L1I TOTAL        ACCESS:   20947224 HIT:   14361925 MISS:    6585299 MSHR_MERGE:    1539561
cpu0->cpu0_L1I LOAD         ACCESS:   20947224 HIT:   14361925 MISS:    6585299 MSHR_MERGE:    1539561
cpu0->cpu0_L1I RFO          ACCESS:          0 HIT:          0 MISS:          0 MSHR_MERGE:          0
cpu0->cpu0_L1I PREFETCH     ACCESS:          0 HIT:          0 MISS:          0 MSHR_MERGE:          0
cpu0->cpu0_L1I WRITE        ACCESS:          0 HIT:          0 MISS:          0 MSHR_MERGE:          0
cpu0->cpu0_L1I TRANSLATION  ACCESS:          0 HIT:          0 MISS:          0 MSHR_MERGE:          0
cpu0->cpu0_L1I PREFETCH REQUESTED:          0 ISSUED:          0 USEFUL:          0 USELESS:          0
cpu0->cpu0_L1I AVERAGE MISS LATENCY: 56.66 cycles
cpu0->cpu0_L1D TOTAL        ACCESS:   62243570 HIT:   54668207 MISS:    7575363 MSHR_MERGE:    2700943
cpu0->cpu0_L1D LOAD         ACCESS:   33943372 HIT:   31311002 MISS:    2632370 MSHR_MERGE:     612961
cpu0->cpu0_L1D RFO          ACCESS:          0 HIT:          0 MISS:          0 MSHR_MERGE:          0
cpu0->cpu0_L1D PREFETCH     ACCESS:    2834961 HIT:    1505037 MISS:    1329924 MSHR_MERGE:     222996
cpu0->cpu0_L1D WRITE        ACCESS:   23656389 HIT:   20834996 MISS:    2821393 MSHR_MERGE:    1858660
cpu0->cpu0_L1D TRANSLATION  ACCESS:    1808848 HIT:    1017172 MISS:     791676 MSHR_MERGE:       6326
cpu0->cpu0_L1D PREFETCH REQUESTED:   11250850 ISSUED:    2834954 USEFUL:     446055 USELESS:     660906
cpu0->cpu0_L1D AVERAGE MISS LATENCY: 135.6 cycles
cpu0->cpu0_ITLB TOTAL        ACCESS:   17061564 HIT:   16308467 MISS:     753097 MSHR_MERGE:     348832
cpu0->cpu0_ITLB LOAD         ACCESS:   17061564 HIT:   16308467 MISS:     753097 MSHR_MERGE:     348832
cpu0->cpu0_ITLB RFO          ACCESS:          0 HIT:          0 MISS:          0 MSHR_MERGE:          0
cpu0->cpu0_ITLB PREFETCH     ACCESS:          0 HIT:          0 MISS:          0 MSHR_MERGE:          0
cpu0->cpu0_ITLB WRITE        ACCESS:          0 HIT:          0 MISS:          0 MSHR_MERGE:          0
cpu0->cpu0_ITLB TRANSLATION  ACCESS:          0 HIT:          0 MISS:          0 MSHR_MERGE:          0
cpu0->cpu0_ITLB PREFETCH REQUESTED:          0 ISSUED:          0 USEFUL:          0 USELESS:          0
cpu0->cpu0_ITLB AVERAGE MISS LATENCY: 25.18 cycles
cpu0->cpu0_DTLB TOTAL        ACCESS:   57228234 HIT:   53086048 MISS:    4142186 MSHR_MERGE:    1529664
cpu0->cpu0_DTLB LOAD         ACCESS:   57228234 HIT:   53086048 MISS:    4142186 MSHR_MERGE:    1529664
cpu0->cpu0_DTLB RFO          ACCESS:          0 HIT:          0 MISS:          0 MSHR_MERGE:          0
cpu0->cpu0_DTLB PREFETCH     ACCESS:          0 HIT:          0 MISS:          0 MSHR_MERGE:          0
cpu0->cpu0_DTLB WRITE        ACCESS:          0 HIT:          0 MISS:          0 MSHR_MERGE:          0
cpu0->cpu0_DTLB TRANSLATION  ACCESS:          0 HIT:          0 MISS:          0 MSHR_MERGE:          0
cpu0->cpu0_DTLB PREFETCH REQUESTED:          0 ISSUED:          0 USEFUL:          0 USELESS:          0
cpu0->cpu0_DTLB AVERAGE MISS LATENCY: 53.66 cycles
cpu0->LLC TOTAL        ACCESS:    5196496 HIT:    1352114 MISS:    3844382 MSHR_MERGE:          0
cpu0->LLC LOAD         ACCESS:    2002447 HIT:     805321 MISS:    1197126 MSHR_MERGE:          0
cpu0->LLC RFO          ACCESS:     420084 HIT:      35595 MISS:     384489 MSHR_MERGE:          0
cpu0->LLC PREFETCH     ACCESS:    1655223 HIT:     188768 MISS:    1466455 MSHR_MERGE:          0
cpu0->LLC WRITE        ACCESS:     771440 HIT:     247207 MISS:     524233 MSHR_MERGE:          0
cpu0->LLC TRANSLATION  ACCESS:     347302 HIT:      75223 MISS:     272079 MSHR_MERGE:          0
cpu0->LLC PREFETCH REQUESTED:          0 ISSUED:          0 USEFUL:          0 USELESS:          0
cpu0->LLC AVERAGE MISS LATENCY: 274.6 cycles

DRAM Statistics

Channel 0 RQ ROW_BUFFER_HIT:     107971
  ROW_BUFFER_MISS:    3212060
  AVG DBUS CONGESTED CYCLE: 4.2
Channel 0 WQ ROW_BUFFER_HIT:     164335
  ROW_BUFFER_MISS:     508646
  FULL:          0
Channel 0 REFRESHES ISSUED:      41599
