[VMEM] WARNING: physical memory size is smaller than virtual memory size.

*** ChampSim Multicore Out-of-Order Simulator ***
Warmup Instructions: 50000000
Simulation Instructions: 200000000
Number of CPUs: 1
Page size: 4096
Core 0: /local-ssd/ben/dpc4-traces/ai-ml/vit.cpp-large-ggml-model-f16.gguf.armadillo.1.champsimtrace.gz
Off-chip DRAM Size: 64 GiB Channels: 1 Width: 64-bit Data Rate: 800 MT/s
Heartbeat CPU 0 instructions: 500001 cycles: 164289 heartbeat IPC: 3.043 cumulative IPC: 3.043 (Simulation time: 00 hr 00 min 05 sec)
Heartbeat CPU 0 instructions: 1000003 cycles: 323166 heartbeat IPC: 3.147 cumulative IPC: 3.094 (Simulation time: 00 hr 00 min 10 sec)
Heartbeat CPU 0 instructions: 1500007 cycles: 479725 heartbeat IPC: 3.194 cumulative IPC: 3.127 (Simulation time: 00 hr 00 min 14 sec)
Heartbeat CPU 0 instructions: 2000010 cycles: 637772 heartbeat IPC: 3.164 cumulative IPC: 3.136 (Simulation time: 00 hr 00 min 19 sec)
Heartbeat CPU 0 instructions: 2500011 cycles: 796210 heartbeat IPC: 3.156 cumulative IPC: 3.14 (Simulation time: 00 hr 00 min 23 sec)
Heartbeat CPU 0 instructions: 3000014 cycles: 956920 heartbeat IPC: 3.111 cumulative IPC: 3.135 (Simulation time: 00 hr 00 min 27 sec)
Heartbeat CPU 0 instructions: 3500017 cycles: 1116522 heartbeat IPC: 3.133 cumulative IPC: 3.135 (Simulation time: 00 hr 00 min 30 sec)
Heartbeat CPU 0 instructions: 4000018 cycles: 1275732 heartbeat IPC: 3.141 cumulative IPC: 3.135 (Simulation time: 00 hr 00 min 33 sec)
Heartbeat CPU 0 instructions: 4500020 cycles: 1435218 heartbeat IPC: 3.135 cumulative IPC: 3.135 (Simulation time: 00 hr 00 min 36 sec)
Heartbeat CPU 0 instructions: 5000020 cycles: 1593897 heartbeat IPC: 3.151 cumulative IPC: 3.137 (Simulation time: 00 hr 00 min 39 sec)
Heartbeat CPU 0 instructions: 5500023 cycles: 1753008 heartbeat IPC: 3.142 cumulative IPC: 3.137 (Simulation time: 00 hr 00 min 42 sec)
Heartbeat CPU 0 instructions: 6000027 cycles: 1911761 heartbeat IPC: 3.15 cumulative IPC: 3.138 (Simulation time: 00 hr 00 min 45 sec)
Heartbeat CPU 0 instructions: 6500029 cycles: 2070140 heartbeat IPC: 3.157 cumulative IPC: 3.14 (Simulation time: 00 hr 00 min 48 sec)
Heartbeat CPU 0 instructions: 7000034 cycles: 2228901 heartbeat IPC: 3.149 cumulative IPC: 3.141 (Simulation time: 00 hr 00 min 51 sec)
Heartbeat CPU 0 instructions: 7500040 cycles: 2387819 heartbeat IPC: 3.146 cumulative IPC: 3.141 (Simulation time: 00 hr 00 min 54 sec)
Heartbeat CPU 0 instructions: 8000041 cycles: 2546749 heartbeat IPC: 3.146 cumulative IPC: 3.141 (Simulation time: 00 hr 00 min 57 sec)
Heartbeat CPU 0 instructions: 8500043 cycles: 2705700 heartbeat IPC: 3.146 cumulative IPC: 3.142 (Simulation time: 00 hr 01 min 00 sec)
Heartbeat CPU 0 instructions: 9000044 cycles: 2862274 heartbeat IPC: 3.193 cumulative IPC: 3.144 (Simulation time: 00 hr 01 min 03 sec)
Heartbeat CPU 0 instructions: 9500045 cycles: 3020913 heartbeat IPC: 3.152 cumulative IPC: 3.145 (Simulation time: 00 hr 01 min 06 sec)
Heartbeat CPU 0 instructions: 10000046 cycles: 3180353 heartbeat IPC: 3.136 cumulative IPC: 3.144 (Simulation time: 00 hr 01 min 09 sec)
Heartbeat CPU 0 instructions: 10500053 cycles: 3338861 heartbeat IPC: 3.154 cumulative IPC: 3.145 (Simulation time: 00 hr 01 min 12 sec)
Heartbeat CPU 0 instructions: 11000054 cycles: 3497770 heartbeat IPC: 3.146 cumulative IPC: 3.145 (Simulation time: 00 hr 01 min 15 sec)
Heartbeat CPU 0 instructions: 11500055 cycles: 3656423 heartbeat IPC: 3.152 cumulative IPC: 3.145 (Simulation time: 00 hr 01 min 18 sec)
Heartbeat CPU 0 instructions: 12000061 cycles: 3815027 heartbeat IPC: 3.153 cumulative IPC: 3.145 (Simulation time: 00 hr 01 min 21 sec)
Heartbeat CPU 0 instructions: 12500066 cycles: 3974070 heartbeat IPC: 3.144 cumulative IPC: 3.145 (Simulation time: 00 hr 01 min 24 sec)
Heartbeat CPU 0 instructions: 13000067 cycles: 4132901 heartbeat IPC: 3.148 cumulative IPC: 3.146 (Simulation time: 00 hr 01 min 27 sec)
Heartbeat CPU 0 instructions: 13500068 cycles: 4292062 heartbeat IPC: 3.141 cumulative IPC: 3.145 (Simulation time: 00 hr 01 min 30 sec)
Heartbeat CPU 0 instructions: 14000075 cycles: 4451025 heartbeat IPC: 3.145 cumulative IPC: 3.145 (Simulation time: 00 hr 01 min 33 sec)
Heartbeat CPU 0 instructions: 14500075 cycles: 4609784 heartbeat IPC: 3.149 cumulative IPC: 3.145 (Simulation time: 00 hr 01 min 36 sec)
Heartbeat CPU 0 instructions: 15000078 cycles: 4769044 heartbeat IPC: 3.14 cumulative IPC: 3.145 (Simulation time: 00 hr 01 min 39 sec)
Heartbeat CPU 0 instructions: 15500083 cycles: 4927466 heartbeat IPC: 3.156 cumulative IPC: 3.146 (Simulation time: 00 hr 01 min 42 sec)
Heartbeat CPU 0 instructions: 16000088 cycles: 5085706 heartbeat IPC: 3.16 cumulative IPC: 3.146 (Simulation time: 00 hr 01 min 45 sec)
Heartbeat CPU 0 instructions: 16500094 cycles: 5242789 heartbeat IPC: 3.183 cumulative IPC: 3.147 (Simulation time: 00 hr 01 min 48 sec)
Heartbeat CPU 0 instructions: 17000096 cycles: 5402149 heartbeat IPC: 3.138 cumulative IPC: 3.147 (Simulation time: 00 hr 01 min 51 sec)
Heartbeat CPU 0 instructions: 17500101 cycles: 5560965 heartbeat IPC: 3.148 cumulative IPC: 3.147 (Simulation time: 00 hr 01 min 54 sec)
Heartbeat CPU 0 instructions: 18000102 cycles: 5696157 heartbeat IPC: 3.698 cumulative IPC: 3.16 (Simulation time: 00 hr 01 min 57 sec)
Heartbeat CPU 0 instructions: 18500108 cycles: 5847758 heartbeat IPC: 3.298 cumulative IPC: 3.164 (Simulation time: 00 hr 02 min 00 sec)
Heartbeat CPU 0 instructions: 19000108 cycles: 6006648 heartbeat IPC: 3.147 cumulative IPC: 3.163 (Simulation time: 00 hr 02 min 03 sec)
Heartbeat CPU 0 instructions: 19500111 cycles: 6166124 heartbeat IPC: 3.135 cumulative IPC: 3.162 (Simulation time: 00 hr 02 min 06 sec)
Heartbeat CPU 0 instructions: 20000115 cycles: 6324874 heartbeat IPC: 3.15 cumulative IPC: 3.162 (Simulation time: 00 hr 02 min 09 sec)
Heartbeat CPU 0 instructions: 20500121 cycles: 6484157 heartbeat IPC: 3.139 cumulative IPC: 3.162 (Simulation time: 00 hr 02 min 12 sec)
Heartbeat CPU 0 instructions: 21000127 cycles: 6643536 heartbeat IPC: 3.137 cumulative IPC: 3.161 (Simulation time: 00 hr 02 min 15 sec)
Heartbeat CPU 0 instructions: 21500132 cycles: 6802686 heartbeat IPC: 3.142 cumulative IPC: 3.161 (Simulation time: 00 hr 02 min 18 sec)
Heartbeat CPU 0 instructions: 22000133 cycles: 6961536 heartbeat IPC: 3.148 cumulative IPC: 3.16 (Simulation time: 00 hr 02 min 21 sec)
Heartbeat CPU 0 instructions: 22500140 cycles: 7120090 heartbeat IPC: 3.154 cumulative IPC: 3.16 (Simulation time: 00 hr 02 min 24 sec)
Heartbeat CPU 0 instructions: 23000145 cycles: 7278801 heartbeat IPC: 3.15 cumulative IPC: 3.16 (Simulation time: 00 hr 02 min 27 sec)
Heartbeat CPU 0 instructions: 23500145 cycles: 7436035 heartbeat IPC: 3.18 cumulative IPC: 3.16 (Simulation time: 00 hr 02 min 30 sec)
Heartbeat CPU 0 instructions: 24000148 cycles: 7594137 heartbeat IPC: 3.163 cumulative IPC: 3.16 (Simulation time: 00 hr 02 min 33 sec)
Heartbeat CPU 0 instructions: 24500149 cycles: 7725821 heartbeat IPC: 3.797 cumulative IPC: 3.171 (Simulation time: 00 hr 02 min 35 sec)
Heartbeat CPU 0 instructions: 25000149 cycles: 7881088 heartbeat IPC: 3.22 cumulative IPC: 3.172 (Simulation time: 00 hr 02 min 38 sec)
Heartbeat CPU 0 instructions: 25500151 cycles: 8039627 heartbeat IPC: 3.154 cumulative IPC: 3.172 (Simulation time: 00 hr 02 min 41 sec)
Heartbeat CPU 0 instructions: 26000156 cycles: 8198235 heartbeat IPC: 3.152 cumulative IPC: 3.171 (Simulation time: 00 hr 02 min 44 sec)
Heartbeat CPU 0 instructions: 26500158 cycles: 8356811 heartbeat IPC: 3.153 cumulative IPC: 3.171 (Simulation time: 00 hr 02 min 47 sec)
Heartbeat CPU 0 instructions: 27000163 cycles: 8516129 heartbeat IPC: 3.138 cumulative IPC: 3.17 (Simulation time: 00 hr 02 min 50 sec)
Heartbeat CPU 0 instructions: 27500169 cycles: 8675038 heartbeat IPC: 3.146 cumulative IPC: 3.17 (Simulation time: 00 hr 02 min 53 sec)
Heartbeat CPU 0 instructions: 28000175 cycles: 8833858 heartbeat IPC: 3.148 cumulative IPC: 3.17 (Simulation time: 00 hr 02 min 56 sec)
Heartbeat CPU 0 instructions: 28500175 cycles: 8993021 heartbeat IPC: 3.141 cumulative IPC: 3.169 (Simulation time: 00 hr 02 min 59 sec)
Heartbeat CPU 0 instructions: 29000178 cycles: 9151775 heartbeat IPC: 3.15 cumulative IPC: 3.169 (Simulation time: 00 hr 03 min 02 sec)
Heartbeat CPU 0 instructions: 29500178 cycles: 9310715 heartbeat IPC: 3.146 cumulative IPC: 3.168 (Simulation time: 00 hr 03 min 06 sec)
Heartbeat CPU 0 instructions: 30000181 cycles: 9469450 heartbeat IPC: 3.15 cumulative IPC: 3.168 (Simulation time: 00 hr 03 min 09 sec)
Heartbeat CPU 0 instructions: 30500182 cycles: 9628049 heartbeat IPC: 3.153 cumulative IPC: 3.168 (Simulation time: 00 hr 03 min 12 sec)
Heartbeat CPU 0 instructions: 31000183 cycles: 9784226 heartbeat IPC: 3.202 cumulative IPC: 3.168 (Simulation time: 00 hr 03 min 15 sec)
Heartbeat CPU 0 instructions: 31500186 cycles: 9943007 heartbeat IPC: 3.149 cumulative IPC: 3.168 (Simulation time: 00 hr 03 min 18 sec)
Heartbeat CPU 0 instructions: 32000186 cycles: 10102277 heartbeat IPC: 3.139 cumulative IPC: 3.168 (Simulation time: 00 hr 03 min 21 sec)
Heartbeat CPU 0 instructions: 32500187 cycles: 10261451 heartbeat IPC: 3.141 cumulative IPC: 3.167 (Simulation time: 00 hr 03 min 24 sec)
Heartbeat CPU 0 instructions: 33000193 cycles: 10420128 heartbeat IPC: 3.151 cumulative IPC: 3.167 (Simulation time: 00 hr 03 min 27 sec)
Heartbeat CPU 0 instructions: 33500199 cycles: 10579432 heartbeat IPC: 3.139 cumulative IPC: 3.167 (Simulation time: 00 hr 03 min 30 sec)
Heartbeat CPU 0 instructions: 34000204 cycles: 10738064 heartbeat IPC: 3.152 cumulative IPC: 3.166 (Simulation time: 00 hr 03 min 33 sec)
Heartbeat CPU 0 instructions: 34500209 cycles: 10894142 heartbeat IPC: 3.204 cumulative IPC: 3.167 (Simulation time: 00 hr 03 min 36 sec)
Heartbeat CPU 0 instructions: 35000215 cycles: 11050751 heartbeat IPC: 3.193 cumulative IPC: 3.167 (Simulation time: 00 hr 03 min 39 sec)
Heartbeat CPU 0 instructions: 35500216 cycles: 11206855 heartbeat IPC: 3.203 cumulative IPC: 3.168 (Simulation time: 00 hr 03 min 42 sec)
Heartbeat CPU 0 instructions: 36000221 cycles: 11363665 heartbeat IPC: 3.189 cumulative IPC: 3.168 (Simulation time: 00 hr 03 min 45 sec)
Heartbeat CPU 0 instructions: 36500227 cycles: 11519818 heartbeat IPC: 3.202 cumulative IPC: 3.168 (Simulation time: 00 hr 03 min 48 sec)
Heartbeat CPU 0 instructions: 37000228 cycles: 11674622 heartbeat IPC: 3.23 cumulative IPC: 3.169 (Simulation time: 00 hr 03 min 50 sec)
Heartbeat CPU 0 instructions: 37500232 cycles: 11830836 heartbeat IPC: 3.201 cumulative IPC: 3.17 (Simulation time: 00 hr 03 min 53 sec)
Heartbeat CPU 0 instructions: 38000238 cycles: 11986935 heartbeat IPC: 3.203 cumulative IPC: 3.17 (Simulation time: 00 hr 03 min 56 sec)
Heartbeat CPU 0 instructions: 38500239 cycles: 12142877 heartbeat IPC: 3.206 cumulative IPC: 3.171 (Simulation time: 00 hr 03 min 59 sec)
Heartbeat CPU 0 instructions: 39000241 cycles: 12299124 heartbeat IPC: 3.2 cumulative IPC: 3.171 (Simulation time: 00 hr 04 min 02 sec)
Heartbeat CPU 0 instructions: 39500243 cycles: 12455448 heartbeat IPC: 3.198 cumulative IPC: 3.171 (Simulation time: 00 hr 04 min 05 sec)
Heartbeat CPU 0 instructions: 40000247 cycles: 12611668 heartbeat IPC: 3.201 cumulative IPC: 3.172 (Simulation time: 00 hr 04 min 08 sec)
Heartbeat CPU 0 instructions: 40500254 cycles: 12767155 heartbeat IPC: 3.216 cumulative IPC: 3.172 (Simulation time: 00 hr 04 min 11 sec)
Heartbeat CPU 0 instructions: 41000259 cycles: 12923960 heartbeat IPC: 3.189 cumulative IPC: 3.172 (Simulation time: 00 hr 04 min 14 sec)
Heartbeat CPU 0 instructions: 41500260 cycles: 13080685 heartbeat IPC: 3.19 cumulative IPC: 3.173 (Simulation time: 00 hr 04 min 17 sec)
Heartbeat CPU 0 instructions: 42000261 cycles: 13236958 heartbeat IPC: 3.2 cumulative IPC: 3.173 (Simulation time: 00 hr 04 min 20 sec)
Heartbeat CPU 0 instructions: 42500267 cycles: 13393109 heartbeat IPC: 3.202 cumulative IPC: 3.173 (Simulation time: 00 hr 04 min 23 sec)
Heartbeat CPU 0 instructions: 43000268 cycles: 13549227 heartbeat IPC: 3.203 cumulative IPC: 3.174 (Simulation time: 00 hr 04 min 26 sec)
Heartbeat CPU 0 instructions: 43500273 cycles: 13705673 heartbeat IPC: 3.196 cumulative IPC: 3.174 (Simulation time: 00 hr 04 min 29 sec)
Heartbeat CPU 0 instructions: 44000275 cycles: 13861965 heartbeat IPC: 3.199 cumulative IPC: 3.174 (Simulation time: 00 hr 04 min 32 sec)
Heartbeat CPU 0 instructions: 44500281 cycles: 14018184 heartbeat IPC: 3.201 cumulative IPC: 3.174 (Simulation time: 00 hr 04 min 35 sec)
Heartbeat CPU 0 instructions: 45000283 cycles: 14174788 heartbeat IPC: 3.193 cumulative IPC: 3.175 (Simulation time: 00 hr 04 min 38 sec)
Heartbeat CPU 0 instructions: 45500284 cycles: 14330955 heartbeat IPC: 3.202 cumulative IPC: 3.175 (Simulation time: 00 hr 04 min 41 sec)
Heartbeat CPU 0 instructions: 46000285 cycles: 14487607 heartbeat IPC: 3.192 cumulative IPC: 3.175 (Simulation time: 00 hr 04 min 44 sec)
Heartbeat CPU 0 instructions: 46500291 cycles: 14644533 heartbeat IPC: 3.186 cumulative IPC: 3.175 (Simulation time: 00 hr 04 min 47 sec)
Heartbeat CPU 0 instructions: 47000296 cycles: 14800899 heartbeat IPC: 3.198 cumulative IPC: 3.176 (Simulation time: 00 hr 04 min 50 sec)
Heartbeat CPU 0 instructions: 47500302 cycles: 14956763 heartbeat IPC: 3.208 cumulative IPC: 3.176 (Simulation time: 00 hr 04 min 53 sec)
Heartbeat CPU 0 instructions: 48000303 cycles: 15112998 heartbeat IPC: 3.2 cumulative IPC: 3.176 (Simulation time: 00 hr 04 min 56 sec)
Heartbeat CPU 0 instructions: 48500304 cycles: 15269376 heartbeat IPC: 3.197 cumulative IPC: 3.176 (Simulation time: 00 hr 04 min 59 sec)
Heartbeat CPU 0 instructions: 49000309 cycles: 15425563 heartbeat IPC: 3.201 cumulative IPC: 3.177 (Simulation time: 00 hr 05 min 02 sec)
Heartbeat CPU 0 instructions: 49500310 cycles: 15581604 heartbeat IPC: 3.204 cumulative IPC: 3.177 (Simulation time: 00 hr 05 min 05 sec)
Warmup halting CPU 0 at instruction 50000005 cycle 15737529 for remainder of phase
Warmup finished CPU 0 instructions: 50000005 cycles: 15737529 cumulative IPC: 3.177 (Simulation time: 00 hr 05 min 08 sec)
Warmup complete CPU 0 instructions: 50000005 cycles: 15737529 cumulative IPC: 3.177 (Simulation time: 00 hr 05 min 08 sec)
Heartbeat CPU 0 instructions: 50000317 cycles: 15737568 heartbeat IPC: 3.206 cumulative IPC: 8 (Simulation time: 00 hr 05 min 08 sec)
Heartbeat CPU 0 instructions: 50500323 cycles: 15947722 heartbeat IPC: 2.379 cumulative IPC: 2.38 (Simulation time: 00 hr 05 min 11 sec)
Heartbeat CPU 0 instructions: 51000329 cycles: 16159736 heartbeat IPC: 2.358 cumulative IPC: 2.369 (Simulation time: 00 hr 05 min 14 sec)
Heartbeat CPU 0 instructions: 51500330 cycles: 16365034 heartbeat IPC: 2.435 cumulative IPC: 2.391 (Simulation time: 00 hr 05 min 17 sec)
Heartbeat CPU 0 instructions: 52000335 cycles: 16576737 heartbeat IPC: 2.362 cumulative IPC: 2.384 (Simulation time: 00 hr 05 min 20 sec)
Heartbeat CPU 0 instructions: 52500337 cycles: 16784770 heartbeat IPC: 2.403 cumulative IPC: 2.388 (Simulation time: 00 hr 05 min 23 sec)
Heartbeat CPU 0 instructions: 53000342 cycles: 16922062 heartbeat IPC: 3.642 cumulative IPC: 2.533 (Simulation time: 00 hr 05 min 26 sec)
Heartbeat CPU 0 instructions: 53500344 cycles: 17117154 heartbeat IPC: 2.563 cumulative IPC: 2.537 (Simulation time: 00 hr 05 min 29 sec)
Heartbeat CPU 0 instructions: 54000349 cycles: 17317125 heartbeat IPC: 2.5 cumulative IPC: 2.533 (Simulation time: 00 hr 05 min 32 sec)
Heartbeat CPU 0 instructions: 54500350 cycles: 17511835 heartbeat IPC: 2.568 cumulative IPC: 2.536 (Simulation time: 00 hr 05 min 35 sec)
Heartbeat CPU 0 instructions: 55000352 cycles: 17713053 heartbeat IPC: 2.485 cumulative IPC: 2.531 (Simulation time: 00 hr 05 min 38 sec)
Heartbeat CPU 0 instructions: 55500353 cycles: 17900913 heartbeat IPC: 2.662 cumulative IPC: 2.542 (Simulation time: 00 hr 05 min 41 sec)
Heartbeat CPU 0 instructions: 56000355 cycles: 18098905 heartbeat IPC: 2.525 cumulative IPC: 2.541 (Simulation time: 00 hr 05 min 44 sec)
Heartbeat CPU 0 instructions: 56500356 cycles: 18292222 heartbeat IPC: 2.586 cumulative IPC: 2.544 (Simulation time: 00 hr 05 min 47 sec)
Heartbeat CPU 0 instructions: 57000358 cycles: 18486378 heartbeat IPC: 2.575 cumulative IPC: 2.547 (Simulation time: 00 hr 05 min 50 sec)
Heartbeat CPU 0 instructions: 57500359 cycles: 18668810 heartbeat IPC: 2.741 cumulative IPC: 2.559 (Simulation time: 00 hr 05 min 52 sec)
Heartbeat CPU 0 instructions: 58000359 cycles: 18848539 heartbeat IPC: 2.782 cumulative IPC: 2.572 (Simulation time: 00 hr 05 min 55 sec)
Heartbeat CPU 0 instructions: 58500364 cycles: 19028125 heartbeat IPC: 2.784 cumulative IPC: 2.583 (Simulation time: 00 hr 05 min 58 sec)
Heartbeat CPU 0 instructions: 59000371 cycles: 19195709 heartbeat IPC: 2.984 cumulative IPC: 2.603 (Simulation time: 00 hr 06 min 01 sec)
Heartbeat CPU 0 instructions: 59500373 cycles: 19369023 heartbeat IPC: 2.885 cumulative IPC: 2.616 (Simulation time: 00 hr 06 min 04 sec)
Heartbeat CPU 0 instructions: 60000374 cycles: 19526725 heartbeat IPC: 3.171 cumulative IPC: 2.639 (Simulation time: 00 hr 06 min 06 sec)
Heartbeat CPU 0 instructions: 60500378 cycles: 19661471 heartbeat IPC: 3.711 cumulative IPC: 2.676 (Simulation time: 00 hr 06 min 09 sec)
Heartbeat CPU 0 instructions: 61000385 cycles: 19827818 heartbeat IPC: 3.006 cumulative IPC: 2.689 (Simulation time: 00 hr 06 min 11 sec)
Heartbeat CPU 0 instructions: 61500385 cycles: 19985769 heartbeat IPC: 3.166 cumulative IPC: 2.707 (Simulation time: 00 hr 06 min 14 sec)
Heartbeat CPU 0 instructions: 62000392 cycles: 20147111 heartbeat IPC: 3.099 cumulative IPC: 2.721 (Simulation time: 00 hr 06 min 16 sec)
Heartbeat CPU 0 instructions: 62500393 cycles: 20310470 heartbeat IPC: 3.061 cumulative IPC: 2.734 (Simulation time: 00 hr 06 min 19 sec)
Heartbeat CPU 0 instructions: 63000400 cycles: 20466569 heartbeat IPC: 3.203 cumulative IPC: 2.749 (Simulation time: 00 hr 06 min 22 sec)
Heartbeat CPU 0 instructions: 63500400 cycles: 20623351 heartbeat IPC: 3.189 cumulative IPC: 2.763 (Simulation time: 00 hr 06 min 24 sec)
Heartbeat CPU 0 instructions: 64000402 cycles: 20780196 heartbeat IPC: 3.188 cumulative IPC: 2.776 (Simulation time: 00 hr 06 min 27 sec)
Heartbeat CPU 0 instructions: 64500403 cycles: 20935210 heartbeat IPC: 3.226 cumulative IPC: 2.79 (Simulation time: 00 hr 06 min 29 sec)
Heartbeat CPU 0 instructions: 65000405 cycles: 21091587 heartbeat IPC: 3.197 cumulative IPC: 2.802 (Simulation time: 00 hr 06 min 32 sec)
Heartbeat CPU 0 instructions: 65500406 cycles: 21248051 heartbeat IPC: 3.196 cumulative IPC: 2.813 (Simulation time: 00 hr 06 min 35 sec)
Heartbeat CPU 0 instructions: 66000411 cycles: 21404203 heartbeat IPC: 3.202 cumulative IPC: 2.824 (Simulation time: 00 hr 06 min 37 sec)
Heartbeat CPU 0 instructions: 66500417 cycles: 21559921 heartbeat IPC: 3.211 cumulative IPC: 2.834 (Simulation time: 00 hr 06 min 40 sec)
Heartbeat CPU 0 instructions: 67000422 cycles: 21715544 heartbeat IPC: 3.213 cumulative IPC: 2.844 (Simulation time: 00 hr 06 min 42 sec)
Heartbeat CPU 0 instructions: 67500427 cycles: 21857653 heartbeat IPC: 3.518 cumulative IPC: 2.859 (Simulation time: 00 hr 06 min 45 sec)
Heartbeat CPU 0 instructions: 68000433 cycles: 22003068 heartbeat IPC: 3.438 cumulative IPC: 2.873 (Simulation time: 00 hr 06 min 47 sec)
Heartbeat CPU 0 instructions: 68500439 cycles: 22158753 heartbeat IPC: 3.212 cumulative IPC: 2.881 (Simulation time: 00 hr 06 min 50 sec)
Heartbeat CPU 0 instructions: 69000444 cycles: 22361228 heartbeat IPC: 2.469 cumulative IPC: 2.869 (Simulation time: 00 hr 06 min 53 sec)
Heartbeat CPU 0 instructions: 69500449 cycles: 22571940 heartbeat IPC: 2.373 cumulative IPC: 2.853 (Simulation time: 00 hr 06 min 56 sec)
Heartbeat CPU 0 instructions: 70000449 cycles: 22775440 heartbeat IPC: 2.457 cumulative IPC: 2.842 (Simulation time: 00 hr 06 min 59 sec)
Heartbeat CPU 0 instructions: 70500450 cycles: 22979541 heartbeat IPC: 2.45 cumulative IPC: 2.831 (Simulation time: 00 hr 07 min 02 sec)
Heartbeat CPU 0 instructions: 71000452 cycles: 23183884 heartbeat IPC: 2.447 cumulative IPC: 2.82 (Simulation time: 00 hr 07 min 05 sec)
Heartbeat CPU 0 instructions: 71500458 cycles: 23428062 heartbeat IPC: 2.048 cumulative IPC: 2.796 (Simulation time: 00 hr 07 min 09 sec)
Heartbeat CPU 0 instructions: 72000464 cycles: 23668827 heartbeat IPC: 2.077 cumulative IPC: 2.774 (Simulation time: 00 hr 07 min 12 sec)
Heartbeat CPU 0 instructions: 72500466 cycles: 23870645 heartbeat IPC: 2.477 cumulative IPC: 2.767 (Simulation time: 00 hr 07 min 15 sec)
Heartbeat CPU 0 instructions: 73000470 cycles: 24073969 heartbeat IPC: 2.459 cumulative IPC: 2.759 (Simulation time: 00 hr 07 min 18 sec)
Heartbeat CPU 0 instructions: 73500472 cycles: 24276239 heartbeat IPC: 2.472 cumulative IPC: 2.752 (Simulation time: 00 hr 07 min 21 sec)
Heartbeat CPU 0 instructions: 74000477 cycles: 24478132 heartbeat IPC: 2.477 cumulative IPC: 2.746 (Simulation time: 00 hr 07 min 24 sec)
Heartbeat CPU 0 instructions: 74500479 cycles: 24681072 heartbeat IPC: 2.464 cumulative IPC: 2.739 (Simulation time: 00 hr 07 min 27 sec)
Heartbeat CPU 0 instructions: 75000484 cycles: 24822887 heartbeat IPC: 3.526 cumulative IPC: 2.752 (Simulation time: 00 hr 07 min 30 sec)
Heartbeat CPU 0 instructions: 75500490 cycles: 25017757 heartbeat IPC: 2.566 cumulative IPC: 2.748 (Simulation time: 00 hr 07 min 33 sec)
Heartbeat CPU 0 instructions: 76000497 cycles: 25220608 heartbeat IPC: 2.465 cumulative IPC: 2.742 (Simulation time: 00 hr 07 min 36 sec)
Heartbeat CPU 0 instructions: 76500504 cycles: 25424171 heartbeat IPC: 2.456 cumulative IPC: 2.736 (Simulation time: 00 hr 07 min 39 sec)
Heartbeat CPU 0 instructions: 77000507 cycles: 25629711 heartbeat IPC: 2.433 cumulative IPC: 2.729 (Simulation time: 00 hr 07 min 42 sec)
Heartbeat CPU 0 instructions: 77500507 cycles: 25835761 heartbeat IPC: 2.427 cumulative IPC: 2.723 (Simulation time: 00 hr 07 min 45 sec)
Heartbeat CPU 0 instructions: 78000509 cycles: 26043764 heartbeat IPC: 2.404 cumulative IPC: 2.717 (Simulation time: 00 hr 07 min 48 sec)
Heartbeat CPU 0 instructions: 78500510 cycles: 26248064 heartbeat IPC: 2.447 cumulative IPC: 2.712 (Simulation time: 00 hr 07 min 51 sec)
Heartbeat CPU 0 instructions: 79000512 cycles: 26454843 heartbeat IPC: 2.418 cumulative IPC: 2.706 (Simulation time: 00 hr 07 min 54 sec)
Heartbeat CPU 0 instructions: 79500513 cycles: 26661442 heartbeat IPC: 2.42 cumulative IPC: 2.701 (Simulation time: 00 hr 07 min 57 sec)
Heartbeat CPU 0 instructions: 80000519 cycles: 26867359 heartbeat IPC: 2.428 cumulative IPC: 2.696 (Simulation time: 00 hr 08 min 00 sec)
Heartbeat CPU 0 instructions: 80500524 cycles: 27074320 heartbeat IPC: 2.416 cumulative IPC: 2.69 (Simulation time: 00 hr 08 min 03 sec)
Heartbeat CPU 0 instructions: 81000527 cycles: 27284934 heartbeat IPC: 2.374 cumulative IPC: 2.685 (Simulation time: 00 hr 08 min 07 sec)
Heartbeat CPU 0 instructions: 81500527 cycles: 27494292 heartbeat IPC: 2.388 cumulative IPC: 2.679 (Simulation time: 00 hr 08 min 10 sec)
Heartbeat CPU 0 instructions: 82000532 cycles: 27692304 heartbeat IPC: 2.525 cumulative IPC: 2.677 (Simulation time: 00 hr 08 min 13 sec)
Heartbeat CPU 0 instructions: 82500536 cycles: 27832099 heartbeat IPC: 3.577 cumulative IPC: 2.687 (Simulation time: 00 hr 08 min 15 sec)
Heartbeat CPU 0 instructions: 83000539 cycles: 28043675 heartbeat IPC: 2.363 cumulative IPC: 2.682 (Simulation time: 00 hr 08 min 18 sec)
Heartbeat CPU 0 instructions: 83500540 cycles: 28253023 heartbeat IPC: 2.388 cumulative IPC: 2.677 (Simulation time: 00 hr 08 min 21 sec)
Heartbeat CPU 0 instructions: 84000542 cycles: 28463812 heartbeat IPC: 2.372 cumulative IPC: 2.672 (Simulation time: 00 hr 08 min 25 sec)
Heartbeat CPU 0 instructions: 84500547 cycles: 28673695 heartbeat IPC: 2.382 cumulative IPC: 2.667 (Simulation time: 00 hr 08 min 28 sec)
Heartbeat CPU 0 instructions: 85000549 cycles: 28883309 heartbeat IPC: 2.385 cumulative IPC: 2.662 (Simulation time: 00 hr 08 min 31 sec)
Heartbeat CPU 0 instructions: 85500552 cycles: 29095039 heartbeat IPC: 2.362 cumulative IPC: 2.658 (Simulation time: 00 hr 08 min 34 sec)
Heartbeat CPU 0 instructions: 86000552 cycles: 29301051 heartbeat IPC: 2.427 cumulative IPC: 2.654 (Simulation time: 00 hr 08 min 37 sec)
Heartbeat CPU 0 instructions: 86500553 cycles: 29512930 heartbeat IPC: 2.36 cumulative IPC: 2.65 (Simulation time: 00 hr 08 min 40 sec)
Heartbeat CPU 0 instructions: 87000556 cycles: 29722660 heartbeat IPC: 2.384 cumulative IPC: 2.646 (Simulation time: 00 hr 08 min 43 sec)
Heartbeat CPU 0 instructions: 87500556 cycles: 29921381 heartbeat IPC: 2.516 cumulative IPC: 2.644 (Simulation time: 00 hr 08 min 46 sec)
Heartbeat CPU 0 instructions: 88000559 cycles: 30122271 heartbeat IPC: 2.489 cumulative IPC: 2.642 (Simulation time: 00 hr 08 min 49 sec)
Heartbeat CPU 0 instructions: 88500561 cycles: 30316957 heartbeat IPC: 2.568 cumulative IPC: 2.641 (Simulation time: 00 hr 08 min 52 sec)
Heartbeat CPU 0 instructions: 89000568 cycles: 30517317 heartbeat IPC: 2.496 cumulative IPC: 2.639 (Simulation time: 00 hr 08 min 55 sec)
Heartbeat CPU 0 instructions: 89500570 cycles: 30681968 heartbeat IPC: 3.037 cumulative IPC: 2.643 (Simulation time: 00 hr 08 min 58 sec)
Heartbeat CPU 0 instructions: 90000577 cycles: 30838892 heartbeat IPC: 3.186 cumulative IPC: 2.649 (Simulation time: 00 hr 09 min 01 sec)
Heartbeat CPU 0 instructions: 90500581 cycles: 31036614 heartbeat IPC: 2.529 cumulative IPC: 2.647 (Simulation time: 00 hr 09 min 04 sec)
Heartbeat CPU 0 instructions: 91000582 cycles: 31230764 heartbeat IPC: 2.575 cumulative IPC: 2.646 (Simulation time: 00 hr 09 min 07 sec)
Heartbeat CPU 0 instructions: 91500583 cycles: 31425770 heartbeat IPC: 2.564 cumulative IPC: 2.645 (Simulation time: 00 hr 09 min 10 sec)
Heartbeat CPU 0 instructions: 92000585 cycles: 31609216 heartbeat IPC: 2.726 cumulative IPC: 2.646 (Simulation time: 00 hr 09 min 12 sec)
Heartbeat CPU 0 instructions: 92500586 cycles: 31788990 heartbeat IPC: 2.781 cumulative IPC: 2.648 (Simulation time: 00 hr 09 min 15 sec)
Heartbeat CPU 0 instructions: 93000588 cycles: 31968528 heartbeat IPC: 2.785 cumulative IPC: 2.649 (Simulation time: 00 hr 09 min 18 sec)
Heartbeat CPU 0 instructions: 93500589 cycles: 32134353 heartbeat IPC: 3.015 cumulative IPC: 2.653 (Simulation time: 00 hr 09 min 21 sec)
Heartbeat CPU 0 instructions: 94000595 cycles: 32309553 heartbeat IPC: 2.854 cumulative IPC: 2.655 (Simulation time: 00 hr 09 min 23 sec)
Heartbeat CPU 0 instructions: 94500596 cycles: 32471967 heartbeat IPC: 3.079 cumulative IPC: 2.659 (Simulation time: 00 hr 09 min 26 sec)
Heartbeat CPU 0 instructions: 95000597 cycles: 32638871 heartbeat IPC: 2.996 cumulative IPC: 2.663 (Simulation time: 00 hr 09 min 29 sec)
Heartbeat CPU 0 instructions: 95500600 cycles: 32796643 heartbeat IPC: 3.169 cumulative IPC: 2.667 (Simulation time: 00 hr 09 min 31 sec)
Heartbeat CPU 0 instructions: 96000604 cycles: 32958214 heartbeat IPC: 3.095 cumulative IPC: 2.671 (Simulation time: 00 hr 09 min 34 sec)
Heartbeat CPU 0 instructions: 96500606 cycles: 33121889 heartbeat IPC: 3.055 cumulative IPC: 2.675 (Simulation time: 00 hr 09 min 37 sec)
Heartbeat CPU 0 instructions: 97000611 cycles: 33258209 heartbeat IPC: 3.668 cumulative IPC: 2.683 (Simulation time: 00 hr 09 min 39 sec)
Heartbeat CPU 0 instructions: 97500615 cycles: 33410064 heartbeat IPC: 3.293 cumulative IPC: 2.688 (Simulation time: 00 hr 09 min 42 sec)
Heartbeat CPU 0 instructions: 98000622 cycles: 33567698 heartbeat IPC: 3.172 cumulative IPC: 2.692 (Simulation time: 00 hr 09 min 44 sec)
Heartbeat CPU 0 instructions: 98500623 cycles: 33723780 heartbeat IPC: 3.203 cumulative IPC: 2.697 (Simulation time: 00 hr 09 min 47 sec)
Heartbeat CPU 0 instructions: 99000625 cycles: 33879695 heartbeat IPC: 3.207 cumulative IPC: 2.701 (Simulation time: 00 hr 09 min 49 sec)
Heartbeat CPU 0 instructions: 99500626 cycles: 34036517 heartbeat IPC: 3.188 cumulative IPC: 2.705 (Simulation time: 00 hr 09 min 52 sec)
Heartbeat CPU 0 instructions: 100000628 cycles: 34191000 heartbeat IPC: 3.237 cumulative IPC: 2.71 (Simulation time: 00 hr 09 min 54 sec)
Heartbeat CPU 0 instructions: 100500629 cycles: 34348137 heartbeat IPC: 3.182 cumulative IPC: 2.714 (Simulation time: 00 hr 09 min 57 sec)
Heartbeat CPU 0 instructions: 101000633 cycles: 34504462 heartbeat IPC: 3.198 cumulative IPC: 2.718 (Simulation time: 00 hr 10 min 00 sec)
Heartbeat CPU 0 instructions: 101500636 cycles: 34660067 heartbeat IPC: 3.213 cumulative IPC: 2.722 (Simulation time: 00 hr 10 min 02 sec)
Heartbeat CPU 0 instructions: 102000637 cycles: 34815481 heartbeat IPC: 3.217 cumulative IPC: 2.726 (Simulation time: 00 hr 10 min 05 sec)
Heartbeat CPU 0 instructions: 102500641 cycles: 34971695 heartbeat IPC: 3.201 cumulative IPC: 2.73 (Simulation time: 00 hr 10 min 07 sec)
Heartbeat CPU 0 instructions: 103000641 cycles: 35175831 heartbeat IPC: 2.449 cumulative IPC: 2.727 (Simulation time: 00 hr 10 min 10 sec)
Heartbeat CPU 0 instructions: 103500642 cycles: 35389440 heartbeat IPC: 2.341 cumulative IPC: 2.722 (Simulation time: 00 hr 10 min 13 sec)
Heartbeat CPU 0 instructions: 104000643 cycles: 35589668 heartbeat IPC: 2.497 cumulative IPC: 2.72 (Simulation time: 00 hr 10 min 17 sec)
Heartbeat CPU 0 instructions: 104500649 cycles: 35723980 heartbeat IPC: 3.723 cumulative IPC: 2.727 (Simulation time: 00 hr 10 min 19 sec)
Heartbeat CPU 0 instructions: 105000655 cycles: 35928886 heartbeat IPC: 2.44 cumulative IPC: 2.724 (Simulation time: 00 hr 10 min 22 sec)
Heartbeat CPU 0 instructions: 105500660 cycles: 36131365 heartbeat IPC: 2.469 cumulative IPC: 2.721 (Simulation time: 00 hr 10 min 25 sec)
Heartbeat CPU 0 instructions: 106000660 cycles: 36500735 heartbeat IPC: 1.354 cumulative IPC: 2.697 (Simulation time: 00 hr 10 min 30 sec)
Heartbeat CPU 0 instructions: 106500663 cycles: 36844726 heartbeat IPC: 1.454 cumulative IPC: 2.677 (Simulation time: 00 hr 10 min 34 sec)
Heartbeat CPU 0 instructions: 107000667 cycles: 37191756 heartbeat IPC: 1.441 cumulative IPC: 2.657 (Simulation time: 00 hr 10 min 39 sec)
Heartbeat CPU 0 instructions: 107500670 cycles: 37541899 heartbeat IPC: 1.428 cumulative IPC: 2.637 (Simulation time: 00 hr 10 min 43 sec)
Heartbeat CPU 0 instructions: 108000670 cycles: 37897308 heartbeat IPC: 1.407 cumulative IPC: 2.617 (Simulation time: 00 hr 10 min 48 sec)
Heartbeat CPU 0 instructions: 108500677 cycles: 38256238 heartbeat IPC: 1.393 cumulative IPC: 2.598 (Simulation time: 00 hr 10 min 52 sec)
Heartbeat CPU 0 instructions: 109000681 cycles: 38618279 heartbeat IPC: 1.381 cumulative IPC: 2.579 (Simulation time: 00 hr 10 min 57 sec)
Heartbeat CPU 0 instructions: 109500686 cycles: 38987611 heartbeat IPC: 1.354 cumulative IPC: 2.559 (Simulation time: 00 hr 11 min 02 sec)
Heartbeat CPU 0 instructions: 110000691 cycles: 39355544 heartbeat IPC: 1.359 cumulative IPC: 2.54 (Simulation time: 00 hr 11 min 07 sec)
Heartbeat CPU 0 instructions: 110500697 cycles: 39717200 heartbeat IPC: 1.383 cumulative IPC: 2.523 (Simulation time: 00 hr 11 min 11 sec)
Heartbeat CPU 0 instructions: 111000702 cycles: 40049398 heartbeat IPC: 1.505 cumulative IPC: 2.509 (Simulation time: 00 hr 11 min 16 sec)
Heartbeat CPU 0 instructions: 111500708 cycles: 40373978 heartbeat IPC: 1.54 cumulative IPC: 2.496 (Simulation time: 00 hr 11 min 20 sec)
Heartbeat CPU 0 instructions: 112000713 cycles: 40680047 heartbeat IPC: 1.634 cumulative IPC: 2.486 (Simulation time: 00 hr 11 min 24 sec)
Heartbeat CPU 0 instructions: 112500714 cycles: 40943995 heartbeat IPC: 1.894 cumulative IPC: 2.48 (Simulation time: 00 hr 11 min 28 sec)
Heartbeat CPU 0 instructions: 113000720 cycles: 41183998 heartbeat IPC: 2.083 cumulative IPC: 2.476 (Simulation time: 00 hr 11 min 31 sec)
Heartbeat CPU 0 instructions: 113500724 cycles: 41407178 heartbeat IPC: 2.24 cumulative IPC: 2.474 (Simulation time: 00 hr 11 min 34 sec)
Heartbeat CPU 0 instructions: 114000731 cycles: 41613441 heartbeat IPC: 2.424 cumulative IPC: 2.473 (Simulation time: 00 hr 11 min 37 sec)
Heartbeat CPU 0 instructions: 114500737 cycles: 41818214 heartbeat IPC: 2.442 cumulative IPC: 2.473 (Simulation time: 00 hr 11 min 40 sec)
Heartbeat CPU 0 instructions: 115000738 cycles: 42022124 heartbeat IPC: 2.452 cumulative IPC: 2.473 (Simulation time: 00 hr 11 min 44 sec)
Heartbeat CPU 0 instructions: 115500745 cycles: 42266003 heartbeat IPC: 2.05 cumulative IPC: 2.469 (Simulation time: 00 hr 11 min 47 sec)
Heartbeat CPU 0 instructions: 116000745 cycles: 42610659 heartbeat IPC: 1.451 cumulative IPC: 2.456 (Simulation time: 00 hr 11 min 51 sec)
Heartbeat CPU 0 instructions: 116500746 cycles: 43403556 heartbeat IPC: 0.6306 cumulative IPC: 2.404 (Simulation time: 00 hr 12 min 00 sec)
Heartbeat CPU 0 instructions: 117000753 cycles: 43984759 heartbeat IPC: 0.8603 cumulative IPC: 2.372 (Simulation time: 00 hr 12 min 07 sec)
Heartbeat CPU 0 instructions: 117500753 cycles: 44120737 heartbeat IPC: 3.677 cumulative IPC: 2.378 (Simulation time: 00 hr 12 min 09 sec)
Heartbeat CPU 0 instructions: 118000753 cycles: 44259082 heartbeat IPC: 3.614 cumulative IPC: 2.384 (Simulation time: 00 hr 12 min 11 sec)
Heartbeat CPU 0 instructions: 118500754 cycles: 44395908 heartbeat IPC: 3.654 cumulative IPC: 2.39 (Simulation time: 00 hr 12 min 13 sec)
Heartbeat CPU 0 instructions: 119000757 cycles: 44531615 heartbeat IPC: 3.684 cumulative IPC: 2.396 (Simulation time: 00 hr 12 min 15 sec)
Heartbeat CPU 0 instructions: 119500760 cycles: 44668030 heartbeat IPC: 3.665 cumulative IPC: 2.402 (Simulation time: 00 hr 12 min 17 sec)
Heartbeat CPU 0 instructions: 120000765 cycles: 45068863 heartbeat IPC: 1.247 cumulative IPC: 2.387 (Simulation time: 00 hr 12 min 22 sec)
Heartbeat CPU 0 instructions: 120500771 cycles: 45343663 heartbeat IPC: 1.82 cumulative IPC: 2.381 (Simulation time: 00 hr 12 min 26 sec)
Heartbeat CPU 0 instructions: 121000777 cycles: 45546312 heartbeat IPC: 2.467 cumulative IPC: 2.382 (Simulation time: 00 hr 12 min 28 sec)
Heartbeat CPU 0 instructions: 121500781 cycles: 45762860 heartbeat IPC: 2.309 cumulative IPC: 2.381 (Simulation time: 00 hr 12 min 31 sec)
Heartbeat CPU 0 instructions: 122000781 cycles: 45986898 heartbeat IPC: 2.232 cumulative IPC: 2.38 (Simulation time: 00 hr 12 min 34 sec)
Heartbeat CPU 0 instructions: 122500781 cycles: 46224895 heartbeat IPC: 2.101 cumulative IPC: 2.378 (Simulation time: 00 hr 12 min 37 sec)
Heartbeat CPU 0 instructions: 123000786 cycles: 46431093 heartbeat IPC: 2.425 cumulative IPC: 2.378 (Simulation time: 00 hr 12 min 40 sec)
Heartbeat CPU 0 instructions: 123500786 cycles: 46670853 heartbeat IPC: 2.085 cumulative IPC: 2.376 (Simulation time: 00 hr 12 min 43 sec)
Heartbeat CPU 0 instructions: 124000789 cycles: 46880391 heartbeat IPC: 2.386 cumulative IPC: 2.376 (Simulation time: 00 hr 12 min 46 sec)
Heartbeat CPU 0 instructions: 124500792 cycles: 47125192 heartbeat IPC: 2.042 cumulative IPC: 2.374 (Simulation time: 00 hr 12 min 49 sec)
Heartbeat CPU 0 instructions: 125000795 cycles: 47332288 heartbeat IPC: 2.414 cumulative IPC: 2.374 (Simulation time: 00 hr 12 min 52 sec)
Heartbeat CPU 0 instructions: 125500802 cycles: 47565122 heartbeat IPC: 2.147 cumulative IPC: 2.372 (Simulation time: 00 hr 12 min 55 sec)
Heartbeat CPU 0 instructions: 126000806 cycles: 47786480 heartbeat IPC: 2.259 cumulative IPC: 2.371 (Simulation time: 00 hr 12 min 58 sec)
Heartbeat CPU 0 instructions: 126500808 cycles: 48006345 heartbeat IPC: 2.274 cumulative IPC: 2.371 (Simulation time: 00 hr 13 min 01 sec)
Heartbeat CPU 0 instructions: 127000809 cycles: 48232671 heartbeat IPC: 2.209 cumulative IPC: 2.37 (Simulation time: 00 hr 13 min 04 sec)
Heartbeat CPU 0 instructions: 127500809 cycles: 48468162 heartbeat IPC: 2.123 cumulative IPC: 2.368 (Simulation time: 00 hr 13 min 07 sec)
Heartbeat CPU 0 instructions: 128000816 cycles: 48661661 heartbeat IPC: 2.584 cumulative IPC: 2.369 (Simulation time: 00 hr 13 min 10 sec)
Heartbeat CPU 0 instructions: 128500823 cycles: 48892663 heartbeat IPC: 2.165 cumulative IPC: 2.368 (Simulation time: 00 hr 13 min 13 sec)
Heartbeat CPU 0 instructions: 129000826 cycles: 49097124 heartbeat IPC: 2.445 cumulative IPC: 2.368 (Simulation time: 00 hr 13 min 16 sec)
Heartbeat CPU 0 instructions: 129500831 cycles: 49313438 heartbeat IPC: 2.311 cumulative IPC: 2.368 (Simulation time: 00 hr 13 min 19 sec)
Heartbeat CPU 0 instructions: 130000832 cycles: 49503639 heartbeat IPC: 2.629 cumulative IPC: 2.369 (Simulation time: 00 hr 13 min 22 sec)
Heartbeat CPU 0 instructions: 130500833 cycles: 49714559 heartbeat IPC: 2.371 cumulative IPC: 2.369 (Simulation time: 00 hr 13 min 24 sec)
Heartbeat CPU 0 instructions: 131000836 cycles: 49909261 heartbeat IPC: 2.568 cumulative IPC: 2.37 (Simulation time: 00 hr 13 min 27 sec)
Heartbeat CPU 0 instructions: 131500836 cycles: 50111026 heartbeat IPC: 2.478 cumulative IPC: 2.371 (Simulation time: 00 hr 13 min 30 sec)
Heartbeat CPU 0 instructions: 132000837 cycles: 50308263 heartbeat IPC: 2.535 cumulative IPC: 2.372 (Simulation time: 00 hr 13 min 33 sec)
Heartbeat CPU 0 instructions: 132500838 cycles: 50505139 heartbeat IPC: 2.54 cumulative IPC: 2.373 (Simulation time: 00 hr 13 min 35 sec)
Heartbeat CPU 0 instructions: 133000841 cycles: 50711359 heartbeat IPC: 2.425 cumulative IPC: 2.373 (Simulation time: 00 hr 13 min 38 sec)
Heartbeat CPU 0 instructions: 133500846 cycles: 50901794 heartbeat IPC: 2.626 cumulative IPC: 2.375 (Simulation time: 00 hr 13 min 41 sec)
Heartbeat CPU 0 instructions: 134000849 cycles: 51112838 heartbeat IPC: 2.369 cumulative IPC: 2.375 (Simulation time: 00 hr 13 min 44 sec)
Heartbeat CPU 0 instructions: 134500852 cycles: 51302962 heartbeat IPC: 2.63 cumulative IPC: 2.376 (Simulation time: 00 hr 13 min 46 sec)
Heartbeat CPU 0 instructions: 135000852 cycles: 51513755 heartbeat IPC: 2.372 cumulative IPC: 2.376 (Simulation time: 00 hr 13 min 49 sec)
Heartbeat CPU 0 instructions: 135500855 cycles: 51704238 heartbeat IPC: 2.625 cumulative IPC: 2.377 (Simulation time: 00 hr 13 min 52 sec)
Heartbeat CPU 0 instructions: 136000858 cycles: 51915432 heartbeat IPC: 2.368 cumulative IPC: 2.377 (Simulation time: 00 hr 13 min 55 sec)
Heartbeat CPU 0 instructions: 136500865 cycles: 52105559 heartbeat IPC: 2.63 cumulative IPC: 2.378 (Simulation time: 00 hr 13 min 58 sec)
Heartbeat CPU 0 instructions: 137000872 cycles: 52315599 heartbeat IPC: 2.381 cumulative IPC: 2.378 (Simulation time: 00 hr 14 min 00 sec)
Heartbeat CPU 0 instructions: 137500872 cycles: 52505037 heartbeat IPC: 2.639 cumulative IPC: 2.38 (Simulation time: 00 hr 14 min 03 sec)
Heartbeat CPU 0 instructions: 138000872 cycles: 52715627 heartbeat IPC: 2.374 cumulative IPC: 2.38 (Simulation time: 00 hr 14 min 06 sec)
Heartbeat CPU 0 instructions: 138500875 cycles: 52906348 heartbeat IPC: 2.622 cumulative IPC: 2.381 (Simulation time: 00 hr 14 min 09 sec)
Heartbeat CPU 0 instructions: 139000879 cycles: 53116390 heartbeat IPC: 2.38 cumulative IPC: 2.381 (Simulation time: 00 hr 14 min 12 sec)
Heartbeat CPU 0 instructions: 139500882 cycles: 53306329 heartbeat IPC: 2.632 cumulative IPC: 2.382 (Simulation time: 00 hr 14 min 14 sec)
Heartbeat CPU 0 instructions: 140000885 cycles: 53517574 heartbeat IPC: 2.367 cumulative IPC: 2.382 (Simulation time: 00 hr 14 min 17 sec)
Heartbeat CPU 0 instructions: 140500886 cycles: 53706658 heartbeat IPC: 2.644 cumulative IPC: 2.384 (Simulation time: 00 hr 14 min 20 sec)
Heartbeat CPU 0 instructions: 141000891 cycles: 53916716 heartbeat IPC: 2.38 cumulative IPC: 2.384 (Simulation time: 00 hr 14 min 23 sec)
Heartbeat CPU 0 instructions: 141500894 cycles: 54106348 heartbeat IPC: 2.637 cumulative IPC: 2.385 (Simulation time: 00 hr 14 min 25 sec)
Heartbeat CPU 0 instructions: 142000896 cycles: 54316132 heartbeat IPC: 2.383 cumulative IPC: 2.385 (Simulation time: 00 hr 14 min 28 sec)
Heartbeat CPU 0 instructions: 142500903 cycles: 54505653 heartbeat IPC: 2.638 cumulative IPC: 2.386 (Simulation time: 00 hr 14 min 31 sec)
Heartbeat CPU 0 instructions: 143000910 cycles: 54715555 heartbeat IPC: 2.382 cumulative IPC: 2.386 (Simulation time: 00 hr 14 min 34 sec)
Heartbeat CPU 0 instructions: 143500914 cycles: 54905907 heartbeat IPC: 2.627 cumulative IPC: 2.387 (Simulation time: 00 hr 14 min 36 sec)
Heartbeat CPU 0 instructions: 144000918 cycles: 55115681 heartbeat IPC: 2.384 cumulative IPC: 2.387 (Simulation time: 00 hr 14 min 39 sec)
Heartbeat CPU 0 instructions: 144500919 cycles: 55306484 heartbeat IPC: 2.621 cumulative IPC: 2.388 (Simulation time: 00 hr 14 min 42 sec)
Heartbeat CPU 0 instructions: 145000926 cycles: 55517714 heartbeat IPC: 2.367 cumulative IPC: 2.388 (Simulation time: 00 hr 14 min 45 sec)
Heartbeat CPU 0 instructions: 145500932 cycles: 55707080 heartbeat IPC: 2.64 cumulative IPC: 2.389 (Simulation time: 00 hr 14 min 48 sec)
Heartbeat CPU 0 instructions: 146000932 cycles: 55917526 heartbeat IPC: 2.376 cumulative IPC: 2.389 (Simulation time: 00 hr 14 min 50 sec)
Heartbeat CPU 0 instructions: 146500934 cycles: 56106751 heartbeat IPC: 2.642 cumulative IPC: 2.39 (Simulation time: 00 hr 14 min 53 sec)
Heartbeat CPU 0 instructions: 147000939 cycles: 56317907 heartbeat IPC: 2.368 cumulative IPC: 2.39 (Simulation time: 00 hr 14 min 56 sec)
Heartbeat CPU 0 instructions: 147500940 cycles: 56508305 heartbeat IPC: 2.626 cumulative IPC: 2.391 (Simulation time: 00 hr 14 min 59 sec)
Heartbeat CPU 0 instructions: 148000946 cycles: 56726434 heartbeat IPC: 2.292 cumulative IPC: 2.391 (Simulation time: 00 hr 15 min 02 sec)
Heartbeat CPU 0 instructions: 148500947 cycles: 56916232 heartbeat IPC: 2.634 cumulative IPC: 2.392 (Simulation time: 00 hr 15 min 04 sec)
Heartbeat CPU 0 instructions: 149000950 cycles: 57125784 heartbeat IPC: 2.386 cumulative IPC: 2.392 (Simulation time: 00 hr 15 min 07 sec)
Heartbeat CPU 0 instructions: 149500953 cycles: 57315711 heartbeat IPC: 2.633 cumulative IPC: 2.393 (Simulation time: 00 hr 15 min 10 sec)
Heartbeat CPU 0 instructions: 150000957 cycles: 57526263 heartbeat IPC: 2.375 cumulative IPC: 2.393 (Simulation time: 00 hr 15 min 13 sec)
Heartbeat CPU 0 instructions: 150500958 cycles: 57717725 heartbeat IPC: 2.611 cumulative IPC: 2.394 (Simulation time: 00 hr 15 min 15 sec)
Heartbeat CPU 0 instructions: 151000959 cycles: 57929129 heartbeat IPC: 2.365 cumulative IPC: 2.394 (Simulation time: 00 hr 15 min 18 sec)
Heartbeat CPU 0 instructions: 151500960 cycles: 58118483 heartbeat IPC: 2.641 cumulative IPC: 2.395 (Simulation time: 00 hr 15 min 21 sec)
Heartbeat CPU 0 instructions: 152000961 cycles: 58327036 heartbeat IPC: 2.397 cumulative IPC: 2.395 (Simulation time: 00 hr 15 min 24 sec)
Heartbeat CPU 0 instructions: 152500964 cycles: 58516311 heartbeat IPC: 2.642 cumulative IPC: 2.396 (Simulation time: 00 hr 15 min 26 sec)
Heartbeat CPU 0 instructions: 153000969 cycles: 58724506 heartbeat IPC: 2.402 cumulative IPC: 2.396 (Simulation time: 00 hr 15 min 29 sec)
Heartbeat CPU 0 instructions: 153500969 cycles: 58916220 heartbeat IPC: 2.608 cumulative IPC: 2.397 (Simulation time: 00 hr 15 min 32 sec)
Heartbeat CPU 0 instructions: 154000972 cycles: 59115397 heartbeat IPC: 2.51 cumulative IPC: 2.398 (Simulation time: 00 hr 15 min 35 sec)
Heartbeat CPU 0 instructions: 154500979 cycles: 59314591 heartbeat IPC: 2.51 cumulative IPC: 2.398 (Simulation time: 00 hr 15 min 37 sec)
Heartbeat CPU 0 instructions: 155000982 cycles: 59506245 heartbeat IPC: 2.609 cumulative IPC: 2.399 (Simulation time: 00 hr 15 min 40 sec)
Heartbeat CPU 0 instructions: 155500989 cycles: 59712872 heartbeat IPC: 2.42 cumulative IPC: 2.399 (Simulation time: 00 hr 15 min 43 sec)
Heartbeat CPU 0 instructions: 156000994 cycles: 59902310 heartbeat IPC: 2.639 cumulative IPC: 2.4 (Simulation time: 00 hr 15 min 46 sec)
Heartbeat CPU 0 instructions: 156500999 cycles: 60111279 heartbeat IPC: 2.393 cumulative IPC: 2.4 (Simulation time: 00 hr 15 min 48 sec)
Heartbeat CPU 0 instructions: 157001005 cycles: 60301245 heartbeat IPC: 2.632 cumulative IPC: 2.401 (Simulation time: 00 hr 15 min 51 sec)
Heartbeat CPU 0 instructions: 157501012 cycles: 60512247 heartbeat IPC: 2.37 cumulative IPC: 2.401 (Simulation time: 00 hr 15 min 54 sec)
Heartbeat CPU 0 instructions: 158001013 cycles: 60700951 heartbeat IPC: 2.65 cumulative IPC: 2.402 (Simulation time: 00 hr 15 min 57 sec)
Heartbeat CPU 0 instructions: 158501018 cycles: 60910368 heartbeat IPC: 2.388 cumulative IPC: 2.402 (Simulation time: 00 hr 16 min 00 sec)
Heartbeat CPU 0 instructions: 159001021 cycles: 61099460 heartbeat IPC: 2.644 cumulative IPC: 2.403 (Simulation time: 00 hr 16 min 02 sec)
Heartbeat CPU 0 instructions: 159501021 cycles: 61308581 heartbeat IPC: 2.391 cumulative IPC: 2.403 (Simulation time: 00 hr 16 min 05 sec)
Heartbeat CPU 0 instructions: 160001023 cycles: 61498652 heartbeat IPC: 2.631 cumulative IPC: 2.404 (Simulation time: 00 hr 16 min 08 sec)
Heartbeat CPU 0 instructions: 160501023 cycles: 61709086 heartbeat IPC: 2.376 cumulative IPC: 2.404 (Simulation time: 00 hr 16 min 11 sec)
Heartbeat CPU 0 instructions: 161001024 cycles: 61897761 heartbeat IPC: 2.65 cumulative IPC: 2.405 (Simulation time: 00 hr 16 min 13 sec)
Heartbeat CPU 0 instructions: 161501031 cycles: 62107368 heartbeat IPC: 2.385 cumulative IPC: 2.405 (Simulation time: 00 hr 16 min 16 sec)
Heartbeat CPU 0 instructions: 162001038 cycles: 62296462 heartbeat IPC: 2.644 cumulative IPC: 2.406 (Simulation time: 00 hr 16 min 19 sec)
Heartbeat CPU 0 instructions: 162501045 cycles: 62505447 heartbeat IPC: 2.393 cumulative IPC: 2.406 (Simulation time: 00 hr 16 min 22 sec)
Heartbeat CPU 0 instructions: 163001052 cycles: 62695314 heartbeat IPC: 2.633 cumulative IPC: 2.406 (Simulation time: 00 hr 16 min 24 sec)
Heartbeat CPU 0 instructions: 163501053 cycles: 62904844 heartbeat IPC: 2.386 cumulative IPC: 2.406 (Simulation time: 00 hr 16 min 27 sec)
Heartbeat CPU 0 instructions: 164001060 cycles: 63093366 heartbeat IPC: 2.652 cumulative IPC: 2.407 (Simulation time: 00 hr 16 min 30 sec)
Heartbeat CPU 0 instructions: 164501060 cycles: 63303300 heartbeat IPC: 2.382 cumulative IPC: 2.407 (Simulation time: 00 hr 16 min 33 sec)
Heartbeat CPU 0 instructions: 165001063 cycles: 63494036 heartbeat IPC: 2.621 cumulative IPC: 2.408 (Simulation time: 00 hr 16 min 35 sec)
Heartbeat CPU 0 instructions: 165501066 cycles: 63703570 heartbeat IPC: 2.386 cumulative IPC: 2.408 (Simulation time: 00 hr 16 min 38 sec)
Heartbeat CPU 0 instructions: 166001073 cycles: 63891933 heartbeat IPC: 2.654 cumulative IPC: 2.409 (Simulation time: 00 hr 16 min 41 sec)
Heartbeat CPU 0 instructions: 166501080 cycles: 64102611 heartbeat IPC: 2.373 cumulative IPC: 2.409 (Simulation time: 00 hr 16 min 44 sec)
Heartbeat CPU 0 instructions: 167001083 cycles: 64291559 heartbeat IPC: 2.646 cumulative IPC: 2.41 (Simulation time: 00 hr 16 min 46 sec)
Heartbeat CPU 0 instructions: 167501085 cycles: 64501277 heartbeat IPC: 2.384 cumulative IPC: 2.41 (Simulation time: 00 hr 16 min 49 sec)
Heartbeat CPU 0 instructions: 168001088 cycles: 64691238 heartbeat IPC: 2.632 cumulative IPC: 2.41 (Simulation time: 00 hr 16 min 52 sec)
Heartbeat CPU 0 instructions: 168501089 cycles: 64900880 heartbeat IPC: 2.385 cumulative IPC: 2.41 (Simulation time: 00 hr 16 min 55 sec)
Heartbeat CPU 0 instructions: 169001090 cycles: 65090821 heartbeat IPC: 2.632 cumulative IPC: 2.411 (Simulation time: 00 hr 16 min 57 sec)
Heartbeat CPU 0 instructions: 169501093 cycles: 65299940 heartbeat IPC: 2.391 cumulative IPC: 2.411 (Simulation time: 00 hr 17 min 00 sec)
Heartbeat CPU 0 instructions: 170001096 cycles: 65489600 heartbeat IPC: 2.636 cumulative IPC: 2.412 (Simulation time: 00 hr 17 min 03 sec)
Heartbeat CPU 0 instructions: 170501099 cycles: 65697971 heartbeat IPC: 2.4 cumulative IPC: 2.412 (Simulation time: 00 hr 17 min 06 sec)
Heartbeat CPU 0 instructions: 171001104 cycles: 65888504 heartbeat IPC: 2.624 cumulative IPC: 2.413 (Simulation time: 00 hr 17 min 08 sec)
Heartbeat CPU 0 instructions: 171501104 cycles: 66097482 heartbeat IPC: 2.393 cumulative IPC: 2.413 (Simulation time: 00 hr 17 min 11 sec)
Heartbeat CPU 0 instructions: 172001107 cycles: 66287088 heartbeat IPC: 2.637 cumulative IPC: 2.413 (Simulation time: 00 hr 17 min 14 sec)
Heartbeat CPU 0 instructions: 172501111 cycles: 66495697 heartbeat IPC: 2.397 cumulative IPC: 2.413 (Simulation time: 00 hr 17 min 17 sec)
Heartbeat CPU 0 instructions: 173001113 cycles: 66684910 heartbeat IPC: 2.643 cumulative IPC: 2.414 (Simulation time: 00 hr 17 min 19 sec)
Heartbeat CPU 0 instructions: 173501120 cycles: 66893699 heartbeat IPC: 2.395 cumulative IPC: 2.414 (Simulation time: 00 hr 17 min 22 sec)
Heartbeat CPU 0 instructions: 174001123 cycles: 67082773 heartbeat IPC: 2.644 cumulative IPC: 2.415 (Simulation time: 00 hr 17 min 25 sec)
Heartbeat CPU 0 instructions: 174501126 cycles: 67292545 heartbeat IPC: 2.384 cumulative IPC: 2.415 (Simulation time: 00 hr 17 min 28 sec)
Heartbeat CPU 0 instructions: 175001128 cycles: 67481179 heartbeat IPC: 2.651 cumulative IPC: 2.416 (Simulation time: 00 hr 17 min 30 sec)
Heartbeat CPU 0 instructions: 175501130 cycles: 67695808 heartbeat IPC: 2.33 cumulative IPC: 2.415 (Simulation time: 00 hr 17 min 33 sec)
Heartbeat CPU 0 instructions: 176001133 cycles: 67888350 heartbeat IPC: 2.597 cumulative IPC: 2.416 (Simulation time: 00 hr 17 min 36 sec)
Heartbeat CPU 0 instructions: 176501140 cycles: 68086694 heartbeat IPC: 2.521 cumulative IPC: 2.416 (Simulation time: 00 hr 17 min 39 sec)
Heartbeat CPU 0 instructions: 177001141 cycles: 68287415 heartbeat IPC: 2.491 cumulative IPC: 2.417 (Simulation time: 00 hr 17 min 42 sec)
Heartbeat CPU 0 instructions: 177501142 cycles: 68477585 heartbeat IPC: 2.629 cumulative IPC: 2.418 (Simulation time: 00 hr 17 min 44 sec)
Heartbeat CPU 0 instructions: 178001149 cycles: 68684490 heartbeat IPC: 2.417 cumulative IPC: 2.418 (Simulation time: 00 hr 17 min 47 sec)
Heartbeat CPU 0 instructions: 178501150 cycles: 68873658 heartbeat IPC: 2.643 cumulative IPC: 2.418 (Simulation time: 00 hr 17 min 50 sec)
Heartbeat CPU 0 instructions: 179001154 cycles: 69083653 heartbeat IPC: 2.381 cumulative IPC: 2.418 (Simulation time: 00 hr 17 min 53 sec)
Heartbeat CPU 0 instructions: 179501157 cycles: 69272696 heartbeat IPC: 2.645 cumulative IPC: 2.419 (Simulation time: 00 hr 17 min 55 sec)
Heartbeat CPU 0 instructions: 180001164 cycles: 69481973 heartbeat IPC: 2.389 cumulative IPC: 2.419 (Simulation time: 00 hr 17 min 58 sec)
Heartbeat CPU 0 instructions: 180501167 cycles: 69671133 heartbeat IPC: 2.643 cumulative IPC: 2.42 (Simulation time: 00 hr 18 min 01 sec)
Heartbeat CPU 0 instructions: 181001170 cycles: 69880996 heartbeat IPC: 2.383 cumulative IPC: 2.42 (Simulation time: 00 hr 18 min 04 sec)
Heartbeat CPU 0 instructions: 181501173 cycles: 70069028 heartbeat IPC: 2.659 cumulative IPC: 2.42 (Simulation time: 00 hr 18 min 06 sec)
Heartbeat CPU 0 instructions: 182001174 cycles: 70279847 heartbeat IPC: 2.372 cumulative IPC: 2.42 (Simulation time: 00 hr 18 min 09 sec)
Heartbeat CPU 0 instructions: 182501174 cycles: 70469478 heartbeat IPC: 2.637 cumulative IPC: 2.421 (Simulation time: 00 hr 18 min 12 sec)
Heartbeat CPU 0 instructions: 183001176 cycles: 70678491 heartbeat IPC: 2.392 cumulative IPC: 2.421 (Simulation time: 00 hr 18 min 15 sec)
Heartbeat CPU 0 instructions: 183501180 cycles: 70868243 heartbeat IPC: 2.635 cumulative IPC: 2.422 (Simulation time: 00 hr 18 min 17 sec)
Heartbeat CPU 0 instructions: 184001187 cycles: 71077018 heartbeat IPC: 2.395 cumulative IPC: 2.421 (Simulation time: 00 hr 18 min 20 sec)
Heartbeat CPU 0 instructions: 184501190 cycles: 71265944 heartbeat IPC: 2.647 cumulative IPC: 2.422 (Simulation time: 00 hr 18 min 23 sec)
Heartbeat CPU 0 instructions: 185001197 cycles: 71475545 heartbeat IPC: 2.386 cumulative IPC: 2.422 (Simulation time: 00 hr 18 min 26 sec)
Heartbeat CPU 0 instructions: 185501200 cycles: 71663397 heartbeat IPC: 2.662 cumulative IPC: 2.423 (Simulation time: 00 hr 18 min 28 sec)
Heartbeat CPU 0 instructions: 186001205 cycles: 71871999 heartbeat IPC: 2.397 cumulative IPC: 2.423 (Simulation time: 00 hr 18 min 31 sec)
Heartbeat CPU 0 instructions: 186501205 cycles: 72061902 heartbeat IPC: 2.633 cumulative IPC: 2.423 (Simulation time: 00 hr 18 min 34 sec)
Heartbeat CPU 0 instructions: 187001212 cycles: 72271570 heartbeat IPC: 2.385 cumulative IPC: 2.423 (Simulation time: 00 hr 18 min 37 sec)
Heartbeat CPU 0 instructions: 187501219 cycles: 72460725 heartbeat IPC: 2.643 cumulative IPC: 2.424 (Simulation time: 00 hr 18 min 39 sec)
Heartbeat CPU 0 instructions: 188001222 cycles: 72669413 heartbeat IPC: 2.396 cumulative IPC: 2.424 (Simulation time: 00 hr 18 min 42 sec)
Heartbeat CPU 0 instructions: 188501225 cycles: 72859260 heartbeat IPC: 2.634 cumulative IPC: 2.425 (Simulation time: 00 hr 18 min 45 sec)
Heartbeat CPU 0 instructions: 189001225 cycles: 73067154 heartbeat IPC: 2.405 cumulative IPC: 2.425 (Simulation time: 00 hr 18 min 48 sec)
Heartbeat CPU 0 instructions: 189501228 cycles: 73256546 heartbeat IPC: 2.64 cumulative IPC: 2.425 (Simulation time: 00 hr 18 min 50 sec)
Heartbeat CPU 0 instructions: 190001229 cycles: 73466313 heartbeat IPC: 2.384 cumulative IPC: 2.425 (Simulation time: 00 hr 18 min 53 sec)
Heartbeat CPU 0 instructions: 190501236 cycles: 73655882 heartbeat IPC: 2.638 cumulative IPC: 2.426 (Simulation time: 00 hr 18 min 56 sec)
Heartbeat CPU 0 instructions: 191001239 cycles: 73866674 heartbeat IPC: 2.372 cumulative IPC: 2.426 (Simulation time: 00 hr 18 min 59 sec)
Heartbeat CPU 0 instructions: 191501246 cycles: 74056367 heartbeat IPC: 2.636 cumulative IPC: 2.426 (Simulation time: 00 hr 19 min 01 sec)
Heartbeat CPU 0 instructions: 192001249 cycles: 74264221 heartbeat IPC: 2.406 cumulative IPC: 2.426 (Simulation time: 00 hr 19 min 04 sec)
Heartbeat CPU 0 instructions: 192501254 cycles: 74453276 heartbeat IPC: 2.645 cumulative IPC: 2.427 (Simulation time: 00 hr 19 min 07 sec)
Heartbeat CPU 0 instructions: 193001254 cycles: 74662989 heartbeat IPC: 2.384 cumulative IPC: 2.427 (Simulation time: 00 hr 19 min 10 sec)
Heartbeat CPU 0 instructions: 193501261 cycles: 74851463 heartbeat IPC: 2.653 cumulative IPC: 2.428 (Simulation time: 00 hr 19 min 12 sec)
Heartbeat CPU 0 instructions: 194001264 cycles: 75060246 heartbeat IPC: 2.395 cumulative IPC: 2.427 (Simulation time: 00 hr 19 min 15 sec)
Heartbeat CPU 0 instructions: 194501267 cycles: 75249452 heartbeat IPC: 2.643 cumulative IPC: 2.428 (Simulation time: 00 hr 19 min 18 sec)
Heartbeat CPU 0 instructions: 195001270 cycles: 75459660 heartbeat IPC: 2.379 cumulative IPC: 2.428 (Simulation time: 00 hr 19 min 21 sec)
Heartbeat CPU 0 instructions: 195501273 cycles: 75648683 heartbeat IPC: 2.645 cumulative IPC: 2.429 (Simulation time: 00 hr 19 min 24 sec)
Heartbeat CPU 0 instructions: 196001280 cycles: 75858606 heartbeat IPC: 2.382 cumulative IPC: 2.428 (Simulation time: 00 hr 19 min 26 sec)
Heartbeat CPU 0 instructions: 196501285 cycles: 76046054 heartbeat IPC: 2.667 cumulative IPC: 2.429 (Simulation time: 00 hr 19 min 29 sec)
Heartbeat CPU 0 instructions: 197001289 cycles: 76255387 heartbeat IPC: 2.389 cumulative IPC: 2.429 (Simulation time: 00 hr 19 min 32 sec)
Heartbeat CPU 0 instructions: 197501296 cycles: 76443726 heartbeat IPC: 2.655 cumulative IPC: 2.43 (Simulation time: 00 hr 19 min 35 sec)
Heartbeat CPU 0 instructions: 198001299 cycles: 76649394 heartbeat IPC: 2.431 cumulative IPC: 2.43 (Simulation time: 00 hr 19 min 37 sec)
Heartbeat CPU 0 instructions: 198501302 cycles: 76841917 heartbeat IPC: 2.597 cumulative IPC: 2.43 (Simulation time: 00 hr 19 min 40 sec)
Heartbeat CPU 0 instructions: 199001309 cycles: 77038666 heartbeat IPC: 2.541 cumulative IPC: 2.431 (Simulation time: 00 hr 19 min 43 sec)
Heartbeat CPU 0 instructions: 199501312 cycles: 77240973 heartbeat IPC: 2.472 cumulative IPC: 2.431 (Simulation time: 00 hr 19 min 46 sec)
Heartbeat CPU 0 instructions: 200001319 cycles: 77430910 heartbeat IPC: 2.632 cumulative IPC: 2.431 (Simulation time: 00 hr 19 min 48 sec)
Heartbeat CPU 0 instructions: 200501321 cycles: 77639508 heartbeat IPC: 2.397 cumulative IPC: 2.431 (Simulation time: 00 hr 19 min 51 sec)
Heartbeat CPU 0 instructions: 201001322 cycles: 77828147 heartbeat IPC: 2.651 cumulative IPC: 2.432 (Simulation time: 00 hr 19 min 54 sec)
Heartbeat CPU 0 instructions: 201501323 cycles: 78037806 heartbeat IPC: 2.385 cumulative IPC: 2.432 (Simulation time: 00 hr 19 min 57 sec)
Heartbeat CPU 0 instructions: 202001330 cycles: 78228498 heartbeat IPC: 2.622 cumulative IPC: 2.432 (Simulation time: 00 hr 19 min 59 sec)
Heartbeat CPU 0 instructions: 202501333 cycles: 78439362 heartbeat IPC: 2.371 cumulative IPC: 2.432 (Simulation time: 00 hr 20 min 02 sec)
Heartbeat CPU 0 instructions: 203001335 cycles: 78636670 heartbeat IPC: 2.534 cumulative IPC: 2.432 (Simulation time: 00 hr 20 min 05 sec)
Heartbeat CPU 0 instructions: 203501340 cycles: 78847136 heartbeat IPC: 2.376 cumulative IPC: 2.432 (Simulation time: 00 hr 20 min 08 sec)
Heartbeat CPU 0 instructions: 204001343 cycles: 79036391 heartbeat IPC: 2.642 cumulative IPC: 2.433 (Simulation time: 00 hr 20 min 10 sec)
Heartbeat CPU 0 instructions: 204501343 cycles: 79247992 heartbeat IPC: 2.363 cumulative IPC: 2.433 (Simulation time: 00 hr 20 min 13 sec)
Heartbeat CPU 0 instructions: 205001350 cycles: 79436755 heartbeat IPC: 2.649 cumulative IPC: 2.433 (Simulation time: 00 hr 20 min 16 sec)
Heartbeat CPU 0 instructions: 205501353 cycles: 79646816 heartbeat IPC: 2.38 cumulative IPC: 2.433 (Simulation time: 00 hr 20 min 19 sec)
Heartbeat CPU 0 instructions: 206001353 cycles: 79836184 heartbeat IPC: 2.64 cumulative IPC: 2.434 (Simulation time: 00 hr 20 min 21 sec)
Heartbeat CPU 0 instructions: 206501359 cycles: 80047327 heartbeat IPC: 2.368 cumulative IPC: 2.434 (Simulation time: 00 hr 20 min 24 sec)
Heartbeat CPU 0 instructions: 207001363 cycles: 80235765 heartbeat IPC: 2.653 cumulative IPC: 2.434 (Simulation time: 00 hr 20 min 27 sec)
Heartbeat CPU 0 instructions: 207501363 cycles: 80445091 heartbeat IPC: 2.389 cumulative IPC: 2.434 (Simulation time: 00 hr 20 min 30 sec)
Heartbeat CPU 0 instructions: 208001363 cycles: 80635866 heartbeat IPC: 2.621 cumulative IPC: 2.435 (Simulation time: 00 hr 20 min 33 sec)
Heartbeat CPU 0 instructions: 208501366 cycles: 80845032 heartbeat IPC: 2.39 cumulative IPC: 2.434 (Simulation time: 00 hr 20 min 35 sec)
Heartbeat CPU 0 instructions: 209001373 cycles: 81033290 heartbeat IPC: 2.656 cumulative IPC: 2.435 (Simulation time: 00 hr 20 min 38 sec)
Heartbeat CPU 0 instructions: 209501380 cycles: 81242963 heartbeat IPC: 2.385 cumulative IPC: 2.435 (Simulation time: 00 hr 20 min 41 sec)
Heartbeat CPU 0 instructions: 210001387 cycles: 81431822 heartbeat IPC: 2.648 cumulative IPC: 2.436 (Simulation time: 00 hr 20 min 44 sec)
Heartbeat CPU 0 instructions: 210501390 cycles: 81642704 heartbeat IPC: 2.371 cumulative IPC: 2.435 (Simulation time: 00 hr 20 min 46 sec)
Heartbeat CPU 0 instructions: 211001395 cycles: 81832703 heartbeat IPC: 2.632 cumulative IPC: 2.436 (Simulation time: 00 hr 20 min 49 sec)
Heartbeat CPU 0 instructions: 211501399 cycles: 82042634 heartbeat IPC: 2.382 cumulative IPC: 2.436 (Simulation time: 00 hr 20 min 52 sec)
Heartbeat CPU 0 instructions: 212001402 cycles: 82231938 heartbeat IPC: 2.641 cumulative IPC: 2.436 (Simulation time: 00 hr 20 min 55 sec)
Heartbeat CPU 0 instructions: 212501409 cycles: 82443143 heartbeat IPC: 2.367 cumulative IPC: 2.436 (Simulation time: 00 hr 20 min 58 sec)
Heartbeat CPU 0 instructions: 213001412 cycles: 82633795 heartbeat IPC: 2.623 cumulative IPC: 2.437 (Simulation time: 00 hr 21 min 00 sec)
Heartbeat CPU 0 instructions: 213501415 cycles: 82842661 heartbeat IPC: 2.394 cumulative IPC: 2.436 (Simulation time: 00 hr 21 min 03 sec)
Heartbeat CPU 0 instructions: 214001422 cycles: 83032734 heartbeat IPC: 2.631 cumulative IPC: 2.437 (Simulation time: 00 hr 21 min 06 sec)
Heartbeat CPU 0 instructions: 214501427 cycles: 83241751 heartbeat IPC: 2.392 cumulative IPC: 2.437 (Simulation time: 00 hr 21 min 09 sec)
Heartbeat CPU 0 instructions: 215001431 cycles: 83430599 heartbeat IPC: 2.648 cumulative IPC: 2.437 (Simulation time: 00 hr 21 min 11 sec)
Heartbeat CPU 0 instructions: 215501434 cycles: 83639029 heartbeat IPC: 2.399 cumulative IPC: 2.437 (Simulation time: 00 hr 21 min 14 sec)
Heartbeat CPU 0 instructions: 216001441 cycles: 83829706 heartbeat IPC: 2.622 cumulative IPC: 2.438 (Simulation time: 00 hr 21 min 17 sec)
Heartbeat CPU 0 instructions: 216501448 cycles: 84038404 heartbeat IPC: 2.396 cumulative IPC: 2.438 (Simulation time: 00 hr 21 min 20 sec)
Heartbeat CPU 0 instructions: 217001451 cycles: 84228479 heartbeat IPC: 2.631 cumulative IPC: 2.438 (Simulation time: 00 hr 21 min 22 sec)
Heartbeat CPU 0 instructions: 217501454 cycles: 84439078 heartbeat IPC: 2.374 cumulative IPC: 2.438 (Simulation time: 00 hr 21 min 25 sec)
Heartbeat CPU 0 instructions: 218001459 cycles: 84627918 heartbeat IPC: 2.648 cumulative IPC: 2.439 (Simulation time: 00 hr 21 min 28 sec)
Heartbeat CPU 0 instructions: 218501466 cycles: 84837220 heartbeat IPC: 2.389 cumulative IPC: 2.439 (Simulation time: 00 hr 21 min 31 sec)
Heartbeat CPU 0 instructions: 219001470 cycles: 85026028 heartbeat IPC: 2.648 cumulative IPC: 2.439 (Simulation time: 00 hr 21 min 33 sec)
Heartbeat CPU 0 instructions: 219501473 cycles: 85234869 heartbeat IPC: 2.394 cumulative IPC: 2.439 (Simulation time: 00 hr 21 min 36 sec)
Heartbeat CPU 0 instructions: 220001476 cycles: 85423966 heartbeat IPC: 2.644 cumulative IPC: 2.44 (Simulation time: 00 hr 21 min 39 sec)
Heartbeat CPU 0 instructions: 220501483 cycles: 85627515 heartbeat IPC: 2.456 cumulative IPC: 2.44 (Simulation time: 00 hr 21 min 42 sec)
Heartbeat CPU 0 instructions: 221001490 cycles: 85823000 heartbeat IPC: 2.558 cumulative IPC: 2.44 (Simulation time: 00 hr 21 min 44 sec)
Heartbeat CPU 0 instructions: 221501493 cycles: 86019765 heartbeat IPC: 2.541 cumulative IPC: 2.44 (Simulation time: 00 hr 21 min 47 sec)
Heartbeat CPU 0 instructions: 222001498 cycles: 86221789 heartbeat IPC: 2.475 cumulative IPC: 2.44 (Simulation time: 00 hr 21 min 50 sec)
Heartbeat CPU 0 instructions: 222501504 cycles: 86412487 heartbeat IPC: 2.622 cumulative IPC: 2.441 (Simulation time: 00 hr 21 min 53 sec)
Heartbeat CPU 0 instructions: 223001509 cycles: 86621838 heartbeat IPC: 2.388 cumulative IPC: 2.441 (Simulation time: 00 hr 21 min 55 sec)
Heartbeat CPU 0 instructions: 223501512 cycles: 86810803 heartbeat IPC: 2.646 cumulative IPC: 2.441 (Simulation time: 00 hr 21 min 58 sec)
Heartbeat CPU 0 instructions: 224001515 cycles: 87019384 heartbeat IPC: 2.397 cumulative IPC: 2.441 (Simulation time: 00 hr 22 min 01 sec)
Heartbeat CPU 0 instructions: 224501518 cycles: 87208912 heartbeat IPC: 2.638 cumulative IPC: 2.442 (Simulation time: 00 hr 22 min 04 sec)
Heartbeat CPU 0 instructions: 225001521 cycles: 87418061 heartbeat IPC: 2.391 cumulative IPC: 2.441 (Simulation time: 00 hr 22 min 06 sec)
Heartbeat CPU 0 instructions: 225501527 cycles: 87607103 heartbeat IPC: 2.645 cumulative IPC: 2.442 (Simulation time: 00 hr 22 min 09 sec)
Heartbeat CPU 0 instructions: 226001527 cycles: 87815744 heartbeat IPC: 2.396 cumulative IPC: 2.442 (Simulation time: 00 hr 22 min 12 sec)
Heartbeat CPU 0 instructions: 226501529 cycles: 88004551 heartbeat IPC: 2.648 cumulative IPC: 2.442 (Simulation time: 00 hr 22 min 15 sec)
Heartbeat CPU 0 instructions: 227001534 cycles: 88214409 heartbeat IPC: 2.383 cumulative IPC: 2.442 (Simulation time: 00 hr 22 min 18 sec)
Heartbeat CPU 0 instructions: 227501539 cycles: 88403457 heartbeat IPC: 2.645 cumulative IPC: 2.443 (Simulation time: 00 hr 22 min 20 sec)
Heartbeat CPU 0 instructions: 228001546 cycles: 88612659 heartbeat IPC: 2.39 cumulative IPC: 2.443 (Simulation time: 00 hr 22 min 23 sec)
Heartbeat CPU 0 instructions: 228501553 cycles: 88801870 heartbeat IPC: 2.643 cumulative IPC: 2.443 (Simulation time: 00 hr 22 min 26 sec)
Heartbeat CPU 0 instructions: 229001554 cycles: 89011025 heartbeat IPC: 2.391 cumulative IPC: 2.443 (Simulation time: 00 hr 22 min 29 sec)
Heartbeat CPU 0 instructions: 229501558 cycles: 89199207 heartbeat IPC: 2.657 cumulative IPC: 2.443 (Simulation time: 00 hr 22 min 31 sec)
Heartbeat CPU 0 instructions: 230001564 cycles: 89408978 heartbeat IPC: 2.384 cumulative IPC: 2.443 (Simulation time: 00 hr 22 min 34 sec)
Heartbeat CPU 0 instructions: 230501571 cycles: 89606318 heartbeat IPC: 2.534 cumulative IPC: 2.444 (Simulation time: 00 hr 22 min 37 sec)
Heartbeat CPU 0 instructions: 231001574 cycles: 89816125 heartbeat IPC: 2.383 cumulative IPC: 2.443 (Simulation time: 00 hr 22 min 40 sec)
Heartbeat CPU 0 instructions: 231501577 cycles: 90005827 heartbeat IPC: 2.636 cumulative IPC: 2.444 (Simulation time: 00 hr 22 min 42 sec)
Heartbeat CPU 0 instructions: 232001580 cycles: 90214862 heartbeat IPC: 2.392 cumulative IPC: 2.444 (Simulation time: 00 hr 22 min 45 sec)
Heartbeat CPU 0 instructions: 232501585 cycles: 90405031 heartbeat IPC: 2.629 cumulative IPC: 2.444 (Simulation time: 00 hr 22 min 48 sec)
Heartbeat CPU 0 instructions: 233001592 cycles: 90614235 heartbeat IPC: 2.39 cumulative IPC: 2.444 (Simulation time: 00 hr 22 min 51 sec)
Heartbeat CPU 0 instructions: 233501596 cycles: 90804465 heartbeat IPC: 2.628 cumulative IPC: 2.445 (Simulation time: 00 hr 22 min 53 sec)
Heartbeat CPU 0 instructions: 234001603 cycles: 91013910 heartbeat IPC: 2.387 cumulative IPC: 2.444 (Simulation time: 00 hr 22 min 56 sec)
Heartbeat CPU 0 instructions: 234501608 cycles: 91203021 heartbeat IPC: 2.644 cumulative IPC: 2.445 (Simulation time: 00 hr 22 min 59 sec)
Heartbeat CPU 0 instructions: 235001609 cycles: 91412186 heartbeat IPC: 2.39 cumulative IPC: 2.445 (Simulation time: 00 hr 23 min 02 sec)
Heartbeat CPU 0 instructions: 235501616 cycles: 91601497 heartbeat IPC: 2.641 cumulative IPC: 2.445 (Simulation time: 00 hr 23 min 04 sec)
Heartbeat CPU 0 instructions: 236001619 cycles: 91810855 heartbeat IPC: 2.388 cumulative IPC: 2.445 (Simulation time: 00 hr 23 min 07 sec)
Heartbeat CPU 0 instructions: 236501620 cycles: 92000128 heartbeat IPC: 2.642 cumulative IPC: 2.446 (Simulation time: 00 hr 23 min 10 sec)
Heartbeat CPU 0 instructions: 237001620 cycles: 92210273 heartbeat IPC: 2.379 cumulative IPC: 2.445 (Simulation time: 00 hr 23 min 13 sec)
Heartbeat CPU 0 instructions: 237501623 cycles: 92398395 heartbeat IPC: 2.658 cumulative IPC: 2.446 (Simulation time: 00 hr 23 min 16 sec)
Heartbeat CPU 0 instructions: 238001630 cycles: 92609289 heartbeat IPC: 2.371 cumulative IPC: 2.446 (Simulation time: 00 hr 23 min 18 sec)
Heartbeat CPU 0 instructions: 238501633 cycles: 92799604 heartbeat IPC: 2.627 cumulative IPC: 2.446 (Simulation time: 00 hr 23 min 21 sec)
Heartbeat CPU 0 instructions: 239001636 cycles: 93008889 heartbeat IPC: 2.389 cumulative IPC: 2.446 (Simulation time: 00 hr 23 min 24 sec)
Heartbeat CPU 0 instructions: 239501643 cycles: 93198845 heartbeat IPC: 2.632 cumulative IPC: 2.446 (Simulation time: 00 hr 23 min 27 sec)
Heartbeat CPU 0 instructions: 240001648 cycles: 93409176 heartbeat IPC: 2.377 cumulative IPC: 2.446 (Simulation time: 00 hr 23 min 29 sec)
Heartbeat CPU 0 instructions: 240501652 cycles: 93599682 heartbeat IPC: 2.625 cumulative IPC: 2.447 (Simulation time: 00 hr 23 min 32 sec)
Heartbeat CPU 0 instructions: 241001655 cycles: 93809482 heartbeat IPC: 2.383 cumulative IPC: 2.446 (Simulation time: 00 hr 23 min 35 sec)
Heartbeat CPU 0 instructions: 241501662 cycles: 93998887 heartbeat IPC: 2.64 cumulative IPC: 2.447 (Simulation time: 00 hr 23 min 38 sec)
Heartbeat CPU 0 instructions: 242001662 cycles: 94207869 heartbeat IPC: 2.393 cumulative IPC: 2.447 (Simulation time: 00 hr 23 min 41 sec)
Heartbeat CPU 0 instructions: 242501664 cycles: 94396905 heartbeat IPC: 2.645 cumulative IPC: 2.447 (Simulation time: 00 hr 23 min 43 sec)
Heartbeat CPU 0 instructions: 243001667 cycles: 94599932 heartbeat IPC: 2.463 cumulative IPC: 2.447 (Simulation time: 00 hr 23 min 46 sec)
Heartbeat CPU 0 instructions: 243501670 cycles: 94795975 heartbeat IPC: 2.55 cumulative IPC: 2.448 (Simulation time: 00 hr 23 min 49 sec)
Heartbeat CPU 0 instructions: 244001672 cycles: 94991314 heartbeat IPC: 2.56 cumulative IPC: 2.448 (Simulation time: 00 hr 23 min 51 sec)
Heartbeat CPU 0 instructions: 244501674 cycles: 95194532 heartbeat IPC: 2.46 cumulative IPC: 2.448 (Simulation time: 00 hr 23 min 54 sec)
Heartbeat CPU 0 instructions: 245001674 cycles: 95383644 heartbeat IPC: 2.644 cumulative IPC: 2.448 (Simulation time: 00 hr 23 min 57 sec)
Heartbeat CPU 0 instructions: 245501681 cycles: 95592183 heartbeat IPC: 2.398 cumulative IPC: 2.448 (Simulation time: 00 hr 24 min 00 sec)
Heartbeat CPU 0 instructions: 246001684 cycles: 95781902 heartbeat IPC: 2.635 cumulative IPC: 2.449 (Simulation time: 00 hr 24 min 02 sec)
Heartbeat CPU 0 instructions: 246501689 cycles: 95991057 heartbeat IPC: 2.391 cumulative IPC: 2.449 (Simulation time: 00 hr 24 min 05 sec)
Heartbeat CPU 0 instructions: 247001694 cycles: 96181230 heartbeat IPC: 2.629 cumulative IPC: 2.449 (Simulation time: 00 hr 24 min 08 sec)
Heartbeat CPU 0 instructions: 247501695 cycles: 96390767 heartbeat IPC: 2.386 cumulative IPC: 2.449 (Simulation time: 00 hr 24 min 11 sec)
Heartbeat CPU 0 instructions: 248001695 cycles: 96579937 heartbeat IPC: 2.643 cumulative IPC: 2.449 (Simulation time: 00 hr 24 min 14 sec)
Heartbeat CPU 0 instructions: 248501702 cycles: 96789199 heartbeat IPC: 2.389 cumulative IPC: 2.449 (Simulation time: 00 hr 24 min 16 sec)
Heartbeat CPU 0 instructions: 249001709 cycles: 96978044 heartbeat IPC: 2.648 cumulative IPC: 2.45 (Simulation time: 00 hr 24 min 19 sec)
Heartbeat CPU 0 instructions: 249501716 cycles: 97187600 heartbeat IPC: 2.386 cumulative IPC: 2.449 (Simulation time: 00 hr 24 min 22 sec)
Simulation finished CPU 0 instructions: 200000001 cycles: 81639713 cumulative IPC: 2.45 (Simulation time: 00 hr 24 min 25 sec)
Simulation complete CPU 0 instructions: 200000001 cycles: 81639713 cumulative IPC: 2.45 (Simulation time: 00 hr 24 min 25 sec)

ChampSim completed all CPUs

=== Simulation ===
CPU 0 runs /local-ssd/ben/dpc4-traces/ai-ml/vit.cpp-large-ggml-model-f16.gguf.armadillo.1.champsimtrace.gz

Region of Interest Statistics

CPU 0 cumulative IPC: 2.45 instructions: 200000001 cycles: 81639713
CPU 0 Branch Prediction Accuracy: 97.94% MPKI: 1.416 Average ROB Occupancy at Mispredict: 322.4
Branch type MPKI
BRANCH_DIRECT_JUMP: 7e-05
BRANCH_INDIRECT: 3.5e-05
BRANCH_CONDITIONAL: 1.415
BRANCH_DIRECT_CALL: 8.5e-05
BRANCH_INDIRECT_CALL: 2e-05
BRANCH_RETURN: 0.000105

cpu0->cpu0_STLB TOTAL        ACCESS:      27389 HIT:      16219 MISS:      11170 MSHR_MERGE:          0
cpu0->cpu0_STLB LOAD         ACCESS:      27389 HIT:      16219 MISS:      11170 MSHR_MERGE:          0
cpu0->cpu0_STLB RFO          ACCESS:          0 HIT:          0 MISS:          0 MSHR_MERGE:          0
cpu0->cpu0_STLB PREFETCH     ACCESS:          0 HIT:          0 MISS:          0 MSHR_MERGE:          0
cpu0->cpu0_STLB WRITE        ACCESS:          0 HIT:          0 MISS:          0 MSHR_MERGE:          0
cpu0->cpu0_STLB TRANSLATION  ACCESS:          0 HIT:          0 MISS:          0 MSHR_MERGE:          0
cpu0->cpu0_STLB PREFETCH REQUESTED:          0 ISSUED:          0 USEFUL:          0 USELESS:          0
cpu0->cpu0_STLB AVERAGE MISS LATENCY: 147.7 cycles
cpu0->cpu0_L2C TOTAL        ACCESS:    5591976 HIT:    4714882 MISS:     877094 MSHR_MERGE:          0
cpu0->cpu0_L2C LOAD         ACCESS:    2526292 HIT:    2257821 MISS:     268471 MSHR_MERGE:          0
cpu0->cpu0_L2C RFO          ACCESS:      56842 HIT:      22353 MISS:      34489 MSHR_MERGE:          0
cpu0->cpu0_L2C PREFETCH     ACCESS:    2895539 HIT:    2323103 MISS:     572436 MSHR_MERGE:          0
cpu0->cpu0_L2C WRITE        ACCESS:     110618 HIT:     110617 MISS:          1 MSHR_MERGE:          0
cpu0->cpu0_L2C TRANSLATION  ACCESS:       2685 HIT:        988 MISS:       1697 MSHR_MERGE:          0
cpu0->cpu0_L2C PREFETCH REQUESTED:          0 ISSUED:          0 USEFUL:          0 USELESS:          0
cpu0->cpu0_L2C AVERAGE MISS LATENCY: 515.4 cycles
cpu0->cpu0_L1I TOTAL        ACCESS:   26318436 HIT:   26318314 MISS:        122 MSHR_MERGE:         15
cpu0->cpu0_L1I LOAD         ACCESS:   26318436 HIT:   26318314 MISS:        122 MSHR_MERGE:         15
cpu0->cpu0_L1I RFO          ACCESS:          0 HIT:          0 MISS:          0 MSHR_MERGE:          0
cpu0->cpu0_L1I PREFETCH     ACCESS:          0 HIT:          0 MISS:          0 MSHR_MERGE:          0
cpu0->cpu0_L1I WRITE        ACCESS:          0 HIT:          0 MISS:          0 MSHR_MERGE:          0
cpu0->cpu0_L1I TRANSLATION  ACCESS:          0 HIT:          0 MISS:          0 MSHR_MERGE:          0
cpu0->cpu0_L1I PREFETCH REQUESTED:          0 ISSUED:          0 USEFUL:          0 USELESS:          0
cpu0->cpu0_L1I AVERAGE MISS LATENCY: 351.6 cycles
cpu0->cpu0_L1D TOTAL        ACCESS:   62278200 HIT:   54636143 MISS:    7642057 MSHR_MERGE:    2160805
cpu0->cpu0_L1D LOAD         ACCESS:   45882513 HIT:   42240160 MISS:    3642353 MSHR_MERGE:    1116168
cpu0->cpu0_L1D RFO          ACCESS:          0 HIT:          0 MISS:          0 MSHR_MERGE:          0
cpu0->cpu0_L1D PREFETCH     ACCESS:   15335085 HIT:   11586854 MISS:    3748231 MSHR_MERGE:     852691
cpu0->cpu0_L1D WRITE        ACCESS:    1038256 HIT:     789468 MISS:     248788 MSHR_MERGE:     191946
cpu0->cpu0_L1D TRANSLATION  ACCESS:      22346 HIT:      19661 MISS:       2685 MSHR_MERGE:          0
cpu0->cpu0_L1D PREFETCH REQUESTED:   51947140 ISSUED:   15335085 USEFUL:    2816562 USELESS:      78967
cpu0->cpu0_L1D AVERAGE MISS LATENCY: 72.31 cycles
cpu0->cpu0_ITLB TOTAL        ACCESS:   21472190 HIT:   21472171 MISS:         19 MSHR_MERGE:          7
cpu0->cpu0_ITLB LOAD         ACCESS:   21472190 HIT:   21472171 MISS:         19 MSHR_MERGE:          7
cpu0->cpu0_ITLB RFO          ACCESS:          0 HIT:          0 MISS:          0 MSHR_MERGE:          0
cpu0->cpu0_ITLB PREFETCH     ACCESS:          0 HIT:          0 MISS:          0 MSHR_MERGE:          0
cpu0->cpu0_ITLB WRITE        ACCESS:          0 HIT:          0 MISS:          0 MSHR_MERGE:          0
cpu0->cpu0_ITLB TRANSLATION  ACCESS:          0 HIT:          0 MISS:          0 MSHR_MERGE:          0
cpu0->cpu0_ITLB PREFETCH REQUESTED:          0 ISSUED:          0 USEFUL:          0 USELESS:          0
cpu0->cpu0_ITLB AVERAGE MISS LATENCY: 414.7 cycles
cpu0->cpu0_DTLB TOTAL        ACCESS:   51004232 HIT:   50911248 MISS:      92984 MSHR_MERGE:      65607
cpu0->cpu0_DTLB LOAD         ACCESS:   51004232 HIT:   50911248 MISS:      92984 MSHR_MERGE:      65607
cpu0->cpu0_DTLB RFO          ACCESS:          0 HIT:          0 MISS:          0 MSHR_MERGE:          0
cpu0->cpu0_DTLB PREFETCH     ACCESS:          0 HIT:          0 MISS:          0 MSHR_MERGE:          0
cpu0->cpu0_DTLB WRITE        ACCESS:          0 HIT:          0 MISS:          0 MSHR_MERGE:          0
cpu0->cpu0_DTLB TRANSLATION  ACCESS:          0 HIT:          0 MISS:          0 MSHR_MERGE:          0
cpu0->cpu0_DTLB PREFETCH REQUESTED:          0 ISSUED:          0 USEFUL:          0 USELESS:          0
cpu0->cpu0_DTLB AVERAGE MISS LATENCY: 65.51 cycles
cpu0->LLC TOTAL        ACCESS:     925544 HIT:     121152 MISS:     804392 MSHR_MERGE:          0
cpu0->LLC LOAD         ACCESS:     268471 HIT:      39668 MISS:     228803 MSHR_MERGE:          0
cpu0->LLC RFO          ACCESS:      34489 HIT:         77 MISS:      34412 MSHR_MERGE:          0
cpu0->LLC PREFETCH     ACCESS:     572436 HIT:      75360 MISS:     497076 MSHR_MERGE:          0
cpu0->LLC WRITE        ACCESS:      48451 HIT:       5825 MISS:      42626 MSHR_MERGE:          0
cpu0->LLC TRANSLATION  ACCESS:       1697 HIT:        222 MISS:       1475 MSHR_MERGE:          0
cpu0->LLC PREFETCH REQUESTED:          0 ISSUED:          0 USEFUL:          0 USELESS:          0
cpu0->LLC AVERAGE MISS LATENCY: 490.6 cycles

DRAM Statistics

Channel 0 RQ ROW_BUFFER_HIT:     285996
  ROW_BUFFER_MISS:     475654
  AVG DBUS CONGESTED CYCLE: 4.055
Channel 0 WQ ROW_BUFFER_HIT:        967
  ROW_BUFFER_MISS:      18010
  FULL:          0
Channel 0 REFRESHES ISSUED:       6803
