[VMEM] WARNING: physical memory size is smaller than virtual memory size.

*** ChampSim Multicore Out-of-Order Simulator ***
Warmup Instructions: 50000000
Simulation Instructions: 200000000
Number of CPUs: 1
Page size: 4096
Core 0: /local-ssd/ben/dpc4-traces/gtraces_v2/charlie_0003.champsim.gz
Off-chip DRAM Size: 64 GiB Channels: 1 Width: 64-bit Data Rate: 800 MT/s
[BTB] WARNING: target of return is a lower address than the corresponding call. This is usually a problem with your trace.
Heartbeat CPU 0 instructions: 500002 cycles: 255076 heartbeat IPC: 1.96 cumulative IPC: 1.96 (Simulation time: 00 hr 00 min 06 sec)
Heartbeat CPU 0 instructions: 1000006 cycles: 516126 heartbeat IPC: 1.915 cumulative IPC: 1.938 (Simulation time: 00 hr 00 min 12 sec)
[BTB] WARNING: target of return is a lower address than the corresponding call. This is usually a problem with your trace.
Heartbeat CPU 0 instructions: 1500013 cycles: 699931 heartbeat IPC: 2.72 cumulative IPC: 2.143 (Simulation time: 00 hr 00 min 15 sec)
[BTB] WARNING: target of return is a lower address than the corresponding call. This is usually a problem with your trace.
Heartbeat CPU 0 instructions: 2000018 cycles: 844199 heartbeat IPC: 3.466 cumulative IPC: 2.369 (Simulation time: 00 hr 00 min 17 sec)
[BTB] WARNING: target of return is a lower address than the corresponding call. This is usually a problem with your trace.
Heartbeat CPU 0 instructions: 2500018 cycles: 994021 heartbeat IPC: 3.337 cumulative IPC: 2.515 (Simulation time: 00 hr 00 min 20 sec)
[BTB] WARNING: target of return is a lower address than the corresponding call. This is usually a problem with your trace.
Heartbeat CPU 0 instructions: 3000024 cycles: 1106767 heartbeat IPC: 4.435 cumulative IPC: 2.711 (Simulation time: 00 hr 00 min 21 sec)
[BTB] WARNING: target of return is a lower address than the corresponding call. This is usually a problem with your trace.
[BTB] WARNING: target of return is a lower address than the corresponding call. This is usually a problem with your trace.
[BTB] WARNING: target of return is a lower address than the corresponding call. This is usually a problem with your trace.
[BTB] WARNING: target of return is a lower address than the corresponding call. This is usually a problem with your trace.
[BTB] WARNING: target of return is a lower address than the corresponding call. This is usually a problem with your trace.
Heartbeat CPU 0 instructions: 3500030 cycles: 1225212 heartbeat IPC: 4.221 cumulative IPC: 2.857 (Simulation time: 00 hr 00 min 23 sec)
Heartbeat CPU 0 instructions: 4000035 cycles: 1330032 heartbeat IPC: 4.77 cumulative IPC: 3.007 (Simulation time: 00 hr 00 min 25 sec)
Heartbeat CPU 0 instructions: 4500035 cycles: 1466284 heartbeat IPC: 3.67 cumulative IPC: 3.069 (Simulation time: 00 hr 00 min 27 sec)
Heartbeat CPU 0 instructions: 5000036 cycles: 1670034 heartbeat IPC: 2.454 cumulative IPC: 2.994 (Simulation time: 00 hr 00 min 30 sec)
Heartbeat CPU 0 instructions: 5500042 cycles: 1813410 heartbeat IPC: 3.487 cumulative IPC: 3.033 (Simulation time: 00 hr 00 min 33 sec)
Heartbeat CPU 0 instructions: 6000042 cycles: 1919762 heartbeat IPC: 4.701 cumulative IPC: 3.125 (Simulation time: 00 hr 00 min 34 sec)
Heartbeat CPU 0 instructions: 6500046 cycles: 2024245 heartbeat IPC: 4.786 cumulative IPC: 3.211 (Simulation time: 00 hr 00 min 36 sec)
Heartbeat CPU 0 instructions: 7000050 cycles: 2129973 heartbeat IPC: 4.729 cumulative IPC: 3.286 (Simulation time: 00 hr 00 min 38 sec)
Heartbeat CPU 0 instructions: 7500056 cycles: 2235198 heartbeat IPC: 4.752 cumulative IPC: 3.355 (Simulation time: 00 hr 00 min 39 sec)
Heartbeat CPU 0 instructions: 8000059 cycles: 2340324 heartbeat IPC: 4.756 cumulative IPC: 3.418 (Simulation time: 00 hr 00 min 41 sec)
Heartbeat CPU 0 instructions: 8500062 cycles: 2444794 heartbeat IPC: 4.786 cumulative IPC: 3.477 (Simulation time: 00 hr 00 min 42 sec)
Heartbeat CPU 0 instructions: 9000062 cycles: 2548737 heartbeat IPC: 4.81 cumulative IPC: 3.531 (Simulation time: 00 hr 00 min 44 sec)
Heartbeat CPU 0 instructions: 9500064 cycles: 2653246 heartbeat IPC: 4.784 cumulative IPC: 3.581 (Simulation time: 00 hr 00 min 46 sec)
Heartbeat CPU 0 instructions: 10000067 cycles: 2757684 heartbeat IPC: 4.788 cumulative IPC: 3.626 (Simulation time: 00 hr 00 min 47 sec)
Heartbeat CPU 0 instructions: 10500070 cycles: 2862846 heartbeat IPC: 4.755 cumulative IPC: 3.668 (Simulation time: 00 hr 00 min 49 sec)
Heartbeat CPU 0 instructions: 11000075 cycles: 2966840 heartbeat IPC: 4.808 cumulative IPC: 3.708 (Simulation time: 00 hr 00 min 50 sec)
Heartbeat CPU 0 instructions: 11500076 cycles: 3071100 heartbeat IPC: 4.796 cumulative IPC: 3.745 (Simulation time: 00 hr 00 min 52 sec)
Heartbeat CPU 0 instructions: 12000081 cycles: 3175025 heartbeat IPC: 4.811 cumulative IPC: 3.78 (Simulation time: 00 hr 00 min 54 sec)
Heartbeat CPU 0 instructions: 12500083 cycles: 3279688 heartbeat IPC: 4.777 cumulative IPC: 3.811 (Simulation time: 00 hr 00 min 55 sec)
Heartbeat CPU 0 instructions: 13000086 cycles: 3384430 heartbeat IPC: 4.774 cumulative IPC: 3.841 (Simulation time: 00 hr 00 min 57 sec)
Heartbeat CPU 0 instructions: 13500086 cycles: 3488185 heartbeat IPC: 4.819 cumulative IPC: 3.87 (Simulation time: 00 hr 00 min 58 sec)
Heartbeat CPU 0 instructions: 14000087 cycles: 3591986 heartbeat IPC: 4.817 cumulative IPC: 3.898 (Simulation time: 00 hr 01 min 00 sec)
Heartbeat CPU 0 instructions: 14500094 cycles: 3695221 heartbeat IPC: 4.843 cumulative IPC: 3.924 (Simulation time: 00 hr 01 min 01 sec)
Heartbeat CPU 0 instructions: 15000096 cycles: 3844029 heartbeat IPC: 3.36 cumulative IPC: 3.902 (Simulation time: 00 hr 01 min 03 sec)
Heartbeat CPU 0 instructions: 15500096 cycles: 3951087 heartbeat IPC: 4.67 cumulative IPC: 3.923 (Simulation time: 00 hr 01 min 05 sec)
Heartbeat CPU 0 instructions: 16000100 cycles: 4063601 heartbeat IPC: 4.444 cumulative IPC: 3.937 (Simulation time: 00 hr 01 min 07 sec)
Heartbeat CPU 0 instructions: 16500105 cycles: 4168129 heartbeat IPC: 4.783 cumulative IPC: 3.959 (Simulation time: 00 hr 01 min 09 sec)
Heartbeat CPU 0 instructions: 17000108 cycles: 4272258 heartbeat IPC: 4.802 cumulative IPC: 3.979 (Simulation time: 00 hr 01 min 10 sec)
Heartbeat CPU 0 instructions: 17500115 cycles: 4376104 heartbeat IPC: 4.815 cumulative IPC: 3.999 (Simulation time: 00 hr 01 min 12 sec)
Heartbeat CPU 0 instructions: 18000117 cycles: 4483371 heartbeat IPC: 4.661 cumulative IPC: 4.015 (Simulation time: 00 hr 01 min 14 sec)
Heartbeat CPU 0 instructions: 18500122 cycles: 4586862 heartbeat IPC: 4.831 cumulative IPC: 4.033 (Simulation time: 00 hr 01 min 16 sec)
Heartbeat CPU 0 instructions: 19000122 cycles: 4688915 heartbeat IPC: 4.899 cumulative IPC: 4.052 (Simulation time: 00 hr 01 min 17 sec)
Heartbeat CPU 0 instructions: 19500124 cycles: 4794069 heartbeat IPC: 4.755 cumulative IPC: 4.068 (Simulation time: 00 hr 01 min 19 sec)
Heartbeat CPU 0 instructions: 20000124 cycles: 4898002 heartbeat IPC: 4.811 cumulative IPC: 4.083 (Simulation time: 00 hr 01 min 21 sec)
Heartbeat CPU 0 instructions: 20500126 cycles: 5003707 heartbeat IPC: 4.73 cumulative IPC: 4.097 (Simulation time: 00 hr 01 min 23 sec)
Heartbeat CPU 0 instructions: 21000132 cycles: 5107610 heartbeat IPC: 4.812 cumulative IPC: 4.112 (Simulation time: 00 hr 01 min 24 sec)
Heartbeat CPU 0 instructions: 21500132 cycles: 5211766 heartbeat IPC: 4.8 cumulative IPC: 4.125 (Simulation time: 00 hr 01 min 26 sec)
Heartbeat CPU 0 instructions: 22000135 cycles: 5319201 heartbeat IPC: 4.654 cumulative IPC: 4.136 (Simulation time: 00 hr 01 min 28 sec)
Heartbeat CPU 0 instructions: 22500135 cycles: 5421415 heartbeat IPC: 4.892 cumulative IPC: 4.15 (Simulation time: 00 hr 01 min 30 sec)
Heartbeat CPU 0 instructions: 23000140 cycles: 5523909 heartbeat IPC: 4.878 cumulative IPC: 4.164 (Simulation time: 00 hr 01 min 31 sec)
Heartbeat CPU 0 instructions: 23500140 cycles: 5628180 heartbeat IPC: 4.795 cumulative IPC: 4.175 (Simulation time: 00 hr 01 min 33 sec)
Heartbeat CPU 0 instructions: 24000141 cycles: 5730473 heartbeat IPC: 4.888 cumulative IPC: 4.188 (Simulation time: 00 hr 01 min 35 sec)
Heartbeat CPU 0 instructions: 24500145 cycles: 5834074 heartbeat IPC: 4.826 cumulative IPC: 4.199 (Simulation time: 00 hr 01 min 36 sec)
Heartbeat CPU 0 instructions: 25000150 cycles: 5937449 heartbeat IPC: 4.837 cumulative IPC: 4.211 (Simulation time: 00 hr 01 min 38 sec)
Heartbeat CPU 0 instructions: 25500151 cycles: 6039568 heartbeat IPC: 4.896 cumulative IPC: 4.222 (Simulation time: 00 hr 01 min 40 sec)
Heartbeat CPU 0 instructions: 26000157 cycles: 6147645 heartbeat IPC: 4.626 cumulative IPC: 4.229 (Simulation time: 00 hr 01 min 42 sec)
Heartbeat CPU 0 instructions: 26500163 cycles: 6256501 heartbeat IPC: 4.593 cumulative IPC: 4.236 (Simulation time: 00 hr 01 min 43 sec)
Heartbeat CPU 0 instructions: 27000163 cycles: 6363031 heartbeat IPC: 4.694 cumulative IPC: 4.243 (Simulation time: 00 hr 01 min 45 sec)
Heartbeat CPU 0 instructions: 27500165 cycles: 6472983 heartbeat IPC: 4.547 cumulative IPC: 4.248 (Simulation time: 00 hr 01 min 47 sec)
Heartbeat CPU 0 instructions: 28000170 cycles: 6583131 heartbeat IPC: 4.539 cumulative IPC: 4.253 (Simulation time: 00 hr 01 min 49 sec)
Heartbeat CPU 0 instructions: 28500172 cycles: 6690683 heartbeat IPC: 4.649 cumulative IPC: 4.26 (Simulation time: 00 hr 01 min 50 sec)
Heartbeat CPU 0 instructions: 29000179 cycles: 6795070 heartbeat IPC: 4.79 cumulative IPC: 4.268 (Simulation time: 00 hr 01 min 52 sec)
Heartbeat CPU 0 instructions: 29500180 cycles: 7052336 heartbeat IPC: 1.944 cumulative IPC: 4.183 (Simulation time: 00 hr 01 min 56 sec)
Heartbeat CPU 0 instructions: 30000182 cycles: 7160563 heartbeat IPC: 4.62 cumulative IPC: 4.19 (Simulation time: 00 hr 01 min 58 sec)
Heartbeat CPU 0 instructions: 30500182 cycles: 7264272 heartbeat IPC: 4.821 cumulative IPC: 4.199 (Simulation time: 00 hr 01 min 59 sec)
Heartbeat CPU 0 instructions: 31000182 cycles: 7365998 heartbeat IPC: 4.915 cumulative IPC: 4.209 (Simulation time: 00 hr 02 min 01 sec)
Heartbeat CPU 0 instructions: 31500183 cycles: 7467035 heartbeat IPC: 4.949 cumulative IPC: 4.219 (Simulation time: 00 hr 02 min 03 sec)
Heartbeat CPU 0 instructions: 32000184 cycles: 7567035 heartbeat IPC: 5 cumulative IPC: 4.229 (Simulation time: 00 hr 02 min 04 sec)
Heartbeat CPU 0 instructions: 32500191 cycles: 7667037 heartbeat IPC: 5 cumulative IPC: 4.239 (Simulation time: 00 hr 02 min 05 sec)
Heartbeat CPU 0 instructions: 33000198 cycles: 7767141 heartbeat IPC: 4.995 cumulative IPC: 4.249 (Simulation time: 00 hr 02 min 07 sec)
Heartbeat CPU 0 instructions: 33500201 cycles: 7867141 heartbeat IPC: 5 cumulative IPC: 4.258 (Simulation time: 00 hr 02 min 08 sec)
Heartbeat CPU 0 instructions: 34000208 cycles: 7967238 heartbeat IPC: 4.995 cumulative IPC: 4.268 (Simulation time: 00 hr 02 min 10 sec)
Heartbeat CPU 0 instructions: 34500211 cycles: 8067341 heartbeat IPC: 4.995 cumulative IPC: 4.277 (Simulation time: 00 hr 02 min 11 sec)
Heartbeat CPU 0 instructions: 35000216 cycles: 8167538 heartbeat IPC: 4.99 cumulative IPC: 4.285 (Simulation time: 00 hr 02 min 13 sec)
Heartbeat CPU 0 instructions: 35500219 cycles: 8267645 heartbeat IPC: 4.995 cumulative IPC: 4.294 (Simulation time: 00 hr 02 min 14 sec)
Heartbeat CPU 0 instructions: 36000221 cycles: 8367645 heartbeat IPC: 5 cumulative IPC: 4.302 (Simulation time: 00 hr 02 min 16 sec)
Heartbeat CPU 0 instructions: 36500222 cycles: 8467644 heartbeat IPC: 5 cumulative IPC: 4.311 (Simulation time: 00 hr 02 min 17 sec)
Heartbeat CPU 0 instructions: 37000228 cycles: 8567763 heartbeat IPC: 4.994 cumulative IPC: 4.319 (Simulation time: 00 hr 02 min 19 sec)
Heartbeat CPU 0 instructions: 37500233 cycles: 8667763 heartbeat IPC: 5 cumulative IPC: 4.326 (Simulation time: 00 hr 02 min 20 sec)
Heartbeat CPU 0 instructions: 38000239 cycles: 8767765 heartbeat IPC: 5 cumulative IPC: 4.334 (Simulation time: 00 hr 02 min 22 sec)
Heartbeat CPU 0 instructions: 38500243 cycles: 8867764 heartbeat IPC: 5 cumulative IPC: 4.342 (Simulation time: 00 hr 02 min 23 sec)
Heartbeat CPU 0 instructions: 39000249 cycles: 8967766 heartbeat IPC: 5 cumulative IPC: 4.349 (Simulation time: 00 hr 02 min 25 sec)
Heartbeat CPU 0 instructions: 39500251 cycles: 9069096 heartbeat IPC: 4.934 cumulative IPC: 4.355 (Simulation time: 00 hr 02 min 26 sec)
Heartbeat CPU 0 instructions: 40000253 cycles: 9184693 heartbeat IPC: 4.325 cumulative IPC: 4.355 (Simulation time: 00 hr 02 min 28 sec)
Heartbeat CPU 0 instructions: 40500260 cycles: 9286497 heartbeat IPC: 4.911 cumulative IPC: 4.361 (Simulation time: 00 hr 02 min 30 sec)
Heartbeat CPU 0 instructions: 41000265 cycles: 9389582 heartbeat IPC: 4.85 cumulative IPC: 4.367 (Simulation time: 00 hr 02 min 31 sec)
Heartbeat CPU 0 instructions: 41500268 cycles: 9490159 heartbeat IPC: 4.971 cumulative IPC: 4.373 (Simulation time: 00 hr 02 min 33 sec)
Heartbeat CPU 0 instructions: 42000272 cycles: 9593572 heartbeat IPC: 4.835 cumulative IPC: 4.378 (Simulation time: 00 hr 02 min 34 sec)
Heartbeat CPU 0 instructions: 42500276 cycles: 9696156 heartbeat IPC: 4.874 cumulative IPC: 4.383 (Simulation time: 00 hr 02 min 36 sec)
Heartbeat CPU 0 instructions: 43000279 cycles: 9798745 heartbeat IPC: 4.874 cumulative IPC: 4.388 (Simulation time: 00 hr 02 min 37 sec)
Heartbeat CPU 0 instructions: 43500282 cycles: 9900530 heartbeat IPC: 4.912 cumulative IPC: 4.394 (Simulation time: 00 hr 02 min 39 sec)
Heartbeat CPU 0 instructions: 44000287 cycles: 10002651 heartbeat IPC: 4.896 cumulative IPC: 4.399 (Simulation time: 00 hr 02 min 40 sec)
Heartbeat CPU 0 instructions: 44500293 cycles: 10105001 heartbeat IPC: 4.885 cumulative IPC: 4.404 (Simulation time: 00 hr 02 min 42 sec)
Heartbeat CPU 0 instructions: 45000298 cycles: 10206339 heartbeat IPC: 4.934 cumulative IPC: 4.409 (Simulation time: 00 hr 02 min 43 sec)
Heartbeat CPU 0 instructions: 45500299 cycles: 10306954 heartbeat IPC: 4.969 cumulative IPC: 4.415 (Simulation time: 00 hr 02 min 45 sec)
Heartbeat CPU 0 instructions: 46000304 cycles: 10407592 heartbeat IPC: 4.968 cumulative IPC: 4.42 (Simulation time: 00 hr 02 min 46 sec)
Heartbeat CPU 0 instructions: 46500304 cycles: 10507993 heartbeat IPC: 4.98 cumulative IPC: 4.425 (Simulation time: 00 hr 02 min 48 sec)
Heartbeat CPU 0 instructions: 47000304 cycles: 10608842 heartbeat IPC: 4.958 cumulative IPC: 4.43 (Simulation time: 00 hr 02 min 49 sec)
Heartbeat CPU 0 instructions: 47500306 cycles: 10710315 heartbeat IPC: 4.927 cumulative IPC: 4.435 (Simulation time: 00 hr 02 min 51 sec)
Heartbeat CPU 0 instructions: 48000308 cycles: 10811530 heartbeat IPC: 4.94 cumulative IPC: 4.44 (Simulation time: 00 hr 02 min 52 sec)
Heartbeat CPU 0 instructions: 48500308 cycles: 10911763 heartbeat IPC: 4.988 cumulative IPC: 4.445 (Simulation time: 00 hr 02 min 54 sec)
Heartbeat CPU 0 instructions: 49000310 cycles: 11012650 heartbeat IPC: 4.956 cumulative IPC: 4.449 (Simulation time: 00 hr 02 min 55 sec)
Heartbeat CPU 0 instructions: 49500311 cycles: 11114548 heartbeat IPC: 4.907 cumulative IPC: 4.454 (Simulation time: 00 hr 02 min 57 sec)
Warmup halting CPU 0 at instruction 50000000 cycle 11229597 for remainder of phase
Warmup finished CPU 0 instructions: 50000000 cycles: 11229597 cumulative IPC: 4.453 (Simulation time: 00 hr 02 min 59 sec)
Warmup complete CPU 0 instructions: 50000000 cycles: 11229597 cumulative IPC: 4.453 (Simulation time: 00 hr 02 min 59 sec)
Heartbeat CPU 0 instructions: 50000311 cycles: 11229749 heartbeat IPC: 4.34 cumulative IPC: 2.046 (Simulation time: 00 hr 02 min 59 sec)
Heartbeat CPU 0 instructions: 50500313 cycles: 11918347 heartbeat IPC: 0.7261 cumulative IPC: 0.7264 (Simulation time: 00 hr 03 min 06 sec)
Heartbeat CPU 0 instructions: 51000313 cycles: 12496831 heartbeat IPC: 0.8643 cumulative IPC: 0.7894 (Simulation time: 00 hr 03 min 11 sec)
Heartbeat CPU 0 instructions: 51500313 cycles: 13115165 heartbeat IPC: 0.8086 cumulative IPC: 0.7957 (Simulation time: 00 hr 03 min 17 sec)
Heartbeat CPU 0 instructions: 52000315 cycles: 13683540 heartbeat IPC: 0.8797 cumulative IPC: 0.8151 (Simulation time: 00 hr 03 min 23 sec)
Heartbeat CPU 0 instructions: 52500315 cycles: 14272323 heartbeat IPC: 0.8492 cumulative IPC: 0.8217 (Simulation time: 00 hr 03 min 29 sec)
Heartbeat CPU 0 instructions: 53000316 cycles: 14832134 heartbeat IPC: 0.8932 cumulative IPC: 0.8328 (Simulation time: 00 hr 03 min 34 sec)
Heartbeat CPU 0 instructions: 53500316 cycles: 15433422 heartbeat IPC: 0.8315 cumulative IPC: 0.8327 (Simulation time: 00 hr 03 min 41 sec)
Heartbeat CPU 0 instructions: 54000319 cycles: 16200977 heartbeat IPC: 0.6514 cumulative IPC: 0.8047 (Simulation time: 00 hr 03 min 49 sec)
Heartbeat CPU 0 instructions: 54500320 cycles: 16868652 heartbeat IPC: 0.7489 cumulative IPC: 0.7981 (Simulation time: 00 hr 03 min 56 sec)
Heartbeat CPU 0 instructions: 55000323 cycles: 17541794 heartbeat IPC: 0.7428 cumulative IPC: 0.7922 (Simulation time: 00 hr 04 min 02 sec)
Heartbeat CPU 0 instructions: 55500323 cycles: 18267541 heartbeat IPC: 0.6889 cumulative IPC: 0.7815 (Simulation time: 00 hr 04 min 09 sec)
Heartbeat CPU 0 instructions: 56000323 cycles: 20218063 heartbeat IPC: 0.2563 cumulative IPC: 0.6676 (Simulation time: 00 hr 04 min 25 sec)
Heartbeat CPU 0 instructions: 56500323 cycles: 24934425 heartbeat IPC: 0.106 cumulative IPC: 0.4743 (Simulation time: 00 hr 04 min 59 sec)
Heartbeat CPU 0 instructions: 57000327 cycles: 25553020 heartbeat IPC: 0.8083 cumulative IPC: 0.4887 (Simulation time: 00 hr 05 min 05 sec)
Heartbeat CPU 0 instructions: 57500331 cycles: 26171486 heartbeat IPC: 0.8085 cumulative IPC: 0.502 (Simulation time: 00 hr 05 min 11 sec)
Heartbeat CPU 0 instructions: 58000332 cycles: 26711078 heartbeat IPC: 0.9266 cumulative IPC: 0.5168 (Simulation time: 00 hr 05 min 16 sec)
Heartbeat CPU 0 instructions: 58500334 cycles: 27312544 heartbeat IPC: 0.8313 cumulative IPC: 0.5285 (Simulation time: 00 hr 05 min 23 sec)
Heartbeat CPU 0 instructions: 59000338 cycles: 27937629 heartbeat IPC: 0.7999 cumulative IPC: 0.5387 (Simulation time: 00 hr 05 min 29 sec)
Heartbeat CPU 0 instructions: 59500341 cycles: 28553057 heartbeat IPC: 0.8124 cumulative IPC: 0.5484 (Simulation time: 00 hr 05 min 35 sec)
Heartbeat CPU 0 instructions: 60000344 cycles: 29165869 heartbeat IPC: 0.8159 cumulative IPC: 0.5575 (Simulation time: 00 hr 05 min 42 sec)
Heartbeat CPU 0 instructions: 60500351 cycles: 29774960 heartbeat IPC: 0.8209 cumulative IPC: 0.5662 (Simulation time: 00 hr 05 min 48 sec)
Heartbeat CPU 0 instructions: 61000351 cycles: 30612043 heartbeat IPC: 0.5973 cumulative IPC: 0.5675 (Simulation time: 00 hr 05 min 56 sec)
Heartbeat CPU 0 instructions: 61500353 cycles: 31349056 heartbeat IPC: 0.6784 cumulative IPC: 0.5716 (Simulation time: 00 hr 06 min 04 sec)
Heartbeat CPU 0 instructions: 62000353 cycles: 33305592 heartbeat IPC: 0.2556 cumulative IPC: 0.5436 (Simulation time: 00 hr 06 min 18 sec)
Heartbeat CPU 0 instructions: 62500358 cycles: 35500612 heartbeat IPC: 0.2278 cumulative IPC: 0.515 (Simulation time: 00 hr 06 min 34 sec)
Heartbeat CPU 0 instructions: 63000363 cycles: 37331717 heartbeat IPC: 0.2731 cumulative IPC: 0.4981 (Simulation time: 00 hr 06 min 47 sec)
Heartbeat CPU 0 instructions: 63500366 cycles: 39532540 heartbeat IPC: 0.2272 cumulative IPC: 0.477 (Simulation time: 00 hr 07 min 03 sec)
Heartbeat CPU 0 instructions: 64000367 cycles: 40604621 heartbeat IPC: 0.4664 cumulative IPC: 0.4766 (Simulation time: 00 hr 07 min 11 sec)
Heartbeat CPU 0 instructions: 64500367 cycles: 41542284 heartbeat IPC: 0.5332 cumulative IPC: 0.4784 (Simulation time: 00 hr 07 min 19 sec)
Heartbeat CPU 0 instructions: 65000369 cycles: 42992130 heartbeat IPC: 0.3449 cumulative IPC: 0.4723 (Simulation time: 00 hr 07 min 30 sec)
Heartbeat CPU 0 instructions: 65500376 cycles: 43153416 heartbeat IPC: 3.1 cumulative IPC: 0.4855 (Simulation time: 00 hr 07 min 32 sec)
Heartbeat CPU 0 instructions: 66000381 cycles: 43337962 heartbeat IPC: 2.709 cumulative IPC: 0.4983 (Simulation time: 00 hr 07 min 34 sec)
Heartbeat CPU 0 instructions: 66500381 cycles: 43594486 heartbeat IPC: 1.949 cumulative IPC: 0.5098 (Simulation time: 00 hr 07 min 37 sec)
Heartbeat CPU 0 instructions: 67000384 cycles: 43825580 heartbeat IPC: 2.164 cumulative IPC: 0.5215 (Simulation time: 00 hr 07 min 40 sec)
Heartbeat CPU 0 instructions: 67500387 cycles: 43983514 heartbeat IPC: 3.166 cumulative IPC: 0.5343 (Simulation time: 00 hr 07 min 42 sec)
Heartbeat CPU 0 instructions: 68000389 cycles: 44153660 heartbeat IPC: 2.939 cumulative IPC: 0.5467 (Simulation time: 00 hr 07 min 45 sec)
Heartbeat CPU 0 instructions: 68500390 cycles: 44365538 heartbeat IPC: 2.36 cumulative IPC: 0.5583 (Simulation time: 00 hr 07 min 47 sec)
Heartbeat CPU 0 instructions: 69000395 cycles: 44548426 heartbeat IPC: 2.734 cumulative IPC: 0.5703 (Simulation time: 00 hr 07 min 50 sec)
Heartbeat CPU 0 instructions: 69500400 cycles: 44745596 heartbeat IPC: 2.536 cumulative IPC: 0.5818 (Simulation time: 00 hr 07 min 52 sec)
Heartbeat CPU 0 instructions: 70000400 cycles: 44948393 heartbeat IPC: 2.466 cumulative IPC: 0.5932 (Simulation time: 00 hr 07 min 55 sec)
Heartbeat CPU 0 instructions: 70500401 cycles: 45126367 heartbeat IPC: 2.809 cumulative IPC: 0.6048 (Simulation time: 00 hr 07 min 57 sec)
Heartbeat CPU 0 instructions: 71000408 cycles: 45249880 heartbeat IPC: 4.048 cumulative IPC: 0.6173 (Simulation time: 00 hr 08 min 00 sec)
Heartbeat CPU 0 instructions: 71500409 cycles: 45460712 heartbeat IPC: 2.372 cumulative IPC: 0.6281 (Simulation time: 00 hr 08 min 02 sec)
Heartbeat CPU 0 instructions: 72000412 cycles: 45698944 heartbeat IPC: 2.099 cumulative IPC: 0.6383 (Simulation time: 00 hr 08 min 05 sec)
Heartbeat CPU 0 instructions: 72500415 cycles: 45857908 heartbeat IPC: 3.145 cumulative IPC: 0.6498 (Simulation time: 00 hr 08 min 07 sec)
Heartbeat CPU 0 instructions: 73000419 cycles: 46054678 heartbeat IPC: 2.541 cumulative IPC: 0.6605 (Simulation time: 00 hr 08 min 10 sec)
Heartbeat CPU 0 instructions: 73500420 cycles: 46253807 heartbeat IPC: 2.511 cumulative IPC: 0.671 (Simulation time: 00 hr 08 min 12 sec)
Heartbeat CPU 0 instructions: 74000426 cycles: 46433891 heartbeat IPC: 2.777 cumulative IPC: 0.6817 (Simulation time: 00 hr 08 min 15 sec)
Heartbeat CPU 0 instructions: 74500426 cycles: 46658752 heartbeat IPC: 2.224 cumulative IPC: 0.6915 (Simulation time: 00 hr 08 min 18 sec)
Heartbeat CPU 0 instructions: 75000428 cycles: 48933110 heartbeat IPC: 0.2198 cumulative IPC: 0.6631 (Simulation time: 00 hr 08 min 34 sec)
Heartbeat CPU 0 instructions: 75500428 cycles: 52157003 heartbeat IPC: 0.1551 cumulative IPC: 0.6231 (Simulation time: 00 hr 08 min 57 sec)
Heartbeat CPU 0 instructions: 76000428 cycles: 53682764 heartbeat IPC: 0.3277 cumulative IPC: 0.6124 (Simulation time: 00 hr 09 min 08 sec)
Heartbeat CPU 0 instructions: 76500428 cycles: 55894789 heartbeat IPC: 0.226 cumulative IPC: 0.5933 (Simulation time: 00 hr 09 min 24 sec)
Heartbeat CPU 0 instructions: 77000428 cycles: 58036097 heartbeat IPC: 0.2335 cumulative IPC: 0.5769 (Simulation time: 00 hr 09 min 39 sec)
Heartbeat CPU 0 instructions: 77500428 cycles: 60141241 heartbeat IPC: 0.2375 cumulative IPC: 0.5622 (Simulation time: 00 hr 09 min 55 sec)
Heartbeat CPU 0 instructions: 78000429 cycles: 62042262 heartbeat IPC: 0.263 cumulative IPC: 0.5511 (Simulation time: 00 hr 10 min 09 sec)
Heartbeat CPU 0 instructions: 78500429 cycles: 64401773 heartbeat IPC: 0.2119 cumulative IPC: 0.536 (Simulation time: 00 hr 10 min 25 sec)
Heartbeat CPU 0 instructions: 79000429 cycles: 66614230 heartbeat IPC: 0.226 cumulative IPC: 0.5236 (Simulation time: 00 hr 10 min 40 sec)
Heartbeat CPU 0 instructions: 79500432 cycles: 68601476 heartbeat IPC: 0.2516 cumulative IPC: 0.5142 (Simulation time: 00 hr 10 min 57 sec)
Heartbeat CPU 0 instructions: 80000432 cycles: 70083083 heartbeat IPC: 0.3375 cumulative IPC: 0.5097 (Simulation time: 00 hr 11 min 09 sec)
Heartbeat CPU 0 instructions: 80500436 cycles: 71550705 heartbeat IPC: 0.3407 cumulative IPC: 0.5056 (Simulation time: 00 hr 11 min 20 sec)
Heartbeat CPU 0 instructions: 81000436 cycles: 73073961 heartbeat IPC: 0.3282 cumulative IPC: 0.5013 (Simulation time: 00 hr 11 min 33 sec)
Heartbeat CPU 0 instructions: 81500441 cycles: 74655629 heartbeat IPC: 0.3161 cumulative IPC: 0.4966 (Simulation time: 00 hr 11 min 46 sec)
Heartbeat CPU 0 instructions: 82000441 cycles: 76186763 heartbeat IPC: 0.3266 cumulative IPC: 0.4926 (Simulation time: 00 hr 12 min 00 sec)
Heartbeat CPU 0 instructions: 82500447 cycles: 77645182 heartbeat IPC: 0.3428 cumulative IPC: 0.4893 (Simulation time: 00 hr 12 min 13 sec)
Heartbeat CPU 0 instructions: 83000449 cycles: 79064301 heartbeat IPC: 0.3523 cumulative IPC: 0.4865 (Simulation time: 00 hr 12 min 26 sec)
Heartbeat CPU 0 instructions: 83500449 cycles: 80500093 heartbeat IPC: 0.3482 cumulative IPC: 0.4836 (Simulation time: 00 hr 12 min 40 sec)
Heartbeat CPU 0 instructions: 84000449 cycles: 81958645 heartbeat IPC: 0.3428 cumulative IPC: 0.4807 (Simulation time: 00 hr 12 min 53 sec)
Heartbeat CPU 0 instructions: 84500451 cycles: 83405872 heartbeat IPC: 0.3455 cumulative IPC: 0.478 (Simulation time: 00 hr 13 min 07 sec)
Heartbeat CPU 0 instructions: 85000452 cycles: 84891886 heartbeat IPC: 0.3365 cumulative IPC: 0.4751 (Simulation time: 00 hr 13 min 20 sec)
Heartbeat CPU 0 instructions: 85500453 cycles: 89126220 heartbeat IPC: 0.1181 cumulative IPC: 0.4557 (Simulation time: 00 hr 13 min 51 sec)
Heartbeat CPU 0 instructions: 86000455 cycles: 92962100 heartbeat IPC: 0.1303 cumulative IPC: 0.4405 (Simulation time: 00 hr 14 min 18 sec)
Heartbeat CPU 0 instructions: 86500455 cycles: 95646685 heartbeat IPC: 0.1862 cumulative IPC: 0.4324 (Simulation time: 00 hr 14 min 37 sec)
Heartbeat CPU 0 instructions: 87000455 cycles: 97616809 heartbeat IPC: 0.2538 cumulative IPC: 0.4283 (Simulation time: 00 hr 14 min 51 sec)
Heartbeat CPU 0 instructions: 87500457 cycles: 99262057 heartbeat IPC: 0.3039 cumulative IPC: 0.426 (Simulation time: 00 hr 15 min 03 sec)
Heartbeat CPU 0 instructions: 88000458 cycles: 100797626 heartbeat IPC: 0.3256 cumulative IPC: 0.4243 (Simulation time: 00 hr 15 min 13 sec)
Heartbeat CPU 0 instructions: 88500458 cycles: 103278080 heartbeat IPC: 0.2016 cumulative IPC: 0.4183 (Simulation time: 00 hr 15 min 31 sec)
Heartbeat CPU 0 instructions: 89000458 cycles: 104873224 heartbeat IPC: 0.3135 cumulative IPC: 0.4165 (Simulation time: 00 hr 15 min 44 sec)
Heartbeat CPU 0 instructions: 89500465 cycles: 109945988 heartbeat IPC: 0.09857 cumulative IPC: 0.4001 (Simulation time: 00 hr 16 min 20 sec)
Heartbeat CPU 0 instructions: 90000472 cycles: 110702467 heartbeat IPC: 0.661 cumulative IPC: 0.4021 (Simulation time: 00 hr 16 min 27 sec)
Heartbeat CPU 0 instructions: 90500477 cycles: 111284483 heartbeat IPC: 0.8591 cumulative IPC: 0.4048 (Simulation time: 00 hr 16 min 33 sec)
Heartbeat CPU 0 instructions: 91000478 cycles: 111871238 heartbeat IPC: 0.8521 cumulative IPC: 0.4074 (Simulation time: 00 hr 16 min 38 sec)
Heartbeat CPU 0 instructions: 91500482 cycles: 112526146 heartbeat IPC: 0.7635 cumulative IPC: 0.4097 (Simulation time: 00 hr 16 min 44 sec)
Heartbeat CPU 0 instructions: 92000485 cycles: 113195594 heartbeat IPC: 0.7469 cumulative IPC: 0.4119 (Simulation time: 00 hr 16 min 51 sec)
Heartbeat CPU 0 instructions: 92500491 cycles: 113884778 heartbeat IPC: 0.7255 cumulative IPC: 0.414 (Simulation time: 00 hr 16 min 58 sec)
Heartbeat CPU 0 instructions: 93000492 cycles: 115845066 heartbeat IPC: 0.2551 cumulative IPC: 0.411 (Simulation time: 00 hr 17 min 14 sec)
Heartbeat CPU 0 instructions: 93500496 cycles: 119641694 heartbeat IPC: 0.1317 cumulative IPC: 0.4013 (Simulation time: 00 hr 17 min 43 sec)
Heartbeat CPU 0 instructions: 94000502 cycles: 119765511 heartbeat IPC: 4.038 cumulative IPC: 0.4054 (Simulation time: 00 hr 17 min 45 sec)
Heartbeat CPU 0 instructions: 94500505 cycles: 119887476 heartbeat IPC: 4.1 cumulative IPC: 0.4095 (Simulation time: 00 hr 17 min 47 sec)
Heartbeat CPU 0 instructions: 95000507 cycles: 120021177 heartbeat IPC: 3.74 cumulative IPC: 0.4136 (Simulation time: 00 hr 17 min 50 sec)
Heartbeat CPU 0 instructions: 95500509 cycles: 120243982 heartbeat IPC: 2.244 cumulative IPC: 0.4174 (Simulation time: 00 hr 17 min 52 sec)
Heartbeat CPU 0 instructions: 96000513 cycles: 120411433 heartbeat IPC: 2.986 cumulative IPC: 0.4213 (Simulation time: 00 hr 17 min 55 sec)
Heartbeat CPU 0 instructions: 96500516 cycles: 120554280 heartbeat IPC: 3.5 cumulative IPC: 0.4253 (Simulation time: 00 hr 17 min 57 sec)
Heartbeat CPU 0 instructions: 97000523 cycles: 120694672 heartbeat IPC: 3.562 cumulative IPC: 0.4294 (Simulation time: 00 hr 17 min 59 sec)
Heartbeat CPU 0 instructions: 97500524 cycles: 120831627 heartbeat IPC: 3.651 cumulative IPC: 0.4334 (Simulation time: 00 hr 18 min 02 sec)
Heartbeat CPU 0 instructions: 98000526 cycles: 120979996 heartbeat IPC: 3.37 cumulative IPC: 0.4374 (Simulation time: 00 hr 18 min 04 sec)
Heartbeat CPU 0 instructions: 98500531 cycles: 121127678 heartbeat IPC: 3.386 cumulative IPC: 0.4413 (Simulation time: 00 hr 18 min 06 sec)
Heartbeat CPU 0 instructions: 99000533 cycles: 121304609 heartbeat IPC: 2.826 cumulative IPC: 0.4452 (Simulation time: 00 hr 18 min 09 sec)
Heartbeat CPU 0 instructions: 99500537 cycles: 121516527 heartbeat IPC: 2.359 cumulative IPC: 0.4488 (Simulation time: 00 hr 18 min 11 sec)
Heartbeat CPU 0 instructions: 100000538 cycles: 121720383 heartbeat IPC: 2.453 cumulative IPC: 0.4525 (Simulation time: 00 hr 18 min 14 sec)
Heartbeat CPU 0 instructions: 100500541 cycles: 121941871 heartbeat IPC: 2.257 cumulative IPC: 0.4561 (Simulation time: 00 hr 18 min 17 sec)
Heartbeat CPU 0 instructions: 101000541 cycles: 122098378 heartbeat IPC: 3.195 cumulative IPC: 0.46 (Simulation time: 00 hr 18 min 19 sec)
Heartbeat CPU 0 instructions: 101500541 cycles: 122312090 heartbeat IPC: 2.34 cumulative IPC: 0.4636 (Simulation time: 00 hr 18 min 21 sec)
Heartbeat CPU 0 instructions: 102000544 cycles: 122506059 heartbeat IPC: 2.578 cumulative IPC: 0.4673 (Simulation time: 00 hr 18 min 24 sec)
Heartbeat CPU 0 instructions: 102500544 cycles: 122723400 heartbeat IPC: 2.301 cumulative IPC: 0.4709 (Simulation time: 00 hr 18 min 27 sec)
Heartbeat CPU 0 instructions: 103000546 cycles: 122901927 heartbeat IPC: 2.801 cumulative IPC: 0.4746 (Simulation time: 00 hr 18 min 29 sec)
Heartbeat CPU 0 instructions: 103500546 cycles: 123926970 heartbeat IPC: 0.4878 cumulative IPC: 0.4747 (Simulation time: 00 hr 18 min 37 sec)
Heartbeat CPU 0 instructions: 104000549 cycles: 124910407 heartbeat IPC: 0.5084 cumulative IPC: 0.475 (Simulation time: 00 hr 18 min 45 sec)
Heartbeat CPU 0 instructions: 104500549 cycles: 125352448 heartbeat IPC: 1.131 cumulative IPC: 0.4776 (Simulation time: 00 hr 18 min 49 sec)
Heartbeat CPU 0 instructions: 105000549 cycles: 125858767 heartbeat IPC: 0.9875 cumulative IPC: 0.4798 (Simulation time: 00 hr 18 min 53 sec)
Heartbeat CPU 0 instructions: 105500549 cycles: 126297875 heartbeat IPC: 1.139 cumulative IPC: 0.4823 (Simulation time: 00 hr 18 min 57 sec)
Heartbeat CPU 0 instructions: 106000556 cycles: 126744266 heartbeat IPC: 1.12 cumulative IPC: 0.4848 (Simulation time: 00 hr 19 min 02 sec)
Heartbeat CPU 0 instructions: 106500557 cycles: 127115820 heartbeat IPC: 1.346 cumulative IPC: 0.4876 (Simulation time: 00 hr 19 min 05 sec)
Heartbeat CPU 0 instructions: 107000562 cycles: 127593150 heartbeat IPC: 1.048 cumulative IPC: 0.4898 (Simulation time: 00 hr 19 min 10 sec)
Heartbeat CPU 0 instructions: 107500564 cycles: 127977363 heartbeat IPC: 1.301 cumulative IPC: 0.4925 (Simulation time: 00 hr 19 min 13 sec)
Heartbeat CPU 0 instructions: 108000566 cycles: 128364317 heartbeat IPC: 1.292 cumulative IPC: 0.4952 (Simulation time: 00 hr 19 min 17 sec)
Heartbeat CPU 0 instructions: 108500566 cycles: 128758474 heartbeat IPC: 1.269 cumulative IPC: 0.4978 (Simulation time: 00 hr 19 min 21 sec)
Heartbeat CPU 0 instructions: 109000568 cycles: 129077152 heartbeat IPC: 1.569 cumulative IPC: 0.5007 (Simulation time: 00 hr 19 min 24 sec)
Heartbeat CPU 0 instructions: 109500569 cycles: 129512845 heartbeat IPC: 1.148 cumulative IPC: 0.503 (Simulation time: 00 hr 19 min 29 sec)
Heartbeat CPU 0 instructions: 110000569 cycles: 129802201 heartbeat IPC: 1.728 cumulative IPC: 0.506 (Simulation time: 00 hr 19 min 32 sec)
Heartbeat CPU 0 instructions: 110500569 cycles: 130306623 heartbeat IPC: 0.9912 cumulative IPC: 0.5081 (Simulation time: 00 hr 19 min 36 sec)
Heartbeat CPU 0 instructions: 111000569 cycles: 130703003 heartbeat IPC: 1.261 cumulative IPC: 0.5106 (Simulation time: 00 hr 19 min 41 sec)
Heartbeat CPU 0 instructions: 111500570 cycles: 131037878 heartbeat IPC: 1.493 cumulative IPC: 0.5133 (Simulation time: 00 hr 19 min 44 sec)
Heartbeat CPU 0 instructions: 112000574 cycles: 131466982 heartbeat IPC: 1.165 cumulative IPC: 0.5157 (Simulation time: 00 hr 19 min 48 sec)
Heartbeat CPU 0 instructions: 112500576 cycles: 131825998 heartbeat IPC: 1.393 cumulative IPC: 0.5183 (Simulation time: 00 hr 19 min 52 sec)
Heartbeat CPU 0 instructions: 113000581 cycles: 132198674 heartbeat IPC: 1.342 cumulative IPC: 0.5208 (Simulation time: 00 hr 19 min 56 sec)
Heartbeat CPU 0 instructions: 113500581 cycles: 133693937 heartbeat IPC: 0.3344 cumulative IPC: 0.5185 (Simulation time: 00 hr 20 min 07 sec)
Heartbeat CPU 0 instructions: 114000585 cycles: 138405916 heartbeat IPC: 0.1061 cumulative IPC: 0.5032 (Simulation time: 00 hr 20 min 42 sec)
Heartbeat CPU 0 instructions: 114500585 cycles: 139768255 heartbeat IPC: 0.367 cumulative IPC: 0.5018 (Simulation time: 00 hr 20 min 53 sec)
Heartbeat CPU 0 instructions: 115000592 cycles: 141489100 heartbeat IPC: 0.2906 cumulative IPC: 0.499 (Simulation time: 00 hr 21 min 06 sec)
Heartbeat CPU 0 instructions: 115500596 cycles: 141737176 heartbeat IPC: 2.016 cumulative IPC: 0.5019 (Simulation time: 00 hr 21 min 09 sec)
Heartbeat CPU 0 instructions: 116000600 cycles: 141957547 heartbeat IPC: 2.269 cumulative IPC: 0.5049 (Simulation time: 00 hr 21 min 12 sec)
Heartbeat CPU 0 instructions: 116500602 cycles: 142206142 heartbeat IPC: 2.011 cumulative IPC: 0.5077 (Simulation time: 00 hr 21 min 15 sec)
Heartbeat CPU 0 instructions: 117000603 cycles: 142492503 heartbeat IPC: 1.746 cumulative IPC: 0.5104 (Simulation time: 00 hr 21 min 18 sec)
Heartbeat CPU 0 instructions: 117500603 cycles: 142833838 heartbeat IPC: 1.465 cumulative IPC: 0.5129 (Simulation time: 00 hr 21 min 21 sec)
Heartbeat CPU 0 instructions: 118000604 cycles: 143153150 heartbeat IPC: 1.566 cumulative IPC: 0.5155 (Simulation time: 00 hr 21 min 24 sec)
Heartbeat CPU 0 instructions: 118500604 cycles: 143379853 heartbeat IPC: 2.206 cumulative IPC: 0.5184 (Simulation time: 00 hr 21 min 27 sec)
Heartbeat CPU 0 instructions: 119000607 cycles: 143538121 heartbeat IPC: 3.159 cumulative IPC: 0.5215 (Simulation time: 00 hr 21 min 29 sec)
Heartbeat CPU 0 instructions: 119500612 cycles: 143665777 heartbeat IPC: 3.917 cumulative IPC: 0.5248 (Simulation time: 00 hr 21 min 31 sec)
Heartbeat CPU 0 instructions: 120000616 cycles: 143800777 heartbeat IPC: 3.704 cumulative IPC: 0.528 (Simulation time: 00 hr 21 min 34 sec)
Heartbeat CPU 0 instructions: 120500619 cycles: 144026697 heartbeat IPC: 2.213 cumulative IPC: 0.5309 (Simulation time: 00 hr 21 min 36 sec)
Heartbeat CPU 0 instructions: 121000621 cycles: 144177414 heartbeat IPC: 3.317 cumulative IPC: 0.534 (Simulation time: 00 hr 21 min 39 sec)
Heartbeat CPU 0 instructions: 121500623 cycles: 144327227 heartbeat IPC: 3.338 cumulative IPC: 0.5372 (Simulation time: 00 hr 21 min 41 sec)
Heartbeat CPU 0 instructions: 122000624 cycles: 144471358 heartbeat IPC: 3.469 cumulative IPC: 0.5404 (Simulation time: 00 hr 21 min 43 sec)
Heartbeat CPU 0 instructions: 122500630 cycles: 144612193 heartbeat IPC: 3.55 cumulative IPC: 0.5436 (Simulation time: 00 hr 21 min 46 sec)
Heartbeat CPU 0 instructions: 123000636 cycles: 144742419 heartbeat IPC: 3.84 cumulative IPC: 0.5468 (Simulation time: 00 hr 21 min 48 sec)
Heartbeat CPU 0 instructions: 123500638 cycles: 144881489 heartbeat IPC: 3.595 cumulative IPC: 0.5499 (Simulation time: 00 hr 21 min 50 sec)
Heartbeat CPU 0 instructions: 124000641 cycles: 145023771 heartbeat IPC: 3.514 cumulative IPC: 0.5531 (Simulation time: 00 hr 21 min 52 sec)
Heartbeat CPU 0 instructions: 124500641 cycles: 145164212 heartbeat IPC: 3.56 cumulative IPC: 0.5562 (Simulation time: 00 hr 21 min 55 sec)
Heartbeat CPU 0 instructions: 125000641 cycles: 147149652 heartbeat IPC: 0.2518 cumulative IPC: 0.5518 (Simulation time: 00 hr 22 min 09 sec)
Heartbeat CPU 0 instructions: 125500643 cycles: 149755112 heartbeat IPC: 0.1919 cumulative IPC: 0.545 (Simulation time: 00 hr 22 min 28 sec)
Heartbeat CPU 0 instructions: 126000648 cycles: 150447739 heartbeat IPC: 0.7219 cumulative IPC: 0.5459 (Simulation time: 00 hr 22 min 34 sec)
Heartbeat CPU 0 instructions: 126500653 cycles: 150776808 heartbeat IPC: 1.519 cumulative IPC: 0.5482 (Simulation time: 00 hr 22 min 37 sec)
Heartbeat CPU 0 instructions: 127000654 cycles: 151113201 heartbeat IPC: 1.486 cumulative IPC: 0.5505 (Simulation time: 00 hr 22 min 41 sec)
Heartbeat CPU 0 instructions: 127500657 cycles: 151443626 heartbeat IPC: 1.513 cumulative IPC: 0.5527 (Simulation time: 00 hr 22 min 44 sec)
Heartbeat CPU 0 instructions: 128000657 cycles: 151797157 heartbeat IPC: 1.414 cumulative IPC: 0.5549 (Simulation time: 00 hr 22 min 48 sec)
Heartbeat CPU 0 instructions: 128500657 cycles: 152156541 heartbeat IPC: 1.391 cumulative IPC: 0.557 (Simulation time: 00 hr 22 min 52 sec)
Heartbeat CPU 0 instructions: 129000659 cycles: 152595073 heartbeat IPC: 1.14 cumulative IPC: 0.5588 (Simulation time: 00 hr 22 min 56 sec)
Heartbeat CPU 0 instructions: 129500659 cycles: 152920639 heartbeat IPC: 1.536 cumulative IPC: 0.5611 (Simulation time: 00 hr 22 min 59 sec)
Heartbeat CPU 0 instructions: 130000662 cycles: 153325796 heartbeat IPC: 1.234 cumulative IPC: 0.563 (Simulation time: 00 hr 23 min 03 sec)
Heartbeat CPU 0 instructions: 130500662 cycles: 153692999 heartbeat IPC: 1.362 cumulative IPC: 0.5651 (Simulation time: 00 hr 23 min 07 sec)
Heartbeat CPU 0 instructions: 131000663 cycles: 154011470 heartbeat IPC: 1.57 cumulative IPC: 0.5673 (Simulation time: 00 hr 23 min 10 sec)
Heartbeat CPU 0 instructions: 131500667 cycles: 154403943 heartbeat IPC: 1.274 cumulative IPC: 0.5692 (Simulation time: 00 hr 23 min 14 sec)
Heartbeat CPU 0 instructions: 132000674 cycles: 154738185 heartbeat IPC: 1.496 cumulative IPC: 0.5714 (Simulation time: 00 hr 23 min 17 sec)
Heartbeat CPU 0 instructions: 132500678 cycles: 155147915 heartbeat IPC: 1.22 cumulative IPC: 0.5732 (Simulation time: 00 hr 23 min 21 sec)
Heartbeat CPU 0 instructions: 133000683 cycles: 155573915 heartbeat IPC: 1.174 cumulative IPC: 0.575 (Simulation time: 00 hr 23 min 25 sec)
Heartbeat CPU 0 instructions: 133500684 cycles: 155889297 heartbeat IPC: 1.585 cumulative IPC: 0.5772 (Simulation time: 00 hr 23 min 29 sec)
Heartbeat CPU 0 instructions: 134000691 cycles: 156265871 heartbeat IPC: 1.328 cumulative IPC: 0.5792 (Simulation time: 00 hr 23 min 33 sec)
Heartbeat CPU 0 instructions: 134500691 cycles: 156776888 heartbeat IPC: 0.9784 cumulative IPC: 0.5806 (Simulation time: 00 hr 23 min 37 sec)
Heartbeat CPU 0 instructions: 135000698 cycles: 157283481 heartbeat IPC: 0.987 cumulative IPC: 0.582 (Simulation time: 00 hr 23 min 42 sec)
Heartbeat CPU 0 instructions: 135500699 cycles: 162013355 heartbeat IPC: 0.1057 cumulative IPC: 0.567 (Simulation time: 00 hr 24 min 18 sec)
Heartbeat CPU 0 instructions: 136000700 cycles: 162436115 heartbeat IPC: 1.183 cumulative IPC: 0.5688 (Simulation time: 00 hr 24 min 23 sec)
Heartbeat CPU 0 instructions: 136500706 cycles: 162573643 heartbeat IPC: 3.636 cumulative IPC: 0.5716 (Simulation time: 00 hr 24 min 25 sec)
Heartbeat CPU 0 instructions: 137000708 cycles: 162711557 heartbeat IPC: 3.625 cumulative IPC: 0.5743 (Simulation time: 00 hr 24 min 27 sec)
Heartbeat CPU 0 instructions: 137500711 cycles: 162860943 heartbeat IPC: 3.347 cumulative IPC: 0.5771 (Simulation time: 00 hr 24 min 30 sec)
Heartbeat CPU 0 instructions: 138000712 cycles: 163123479 heartbeat IPC: 1.905 cumulative IPC: 0.5794 (Simulation time: 00 hr 24 min 33 sec)
Heartbeat CPU 0 instructions: 138500712 cycles: 163491069 heartbeat IPC: 1.36 cumulative IPC: 0.5812 (Simulation time: 00 hr 24 min 36 sec)
Heartbeat CPU 0 instructions: 139000712 cycles: 163849561 heartbeat IPC: 1.395 cumulative IPC: 0.5832 (Simulation time: 00 hr 24 min 39 sec)
Heartbeat CPU 0 instructions: 139500712 cycles: 164163002 heartbeat IPC: 1.595 cumulative IPC: 0.5852 (Simulation time: 00 hr 24 min 42 sec)
Heartbeat CPU 0 instructions: 140000713 cycles: 164498134 heartbeat IPC: 1.492 cumulative IPC: 0.5872 (Simulation time: 00 hr 24 min 46 sec)
Heartbeat CPU 0 instructions: 140500720 cycles: 164827537 heartbeat IPC: 1.518 cumulative IPC: 0.5892 (Simulation time: 00 hr 24 min 49 sec)
Heartbeat CPU 0 instructions: 141000720 cycles: 165148637 heartbeat IPC: 1.557 cumulative IPC: 0.5912 (Simulation time: 00 hr 24 min 52 sec)
Heartbeat CPU 0 instructions: 141500723 cycles: 165537235 heartbeat IPC: 1.287 cumulative IPC: 0.593 (Simulation time: 00 hr 24 min 55 sec)
Heartbeat CPU 0 instructions: 142000723 cycles: 165887896 heartbeat IPC: 1.426 cumulative IPC: 0.5949 (Simulation time: 00 hr 24 min 59 sec)
Heartbeat CPU 0 instructions: 142500730 cycles: 166177859 heartbeat IPC: 1.724 cumulative IPC: 0.597 (Simulation time: 00 hr 25 min 02 sec)
Heartbeat CPU 0 instructions: 143000730 cycles: 166433552 heartbeat IPC: 1.955 cumulative IPC: 0.5992 (Simulation time: 00 hr 25 min 05 sec)
Heartbeat CPU 0 instructions: 143500732 cycles: 166781402 heartbeat IPC: 1.437 cumulative IPC: 0.6011 (Simulation time: 00 hr 25 min 08 sec)
Heartbeat CPU 0 instructions: 144000733 cycles: 167172490 heartbeat IPC: 1.278 cumulative IPC: 0.6028 (Simulation time: 00 hr 25 min 12 sec)
Heartbeat CPU 0 instructions: 144500733 cycles: 167545881 heartbeat IPC: 1.339 cumulative IPC: 0.6045 (Simulation time: 00 hr 25 min 15 sec)
Heartbeat CPU 0 instructions: 145000734 cycles: 167847045 heartbeat IPC: 1.66 cumulative IPC: 0.6066 (Simulation time: 00 hr 25 min 18 sec)
Heartbeat CPU 0 instructions: 145500736 cycles: 168184738 heartbeat IPC: 1.481 cumulative IPC: 0.6085 (Simulation time: 00 hr 25 min 21 sec)
Heartbeat CPU 0 instructions: 146000736 cycles: 168900265 heartbeat IPC: 0.6988 cumulative IPC: 0.6089 (Simulation time: 00 hr 25 min 27 sec)
Heartbeat CPU 0 instructions: 146500742 cycles: 169692320 heartbeat IPC: 0.6313 cumulative IPC: 0.609 (Simulation time: 00 hr 25 min 34 sec)
Heartbeat CPU 0 instructions: 147000742 cycles: 170103331 heartbeat IPC: 1.217 cumulative IPC: 0.6106 (Simulation time: 00 hr 25 min 38 sec)
Heartbeat CPU 0 instructions: 147500743 cycles: 170510206 heartbeat IPC: 1.229 cumulative IPC: 0.6121 (Simulation time: 00 hr 25 min 42 sec)
Heartbeat CPU 0 instructions: 148000750 cycles: 170874267 heartbeat IPC: 1.373 cumulative IPC: 0.6139 (Simulation time: 00 hr 25 min 45 sec)
Heartbeat CPU 0 instructions: 148500752 cycles: 171354501 heartbeat IPC: 1.041 cumulative IPC: 0.6151 (Simulation time: 00 hr 25 min 50 sec)
Heartbeat CPU 0 instructions: 149000754 cycles: 171728349 heartbeat IPC: 1.337 cumulative IPC: 0.6168 (Simulation time: 00 hr 25 min 54 sec)
Heartbeat CPU 0 instructions: 149500755 cycles: 172103613 heartbeat IPC: 1.332 cumulative IPC: 0.6185 (Simulation time: 00 hr 25 min 58 sec)
Heartbeat CPU 0 instructions: 150000761 cycles: 172436187 heartbeat IPC: 1.503 cumulative IPC: 0.6203 (Simulation time: 00 hr 26 min 01 sec)
Heartbeat CPU 0 instructions: 150500761 cycles: 172814430 heartbeat IPC: 1.322 cumulative IPC: 0.622 (Simulation time: 00 hr 26 min 05 sec)
Heartbeat CPU 0 instructions: 151000762 cycles: 173183702 heartbeat IPC: 1.354 cumulative IPC: 0.6236 (Simulation time: 00 hr 26 min 09 sec)
Heartbeat CPU 0 instructions: 151500766 cycles: 173577557 heartbeat IPC: 1.27 cumulative IPC: 0.6252 (Simulation time: 00 hr 26 min 13 sec)
Heartbeat CPU 0 instructions: 152000768 cycles: 173790541 heartbeat IPC: 2.348 cumulative IPC: 0.6275 (Simulation time: 00 hr 26 min 15 sec)
Heartbeat CPU 0 instructions: 152500772 cycles: 174113629 heartbeat IPC: 1.548 cumulative IPC: 0.6293 (Simulation time: 00 hr 26 min 19 sec)
Heartbeat CPU 0 instructions: 153000772 cycles: 174733730 heartbeat IPC: 0.8063 cumulative IPC: 0.63 (Simulation time: 00 hr 26 min 24 sec)
Heartbeat CPU 0 instructions: 153500773 cycles: 179982487 heartbeat IPC: 0.09526 cumulative IPC: 0.6133 (Simulation time: 00 hr 27 min 03 sec)
Heartbeat CPU 0 instructions: 154000773 cycles: 180412935 heartbeat IPC: 1.162 cumulative IPC: 0.6147 (Simulation time: 00 hr 27 min 06 sec)
Heartbeat CPU 0 instructions: 154500773 cycles: 180821968 heartbeat IPC: 1.222 cumulative IPC: 0.6162 (Simulation time: 00 hr 27 min 10 sec)
Heartbeat CPU 0 instructions: 155000774 cycles: 181301500 heartbeat IPC: 1.043 cumulative IPC: 0.6174 (Simulation time: 00 hr 27 min 14 sec)
Heartbeat CPU 0 instructions: 155500774 cycles: 181688799 heartbeat IPC: 1.291 cumulative IPC: 0.6189 (Simulation time: 00 hr 27 min 18 sec)
Heartbeat CPU 0 instructions: 156000775 cycles: 182028354 heartbeat IPC: 1.473 cumulative IPC: 0.6206 (Simulation time: 00 hr 27 min 21 sec)
Heartbeat CPU 0 instructions: 156500775 cycles: 182808390 heartbeat IPC: 0.641 cumulative IPC: 0.6207 (Simulation time: 00 hr 27 min 27 sec)
Heartbeat CPU 0 instructions: 157000779 cycles: 183542127 heartbeat IPC: 0.6814 cumulative IPC: 0.621 (Simulation time: 00 hr 27 min 34 sec)
Heartbeat CPU 0 instructions: 157500781 cycles: 184406725 heartbeat IPC: 0.5783 cumulative IPC: 0.6208 (Simulation time: 00 hr 27 min 41 sec)
Heartbeat CPU 0 instructions: 158000783 cycles: 185817715 heartbeat IPC: 0.3544 cumulative IPC: 0.6186 (Simulation time: 00 hr 27 min 52 sec)
Heartbeat CPU 0 instructions: 158500786 cycles: 189306709 heartbeat IPC: 0.1433 cumulative IPC: 0.6093 (Simulation time: 00 hr 28 min 17 sec)
Heartbeat CPU 0 instructions: 159000788 cycles: 190698763 heartbeat IPC: 0.3592 cumulative IPC: 0.6074 (Simulation time: 00 hr 28 min 28 sec)
Heartbeat CPU 0 instructions: 159500790 cycles: 191547712 heartbeat IPC: 0.589 cumulative IPC: 0.6073 (Simulation time: 00 hr 28 min 35 sec)
Heartbeat CPU 0 instructions: 160000794 cycles: 192004008 heartbeat IPC: 1.096 cumulative IPC: 0.6085 (Simulation time: 00 hr 28 min 39 sec)
Heartbeat CPU 0 instructions: 160500799 cycles: 192388167 heartbeat IPC: 1.302 cumulative IPC: 0.61 (Simulation time: 00 hr 28 min 43 sec)
Heartbeat CPU 0 instructions: 161000804 cycles: 192737306 heartbeat IPC: 1.432 cumulative IPC: 0.6115 (Simulation time: 00 hr 28 min 47 sec)
Heartbeat CPU 0 instructions: 161500804 cycles: 193050685 heartbeat IPC: 1.596 cumulative IPC: 0.6132 (Simulation time: 00 hr 28 min 50 sec)
Heartbeat CPU 0 instructions: 162000804 cycles: 193552796 heartbeat IPC: 0.9958 cumulative IPC: 0.6143 (Simulation time: 00 hr 28 min 55 sec)
Heartbeat CPU 0 instructions: 162500806 cycles: 194140755 heartbeat IPC: 0.8504 cumulative IPC: 0.6151 (Simulation time: 00 hr 29 min 00 sec)
Heartbeat CPU 0 instructions: 163000809 cycles: 194573599 heartbeat IPC: 1.155 cumulative IPC: 0.6163 (Simulation time: 00 hr 29 min 04 sec)
Heartbeat CPU 0 instructions: 163500813 cycles: 195167510 heartbeat IPC: 0.8419 cumulative IPC: 0.6171 (Simulation time: 00 hr 29 min 10 sec)
Heartbeat CPU 0 instructions: 164000813 cycles: 195420399 heartbeat IPC: 1.977 cumulative IPC: 0.6189 (Simulation time: 00 hr 29 min 13 sec)
Heartbeat CPU 0 instructions: 164500820 cycles: 195722913 heartbeat IPC: 1.653 cumulative IPC: 0.6206 (Simulation time: 00 hr 29 min 16 sec)
Heartbeat CPU 0 instructions: 165000821 cycles: 196093873 heartbeat IPC: 1.348 cumulative IPC: 0.6221 (Simulation time: 00 hr 29 min 19 sec)
Heartbeat CPU 0 instructions: 165500828 cycles: 196444173 heartbeat IPC: 1.427 cumulative IPC: 0.6236 (Simulation time: 00 hr 29 min 23 sec)
Heartbeat CPU 0 instructions: 166000830 cycles: 196881742 heartbeat IPC: 1.143 cumulative IPC: 0.6248 (Simulation time: 00 hr 29 min 27 sec)
Heartbeat CPU 0 instructions: 166500835 cycles: 197280740 heartbeat IPC: 1.253 cumulative IPC: 0.6262 (Simulation time: 00 hr 29 min 31 sec)
Heartbeat CPU 0 instructions: 167000841 cycles: 197675422 heartbeat IPC: 1.267 cumulative IPC: 0.6275 (Simulation time: 00 hr 29 min 35 sec)
Heartbeat CPU 0 instructions: 167500841 cycles: 198062129 heartbeat IPC: 1.293 cumulative IPC: 0.6289 (Simulation time: 00 hr 29 min 39 sec)
Heartbeat CPU 0 instructions: 168000845 cycles: 198512243 heartbeat IPC: 1.111 cumulative IPC: 0.6301 (Simulation time: 00 hr 29 min 43 sec)
Heartbeat CPU 0 instructions: 168500846 cycles: 198840420 heartbeat IPC: 1.524 cumulative IPC: 0.6316 (Simulation time: 00 hr 29 min 47 sec)
Heartbeat CPU 0 instructions: 169000848 cycles: 199228921 heartbeat IPC: 1.287 cumulative IPC: 0.633 (Simulation time: 00 hr 29 min 51 sec)
Heartbeat CPU 0 instructions: 169500850 cycles: 199578895 heartbeat IPC: 1.429 cumulative IPC: 0.6345 (Simulation time: 00 hr 29 min 55 sec)
Heartbeat CPU 0 instructions: 170000857 cycles: 200003479 heartbeat IPC: 1.178 cumulative IPC: 0.6357 (Simulation time: 00 hr 29 min 59 sec)
Heartbeat CPU 0 instructions: 170500860 cycles: 200366578 heartbeat IPC: 1.377 cumulative IPC: 0.6371 (Simulation time: 00 hr 30 min 03 sec)
Heartbeat CPU 0 instructions: 171000860 cycles: 200805708 heartbeat IPC: 1.139 cumulative IPC: 0.6383 (Simulation time: 00 hr 30 min 07 sec)
Heartbeat CPU 0 instructions: 171500862 cycles: 201150592 heartbeat IPC: 1.45 cumulative IPC: 0.6397 (Simulation time: 00 hr 30 min 11 sec)
Heartbeat CPU 0 instructions: 172000863 cycles: 201517424 heartbeat IPC: 1.363 cumulative IPC: 0.6411 (Simulation time: 00 hr 30 min 15 sec)
Heartbeat CPU 0 instructions: 172500866 cycles: 202159917 heartbeat IPC: 0.7782 cumulative IPC: 0.6416 (Simulation time: 00 hr 30 min 20 sec)
Heartbeat CPU 0 instructions: 173000868 cycles: 206126217 heartbeat IPC: 0.1261 cumulative IPC: 0.6311 (Simulation time: 00 hr 30 min 50 sec)
Heartbeat CPU 0 instructions: 173500868 cycles: 206634656 heartbeat IPC: 0.9834 cumulative IPC: 0.632 (Simulation time: 00 hr 30 min 55 sec)
Heartbeat CPU 0 instructions: 174000868 cycles: 207156925 heartbeat IPC: 0.9574 cumulative IPC: 0.6329 (Simulation time: 00 hr 31 min 00 sec)
Heartbeat CPU 0 instructions: 174500869 cycles: 207575023 heartbeat IPC: 1.196 cumulative IPC: 0.6341 (Simulation time: 00 hr 31 min 04 sec)
Heartbeat CPU 0 instructions: 175000872 cycles: 207980171 heartbeat IPC: 1.234 cumulative IPC: 0.6353 (Simulation time: 00 hr 31 min 08 sec)
Heartbeat CPU 0 instructions: 175500875 cycles: 208414925 heartbeat IPC: 1.15 cumulative IPC: 0.6365 (Simulation time: 00 hr 31 min 12 sec)
Heartbeat CPU 0 instructions: 176000875 cycles: 208799084 heartbeat IPC: 1.302 cumulative IPC: 0.6378 (Simulation time: 00 hr 31 min 16 sec)
Heartbeat CPU 0 instructions: 176500877 cycles: 209344642 heartbeat IPC: 0.9165 cumulative IPC: 0.6385 (Simulation time: 00 hr 31 min 21 sec)
Heartbeat CPU 0 instructions: 177000884 cycles: 209666025 heartbeat IPC: 1.556 cumulative IPC: 0.64 (Simulation time: 00 hr 31 min 25 sec)
Heartbeat CPU 0 instructions: 177500887 cycles: 210568061 heartbeat IPC: 0.5543 cumulative IPC: 0.6396 (Simulation time: 00 hr 31 min 32 sec)
Heartbeat CPU 0 instructions: 178000887 cycles: 213781095 heartbeat IPC: 0.1556 cumulative IPC: 0.6319 (Simulation time: 00 hr 31 min 56 sec)
Heartbeat CPU 0 instructions: 178500888 cycles: 214684609 heartbeat IPC: 0.5534 cumulative IPC: 0.6316 (Simulation time: 00 hr 32 min 03 sec)
Heartbeat CPU 0 instructions: 179000894 cycles: 216906564 heartbeat IPC: 0.225 cumulative IPC: 0.6272 (Simulation time: 00 hr 32 min 19 sec)
Heartbeat CPU 0 instructions: 179500894 cycles: 218698712 heartbeat IPC: 0.279 cumulative IPC: 0.6242 (Simulation time: 00 hr 32 min 37 sec)
Heartbeat CPU 0 instructions: 180000897 cycles: 219772281 heartbeat IPC: 0.4657 cumulative IPC: 0.6234 (Simulation time: 00 hr 32 min 47 sec)
Heartbeat CPU 0 instructions: 180500897 cycles: 220189850 heartbeat IPC: 1.197 cumulative IPC: 0.6245 (Simulation time: 00 hr 32 min 52 sec)
Heartbeat CPU 0 instructions: 181000898 cycles: 220578459 heartbeat IPC: 1.287 cumulative IPC: 0.6258 (Simulation time: 00 hr 32 min 57 sec)
Heartbeat CPU 0 instructions: 181500900 cycles: 220965875 heartbeat IPC: 1.291 cumulative IPC: 0.627 (Simulation time: 00 hr 33 min 02 sec)
Heartbeat CPU 0 instructions: 182000906 cycles: 221467633 heartbeat IPC: 0.9965 cumulative IPC: 0.6279 (Simulation time: 00 hr 33 min 08 sec)
Heartbeat CPU 0 instructions: 182500910 cycles: 222069709 heartbeat IPC: 0.8305 cumulative IPC: 0.6284 (Simulation time: 00 hr 33 min 14 sec)
Heartbeat CPU 0 instructions: 183000913 cycles: 222403245 heartbeat IPC: 1.499 cumulative IPC: 0.6298 (Simulation time: 00 hr 33 min 18 sec)
Heartbeat CPU 0 instructions: 183500920 cycles: 222739715 heartbeat IPC: 1.486 cumulative IPC: 0.6312 (Simulation time: 00 hr 33 min 23 sec)
Heartbeat CPU 0 instructions: 184000925 cycles: 223071285 heartbeat IPC: 1.508 cumulative IPC: 0.6326 (Simulation time: 00 hr 33 min 27 sec)
Heartbeat CPU 0 instructions: 184500927 cycles: 223407533 heartbeat IPC: 1.487 cumulative IPC: 0.6339 (Simulation time: 00 hr 33 min 31 sec)
Heartbeat CPU 0 instructions: 185000932 cycles: 224185307 heartbeat IPC: 0.6429 cumulative IPC: 0.6339 (Simulation time: 00 hr 33 min 38 sec)
Heartbeat CPU 0 instructions: 185500932 cycles: 225592245 heartbeat IPC: 0.3554 cumulative IPC: 0.6321 (Simulation time: 00 hr 33 min 49 sec)
Heartbeat CPU 0 instructions: 186000938 cycles: 228892308 heartbeat IPC: 0.1515 cumulative IPC: 0.6248 (Simulation time: 00 hr 34 min 14 sec)
Heartbeat CPU 0 instructions: 186500941 cycles: 229369557 heartbeat IPC: 1.048 cumulative IPC: 0.6257 (Simulation time: 00 hr 34 min 18 sec)
Heartbeat CPU 0 instructions: 187000941 cycles: 229777536 heartbeat IPC: 1.226 cumulative IPC: 0.6269 (Simulation time: 00 hr 34 min 22 sec)
Heartbeat CPU 0 instructions: 187500941 cycles: 230191470 heartbeat IPC: 1.208 cumulative IPC: 0.628 (Simulation time: 00 hr 34 min 26 sec)
Heartbeat CPU 0 instructions: 188000941 cycles: 232313123 heartbeat IPC: 0.2357 cumulative IPC: 0.6242 (Simulation time: 00 hr 34 min 41 sec)
Heartbeat CPU 0 instructions: 188500942 cycles: 235034423 heartbeat IPC: 0.1837 cumulative IPC: 0.6188 (Simulation time: 00 hr 34 min 59 sec)
Heartbeat CPU 0 instructions: 189000947 cycles: 236935522 heartbeat IPC: 0.263 cumulative IPC: 0.6158 (Simulation time: 00 hr 35 min 12 sec)
Heartbeat CPU 0 instructions: 189500954 cycles: 238198448 heartbeat IPC: 0.3959 cumulative IPC: 0.6146 (Simulation time: 00 hr 35 min 23 sec)
Heartbeat CPU 0 instructions: 190000954 cycles: 239673555 heartbeat IPC: 0.339 cumulative IPC: 0.6128 (Simulation time: 00 hr 35 min 33 sec)
Heartbeat CPU 0 instructions: 190500954 cycles: 241675215 heartbeat IPC: 0.2498 cumulative IPC: 0.6097 (Simulation time: 00 hr 35 min 48 sec)
Heartbeat CPU 0 instructions: 191000955 cycles: 243149795 heartbeat IPC: 0.3391 cumulative IPC: 0.608 (Simulation time: 00 hr 35 min 58 sec)
Heartbeat CPU 0 instructions: 191500959 cycles: 245385441 heartbeat IPC: 0.2237 cumulative IPC: 0.6043 (Simulation time: 00 hr 36 min 15 sec)
Heartbeat CPU 0 instructions: 192000959 cycles: 247639316 heartbeat IPC: 0.2218 cumulative IPC: 0.6007 (Simulation time: 00 hr 36 min 32 sec)
Heartbeat CPU 0 instructions: 192500959 cycles: 250906395 heartbeat IPC: 0.153 cumulative IPC: 0.5946 (Simulation time: 00 hr 36 min 56 sec)
Heartbeat CPU 0 instructions: 193000960 cycles: 251571091 heartbeat IPC: 0.7522 cumulative IPC: 0.595 (Simulation time: 00 hr 37 min 02 sec)
Heartbeat CPU 0 instructions: 193500961 cycles: 252135579 heartbeat IPC: 0.8858 cumulative IPC: 0.5957 (Simulation time: 00 hr 37 min 07 sec)
Heartbeat CPU 0 instructions: 194000964 cycles: 253129309 heartbeat IPC: 0.5032 cumulative IPC: 0.5953 (Simulation time: 00 hr 37 min 15 sec)
Heartbeat CPU 0 instructions: 194500966 cycles: 254528908 heartbeat IPC: 0.3572 cumulative IPC: 0.5939 (Simulation time: 00 hr 37 min 26 sec)
Heartbeat CPU 0 instructions: 195000968 cycles: 255420671 heartbeat IPC: 0.5607 cumulative IPC: 0.5938 (Simulation time: 00 hr 37 min 34 sec)
Heartbeat CPU 0 instructions: 195500973 cycles: 256280880 heartbeat IPC: 0.5813 cumulative IPC: 0.5938 (Simulation time: 00 hr 37 min 42 sec)
Heartbeat CPU 0 instructions: 196000979 cycles: 257028695 heartbeat IPC: 0.6686 cumulative IPC: 0.594 (Simulation time: 00 hr 37 min 49 sec)
Heartbeat CPU 0 instructions: 196500979 cycles: 257864731 heartbeat IPC: 0.5981 cumulative IPC: 0.594 (Simulation time: 00 hr 37 min 57 sec)
Heartbeat CPU 0 instructions: 197000983 cycles: 258477592 heartbeat IPC: 0.8159 cumulative IPC: 0.5945 (Simulation time: 00 hr 38 min 03 sec)
Heartbeat CPU 0 instructions: 197500986 cycles: 259258274 heartbeat IPC: 0.6405 cumulative IPC: 0.5947 (Simulation time: 00 hr 38 min 11 sec)
Heartbeat CPU 0 instructions: 198000986 cycles: 260056266 heartbeat IPC: 0.6266 cumulative IPC: 0.5948 (Simulation time: 00 hr 38 min 18 sec)
Heartbeat CPU 0 instructions: 198500986 cycles: 262022485 heartbeat IPC: 0.2543 cumulative IPC: 0.5921 (Simulation time: 00 hr 38 min 33 sec)
Heartbeat CPU 0 instructions: 199000992 cycles: 263012636 heartbeat IPC: 0.505 cumulative IPC: 0.5918 (Simulation time: 00 hr 38 min 41 sec)
Heartbeat CPU 0 instructions: 199500997 cycles: 264449803 heartbeat IPC: 0.3479 cumulative IPC: 0.5904 (Simulation time: 00 hr 38 min 52 sec)
Heartbeat CPU 0 instructions: 200001003 cycles: 266131592 heartbeat IPC: 0.2973 cumulative IPC: 0.5885 (Simulation time: 00 hr 39 min 07 sec)
Heartbeat CPU 0 instructions: 200501004 cycles: 267606588 heartbeat IPC: 0.339 cumulative IPC: 0.587 (Simulation time: 00 hr 39 min 22 sec)
Heartbeat CPU 0 instructions: 201001004 cycles: 268524213 heartbeat IPC: 0.5449 cumulative IPC: 0.5869 (Simulation time: 00 hr 39 min 31 sec)
Heartbeat CPU 0 instructions: 201501010 cycles: 269922176 heartbeat IPC: 0.3577 cumulative IPC: 0.5856 (Simulation time: 00 hr 39 min 43 sec)
Heartbeat CPU 0 instructions: 202001010 cycles: 270388893 heartbeat IPC: 1.071 cumulative IPC: 0.5865 (Simulation time: 00 hr 39 min 47 sec)
Heartbeat CPU 0 instructions: 202501010 cycles: 273575240 heartbeat IPC: 0.1569 cumulative IPC: 0.5813 (Simulation time: 00 hr 40 min 11 sec)
Heartbeat CPU 0 instructions: 203001017 cycles: 275353882 heartbeat IPC: 0.2811 cumulative IPC: 0.5793 (Simulation time: 00 hr 40 min 24 sec)
Heartbeat CPU 0 instructions: 203501020 cycles: 275617692 heartbeat IPC: 1.895 cumulative IPC: 0.5806 (Simulation time: 00 hr 40 min 27 sec)
Heartbeat CPU 0 instructions: 204001020 cycles: 275873474 heartbeat IPC: 1.955 cumulative IPC: 0.5819 (Simulation time: 00 hr 40 min 30 sec)
Heartbeat CPU 0 instructions: 204501022 cycles: 276091563 heartbeat IPC: 2.293 cumulative IPC: 0.5833 (Simulation time: 00 hr 40 min 33 sec)
Heartbeat CPU 0 instructions: 205001025 cycles: 276331823 heartbeat IPC: 2.081 cumulative IPC: 0.5847 (Simulation time: 00 hr 40 min 36 sec)
Heartbeat CPU 0 instructions: 205501025 cycles: 277099136 heartbeat IPC: 0.6516 cumulative IPC: 0.5849 (Simulation time: 00 hr 40 min 42 sec)
Heartbeat CPU 0 instructions: 206001025 cycles: 279033295 heartbeat IPC: 0.2585 cumulative IPC: 0.5825 (Simulation time: 00 hr 40 min 57 sec)
Heartbeat CPU 0 instructions: 206501025 cycles: 279859990 heartbeat IPC: 0.6048 cumulative IPC: 0.5826 (Simulation time: 00 hr 41 min 04 sec)
Heartbeat CPU 0 instructions: 207001031 cycles: 281661918 heartbeat IPC: 0.2775 cumulative IPC: 0.5806 (Simulation time: 00 hr 41 min 17 sec)
Heartbeat CPU 0 instructions: 207501034 cycles: 282593958 heartbeat IPC: 0.5365 cumulative IPC: 0.5804 (Simulation time: 00 hr 41 min 25 sec)
Heartbeat CPU 0 instructions: 208001034 cycles: 284001458 heartbeat IPC: 0.3552 cumulative IPC: 0.5792 (Simulation time: 00 hr 41 min 35 sec)
Heartbeat CPU 0 instructions: 208501041 cycles: 287709392 heartbeat IPC: 0.1348 cumulative IPC: 0.5733 (Simulation time: 00 hr 42 min 01 sec)
Heartbeat CPU 0 instructions: 209001048 cycles: 290110979 heartbeat IPC: 0.2082 cumulative IPC: 0.5701 (Simulation time: 00 hr 42 min 27 sec)
Heartbeat CPU 0 instructions: 209501052 cycles: 291950896 heartbeat IPC: 0.2718 cumulative IPC: 0.5682 (Simulation time: 00 hr 42 min 47 sec)
Heartbeat CPU 0 instructions: 210001055 cycles: 292475788 heartbeat IPC: 0.9526 cumulative IPC: 0.5689 (Simulation time: 00 hr 42 min 53 sec)
Heartbeat CPU 0 instructions: 210501055 cycles: 292985582 heartbeat IPC: 0.9808 cumulative IPC: 0.5696 (Simulation time: 00 hr 42 min 59 sec)
Heartbeat CPU 0 instructions: 211001061 cycles: 293532395 heartbeat IPC: 0.9144 cumulative IPC: 0.5703 (Simulation time: 00 hr 43 min 05 sec)
Heartbeat CPU 0 instructions: 211501061 cycles: 294021434 heartbeat IPC: 1.022 cumulative IPC: 0.5711 (Simulation time: 00 hr 43 min 11 sec)
Heartbeat CPU 0 instructions: 212001066 cycles: 295382979 heartbeat IPC: 0.3672 cumulative IPC: 0.5701 (Simulation time: 00 hr 43 min 22 sec)
Heartbeat CPU 0 instructions: 212501069 cycles: 296337108 heartbeat IPC: 0.524 cumulative IPC: 0.57 (Simulation time: 00 hr 43 min 31 sec)
Heartbeat CPU 0 instructions: 213001069 cycles: 298193965 heartbeat IPC: 0.2693 cumulative IPC: 0.568 (Simulation time: 00 hr 43 min 44 sec)
Heartbeat CPU 0 instructions: 213501069 cycles: 300206449 heartbeat IPC: 0.2484 cumulative IPC: 0.5658 (Simulation time: 00 hr 43 min 59 sec)
Heartbeat CPU 0 instructions: 214001070 cycles: 302179333 heartbeat IPC: 0.2534 cumulative IPC: 0.5637 (Simulation time: 00 hr 44 min 14 sec)
Heartbeat CPU 0 instructions: 214501071 cycles: 303907364 heartbeat IPC: 0.2893 cumulative IPC: 0.5621 (Simulation time: 00 hr 44 min 26 sec)
Heartbeat CPU 0 instructions: 215001077 cycles: 306569379 heartbeat IPC: 0.1878 cumulative IPC: 0.5587 (Simulation time: 00 hr 44 min 45 sec)
Heartbeat CPU 0 instructions: 215501084 cycles: 308609074 heartbeat IPC: 0.2451 cumulative IPC: 0.5565 (Simulation time: 00 hr 45 min 00 sec)
Heartbeat CPU 0 instructions: 216001087 cycles: 310628397 heartbeat IPC: 0.2476 cumulative IPC: 0.5544 (Simulation time: 00 hr 45 min 15 sec)
Heartbeat CPU 0 instructions: 216501087 cycles: 314571044 heartbeat IPC: 0.1268 cumulative IPC: 0.5489 (Simulation time: 00 hr 45 min 42 sec)
Heartbeat CPU 0 instructions: 217001087 cycles: 318188682 heartbeat IPC: 0.1382 cumulative IPC: 0.544 (Simulation time: 00 hr 46 min 08 sec)
Heartbeat CPU 0 instructions: 217501093 cycles: 320252085 heartbeat IPC: 0.2423 cumulative IPC: 0.542 (Simulation time: 00 hr 46 min 22 sec)
Heartbeat CPU 0 instructions: 218001093 cycles: 320799714 heartbeat IPC: 0.913 cumulative IPC: 0.5427 (Simulation time: 00 hr 46 min 29 sec)
Heartbeat CPU 0 instructions: 218501095 cycles: 321331578 heartbeat IPC: 0.9401 cumulative IPC: 0.5434 (Simulation time: 00 hr 46 min 35 sec)
Heartbeat CPU 0 instructions: 219001102 cycles: 321852050 heartbeat IPC: 0.9607 cumulative IPC: 0.5441 (Simulation time: 00 hr 46 min 41 sec)
Heartbeat CPU 0 instructions: 219501105 cycles: 322373791 heartbeat IPC: 0.9583 cumulative IPC: 0.5448 (Simulation time: 00 hr 46 min 48 sec)
Heartbeat CPU 0 instructions: 220001107 cycles: 322894369 heartbeat IPC: 0.9605 cumulative IPC: 0.5455 (Simulation time: 00 hr 46 min 54 sec)
Heartbeat CPU 0 instructions: 220501111 cycles: 323415917 heartbeat IPC: 0.9587 cumulative IPC: 0.5462 (Simulation time: 00 hr 47 min 00 sec)
Heartbeat CPU 0 instructions: 221001112 cycles: 325375989 heartbeat IPC: 0.2551 cumulative IPC: 0.5443 (Simulation time: 00 hr 47 min 22 sec)
Heartbeat CPU 0 instructions: 221501116 cycles: 325794819 heartbeat IPC: 1.194 cumulative IPC: 0.5452 (Simulation time: 00 hr 47 min 27 sec)
Heartbeat CPU 0 instructions: 222001119 cycles: 326209523 heartbeat IPC: 1.206 cumulative IPC: 0.5461 (Simulation time: 00 hr 47 min 33 sec)
Heartbeat CPU 0 instructions: 222501125 cycles: 326631982 heartbeat IPC: 1.184 cumulative IPC: 0.5469 (Simulation time: 00 hr 47 min 38 sec)
Heartbeat CPU 0 instructions: 223001126 cycles: 327747895 heartbeat IPC: 0.4481 cumulative IPC: 0.5466 (Simulation time: 00 hr 47 min 50 sec)
Heartbeat CPU 0 instructions: 223501129 cycles: 328817165 heartbeat IPC: 0.4676 cumulative IPC: 0.5463 (Simulation time: 00 hr 47 min 58 sec)
Heartbeat CPU 0 instructions: 224001131 cycles: 329594282 heartbeat IPC: 0.6434 cumulative IPC: 0.5465 (Simulation time: 00 hr 48 min 05 sec)
Heartbeat CPU 0 instructions: 224501133 cycles: 330286512 heartbeat IPC: 0.7223 cumulative IPC: 0.5469 (Simulation time: 00 hr 48 min 12 sec)
Heartbeat CPU 0 instructions: 225001137 cycles: 331096017 heartbeat IPC: 0.6177 cumulative IPC: 0.5471 (Simulation time: 00 hr 48 min 19 sec)
Heartbeat CPU 0 instructions: 225501143 cycles: 332763294 heartbeat IPC: 0.2999 cumulative IPC: 0.5458 (Simulation time: 00 hr 48 min 36 sec)
Heartbeat CPU 0 instructions: 226001143 cycles: 334253240 heartbeat IPC: 0.3356 cumulative IPC: 0.5449 (Simulation time: 00 hr 48 min 49 sec)
Heartbeat CPU 0 instructions: 226501143 cycles: 335490077 heartbeat IPC: 0.4043 cumulative IPC: 0.5443 (Simulation time: 00 hr 49 min 00 sec)
Heartbeat CPU 0 instructions: 227001148 cycles: 337753855 heartbeat IPC: 0.2209 cumulative IPC: 0.5421 (Simulation time: 00 hr 49 min 24 sec)
Heartbeat CPU 0 instructions: 227501148 cycles: 338835347 heartbeat IPC: 0.4623 cumulative IPC: 0.5418 (Simulation time: 00 hr 49 min 34 sec)
Heartbeat CPU 0 instructions: 228001149 cycles: 340565056 heartbeat IPC: 0.2891 cumulative IPC: 0.5405 (Simulation time: 00 hr 49 min 46 sec)
Heartbeat CPU 0 instructions: 228501149 cycles: 340875048 heartbeat IPC: 1.613 cumulative IPC: 0.5415 (Simulation time: 00 hr 49 min 50 sec)
Heartbeat CPU 0 instructions: 229001150 cycles: 341143968 heartbeat IPC: 1.859 cumulative IPC: 0.5426 (Simulation time: 00 hr 49 min 53 sec)
Heartbeat CPU 0 instructions: 229501153 cycles: 341379509 heartbeat IPC: 2.123 cumulative IPC: 0.5437 (Simulation time: 00 hr 49 min 56 sec)
Heartbeat CPU 0 instructions: 230001159 cycles: 341618472 heartbeat IPC: 2.092 cumulative IPC: 0.5448 (Simulation time: 00 hr 49 min 59 sec)
Heartbeat CPU 0 instructions: 230501159 cycles: 341836563 heartbeat IPC: 2.293 cumulative IPC: 0.546 (Simulation time: 00 hr 50 min 02 sec)
Heartbeat CPU 0 instructions: 231001159 cycles: 342068626 heartbeat IPC: 2.155 cumulative IPC: 0.5471 (Simulation time: 00 hr 50 min 05 sec)
Heartbeat CPU 0 instructions: 231501162 cycles: 342297744 heartbeat IPC: 2.182 cumulative IPC: 0.5482 (Simulation time: 00 hr 50 min 08 sec)
Heartbeat CPU 0 instructions: 232001167 cycles: 342532827 heartbeat IPC: 2.127 cumulative IPC: 0.5493 (Simulation time: 00 hr 50 min 11 sec)
Heartbeat CPU 0 instructions: 232501172 cycles: 342760950 heartbeat IPC: 2.192 cumulative IPC: 0.5505 (Simulation time: 00 hr 50 min 14 sec)
Heartbeat CPU 0 instructions: 233001174 cycles: 342993496 heartbeat IPC: 2.15 cumulative IPC: 0.5516 (Simulation time: 00 hr 50 min 17 sec)
Heartbeat CPU 0 instructions: 233501176 cycles: 343219132 heartbeat IPC: 2.216 cumulative IPC: 0.5527 (Simulation time: 00 hr 50 min 20 sec)
Heartbeat CPU 0 instructions: 234001177 cycles: 343451677 heartbeat IPC: 2.15 cumulative IPC: 0.5538 (Simulation time: 00 hr 50 min 23 sec)
Heartbeat CPU 0 instructions: 234501178 cycles: 344090154 heartbeat IPC: 0.7831 cumulative IPC: 0.5543 (Simulation time: 00 hr 50 min 28 sec)
Heartbeat CPU 0 instructions: 235001180 cycles: 348450111 heartbeat IPC: 0.1147 cumulative IPC: 0.5486 (Simulation time: 00 hr 50 min 59 sec)
Heartbeat CPU 0 instructions: 235501180 cycles: 350421493 heartbeat IPC: 0.2536 cumulative IPC: 0.5469 (Simulation time: 00 hr 51 min 13 sec)
Heartbeat CPU 0 instructions: 236001186 cycles: 351999656 heartbeat IPC: 0.3168 cumulative IPC: 0.5458 (Simulation time: 00 hr 51 min 25 sec)
Heartbeat CPU 0 instructions: 236501190 cycles: 353430702 heartbeat IPC: 0.3494 cumulative IPC: 0.545 (Simulation time: 00 hr 51 min 35 sec)
Heartbeat CPU 0 instructions: 237001194 cycles: 354149002 heartbeat IPC: 0.6961 cumulative IPC: 0.5453 (Simulation time: 00 hr 51 min 41 sec)
Heartbeat CPU 0 instructions: 237501194 cycles: 356581240 heartbeat IPC: 0.2056 cumulative IPC: 0.5429 (Simulation time: 00 hr 51 min 59 sec)
Heartbeat CPU 0 instructions: 238001194 cycles: 361740035 heartbeat IPC: 0.09692 cumulative IPC: 0.5364 (Simulation time: 00 hr 52 min 46 sec)
Heartbeat CPU 0 instructions: 238501196 cycles: 362827925 heartbeat IPC: 0.4596 cumulative IPC: 0.5361 (Simulation time: 00 hr 52 min 56 sec)
Heartbeat CPU 0 instructions: 239001200 cycles: 363776792 heartbeat IPC: 0.5269 cumulative IPC: 0.5361 (Simulation time: 00 hr 53 min 05 sec)
Heartbeat CPU 0 instructions: 239501202 cycles: 364809753 heartbeat IPC: 0.484 cumulative IPC: 0.5359 (Simulation time: 00 hr 53 min 16 sec)
Heartbeat CPU 0 instructions: 240001203 cycles: 365881330 heartbeat IPC: 0.4666 cumulative IPC: 0.5357 (Simulation time: 00 hr 53 min 27 sec)
Heartbeat CPU 0 instructions: 240501207 cycles: 367035343 heartbeat IPC: 0.4333 cumulative IPC: 0.5354 (Simulation time: 00 hr 53 min 38 sec)
Heartbeat CPU 0 instructions: 241001210 cycles: 368953396 heartbeat IPC: 0.2607 cumulative IPC: 0.5339 (Simulation time: 00 hr 53 min 59 sec)
Heartbeat CPU 0 instructions: 241501216 cycles: 372366446 heartbeat IPC: 0.1465 cumulative IPC: 0.5303 (Simulation time: 00 hr 54 min 27 sec)
Heartbeat CPU 0 instructions: 242001218 cycles: 373447862 heartbeat IPC: 0.4624 cumulative IPC: 0.5301 (Simulation time: 00 hr 54 min 38 sec)
Heartbeat CPU 0 instructions: 242501218 cycles: 374394607 heartbeat IPC: 0.5281 cumulative IPC: 0.5301 (Simulation time: 00 hr 54 min 48 sec)
Heartbeat CPU 0 instructions: 243001218 cycles: 375439820 heartbeat IPC: 0.4784 cumulative IPC: 0.5299 (Simulation time: 00 hr 54 min 59 sec)
Heartbeat CPU 0 instructions: 243501224 cycles: 376441436 heartbeat IPC: 0.4992 cumulative IPC: 0.5298 (Simulation time: 00 hr 55 min 09 sec)
Heartbeat CPU 0 instructions: 244001225 cycles: 377542911 heartbeat IPC: 0.4539 cumulative IPC: 0.5296 (Simulation time: 00 hr 55 min 21 sec)
Heartbeat CPU 0 instructions: 244501227 cycles: 378616077 heartbeat IPC: 0.4659 cumulative IPC: 0.5294 (Simulation time: 00 hr 55 min 32 sec)
Heartbeat CPU 0 instructions: 245001227 cycles: 380398354 heartbeat IPC: 0.2805 cumulative IPC: 0.5282 (Simulation time: 00 hr 55 min 47 sec)
Heartbeat CPU 0 instructions: 245501229 cycles: 381616293 heartbeat IPC: 0.4105 cumulative IPC: 0.5278 (Simulation time: 00 hr 55 min 59 sec)
Heartbeat CPU 0 instructions: 246001236 cycles: 382664048 heartbeat IPC: 0.4772 cumulative IPC: 0.5277 (Simulation time: 00 hr 56 min 10 sec)
Heartbeat CPU 0 instructions: 246501237 cycles: 383739726 heartbeat IPC: 0.4648 cumulative IPC: 0.5275 (Simulation time: 00 hr 56 min 21 sec)
Heartbeat CPU 0 instructions: 247001243 cycles: 384756237 heartbeat IPC: 0.4919 cumulative IPC: 0.5274 (Simulation time: 00 hr 56 min 31 sec)
Heartbeat CPU 0 instructions: 247501245 cycles: 385850279 heartbeat IPC: 0.457 cumulative IPC: 0.5272 (Simulation time: 00 hr 56 min 43 sec)
Heartbeat CPU 0 instructions: 248001246 cycles: 386893463 heartbeat IPC: 0.4793 cumulative IPC: 0.5271 (Simulation time: 00 hr 56 min 53 sec)
Heartbeat CPU 0 instructions: 248501248 cycles: 387884357 heartbeat IPC: 0.5046 cumulative IPC: 0.527 (Simulation time: 00 hr 57 min 04 sec)
Heartbeat CPU 0 instructions: 249001249 cycles: 389073581 heartbeat IPC: 0.4204 cumulative IPC: 0.5267 (Simulation time: 00 hr 57 min 16 sec)
Heartbeat CPU 0 instructions: 249501256 cycles: 390405939 heartbeat IPC: 0.3753 cumulative IPC: 0.5261 (Simulation time: 00 hr 57 min 29 sec)
Simulation finished CPU 0 instructions: 200000003 cycles: 379849174 cumulative IPC: 0.5265 (Simulation time: 00 hr 57 min 36 sec)
Simulation complete CPU 0 instructions: 200000003 cycles: 379849174 cumulative IPC: 0.5265 (Simulation time: 00 hr 57 min 36 sec)

ChampSim completed all CPUs

=== Simulation ===
CPU 0 runs /local-ssd/ben/dpc4-traces/gtraces_v2/charlie_0003.champsim.gz

Region of Interest Statistics

CPU 0 cumulative IPC: 0.5265 instructions: 200000003 cycles: 379849174
CPU 0 Branch Prediction Accuracy: 94.89% MPKI: 11.91 Average ROB Occupancy at Mispredict: 39.75
Branch type MPKI
BRANCH_DIRECT_JUMP: 0.3264
BRANCH_INDIRECT: 0.3452
BRANCH_CONDITIONAL: 10.36
BRANCH_DIRECT_CALL: 0.2826
BRANCH_INDIRECT_CALL: 0.3201
BRANCH_RETURN: 0.2747

cpu0->cpu0_STLB TOTAL        ACCESS:    4119089 HIT:    3719598 MISS:     399491 MSHR_MERGE:          0
cpu0->cpu0_STLB LOAD         ACCESS:    4119089 HIT:    3719598 MISS:     399491 MSHR_MERGE:          0
cpu0->cpu0_STLB RFO          ACCESS:          0 HIT:          0 MISS:          0 MSHR_MERGE:          0
cpu0->cpu0_STLB PREFETCH     ACCESS:          0 HIT:          0 MISS:          0 MSHR_MERGE:          0
cpu0->cpu0_STLB WRITE        ACCESS:          0 HIT:          0 MISS:          0 MSHR_MERGE:          0
cpu0->cpu0_STLB TRANSLATION  ACCESS:          0 HIT:          0 MISS:          0 MSHR_MERGE:          0
cpu0->cpu0_STLB PREFETCH REQUESTED:          0 ISSUED:          0 USEFUL:          0 USELESS:          0
cpu0->cpu0_STLB AVERAGE MISS LATENCY: 200.6 cycles
cpu0->cpu0_L2C TOTAL        ACCESS:   10373154 HIT:    7565519 MISS:    2807635 MSHR_MERGE:          0
cpu0->cpu0_L2C LOAD         ACCESS:    4690108 HIT:    3534434 MISS:    1155674 MSHR_MERGE:          0
cpu0->cpu0_L2C RFO          ACCESS:     423528 HIT:      93198 MISS:     330330 MSHR_MERGE:          0
cpu0->cpu0_L2C PREFETCH     ACCESS:    3903889 HIT:    2731100 MISS:    1172789 MSHR_MERGE:          0
cpu0->cpu0_L2C WRITE        ACCESS:    1032080 HIT:    1031953 MISS:        127 MSHR_MERGE:          0
cpu0->cpu0_L2C TRANSLATION  ACCESS:     323549 HIT:     174834 MISS:     148715 MSHR_MERGE:          0
cpu0->cpu0_L2C PREFETCH REQUESTED:          0 ISSUED:          0 USEFUL:          0 USELESS:          0
cpu0->cpu0_L2C AVERAGE MISS LATENCY: 403 cycles
cpu0->cpu0_L1I TOTAL        ACCESS:   17366115 HIT:   16522865 MISS:     843250 MSHR_MERGE:     190773
cpu0->cpu0_L1I LOAD         ACCESS:   17366115 HIT:   16522865 MISS:     843250 MSHR_MERGE:     190773
cpu0->cpu0_L1I RFO          ACCESS:          0 HIT:          0 MISS:          0 MSHR_MERGE:          0
cpu0->cpu0_L1I PREFETCH     ACCESS:          0 HIT:          0 MISS:          0 MSHR_MERGE:          0
cpu0->cpu0_L1I WRITE        ACCESS:          0 HIT:          0 MISS:          0 MSHR_MERGE:          0
cpu0->cpu0_L1I TRANSLATION  ACCESS:          0 HIT:          0 MISS:          0 MSHR_MERGE:          0
cpu0->cpu0_L1I PREFETCH REQUESTED:          0 ISSUED:          0 USEFUL:          0 USELESS:          0
cpu0->cpu0_L1I AVERAGE MISS LATENCY: 139.1 cycles
cpu0->cpu0_L1D TOTAL        ACCESS:   73406530 HIT:   60998963 MISS:   12407567 MSHR_MERGE:    3718938
cpu0->cpu0_L1D LOAD         ACCESS:   30162926 HIT:   25409324 MISS:    4753602 MSHR_MERGE:     715963
cpu0->cpu0_L1D RFO          ACCESS:          0 HIT:          0 MISS:          0 MSHR_MERGE:          0
cpu0->cpu0_L1D PREFETCH     ACCESS:   26034799 HIT:   20226703 MISS:    5808096 MSHR_MERGE:    1904207
cpu0->cpu0_L1D WRITE        ACCESS:   16244542 HIT:   14729931 MISS:    1514611 MSHR_MERGE:    1091059
cpu0->cpu0_L1D TRANSLATION  ACCESS:     964263 HIT:     633005 MISS:     331258 MSHR_MERGE:       7709
cpu0->cpu0_L1D PREFETCH REQUESTED:   38154128 ISSUED:   26034800 USEFUL:     942242 USELESS:    2961419
cpu0->cpu0_L1D AVERAGE MISS LATENCY: 128.7 cycles
cpu0->cpu0_ITLB TOTAL        ACCESS:   13690209 HIT:   13600130 MISS:      90079 MSHR_MERGE:      37085
cpu0->cpu0_ITLB LOAD         ACCESS:   13690209 HIT:   13600130 MISS:      90079 MSHR_MERGE:      37085
cpu0->cpu0_ITLB RFO          ACCESS:          0 HIT:          0 MISS:          0 MSHR_MERGE:          0
cpu0->cpu0_ITLB PREFETCH     ACCESS:          0 HIT:          0 MISS:          0 MSHR_MERGE:          0
cpu0->cpu0_ITLB WRITE        ACCESS:          0 HIT:          0 MISS:          0 MSHR_MERGE:          0
cpu0->cpu0_ITLB TRANSLATION  ACCESS:          0 HIT:          0 MISS:          0 MSHR_MERGE:          0
cpu0->cpu0_ITLB PREFETCH REQUESTED:          0 ISSUED:          0 USEFUL:          0 USELESS:          0
cpu0->cpu0_ITLB AVERAGE MISS LATENCY: 73.24 cycles
cpu0->cpu0_DTLB TOTAL        ACCESS:   66503711 HIT:   61497564 MISS:    5006147 MSHR_MERGE:     940052
cpu0->cpu0_DTLB LOAD         ACCESS:   66503711 HIT:   61497564 MISS:    5006147 MSHR_MERGE:     940052
cpu0->cpu0_DTLB RFO          ACCESS:          0 HIT:          0 MISS:          0 MSHR_MERGE:          0
cpu0->cpu0_DTLB PREFETCH     ACCESS:          0 HIT:          0 MISS:          0 MSHR_MERGE:          0
cpu0->cpu0_DTLB WRITE        ACCESS:          0 HIT:          0 MISS:          0 MSHR_MERGE:          0
cpu0->cpu0_DTLB TRANSLATION  ACCESS:          0 HIT:          0 MISS:          0 MSHR_MERGE:          0
cpu0->cpu0_DTLB PREFETCH REQUESTED:          0 ISSUED:          0 USEFUL:          0 USELESS:          0
cpu0->cpu0_DTLB AVERAGE MISS LATENCY: 23.95 cycles
cpu0->LLC TOTAL        ACCESS:    3662715 HIT:     412457 MISS:    3250258 MSHR_MERGE:          0
cpu0->LLC LOAD         ACCESS:    1155674 HIT:     133769 MISS:    1021905 MSHR_MERGE:          0
cpu0->LLC RFO          ACCESS:     330330 HIT:       5937 MISS:     324393 MSHR_MERGE:          0
cpu0->LLC PREFETCH     ACCESS:    1172789 HIT:      49268 MISS:    1123521 MSHR_MERGE:          0
cpu0->LLC WRITE        ACCESS:     855207 HIT:     210876 MISS:     644331 MSHR_MERGE:          0
cpu0->LLC TRANSLATION  ACCESS:     148715 HIT:      12607 MISS:     136108 MSHR_MERGE:          0
cpu0->LLC PREFETCH REQUESTED:          0 ISSUED:          0 USEFUL:          0 USELESS:          0
cpu0->LLC AVERAGE MISS LATENCY: 297.4 cycles

DRAM Statistics

Channel 0 RQ ROW_BUFFER_HIT:      67292
  ROW_BUFFER_MISS:    2538193
  AVG DBUS CONGESTED CYCLE: 4.126
Channel 0 WQ ROW_BUFFER_HIT:     110272
  ROW_BUFFER_MISS:     623258
  FULL:          0
Channel 0 REFRESHES ISSUED:      31654
