[VMEM] WARNING: physical memory size is smaller than virtual memory size.

*** ChampSim Multicore Out-of-Order Simulator ***
Warmup Instructions: 50000000
Simulation Instructions: 200000000
Number of CPUs: 1
Page size: 4096
Core 0: /local-ssd/ben/dpc4-traces/gtraces_v2/tahoe_0001.champsim.gz
Off-chip DRAM Size: 64 GiB Channels: 1 Width: 64-bit Data Rate: 800 MT/s
[BTB] WARNING: target of return is a lower address than the corresponding call. This is usually a problem with your trace.
[BTB] WARNING: target of return is a lower address than the corresponding call. This is usually a problem with your trace.
[BTB] WARNING: target of return is a lower address than the corresponding call. This is usually a problem with your trace.
[BTB] WARNING: target of return is a lower address than the corresponding call. This is usually a problem with your trace.
[BTB] WARNING: target of return is a lower address than the corresponding call. This is usually a problem with your trace.
[BTB] WARNING: target of return is a lower address than the corresponding call. This is usually a problem with your trace.
[BTB] WARNING: target of return is a lower address than the corresponding call. This is usually a problem with your trace.
[BTB] WARNING: target of return is a lower address than the corresponding call. This is usually a problem with your trace.
[BTB] WARNING: target of return is a lower address than the corresponding call. This is usually a problem with your trace.
[BTB] WARNING: target of return is a lower address than the corresponding call. This is usually a problem with your trace.
Heartbeat CPU 0 instructions: 500004 cycles: 303846 heartbeat IPC: 1.646 cumulative IPC: 1.646 (Simulation time: 00 hr 00 min 05 sec)
Heartbeat CPU 0 instructions: 1000007 cycles: 423278 heartbeat IPC: 4.187 cumulative IPC: 2.363 (Simulation time: 00 hr 00 min 07 sec)
Heartbeat CPU 0 instructions: 1500011 cycles: 537409 heartbeat IPC: 4.381 cumulative IPC: 2.791 (Simulation time: 00 hr 00 min 08 sec)
Heartbeat CPU 0 instructions: 2000015 cycles: 655519 heartbeat IPC: 4.233 cumulative IPC: 3.051 (Simulation time: 00 hr 00 min 10 sec)
Heartbeat CPU 0 instructions: 2500021 cycles: 768348 heartbeat IPC: 4.432 cumulative IPC: 3.254 (Simulation time: 00 hr 00 min 12 sec)
Heartbeat CPU 0 instructions: 3000026 cycles: 879636 heartbeat IPC: 4.493 cumulative IPC: 3.411 (Simulation time: 00 hr 00 min 14 sec)
Heartbeat CPU 0 instructions: 3500030 cycles: 981881 heartbeat IPC: 4.89 cumulative IPC: 3.565 (Simulation time: 00 hr 00 min 16 sec)
Heartbeat CPU 0 instructions: 4000031 cycles: 1084062 heartbeat IPC: 4.893 cumulative IPC: 3.69 (Simulation time: 00 hr 00 min 18 sec)
Heartbeat CPU 0 instructions: 4500037 cycles: 1187851 heartbeat IPC: 4.818 cumulative IPC: 3.788 (Simulation time: 00 hr 00 min 19 sec)
Heartbeat CPU 0 instructions: 5000040 cycles: 1289831 heartbeat IPC: 4.903 cumulative IPC: 3.877 (Simulation time: 00 hr 00 min 21 sec)
Heartbeat CPU 0 instructions: 5500046 cycles: 1391751 heartbeat IPC: 4.906 cumulative IPC: 3.952 (Simulation time: 00 hr 00 min 23 sec)
Heartbeat CPU 0 instructions: 6000049 cycles: 1494265 heartbeat IPC: 4.877 cumulative IPC: 4.015 (Simulation time: 00 hr 00 min 24 sec)
Heartbeat CPU 0 instructions: 6500050 cycles: 1596040 heartbeat IPC: 4.913 cumulative IPC: 4.073 (Simulation time: 00 hr 00 min 26 sec)
Heartbeat CPU 0 instructions: 7000057 cycles: 1698232 heartbeat IPC: 4.893 cumulative IPC: 4.122 (Simulation time: 00 hr 00 min 28 sec)
Heartbeat CPU 0 instructions: 7500060 cycles: 1800588 heartbeat IPC: 4.885 cumulative IPC: 4.165 (Simulation time: 00 hr 00 min 30 sec)
Heartbeat CPU 0 instructions: 8000060 cycles: 1902472 heartbeat IPC: 4.908 cumulative IPC: 4.205 (Simulation time: 00 hr 00 min 31 sec)
Heartbeat CPU 0 instructions: 8500061 cycles: 2004608 heartbeat IPC: 4.895 cumulative IPC: 4.24 (Simulation time: 00 hr 00 min 33 sec)
Heartbeat CPU 0 instructions: 9000068 cycles: 2107532 heartbeat IPC: 4.858 cumulative IPC: 4.27 (Simulation time: 00 hr 00 min 35 sec)
Heartbeat CPU 0 instructions: 9500068 cycles: 2274696 heartbeat IPC: 2.991 cumulative IPC: 4.176 (Simulation time: 00 hr 00 min 37 sec)
Heartbeat CPU 0 instructions: 10000072 cycles: 2485831 heartbeat IPC: 2.368 cumulative IPC: 4.023 (Simulation time: 00 hr 00 min 40 sec)
Heartbeat CPU 0 instructions: 10500077 cycles: 2697340 heartbeat IPC: 2.364 cumulative IPC: 3.893 (Simulation time: 00 hr 00 min 44 sec)
Heartbeat CPU 0 instructions: 11000084 cycles: 2837429 heartbeat IPC: 3.569 cumulative IPC: 3.877 (Simulation time: 00 hr 00 min 46 sec)
Heartbeat CPU 0 instructions: 11500084 cycles: 2993100 heartbeat IPC: 3.212 cumulative IPC: 3.842 (Simulation time: 00 hr 00 min 48 sec)
Heartbeat CPU 0 instructions: 12000091 cycles: 3119344 heartbeat IPC: 3.961 cumulative IPC: 3.847 (Simulation time: 00 hr 00 min 51 sec)
Heartbeat CPU 0 instructions: 12500093 cycles: 3330363 heartbeat IPC: 2.369 cumulative IPC: 3.753 (Simulation time: 00 hr 00 min 54 sec)
Heartbeat CPU 0 instructions: 13000099 cycles: 3500021 heartbeat IPC: 2.947 cumulative IPC: 3.714 (Simulation time: 00 hr 00 min 57 sec)
Heartbeat CPU 0 instructions: 13500105 cycles: 3611964 heartbeat IPC: 4.467 cumulative IPC: 3.738 (Simulation time: 00 hr 00 min 59 sec)
Heartbeat CPU 0 instructions: 14000110 cycles: 3718663 heartbeat IPC: 4.686 cumulative IPC: 3.765 (Simulation time: 00 hr 01 min 01 sec)
Heartbeat CPU 0 instructions: 14500115 cycles: 3845106 heartbeat IPC: 3.954 cumulative IPC: 3.771 (Simulation time: 00 hr 01 min 03 sec)
Heartbeat CPU 0 instructions: 15000121 cycles: 3975716 heartbeat IPC: 3.828 cumulative IPC: 3.773 (Simulation time: 00 hr 01 min 05 sec)
Heartbeat CPU 0 instructions: 15500123 cycles: 4108904 heartbeat IPC: 3.754 cumulative IPC: 3.772 (Simulation time: 00 hr 01 min 08 sec)
Heartbeat CPU 0 instructions: 16000124 cycles: 4216084 heartbeat IPC: 4.665 cumulative IPC: 3.795 (Simulation time: 00 hr 01 min 09 sec)
Heartbeat CPU 0 instructions: 16500128 cycles: 4327769 heartbeat IPC: 4.477 cumulative IPC: 3.813 (Simulation time: 00 hr 01 min 11 sec)
Heartbeat CPU 0 instructions: 17000132 cycles: 4521020 heartbeat IPC: 2.587 cumulative IPC: 3.76 (Simulation time: 00 hr 01 min 14 sec)
Heartbeat CPU 0 instructions: 17500136 cycles: 4652430 heartbeat IPC: 3.805 cumulative IPC: 3.762 (Simulation time: 00 hr 01 min 16 sec)
Heartbeat CPU 0 instructions: 18000140 cycles: 4798267 heartbeat IPC: 3.429 cumulative IPC: 3.751 (Simulation time: 00 hr 01 min 19 sec)
Heartbeat CPU 0 instructions: 18500145 cycles: 4915541 heartbeat IPC: 4.264 cumulative IPC: 3.764 (Simulation time: 00 hr 01 min 21 sec)
Heartbeat CPU 0 instructions: 19000152 cycles: 5054164 heartbeat IPC: 3.607 cumulative IPC: 3.759 (Simulation time: 00 hr 01 min 23 sec)
Heartbeat CPU 0 instructions: 19500156 cycles: 5186629 heartbeat IPC: 3.775 cumulative IPC: 3.76 (Simulation time: 00 hr 01 min 25 sec)
Heartbeat CPU 0 instructions: 20000157 cycles: 5339830 heartbeat IPC: 3.264 cumulative IPC: 3.745 (Simulation time: 00 hr 01 min 28 sec)
Heartbeat CPU 0 instructions: 20500164 cycles: 5476027 heartbeat IPC: 3.671 cumulative IPC: 3.744 (Simulation time: 00 hr 01 min 30 sec)
Heartbeat CPU 0 instructions: 21000171 cycles: 5655036 heartbeat IPC: 2.793 cumulative IPC: 3.714 (Simulation time: 00 hr 01 min 33 sec)
Heartbeat CPU 0 instructions: 21500172 cycles: 5765468 heartbeat IPC: 4.528 cumulative IPC: 3.729 (Simulation time: 00 hr 01 min 35 sec)
Heartbeat CPU 0 instructions: 22000172 cycles: 5953214 heartbeat IPC: 2.663 cumulative IPC: 3.696 (Simulation time: 00 hr 01 min 38 sec)
Heartbeat CPU 0 instructions: 22500177 cycles: 6144649 heartbeat IPC: 2.612 cumulative IPC: 3.662 (Simulation time: 00 hr 01 min 41 sec)
Heartbeat CPU 0 instructions: 23000183 cycles: 6326296 heartbeat IPC: 2.753 cumulative IPC: 3.636 (Simulation time: 00 hr 01 min 44 sec)
Heartbeat CPU 0 instructions: 23500185 cycles: 6482086 heartbeat IPC: 3.209 cumulative IPC: 3.625 (Simulation time: 00 hr 01 min 47 sec)
Heartbeat CPU 0 instructions: 24000191 cycles: 6633327 heartbeat IPC: 3.306 cumulative IPC: 3.618 (Simulation time: 00 hr 01 min 49 sec)
Heartbeat CPU 0 instructions: 24500196 cycles: 6756468 heartbeat IPC: 4.06 cumulative IPC: 3.626 (Simulation time: 00 hr 01 min 51 sec)
Heartbeat CPU 0 instructions: 25000197 cycles: 6890332 heartbeat IPC: 3.735 cumulative IPC: 3.628 (Simulation time: 00 hr 01 min 54 sec)
Heartbeat CPU 0 instructions: 25500197 cycles: 7031052 heartbeat IPC: 3.553 cumulative IPC: 3.627 (Simulation time: 00 hr 01 min 56 sec)
Heartbeat CPU 0 instructions: 26000204 cycles: 7157186 heartbeat IPC: 3.964 cumulative IPC: 3.633 (Simulation time: 00 hr 01 min 58 sec)
Heartbeat CPU 0 instructions: 26500210 cycles: 7348201 heartbeat IPC: 2.618 cumulative IPC: 3.606 (Simulation time: 00 hr 02 min 02 sec)
Heartbeat CPU 0 instructions: 27000217 cycles: 7532427 heartbeat IPC: 2.714 cumulative IPC: 3.585 (Simulation time: 00 hr 02 min 04 sec)
Heartbeat CPU 0 instructions: 27500218 cycles: 7694738 heartbeat IPC: 3.081 cumulative IPC: 3.574 (Simulation time: 00 hr 02 min 07 sec)
Heartbeat CPU 0 instructions: 28000219 cycles: 7848891 heartbeat IPC: 3.244 cumulative IPC: 3.567 (Simulation time: 00 hr 02 min 09 sec)
Heartbeat CPU 0 instructions: 28500226 cycles: 8016734 heartbeat IPC: 2.979 cumulative IPC: 3.555 (Simulation time: 00 hr 02 min 12 sec)
Heartbeat CPU 0 instructions: 29000228 cycles: 8170059 heartbeat IPC: 3.261 cumulative IPC: 3.55 (Simulation time: 00 hr 02 min 15 sec)
Heartbeat CPU 0 instructions: 29500229 cycles: 8341804 heartbeat IPC: 2.911 cumulative IPC: 3.536 (Simulation time: 00 hr 02 min 18 sec)
Heartbeat CPU 0 instructions: 30000232 cycles: 8467824 heartbeat IPC: 3.968 cumulative IPC: 3.543 (Simulation time: 00 hr 02 min 20 sec)
Heartbeat CPU 0 instructions: 30500235 cycles: 8602090 heartbeat IPC: 3.724 cumulative IPC: 3.546 (Simulation time: 00 hr 02 min 22 sec)
Heartbeat CPU 0 instructions: 31000236 cycles: 8727435 heartbeat IPC: 3.989 cumulative IPC: 3.552 (Simulation time: 00 hr 02 min 24 sec)
Heartbeat CPU 0 instructions: 31500240 cycles: 8875683 heartbeat IPC: 3.373 cumulative IPC: 3.549 (Simulation time: 00 hr 02 min 27 sec)
Heartbeat CPU 0 instructions: 32000240 cycles: 8989424 heartbeat IPC: 4.396 cumulative IPC: 3.56 (Simulation time: 00 hr 02 min 29 sec)
Heartbeat CPU 0 instructions: 32500240 cycles: 9098821 heartbeat IPC: 4.571 cumulative IPC: 3.572 (Simulation time: 00 hr 02 min 31 sec)
Heartbeat CPU 0 instructions: 33000240 cycles: 9249981 heartbeat IPC: 3.308 cumulative IPC: 3.568 (Simulation time: 00 hr 02 min 33 sec)
Heartbeat CPU 0 instructions: 33500242 cycles: 9379866 heartbeat IPC: 3.85 cumulative IPC: 3.572 (Simulation time: 00 hr 02 min 35 sec)
Heartbeat CPU 0 instructions: 34000244 cycles: 9512126 heartbeat IPC: 3.78 cumulative IPC: 3.574 (Simulation time: 00 hr 02 min 37 sec)
Heartbeat CPU 0 instructions: 34500248 cycles: 9634394 heartbeat IPC: 4.089 cumulative IPC: 3.581 (Simulation time: 00 hr 02 min 40 sec)
Heartbeat CPU 0 instructions: 35000250 cycles: 9789033 heartbeat IPC: 3.233 cumulative IPC: 3.575 (Simulation time: 00 hr 02 min 42 sec)
Heartbeat CPU 0 instructions: 35500251 cycles: 9967468 heartbeat IPC: 2.802 cumulative IPC: 3.562 (Simulation time: 00 hr 02 min 45 sec)
Heartbeat CPU 0 instructions: 36000258 cycles: 10134489 heartbeat IPC: 2.994 cumulative IPC: 3.552 (Simulation time: 00 hr 02 min 48 sec)
Heartbeat CPU 0 instructions: 36500265 cycles: 10284325 heartbeat IPC: 3.337 cumulative IPC: 3.549 (Simulation time: 00 hr 02 min 51 sec)
Heartbeat CPU 0 instructions: 37000270 cycles: 10403114 heartbeat IPC: 4.209 cumulative IPC: 3.557 (Simulation time: 00 hr 02 min 53 sec)
Heartbeat CPU 0 instructions: 37500274 cycles: 10509726 heartbeat IPC: 4.69 cumulative IPC: 3.568 (Simulation time: 00 hr 02 min 54 sec)
Heartbeat CPU 0 instructions: 38000277 cycles: 10630036 heartbeat IPC: 4.156 cumulative IPC: 3.575 (Simulation time: 00 hr 02 min 56 sec)
Heartbeat CPU 0 instructions: 38500281 cycles: 10743404 heartbeat IPC: 4.41 cumulative IPC: 3.584 (Simulation time: 00 hr 02 min 59 sec)
Heartbeat CPU 0 instructions: 39000281 cycles: 10860349 heartbeat IPC: 4.276 cumulative IPC: 3.591 (Simulation time: 00 hr 03 min 01 sec)
Heartbeat CPU 0 instructions: 39500281 cycles: 10974163 heartbeat IPC: 4.393 cumulative IPC: 3.599 (Simulation time: 00 hr 03 min 03 sec)
Heartbeat CPU 0 instructions: 40000288 cycles: 11087153 heartbeat IPC: 4.425 cumulative IPC: 3.608 (Simulation time: 00 hr 03 min 05 sec)
Heartbeat CPU 0 instructions: 40500295 cycles: 11221804 heartbeat IPC: 3.713 cumulative IPC: 3.609 (Simulation time: 00 hr 03 min 07 sec)
Heartbeat CPU 0 instructions: 41000297 cycles: 11367331 heartbeat IPC: 3.436 cumulative IPC: 3.607 (Simulation time: 00 hr 03 min 10 sec)
Heartbeat CPU 0 instructions: 41500302 cycles: 11480021 heartbeat IPC: 4.437 cumulative IPC: 3.615 (Simulation time: 00 hr 03 min 12 sec)
Heartbeat CPU 0 instructions: 42000304 cycles: 11625724 heartbeat IPC: 3.432 cumulative IPC: 3.613 (Simulation time: 00 hr 03 min 14 sec)
Heartbeat CPU 0 instructions: 42500311 cycles: 11781617 heartbeat IPC: 3.207 cumulative IPC: 3.607 (Simulation time: 00 hr 03 min 17 sec)
Heartbeat CPU 0 instructions: 43000315 cycles: 11923117 heartbeat IPC: 3.534 cumulative IPC: 3.606 (Simulation time: 00 hr 03 min 19 sec)
Heartbeat CPU 0 instructions: 43500321 cycles: 12027716 heartbeat IPC: 4.78 cumulative IPC: 3.617 (Simulation time: 00 hr 03 min 21 sec)
Heartbeat CPU 0 instructions: 44000327 cycles: 12128702 heartbeat IPC: 4.951 cumulative IPC: 3.628 (Simulation time: 00 hr 03 min 23 sec)
Heartbeat CPU 0 instructions: 44500327 cycles: 12232794 heartbeat IPC: 4.803 cumulative IPC: 3.638 (Simulation time: 00 hr 03 min 25 sec)
Heartbeat CPU 0 instructions: 45000328 cycles: 12334762 heartbeat IPC: 4.904 cumulative IPC: 3.648 (Simulation time: 00 hr 03 min 27 sec)
Heartbeat CPU 0 instructions: 45500334 cycles: 12465209 heartbeat IPC: 3.833 cumulative IPC: 3.65 (Simulation time: 00 hr 03 min 29 sec)
Heartbeat CPU 0 instructions: 46000338 cycles: 12633394 heartbeat IPC: 2.973 cumulative IPC: 3.641 (Simulation time: 00 hr 03 min 32 sec)
Heartbeat CPU 0 instructions: 46500344 cycles: 12774778 heartbeat IPC: 3.537 cumulative IPC: 3.64 (Simulation time: 00 hr 03 min 34 sec)
Heartbeat CPU 0 instructions: 47000350 cycles: 12936065 heartbeat IPC: 3.1 cumulative IPC: 3.633 (Simulation time: 00 hr 03 min 37 sec)
Heartbeat CPU 0 instructions: 47500355 cycles: 13084204 heartbeat IPC: 3.375 cumulative IPC: 3.63 (Simulation time: 00 hr 03 min 40 sec)
Heartbeat CPU 0 instructions: 48000355 cycles: 13225304 heartbeat IPC: 3.544 cumulative IPC: 3.629 (Simulation time: 00 hr 03 min 42 sec)
Heartbeat CPU 0 instructions: 48500359 cycles: 13371757 heartbeat IPC: 3.414 cumulative IPC: 3.627 (Simulation time: 00 hr 03 min 45 sec)
Heartbeat CPU 0 instructions: 49000363 cycles: 13512422 heartbeat IPC: 3.555 cumulative IPC: 3.626 (Simulation time: 00 hr 03 min 47 sec)
Heartbeat CPU 0 instructions: 49500363 cycles: 13669158 heartbeat IPC: 3.19 cumulative IPC: 3.621 (Simulation time: 00 hr 03 min 50 sec)
Warmup halting CPU 0 at instruction 50000001 cycle 13771669 for remainder of phase
Warmup finished CPU 0 instructions: 50000001 cycles: 13771669 cumulative IPC: 3.631 (Simulation time: 00 hr 03 min 51 sec)
Warmup complete CPU 0 instructions: 50000001 cycles: 13771669 cumulative IPC: 3.631 (Simulation time: 00 hr 03 min 51 sec)
Heartbeat CPU 0 instructions: 50000364 cycles: 13771985 heartbeat IPC: 4.863 cumulative IPC: 1.149 (Simulation time: 00 hr 03 min 51 sec)
Heartbeat CPU 0 instructions: 50500366 cycles: 15610421 heartbeat IPC: 0.272 cumulative IPC: 0.2721 (Simulation time: 00 hr 04 min 04 sec)
Heartbeat CPU 0 instructions: 51000366 cycles: 16272682 heartbeat IPC: 0.755 cumulative IPC: 0.4 (Simulation time: 00 hr 04 min 10 sec)
Heartbeat CPU 0 instructions: 51500367 cycles: 16570058 heartbeat IPC: 1.681 cumulative IPC: 0.5362 (Simulation time: 00 hr 04 min 13 sec)
Heartbeat CPU 0 instructions: 52000368 cycles: 16909928 heartbeat IPC: 1.471 cumulative IPC: 0.6374 (Simulation time: 00 hr 04 min 17 sec)
Heartbeat CPU 0 instructions: 52500374 cycles: 17213601 heartbeat IPC: 1.647 cumulative IPC: 0.7264 (Simulation time: 00 hr 04 min 20 sec)
Heartbeat CPU 0 instructions: 53000375 cycles: 17522822 heartbeat IPC: 1.617 cumulative IPC: 0.7999 (Simulation time: 00 hr 04 min 24 sec)
Heartbeat CPU 0 instructions: 53500380 cycles: 17822378 heartbeat IPC: 1.669 cumulative IPC: 0.8641 (Simulation time: 00 hr 04 min 27 sec)
Heartbeat CPU 0 instructions: 54000384 cycles: 18122795 heartbeat IPC: 1.664 cumulative IPC: 0.9194 (Simulation time: 00 hr 04 min 31 sec)
Heartbeat CPU 0 instructions: 54500386 cycles: 18428688 heartbeat IPC: 1.635 cumulative IPC: 0.9664 (Simulation time: 00 hr 04 min 34 sec)
Heartbeat CPU 0 instructions: 55000387 cycles: 18738737 heartbeat IPC: 1.613 cumulative IPC: 1.007 (Simulation time: 00 hr 04 min 37 sec)
Heartbeat CPU 0 instructions: 55500393 cycles: 19048269 heartbeat IPC: 1.615 cumulative IPC: 1.042 (Simulation time: 00 hr 04 min 41 sec)
Heartbeat CPU 0 instructions: 56000393 cycles: 19343788 heartbeat IPC: 1.692 cumulative IPC: 1.077 (Simulation time: 00 hr 04 min 44 sec)
Heartbeat CPU 0 instructions: 56500394 cycles: 19640682 heartbeat IPC: 1.684 cumulative IPC: 1.108 (Simulation time: 00 hr 04 min 48 sec)
Heartbeat CPU 0 instructions: 57000396 cycles: 19956056 heartbeat IPC: 1.585 cumulative IPC: 1.132 (Simulation time: 00 hr 04 min 51 sec)
Heartbeat CPU 0 instructions: 57500396 cycles: 20261746 heartbeat IPC: 1.636 cumulative IPC: 1.156 (Simulation time: 00 hr 04 min 54 sec)
Heartbeat CPU 0 instructions: 58000396 cycles: 20555155 heartbeat IPC: 1.704 cumulative IPC: 1.179 (Simulation time: 00 hr 04 min 58 sec)
Heartbeat CPU 0 instructions: 58500396 cycles: 20850648 heartbeat IPC: 1.692 cumulative IPC: 1.201 (Simulation time: 00 hr 05 min 01 sec)
Heartbeat CPU 0 instructions: 59000397 cycles: 21162107 heartbeat IPC: 1.605 cumulative IPC: 1.218 (Simulation time: 00 hr 05 min 05 sec)
Heartbeat CPU 0 instructions: 59500397 cycles: 21467287 heartbeat IPC: 1.638 cumulative IPC: 1.235 (Simulation time: 00 hr 05 min 08 sec)
Heartbeat CPU 0 instructions: 60000401 cycles: 21775461 heartbeat IPC: 1.622 cumulative IPC: 1.249 (Simulation time: 00 hr 05 min 12 sec)
Heartbeat CPU 0 instructions: 60500408 cycles: 22070268 heartbeat IPC: 1.696 cumulative IPC: 1.265 (Simulation time: 00 hr 05 min 15 sec)
Heartbeat CPU 0 instructions: 61000411 cycles: 22378673 heartbeat IPC: 1.621 cumulative IPC: 1.278 (Simulation time: 00 hr 05 min 18 sec)
Heartbeat CPU 0 instructions: 61500411 cycles: 24833111 heartbeat IPC: 0.2037 cumulative IPC: 1.04 (Simulation time: 00 hr 05 min 35 sec)
Heartbeat CPU 0 instructions: 62000412 cycles: 27232908 heartbeat IPC: 0.2084 cumulative IPC: 0.8915 (Simulation time: 00 hr 05 min 51 sec)
Heartbeat CPU 0 instructions: 62500414 cycles: 29416131 heartbeat IPC: 0.229 cumulative IPC: 0.799 (Simulation time: 00 hr 06 min 07 sec)
Heartbeat CPU 0 instructions: 63000421 cycles: 32186406 heartbeat IPC: 0.1805 cumulative IPC: 0.706 (Simulation time: 00 hr 06 min 26 sec)
Heartbeat CPU 0 instructions: 63500424 cycles: 33806510 heartbeat IPC: 0.3086 cumulative IPC: 0.6738 (Simulation time: 00 hr 06 min 38 sec)
Heartbeat CPU 0 instructions: 64000425 cycles: 36402459 heartbeat IPC: 0.1926 cumulative IPC: 0.6186 (Simulation time: 00 hr 06 min 56 sec)
Heartbeat CPU 0 instructions: 64500427 cycles: 39607844 heartbeat IPC: 0.156 cumulative IPC: 0.5612 (Simulation time: 00 hr 07 min 18 sec)
Heartbeat CPU 0 instructions: 65000427 cycles: 41600505 heartbeat IPC: 0.2509 cumulative IPC: 0.539 (Simulation time: 00 hr 07 min 32 sec)
Heartbeat CPU 0 instructions: 65500432 cycles: 42146904 heartbeat IPC: 0.9151 cumulative IPC: 0.5463 (Simulation time: 00 hr 07 min 37 sec)
Heartbeat CPU 0 instructions: 66000432 cycles: 42911019 heartbeat IPC: 0.6544 cumulative IPC: 0.5491 (Simulation time: 00 hr 07 min 44 sec)
Heartbeat CPU 0 instructions: 66500436 cycles: 43562004 heartbeat IPC: 0.7681 cumulative IPC: 0.5539 (Simulation time: 00 hr 07 min 50 sec)
Heartbeat CPU 0 instructions: 67000436 cycles: 45861504 heartbeat IPC: 0.2174 cumulative IPC: 0.5298 (Simulation time: 00 hr 08 min 05 sec)
Heartbeat CPU 0 instructions: 67500436 cycles: 48078123 heartbeat IPC: 0.2256 cumulative IPC: 0.5101 (Simulation time: 00 hr 08 min 20 sec)
Heartbeat CPU 0 instructions: 68000436 cycles: 49859858 heartbeat IPC: 0.2806 cumulative IPC: 0.4988 (Simulation time: 00 hr 08 min 34 sec)
Heartbeat CPU 0 instructions: 68500442 cycles: 52297307 heartbeat IPC: 0.2051 cumulative IPC: 0.4802 (Simulation time: 00 hr 08 min 51 sec)
Heartbeat CPU 0 instructions: 69000443 cycles: 53756315 heartbeat IPC: 0.3427 cumulative IPC: 0.4752 (Simulation time: 00 hr 09 min 02 sec)
Heartbeat CPU 0 instructions: 69500449 cycles: 54822921 heartbeat IPC: 0.4688 cumulative IPC: 0.475 (Simulation time: 00 hr 09 min 10 sec)
Heartbeat CPU 0 instructions: 70000452 cycles: 55450493 heartbeat IPC: 0.7967 cumulative IPC: 0.4799 (Simulation time: 00 hr 09 min 16 sec)
Heartbeat CPU 0 instructions: 70500453 cycles: 56670482 heartbeat IPC: 0.4098 cumulative IPC: 0.4779 (Simulation time: 00 hr 09 min 26 sec)
Heartbeat CPU 0 instructions: 71000453 cycles: 58285873 heartbeat IPC: 0.3095 cumulative IPC: 0.4718 (Simulation time: 00 hr 09 min 37 sec)
Heartbeat CPU 0 instructions: 71500455 cycles: 59298084 heartbeat IPC: 0.494 cumulative IPC: 0.4723 (Simulation time: 00 hr 09 min 45 sec)
Heartbeat CPU 0 instructions: 72000460 cycles: 61507447 heartbeat IPC: 0.2263 cumulative IPC: 0.4609 (Simulation time: 00 hr 10 min 01 sec)
Heartbeat CPU 0 instructions: 72500467 cycles: 63844099 heartbeat IPC: 0.214 cumulative IPC: 0.4494 (Simulation time: 00 hr 10 min 17 sec)
Heartbeat CPU 0 instructions: 73000468 cycles: 65591421 heartbeat IPC: 0.2862 cumulative IPC: 0.4439 (Simulation time: 00 hr 10 min 30 sec)
Heartbeat CPU 0 instructions: 73500470 cycles: 66795821 heartbeat IPC: 0.4151 cumulative IPC: 0.4432 (Simulation time: 00 hr 10 min 39 sec)
Heartbeat CPU 0 instructions: 74000476 cycles: 67437824 heartbeat IPC: 0.7788 cumulative IPC: 0.4472 (Simulation time: 00 hr 10 min 45 sec)
Heartbeat CPU 0 instructions: 74500479 cycles: 68879979 heartbeat IPC: 0.3467 cumulative IPC: 0.4446 (Simulation time: 00 hr 10 min 55 sec)
Heartbeat CPU 0 instructions: 75000479 cycles: 72783066 heartbeat IPC: 0.1281 cumulative IPC: 0.4237 (Simulation time: 00 hr 11 min 22 sec)
Heartbeat CPU 0 instructions: 75500481 cycles: 74827257 heartbeat IPC: 0.2446 cumulative IPC: 0.4177 (Simulation time: 00 hr 11 min 35 sec)
Heartbeat CPU 0 instructions: 76000485 cycles: 76701504 heartbeat IPC: 0.2668 cumulative IPC: 0.4132 (Simulation time: 00 hr 11 min 50 sec)
Heartbeat CPU 0 instructions: 76500488 cycles: 78101249 heartbeat IPC: 0.3572 cumulative IPC: 0.4119 (Simulation time: 00 hr 12 min 01 sec)
Heartbeat CPU 0 instructions: 77000489 cycles: 80656397 heartbeat IPC: 0.1957 cumulative IPC: 0.4037 (Simulation time: 00 hr 12 min 18 sec)
Heartbeat CPU 0 instructions: 77500489 cycles: 82378709 heartbeat IPC: 0.2903 cumulative IPC: 0.4008 (Simulation time: 00 hr 12 min 32 sec)
Heartbeat CPU 0 instructions: 78000490 cycles: 84320679 heartbeat IPC: 0.2575 cumulative IPC: 0.3969 (Simulation time: 00 hr 12 min 45 sec)
Heartbeat CPU 0 instructions: 78500494 cycles: 86361256 heartbeat IPC: 0.245 cumulative IPC: 0.3926 (Simulation time: 00 hr 12 min 59 sec)
Heartbeat CPU 0 instructions: 79000497 cycles: 87217348 heartbeat IPC: 0.5841 cumulative IPC: 0.3949 (Simulation time: 00 hr 13 min 06 sec)
Heartbeat CPU 0 instructions: 79500497 cycles: 88105971 heartbeat IPC: 0.5627 cumulative IPC: 0.3969 (Simulation time: 00 hr 13 min 13 sec)
Heartbeat CPU 0 instructions: 80000498 cycles: 88311891 heartbeat IPC: 2.428 cumulative IPC: 0.4025 (Simulation time: 00 hr 13 min 16 sec)
Heartbeat CPU 0 instructions: 80500499 cycles: 88481630 heartbeat IPC: 2.946 cumulative IPC: 0.4083 (Simulation time: 00 hr 13 min 18 sec)
Heartbeat CPU 0 instructions: 81000501 cycles: 88657691 heartbeat IPC: 2.84 cumulative IPC: 0.414 (Simulation time: 00 hr 13 min 21 sec)
Heartbeat CPU 0 instructions: 81500501 cycles: 88855779 heartbeat IPC: 2.524 cumulative IPC: 0.4195 (Simulation time: 00 hr 13 min 24 sec)
Heartbeat CPU 0 instructions: 82000505 cycles: 89050744 heartbeat IPC: 2.565 cumulative IPC: 0.4251 (Simulation time: 00 hr 13 min 27 sec)
Heartbeat CPU 0 instructions: 82500507 cycles: 89240706 heartbeat IPC: 2.632 cumulative IPC: 0.4306 (Simulation time: 00 hr 13 min 29 sec)
Heartbeat CPU 0 instructions: 83000512 cycles: 89435116 heartbeat IPC: 2.572 cumulative IPC: 0.4361 (Simulation time: 00 hr 13 min 32 sec)
Heartbeat CPU 0 instructions: 83500517 cycles: 89618166 heartbeat IPC: 2.732 cumulative IPC: 0.4417 (Simulation time: 00 hr 13 min 35 sec)
Heartbeat CPU 0 instructions: 84000519 cycles: 89824330 heartbeat IPC: 2.425 cumulative IPC: 0.4471 (Simulation time: 00 hr 13 min 38 sec)
Heartbeat CPU 0 instructions: 84500521 cycles: 90055654 heartbeat IPC: 2.161 cumulative IPC: 0.4523 (Simulation time: 00 hr 13 min 41 sec)
Heartbeat CPU 0 instructions: 85000521 cycles: 90257544 heartbeat IPC: 2.477 cumulative IPC: 0.4576 (Simulation time: 00 hr 13 min 43 sec)
Heartbeat CPU 0 instructions: 85500522 cycles: 90461226 heartbeat IPC: 2.455 cumulative IPC: 0.4629 (Simulation time: 00 hr 13 min 46 sec)
Heartbeat CPU 0 instructions: 86000522 cycles: 90682247 heartbeat IPC: 2.262 cumulative IPC: 0.4681 (Simulation time: 00 hr 13 min 49 sec)
Heartbeat CPU 0 instructions: 86500523 cycles: 90889736 heartbeat IPC: 2.41 cumulative IPC: 0.4733 (Simulation time: 00 hr 13 min 52 sec)
Heartbeat CPU 0 instructions: 87000526 cycles: 91127021 heartbeat IPC: 2.107 cumulative IPC: 0.4783 (Simulation time: 00 hr 13 min 55 sec)
Heartbeat CPU 0 instructions: 87500527 cycles: 91346647 heartbeat IPC: 2.277 cumulative IPC: 0.4834 (Simulation time: 00 hr 13 min 58 sec)
Heartbeat CPU 0 instructions: 88000528 cycles: 91556390 heartbeat IPC: 2.384 cumulative IPC: 0.4885 (Simulation time: 00 hr 14 min 01 sec)
Heartbeat CPU 0 instructions: 88500528 cycles: 91787131 heartbeat IPC: 2.167 cumulative IPC: 0.4935 (Simulation time: 00 hr 14 min 04 sec)
Heartbeat CPU 0 instructions: 89000528 cycles: 92213507 heartbeat IPC: 1.173 cumulative IPC: 0.4972 (Simulation time: 00 hr 14 min 08 sec)
Heartbeat CPU 0 instructions: 89500529 cycles: 92533281 heartbeat IPC: 1.564 cumulative IPC: 0.5015 (Simulation time: 00 hr 14 min 11 sec)
Heartbeat CPU 0 instructions: 90000535 cycles: 92783702 heartbeat IPC: 1.997 cumulative IPC: 0.5063 (Simulation time: 00 hr 14 min 15 sec)
Heartbeat CPU 0 instructions: 90500535 cycles: 95291599 heartbeat IPC: 0.1994 cumulative IPC: 0.4968 (Simulation time: 00 hr 14 min 35 sec)
Heartbeat CPU 0 instructions: 91000536 cycles: 98865163 heartbeat IPC: 0.1399 cumulative IPC: 0.4818 (Simulation time: 00 hr 14 min 59 sec)
Heartbeat CPU 0 instructions: 91500537 cycles: 100973153 heartbeat IPC: 0.2372 cumulative IPC: 0.4759 (Simulation time: 00 hr 15 min 14 sec)
Heartbeat CPU 0 instructions: 92000537 cycles: 102931346 heartbeat IPC: 0.2553 cumulative IPC: 0.4711 (Simulation time: 00 hr 15 min 27 sec)
Heartbeat CPU 0 instructions: 92500539 cycles: 106108591 heartbeat IPC: 0.1574 cumulative IPC: 0.4603 (Simulation time: 00 hr 15 min 50 sec)
Heartbeat CPU 0 instructions: 93000540 cycles: 108014307 heartbeat IPC: 0.2624 cumulative IPC: 0.4563 (Simulation time: 00 hr 16 min 04 sec)
Heartbeat CPU 0 instructions: 93500540 cycles: 110718075 heartbeat IPC: 0.1849 cumulative IPC: 0.4487 (Simulation time: 00 hr 16 min 22 sec)
Heartbeat CPU 0 instructions: 94000542 cycles: 111825377 heartbeat IPC: 0.4515 cumulative IPC: 0.4487 (Simulation time: 00 hr 16 min 30 sec)
Heartbeat CPU 0 instructions: 94500546 cycles: 112433440 heartbeat IPC: 0.8223 cumulative IPC: 0.451 (Simulation time: 00 hr 16 min 36 sec)
Heartbeat CPU 0 instructions: 95000546 cycles: 114459486 heartbeat IPC: 0.2468 cumulative IPC: 0.4469 (Simulation time: 00 hr 16 min 50 sec)
Heartbeat CPU 0 instructions: 95500548 cycles: 115086958 heartbeat IPC: 0.7969 cumulative IPC: 0.4491 (Simulation time: 00 hr 16 min 55 sec)
Heartbeat CPU 0 instructions: 96000551 cycles: 115521049 heartbeat IPC: 1.152 cumulative IPC: 0.4521 (Simulation time: 00 hr 17 min 00 sec)
Heartbeat CPU 0 instructions: 96500553 cycles: 115819679 heartbeat IPC: 1.674 cumulative IPC: 0.4557 (Simulation time: 00 hr 17 min 03 sec)
Heartbeat CPU 0 instructions: 97000555 cycles: 116630098 heartbeat IPC: 0.617 cumulative IPC: 0.4569 (Simulation time: 00 hr 17 min 10 sec)
Heartbeat CPU 0 instructions: 97500555 cycles: 119166362 heartbeat IPC: 0.1971 cumulative IPC: 0.4507 (Simulation time: 00 hr 17 min 27 sec)
Heartbeat CPU 0 instructions: 98000556 cycles: 120604027 heartbeat IPC: 0.3478 cumulative IPC: 0.4493 (Simulation time: 00 hr 17 min 37 sec)
Heartbeat CPU 0 instructions: 98500556 cycles: 121620981 heartbeat IPC: 0.4917 cumulative IPC: 0.4497 (Simulation time: 00 hr 17 min 46 sec)
Heartbeat CPU 0 instructions: 99000558 cycles: 123135105 heartbeat IPC: 0.3302 cumulative IPC: 0.4481 (Simulation time: 00 hr 17 min 57 sec)
Heartbeat CPU 0 instructions: 99500560 cycles: 124214163 heartbeat IPC: 0.4634 cumulative IPC: 0.4482 (Simulation time: 00 hr 18 min 05 sec)
Heartbeat CPU 0 instructions: 100000562 cycles: 125229261 heartbeat IPC: 0.4926 cumulative IPC: 0.4486 (Simulation time: 00 hr 18 min 13 sec)
Heartbeat CPU 0 instructions: 100500563 cycles: 126237998 heartbeat IPC: 0.4957 cumulative IPC: 0.449 (Simulation time: 00 hr 18 min 21 sec)
Heartbeat CPU 0 instructions: 101000564 cycles: 128332686 heartbeat IPC: 0.2387 cumulative IPC: 0.4452 (Simulation time: 00 hr 18 min 36 sec)
Heartbeat CPU 0 instructions: 101500571 cycles: 130727744 heartbeat IPC: 0.2088 cumulative IPC: 0.4403 (Simulation time: 00 hr 18 min 52 sec)
Heartbeat CPU 0 instructions: 102000574 cycles: 131741138 heartbeat IPC: 0.4934 cumulative IPC: 0.4408 (Simulation time: 00 hr 19 min 00 sec)
Heartbeat CPU 0 instructions: 102500578 cycles: 133394651 heartbeat IPC: 0.3024 cumulative IPC: 0.4389 (Simulation time: 00 hr 19 min 12 sec)
Heartbeat CPU 0 instructions: 103000585 cycles: 134566115 heartbeat IPC: 0.4268 cumulative IPC: 0.4388 (Simulation time: 00 hr 19 min 21 sec)
Heartbeat CPU 0 instructions: 103500585 cycles: 134892338 heartbeat IPC: 1.533 cumulative IPC: 0.4417 (Simulation time: 00 hr 19 min 25 sec)
Heartbeat CPU 0 instructions: 104000588 cycles: 136829786 heartbeat IPC: 0.2581 cumulative IPC: 0.4388 (Simulation time: 00 hr 19 min 40 sec)
Heartbeat CPU 0 instructions: 104500592 cycles: 137612349 heartbeat IPC: 0.6389 cumulative IPC: 0.4401 (Simulation time: 00 hr 19 min 47 sec)
Heartbeat CPU 0 instructions: 105000592 cycles: 138521415 heartbeat IPC: 0.55 cumulative IPC: 0.4409 (Simulation time: 00 hr 19 min 56 sec)
Heartbeat CPU 0 instructions: 105500593 cycles: 139384567 heartbeat IPC: 0.5793 cumulative IPC: 0.4418 (Simulation time: 00 hr 20 min 06 sec)
Heartbeat CPU 0 instructions: 106000598 cycles: 140199951 heartbeat IPC: 0.6132 cumulative IPC: 0.4429 (Simulation time: 00 hr 20 min 15 sec)
Heartbeat CPU 0 instructions: 106500599 cycles: 140974759 heartbeat IPC: 0.6453 cumulative IPC: 0.4442 (Simulation time: 00 hr 20 min 23 sec)
Heartbeat CPU 0 instructions: 107000600 cycles: 141739048 heartbeat IPC: 0.6542 cumulative IPC: 0.4454 (Simulation time: 00 hr 20 min 32 sec)
Heartbeat CPU 0 instructions: 107500600 cycles: 142481370 heartbeat IPC: 0.6736 cumulative IPC: 0.4467 (Simulation time: 00 hr 20 min 40 sec)
Heartbeat CPU 0 instructions: 108000602 cycles: 143188817 heartbeat IPC: 0.7068 cumulative IPC: 0.4482 (Simulation time: 00 hr 20 min 48 sec)
Heartbeat CPU 0 instructions: 108500605 cycles: 144455785 heartbeat IPC: 0.3946 cumulative IPC: 0.4476 (Simulation time: 00 hr 20 min 58 sec)
Heartbeat CPU 0 instructions: 109000606 cycles: 145700741 heartbeat IPC: 0.4016 cumulative IPC: 0.4472 (Simulation time: 00 hr 21 min 07 sec)
Heartbeat CPU 0 instructions: 109500612 cycles: 146397828 heartbeat IPC: 0.7173 cumulative IPC: 0.4486 (Simulation time: 00 hr 21 min 14 sec)
Heartbeat CPU 0 instructions: 110000617 cycles: 148131496 heartbeat IPC: 0.2884 cumulative IPC: 0.4466 (Simulation time: 00 hr 21 min 25 sec)
Heartbeat CPU 0 instructions: 110500619 cycles: 148670522 heartbeat IPC: 0.9276 cumulative IPC: 0.4485 (Simulation time: 00 hr 21 min 30 sec)
Heartbeat CPU 0 instructions: 111000620 cycles: 149087546 heartbeat IPC: 1.199 cumulative IPC: 0.4508 (Simulation time: 00 hr 21 min 34 sec)
Heartbeat CPU 0 instructions: 111500625 cycles: 149374785 heartbeat IPC: 1.741 cumulative IPC: 0.4535 (Simulation time: 00 hr 21 min 38 sec)
Heartbeat CPU 0 instructions: 112000627 cycles: 150102409 heartbeat IPC: 0.6872 cumulative IPC: 0.4548 (Simulation time: 00 hr 21 min 44 sec)
Heartbeat CPU 0 instructions: 112500629 cycles: 152298767 heartbeat IPC: 0.2277 cumulative IPC: 0.4512 (Simulation time: 00 hr 21 min 59 sec)
Heartbeat CPU 0 instructions: 113000632 cycles: 154658119 heartbeat IPC: 0.2119 cumulative IPC: 0.4472 (Simulation time: 00 hr 22 min 15 sec)
Heartbeat CPU 0 instructions: 113500632 cycles: 155638996 heartbeat IPC: 0.5097 cumulative IPC: 0.4476 (Simulation time: 00 hr 22 min 23 sec)
Heartbeat CPU 0 instructions: 114000636 cycles: 157746643 heartbeat IPC: 0.2372 cumulative IPC: 0.4445 (Simulation time: 00 hr 22 min 38 sec)
Heartbeat CPU 0 instructions: 114500638 cycles: 159044990 heartbeat IPC: 0.3851 cumulative IPC: 0.444 (Simulation time: 00 hr 22 min 48 sec)
Heartbeat CPU 0 instructions: 115000643 cycles: 161344824 heartbeat IPC: 0.2174 cumulative IPC: 0.4405 (Simulation time: 00 hr 23 min 04 sec)
Heartbeat CPU 0 instructions: 115500643 cycles: 162801556 heartbeat IPC: 0.3432 cumulative IPC: 0.4395 (Simulation time: 00 hr 23 min 14 sec)
Heartbeat CPU 0 instructions: 116000643 cycles: 164559219 heartbeat IPC: 0.2845 cumulative IPC: 0.4377 (Simulation time: 00 hr 23 min 27 sec)
Heartbeat CPU 0 instructions: 116500643 cycles: 165567354 heartbeat IPC: 0.496 cumulative IPC: 0.4381 (Simulation time: 00 hr 23 min 35 sec)
Heartbeat CPU 0 instructions: 117000648 cycles: 166054304 heartbeat IPC: 1.027 cumulative IPC: 0.44 (Simulation time: 00 hr 23 min 40 sec)
Heartbeat CPU 0 instructions: 117500648 cycles: 166354621 heartbeat IPC: 1.665 cumulative IPC: 0.4424 (Simulation time: 00 hr 23 min 43 sec)
Heartbeat CPU 0 instructions: 118000652 cycles: 167013301 heartbeat IPC: 0.7591 cumulative IPC: 0.4437 (Simulation time: 00 hr 23 min 49 sec)
Heartbeat CPU 0 instructions: 118500653 cycles: 169065501 heartbeat IPC: 0.2436 cumulative IPC: 0.4411 (Simulation time: 00 hr 24 min 03 sec)
Heartbeat CPU 0 instructions: 119000653 cycles: 171145225 heartbeat IPC: 0.2404 cumulative IPC: 0.4385 (Simulation time: 00 hr 24 min 17 sec)
Heartbeat CPU 0 instructions: 119500655 cycles: 173451472 heartbeat IPC: 0.2168 cumulative IPC: 0.4353 (Simulation time: 00 hr 24 min 34 sec)
Heartbeat CPU 0 instructions: 120000657 cycles: 175897286 heartbeat IPC: 0.2044 cumulative IPC: 0.4318 (Simulation time: 00 hr 24 min 51 sec)
Heartbeat CPU 0 instructions: 120500663 cycles: 176993216 heartbeat IPC: 0.4562 cumulative IPC: 0.4319 (Simulation time: 00 hr 25 min 00 sec)
Heartbeat CPU 0 instructions: 121000663 cycles: 178644103 heartbeat IPC: 0.3029 cumulative IPC: 0.4306 (Simulation time: 00 hr 25 min 11 sec)
Heartbeat CPU 0 instructions: 121500663 cycles: 179145811 heartbeat IPC: 0.9966 cumulative IPC: 0.4324 (Simulation time: 00 hr 25 min 16 sec)
Heartbeat CPU 0 instructions: 122000665 cycles: 179566446 heartbeat IPC: 1.189 cumulative IPC: 0.4343 (Simulation time: 00 hr 25 min 21 sec)
Heartbeat CPU 0 instructions: 122500665 cycles: 179834473 heartbeat IPC: 1.865 cumulative IPC: 0.4366 (Simulation time: 00 hr 25 min 24 sec)
Heartbeat CPU 0 instructions: 123000665 cycles: 180497859 heartbeat IPC: 0.7537 cumulative IPC: 0.4378 (Simulation time: 00 hr 25 min 30 sec)
Heartbeat CPU 0 instructions: 123500666 cycles: 181689273 heartbeat IPC: 0.4197 cumulative IPC: 0.4377 (Simulation time: 00 hr 25 min 39 sec)
Heartbeat CPU 0 instructions: 124000666 cycles: 184093987 heartbeat IPC: 0.2079 cumulative IPC: 0.4345 (Simulation time: 00 hr 25 min 56 sec)
Heartbeat CPU 0 instructions: 124500672 cycles: 187625749 heartbeat IPC: 0.1416 cumulative IPC: 0.4285 (Simulation time: 00 hr 26 min 20 sec)
Heartbeat CPU 0 instructions: 125000672 cycles: 189635147 heartbeat IPC: 0.2488 cumulative IPC: 0.4265 (Simulation time: 00 hr 26 min 37 sec)
Heartbeat CPU 0 instructions: 125500672 cycles: 191770396 heartbeat IPC: 0.2342 cumulative IPC: 0.4242 (Simulation time: 00 hr 26 min 55 sec)
Heartbeat CPU 0 instructions: 126000674 cycles: 193813913 heartbeat IPC: 0.2447 cumulative IPC: 0.4221 (Simulation time: 00 hr 27 min 12 sec)
Heartbeat CPU 0 instructions: 126500679 cycles: 195645028 heartbeat IPC: 0.2731 cumulative IPC: 0.4206 (Simulation time: 00 hr 27 min 27 sec)
Heartbeat CPU 0 instructions: 127000680 cycles: 197456249 heartbeat IPC: 0.2761 cumulative IPC: 0.4192 (Simulation time: 00 hr 27 min 43 sec)
Heartbeat CPU 0 instructions: 127500684 cycles: 199528635 heartbeat IPC: 0.2413 cumulative IPC: 0.4172 (Simulation time: 00 hr 28 min 00 sec)
Heartbeat CPU 0 instructions: 128000691 cycles: 201234310 heartbeat IPC: 0.2931 cumulative IPC: 0.4161 (Simulation time: 00 hr 28 min 15 sec)
Heartbeat CPU 0 instructions: 128500695 cycles: 203233629 heartbeat IPC: 0.2501 cumulative IPC: 0.4143 (Simulation time: 00 hr 28 min 32 sec)
Heartbeat CPU 0 instructions: 129000696 cycles: 205060674 heartbeat IPC: 0.2737 cumulative IPC: 0.413 (Simulation time: 00 hr 28 min 48 sec)
Heartbeat CPU 0 instructions: 129500702 cycles: 207033006 heartbeat IPC: 0.2535 cumulative IPC: 0.4114 (Simulation time: 00 hr 29 min 04 sec)
Heartbeat CPU 0 instructions: 130000705 cycles: 208770686 heartbeat IPC: 0.2877 cumulative IPC: 0.4103 (Simulation time: 00 hr 29 min 19 sec)
Heartbeat CPU 0 instructions: 130500711 cycles: 211000982 heartbeat IPC: 0.2242 cumulative IPC: 0.4082 (Simulation time: 00 hr 29 min 38 sec)
Heartbeat CPU 0 instructions: 131000717 cycles: 212915774 heartbeat IPC: 0.2611 cumulative IPC: 0.4067 (Simulation time: 00 hr 29 min 55 sec)
Heartbeat CPU 0 instructions: 131500720 cycles: 216057967 heartbeat IPC: 0.1591 cumulative IPC: 0.4029 (Simulation time: 00 hr 30 min 19 sec)
Heartbeat CPU 0 instructions: 132000721 cycles: 220597756 heartbeat IPC: 0.1101 cumulative IPC: 0.3965 (Simulation time: 00 hr 30 min 49 sec)
Heartbeat CPU 0 instructions: 132500724 cycles: 221761875 heartbeat IPC: 0.4295 cumulative IPC: 0.3967 (Simulation time: 00 hr 30 min 59 sec)
Heartbeat CPU 0 instructions: 133000726 cycles: 222607659 heartbeat IPC: 0.5912 cumulative IPC: 0.3974 (Simulation time: 00 hr 31 min 08 sec)
Heartbeat CPU 0 instructions: 133500730 cycles: 223888638 heartbeat IPC: 0.3903 cumulative IPC: 0.3974 (Simulation time: 00 hr 31 min 20 sec)
Heartbeat CPU 0 instructions: 134000730 cycles: 225272497 heartbeat IPC: 0.3613 cumulative IPC: 0.3972 (Simulation time: 00 hr 31 min 32 sec)
Heartbeat CPU 0 instructions: 134500736 cycles: 226995697 heartbeat IPC: 0.2902 cumulative IPC: 0.3963 (Simulation time: 00 hr 31 min 47 sec)
Heartbeat CPU 0 instructions: 135000736 cycles: 229479469 heartbeat IPC: 0.2013 cumulative IPC: 0.3941 (Simulation time: 00 hr 32 min 05 sec)
Heartbeat CPU 0 instructions: 135500740 cycles: 231916548 heartbeat IPC: 0.2052 cumulative IPC: 0.3919 (Simulation time: 00 hr 32 min 22 sec)
Heartbeat CPU 0 instructions: 136000740 cycles: 232719636 heartbeat IPC: 0.6226 cumulative IPC: 0.3928 (Simulation time: 00 hr 32 min 29 sec)
Heartbeat CPU 0 instructions: 136500745 cycles: 234659266 heartbeat IPC: 0.2578 cumulative IPC: 0.3916 (Simulation time: 00 hr 32 min 42 sec)
Heartbeat CPU 0 instructions: 137000748 cycles: 235979372 heartbeat IPC: 0.3788 cumulative IPC: 0.3915 (Simulation time: 00 hr 32 min 52 sec)
Heartbeat CPU 0 instructions: 137500753 cycles: 238307407 heartbeat IPC: 0.2148 cumulative IPC: 0.3897 (Simulation time: 00 hr 33 min 09 sec)
Heartbeat CPU 0 instructions: 138000758 cycles: 239490360 heartbeat IPC: 0.4227 cumulative IPC: 0.3899 (Simulation time: 00 hr 33 min 18 sec)
Heartbeat CPU 0 instructions: 138500758 cycles: 240556982 heartbeat IPC: 0.4688 cumulative IPC: 0.3902 (Simulation time: 00 hr 33 min 27 sec)
Heartbeat CPU 0 instructions: 139000762 cycles: 242442046 heartbeat IPC: 0.2652 cumulative IPC: 0.3892 (Simulation time: 00 hr 33 min 41 sec)
Heartbeat CPU 0 instructions: 139500764 cycles: 243480733 heartbeat IPC: 0.4814 cumulative IPC: 0.3896 (Simulation time: 00 hr 33 min 50 sec)
Heartbeat CPU 0 instructions: 140000770 cycles: 246335331 heartbeat IPC: 0.1752 cumulative IPC: 0.387 (Simulation time: 00 hr 34 min 10 sec)
Heartbeat CPU 0 instructions: 140500774 cycles: 247970125 heartbeat IPC: 0.3059 cumulative IPC: 0.3864 (Simulation time: 00 hr 34 min 21 sec)
Heartbeat CPU 0 instructions: 141000774 cycles: 248679812 heartbeat IPC: 0.7045 cumulative IPC: 0.3874 (Simulation time: 00 hr 34 min 27 sec)
Heartbeat CPU 0 instructions: 141500774 cycles: 249343937 heartbeat IPC: 0.7529 cumulative IPC: 0.3884 (Simulation time: 00 hr 34 min 33 sec)
Heartbeat CPU 0 instructions: 142000774 cycles: 249902782 heartbeat IPC: 0.8947 cumulative IPC: 0.3896 (Simulation time: 00 hr 34 min 38 sec)
Heartbeat CPU 0 instructions: 142500779 cycles: 250504257 heartbeat IPC: 0.8313 cumulative IPC: 0.3907 (Simulation time: 00 hr 34 min 43 sec)
Heartbeat CPU 0 instructions: 143000785 cycles: 251298175 heartbeat IPC: 0.6298 cumulative IPC: 0.3915 (Simulation time: 00 hr 34 min 49 sec)
Heartbeat CPU 0 instructions: 143500792 cycles: 251839111 heartbeat IPC: 0.9243 cumulative IPC: 0.3927 (Simulation time: 00 hr 34 min 54 sec)
Heartbeat CPU 0 instructions: 144000793 cycles: 253545592 heartbeat IPC: 0.293 cumulative IPC: 0.392 (Simulation time: 00 hr 35 min 06 sec)
Heartbeat CPU 0 instructions: 144500796 cycles: 255488980 heartbeat IPC: 0.2573 cumulative IPC: 0.391 (Simulation time: 00 hr 35 min 20 sec)
Heartbeat CPU 0 instructions: 145000800 cycles: 257448126 heartbeat IPC: 0.2552 cumulative IPC: 0.3899 (Simulation time: 00 hr 35 min 34 sec)
Heartbeat CPU 0 instructions: 145500802 cycles: 259638298 heartbeat IPC: 0.2283 cumulative IPC: 0.3884 (Simulation time: 00 hr 35 min 49 sec)
Heartbeat CPU 0 instructions: 146000803 cycles: 260073057 heartbeat IPC: 1.15 cumulative IPC: 0.3898 (Simulation time: 00 hr 35 min 53 sec)
Heartbeat CPU 0 instructions: 146500803 cycles: 261661521 heartbeat IPC: 0.3148 cumulative IPC: 0.3893 (Simulation time: 00 hr 36 min 05 sec)
Heartbeat CPU 0 instructions: 147000805 cycles: 262685862 heartbeat IPC: 0.4881 cumulative IPC: 0.3897 (Simulation time: 00 hr 36 min 13 sec)
Heartbeat CPU 0 instructions: 147500806 cycles: 263804091 heartbeat IPC: 0.4471 cumulative IPC: 0.39 (Simulation time: 00 hr 36 min 21 sec)
Heartbeat CPU 0 instructions: 148000806 cycles: 264274895 heartbeat IPC: 1.062 cumulative IPC: 0.3912 (Simulation time: 00 hr 36 min 25 sec)
Heartbeat CPU 0 instructions: 148500809 cycles: 265752807 heartbeat IPC: 0.3383 cumulative IPC: 0.3909 (Simulation time: 00 hr 36 min 36 sec)
Heartbeat CPU 0 instructions: 149000809 cycles: 268173687 heartbeat IPC: 0.2065 cumulative IPC: 0.3892 (Simulation time: 00 hr 36 min 53 sec)
Heartbeat CPU 0 instructions: 149500810 cycles: 270043135 heartbeat IPC: 0.2675 cumulative IPC: 0.3883 (Simulation time: 00 hr 37 min 07 sec)
Heartbeat CPU 0 instructions: 150000814 cycles: 270993620 heartbeat IPC: 0.5261 cumulative IPC: 0.3888 (Simulation time: 00 hr 37 min 16 sec)
Heartbeat CPU 0 instructions: 150500821 cycles: 271804307 heartbeat IPC: 0.6168 cumulative IPC: 0.3895 (Simulation time: 00 hr 37 min 25 sec)
Heartbeat CPU 0 instructions: 151000825 cycles: 274146279 heartbeat IPC: 0.2135 cumulative IPC: 0.3879 (Simulation time: 00 hr 37 min 42 sec)
Heartbeat CPU 0 instructions: 151500828 cycles: 275561484 heartbeat IPC: 0.3533 cumulative IPC: 0.3877 (Simulation time: 00 hr 37 min 52 sec)
Heartbeat CPU 0 instructions: 152000835 cycles: 277660508 heartbeat IPC: 0.2382 cumulative IPC: 0.3865 (Simulation time: 00 hr 38 min 06 sec)
Heartbeat CPU 0 instructions: 152500836 cycles: 278786491 heartbeat IPC: 0.4441 cumulative IPC: 0.3868 (Simulation time: 00 hr 38 min 15 sec)
Heartbeat CPU 0 instructions: 153000836 cycles: 282434323 heartbeat IPC: 0.1371 cumulative IPC: 0.3834 (Simulation time: 00 hr 38 min 40 sec)
Heartbeat CPU 0 instructions: 153500839 cycles: 284062062 heartbeat IPC: 0.3072 cumulative IPC: 0.3829 (Simulation time: 00 hr 38 min 52 sec)
Heartbeat CPU 0 instructions: 154000839 cycles: 284553445 heartbeat IPC: 1.018 cumulative IPC: 0.3841 (Simulation time: 00 hr 38 min 57 sec)
Heartbeat CPU 0 instructions: 154500839 cycles: 286022358 heartbeat IPC: 0.3404 cumulative IPC: 0.3838 (Simulation time: 00 hr 39 min 08 sec)
Heartbeat CPU 0 instructions: 155000843 cycles: 287641457 heartbeat IPC: 0.3088 cumulative IPC: 0.3834 (Simulation time: 00 hr 39 min 20 sec)
Heartbeat CPU 0 instructions: 155500845 cycles: 289984452 heartbeat IPC: 0.2134 cumulative IPC: 0.382 (Simulation time: 00 hr 39 min 36 sec)
Heartbeat CPU 0 instructions: 156000847 cycles: 291313888 heartbeat IPC: 0.3761 cumulative IPC: 0.3819 (Simulation time: 00 hr 39 min 47 sec)
Heartbeat CPU 0 instructions: 156500852 cycles: 292231223 heartbeat IPC: 0.5451 cumulative IPC: 0.3825 (Simulation time: 00 hr 39 min 56 sec)
Heartbeat CPU 0 instructions: 157000852 cycles: 293053112 heartbeat IPC: 0.6084 cumulative IPC: 0.3831 (Simulation time: 00 hr 40 min 05 sec)
Heartbeat CPU 0 instructions: 157500859 cycles: 295997435 heartbeat IPC: 0.1698 cumulative IPC: 0.3809 (Simulation time: 00 hr 40 min 29 sec)
Heartbeat CPU 0 instructions: 158000861 cycles: 298199394 heartbeat IPC: 0.2271 cumulative IPC: 0.3797 (Simulation time: 00 hr 40 min 56 sec)
Heartbeat CPU 0 instructions: 158500862 cycles: 301967507 heartbeat IPC: 0.1327 cumulative IPC: 0.3765 (Simulation time: 00 hr 41 min 45 sec)
Heartbeat CPU 0 instructions: 159000863 cycles: 303415028 heartbeat IPC: 0.3454 cumulative IPC: 0.3763 (Simulation time: 00 hr 41 min 56 sec)
Heartbeat CPU 0 instructions: 159500865 cycles: 304788774 heartbeat IPC: 0.364 cumulative IPC: 0.3763 (Simulation time: 00 hr 42 min 07 sec)
Heartbeat CPU 0 instructions: 160000866 cycles: 308320040 heartbeat IPC: 0.1416 cumulative IPC: 0.3735 (Simulation time: 00 hr 42 min 31 sec)
Heartbeat CPU 0 instructions: 160500873 cycles: 311084520 heartbeat IPC: 0.1809 cumulative IPC: 0.3717 (Simulation time: 00 hr 42 min 51 sec)
Heartbeat CPU 0 instructions: 161000873 cycles: 313650724 heartbeat IPC: 0.1948 cumulative IPC: 0.3702 (Simulation time: 00 hr 43 min 09 sec)
Heartbeat CPU 0 instructions: 161500875 cycles: 314706004 heartbeat IPC: 0.4738 cumulative IPC: 0.3705 (Simulation time: 00 hr 43 min 19 sec)
Heartbeat CPU 0 instructions: 162000880 cycles: 315988319 heartbeat IPC: 0.3899 cumulative IPC: 0.3706 (Simulation time: 00 hr 43 min 31 sec)
Heartbeat CPU 0 instructions: 162500887 cycles: 318640324 heartbeat IPC: 0.1885 cumulative IPC: 0.369 (Simulation time: 00 hr 43 min 49 sec)
Heartbeat CPU 0 instructions: 163000887 cycles: 320286060 heartbeat IPC: 0.3038 cumulative IPC: 0.3687 (Simulation time: 00 hr 44 min 01 sec)
Heartbeat CPU 0 instructions: 163500888 cycles: 322461834 heartbeat IPC: 0.2298 cumulative IPC: 0.3677 (Simulation time: 00 hr 44 min 16 sec)
Heartbeat CPU 0 instructions: 164000894 cycles: 325578406 heartbeat IPC: 0.1604 cumulative IPC: 0.3656 (Simulation time: 00 hr 44 min 37 sec)
Heartbeat CPU 0 instructions: 164500896 cycles: 327488820 heartbeat IPC: 0.2617 cumulative IPC: 0.365 (Simulation time: 00 hr 44 min 51 sec)
Heartbeat CPU 0 instructions: 165000898 cycles: 329002971 heartbeat IPC: 0.3302 cumulative IPC: 0.3648 (Simulation time: 00 hr 45 min 02 sec)
Heartbeat CPU 0 instructions: 165500899 cycles: 330676195 heartbeat IPC: 0.2988 cumulative IPC: 0.3645 (Simulation time: 00 hr 45 min 15 sec)
Heartbeat CPU 0 instructions: 166000903 cycles: 332730563 heartbeat IPC: 0.2434 cumulative IPC: 0.3637 (Simulation time: 00 hr 45 min 29 sec)
Heartbeat CPU 0 instructions: 166500907 cycles: 334329692 heartbeat IPC: 0.3127 cumulative IPC: 0.3634 (Simulation time: 00 hr 45 min 41 sec)
Heartbeat CPU 0 instructions: 167000911 cycles: 335151754 heartbeat IPC: 0.6082 cumulative IPC: 0.3641 (Simulation time: 00 hr 45 min 48 sec)
Heartbeat CPU 0 instructions: 167500914 cycles: 336346272 heartbeat IPC: 0.4186 cumulative IPC: 0.3643 (Simulation time: 00 hr 45 min 57 sec)
Heartbeat CPU 0 instructions: 168000918 cycles: 336952148 heartbeat IPC: 0.8253 cumulative IPC: 0.3651 (Simulation time: 00 hr 46 min 03 sec)
Heartbeat CPU 0 instructions: 168500925 cycles: 338622596 heartbeat IPC: 0.2993 cumulative IPC: 0.3648 (Simulation time: 00 hr 46 min 15 sec)
Heartbeat CPU 0 instructions: 169000925 cycles: 340388623 heartbeat IPC: 0.2831 cumulative IPC: 0.3643 (Simulation time: 00 hr 46 min 28 sec)
Heartbeat CPU 0 instructions: 169500929 cycles: 341573112 heartbeat IPC: 0.4221 cumulative IPC: 0.3646 (Simulation time: 00 hr 46 min 38 sec)
Heartbeat CPU 0 instructions: 170000933 cycles: 343487417 heartbeat IPC: 0.2612 cumulative IPC: 0.364 (Simulation time: 00 hr 46 min 52 sec)
Heartbeat CPU 0 instructions: 170500937 cycles: 344516815 heartbeat IPC: 0.4857 cumulative IPC: 0.3643 (Simulation time: 00 hr 47 min 01 sec)
Heartbeat CPU 0 instructions: 171000941 cycles: 344800506 heartbeat IPC: 1.762 cumulative IPC: 0.3655 (Simulation time: 00 hr 47 min 04 sec)
Heartbeat CPU 0 instructions: 171500941 cycles: 345023066 heartbeat IPC: 2.247 cumulative IPC: 0.3668 (Simulation time: 00 hr 47 min 07 sec)
Heartbeat CPU 0 instructions: 172000942 cycles: 345558979 heartbeat IPC: 0.933 cumulative IPC: 0.3677 (Simulation time: 00 hr 47 min 11 sec)
Heartbeat CPU 0 instructions: 172500942 cycles: 348079611 heartbeat IPC: 0.1984 cumulative IPC: 0.3664 (Simulation time: 00 hr 47 min 29 sec)
Heartbeat CPU 0 instructions: 173000942 cycles: 349972304 heartbeat IPC: 0.2642 cumulative IPC: 0.3659 (Simulation time: 00 hr 47 min 43 sec)
Heartbeat CPU 0 instructions: 173500946 cycles: 351849103 heartbeat IPC: 0.2664 cumulative IPC: 0.3653 (Simulation time: 00 hr 47 min 56 sec)
Heartbeat CPU 0 instructions: 174000948 cycles: 354381548 heartbeat IPC: 0.1974 cumulative IPC: 0.3641 (Simulation time: 00 hr 48 min 15 sec)
Heartbeat CPU 0 instructions: 174500948 cycles: 357160952 heartbeat IPC: 0.1799 cumulative IPC: 0.3626 (Simulation time: 00 hr 48 min 35 sec)
Heartbeat CPU 0 instructions: 175000951 cycles: 359016834 heartbeat IPC: 0.2694 cumulative IPC: 0.3621 (Simulation time: 00 hr 48 min 50 sec)
Heartbeat CPU 0 instructions: 175500951 cycles: 359843806 heartbeat IPC: 0.6046 cumulative IPC: 0.3626 (Simulation time: 00 hr 48 min 58 sec)
Heartbeat CPU 0 instructions: 176000955 cycles: 362094899 heartbeat IPC: 0.2221 cumulative IPC: 0.3617 (Simulation time: 00 hr 49 min 15 sec)
Heartbeat CPU 0 instructions: 176500957 cycles: 363269283 heartbeat IPC: 0.4258 cumulative IPC: 0.362 (Simulation time: 00 hr 49 min 24 sec)
Heartbeat CPU 0 instructions: 177000959 cycles: 365190915 heartbeat IPC: 0.2602 cumulative IPC: 0.3614 (Simulation time: 00 hr 49 min 38 sec)
Heartbeat CPU 0 instructions: 177500959 cycles: 366846964 heartbeat IPC: 0.3019 cumulative IPC: 0.3611 (Simulation time: 00 hr 49 min 50 sec)
Heartbeat CPU 0 instructions: 178000963 cycles: 369237896 heartbeat IPC: 0.2091 cumulative IPC: 0.3601 (Simulation time: 00 hr 50 min 07 sec)
Heartbeat CPU 0 instructions: 178500964 cycles: 370623533 heartbeat IPC: 0.3608 cumulative IPC: 0.3601 (Simulation time: 00 hr 50 min 18 sec)
Heartbeat CPU 0 instructions: 179000967 cycles: 371875314 heartbeat IPC: 0.3994 cumulative IPC: 0.3602 (Simulation time: 00 hr 50 min 28 sec)
Heartbeat CPU 0 instructions: 179500968 cycles: 374178874 heartbeat IPC: 0.2171 cumulative IPC: 0.3593 (Simulation time: 00 hr 50 min 44 sec)
Heartbeat CPU 0 instructions: 180000968 cycles: 374840868 heartbeat IPC: 0.7553 cumulative IPC: 0.36 (Simulation time: 00 hr 50 min 50 sec)
Heartbeat CPU 0 instructions: 180500972 cycles: 375608935 heartbeat IPC: 0.651 cumulative IPC: 0.3607 (Simulation time: 00 hr 50 min 57 sec)
Heartbeat CPU 0 instructions: 181000972 cycles: 376898386 heartbeat IPC: 0.3878 cumulative IPC: 0.3608 (Simulation time: 00 hr 51 min 06 sec)
Heartbeat CPU 0 instructions: 181500974 cycles: 377505483 heartbeat IPC: 0.8236 cumulative IPC: 0.3615 (Simulation time: 00 hr 51 min 12 sec)
Heartbeat CPU 0 instructions: 182000980 cycles: 379303280 heartbeat IPC: 0.2781 cumulative IPC: 0.3611 (Simulation time: 00 hr 51 min 25 sec)
Heartbeat CPU 0 instructions: 182500984 cycles: 381043113 heartbeat IPC: 0.2874 cumulative IPC: 0.3608 (Simulation time: 00 hr 51 min 40 sec)
Heartbeat CPU 0 instructions: 183000984 cycles: 382667200 heartbeat IPC: 0.3079 cumulative IPC: 0.3605 (Simulation time: 00 hr 51 min 55 sec)
Heartbeat CPU 0 instructions: 183500985 cycles: 384394697 heartbeat IPC: 0.2894 cumulative IPC: 0.3602 (Simulation time: 00 hr 52 min 09 sec)
Heartbeat CPU 0 instructions: 184000985 cycles: 385569709 heartbeat IPC: 0.4255 cumulative IPC: 0.3604 (Simulation time: 00 hr 52 min 20 sec)
Heartbeat CPU 0 instructions: 184500985 cycles: 386777828 heartbeat IPC: 0.4139 cumulative IPC: 0.3606 (Simulation time: 00 hr 52 min 30 sec)
Heartbeat CPU 0 instructions: 185000991 cycles: 388308061 heartbeat IPC: 0.3268 cumulative IPC: 0.3604 (Simulation time: 00 hr 52 min 44 sec)
Heartbeat CPU 0 instructions: 185500997 cycles: 389352245 heartbeat IPC: 0.4788 cumulative IPC: 0.3608 (Simulation time: 00 hr 52 min 53 sec)
Heartbeat CPU 0 instructions: 186001000 cycles: 393489542 heartbeat IPC: 0.1209 cumulative IPC: 0.3582 (Simulation time: 00 hr 53 min 22 sec)
Heartbeat CPU 0 instructions: 186501001 cycles: 394605926 heartbeat IPC: 0.4479 cumulative IPC: 0.3584 (Simulation time: 00 hr 53 min 31 sec)
Heartbeat CPU 0 instructions: 187001001 cycles: 397091066 heartbeat IPC: 0.2012 cumulative IPC: 0.3574 (Simulation time: 00 hr 53 min 49 sec)
Heartbeat CPU 0 instructions: 187501006 cycles: 398108467 heartbeat IPC: 0.4915 cumulative IPC: 0.3578 (Simulation time: 00 hr 53 min 58 sec)
Heartbeat CPU 0 instructions: 188001010 cycles: 400996236 heartbeat IPC: 0.1731 cumulative IPC: 0.3564 (Simulation time: 00 hr 54 min 17 sec)
Heartbeat CPU 0 instructions: 188501010 cycles: 402826923 heartbeat IPC: 0.2731 cumulative IPC: 0.356 (Simulation time: 00 hr 54 min 31 sec)
Heartbeat CPU 0 instructions: 189001012 cycles: 403937557 heartbeat IPC: 0.4502 cumulative IPC: 0.3563 (Simulation time: 00 hr 54 min 39 sec)
Heartbeat CPU 0 instructions: 189501013 cycles: 405962219 heartbeat IPC: 0.247 cumulative IPC: 0.3557 (Simulation time: 00 hr 54 min 54 sec)
Heartbeat CPU 0 instructions: 190001014 cycles: 408120199 heartbeat IPC: 0.2317 cumulative IPC: 0.355 (Simulation time: 00 hr 55 min 10 sec)
Heartbeat CPU 0 instructions: 190501021 cycles: 409875589 heartbeat IPC: 0.2848 cumulative IPC: 0.3547 (Simulation time: 00 hr 55 min 22 sec)
Heartbeat CPU 0 instructions: 191001021 cycles: 410837364 heartbeat IPC: 0.5199 cumulative IPC: 0.3551 (Simulation time: 00 hr 55 min 30 sec)
Heartbeat CPU 0 instructions: 191501026 cycles: 413577703 heartbeat IPC: 0.1825 cumulative IPC: 0.3539 (Simulation time: 00 hr 55 min 48 sec)
Heartbeat CPU 0 instructions: 192001026 cycles: 416707672 heartbeat IPC: 0.1597 cumulative IPC: 0.3524 (Simulation time: 00 hr 56 min 10 sec)
Heartbeat CPU 0 instructions: 192501029 cycles: 418935702 heartbeat IPC: 0.2244 cumulative IPC: 0.3517 (Simulation time: 00 hr 56 min 27 sec)
Heartbeat CPU 0 instructions: 193001033 cycles: 419617954 heartbeat IPC: 0.7329 cumulative IPC: 0.3524 (Simulation time: 00 hr 56 min 33 sec)
Heartbeat CPU 0 instructions: 193501033 cycles: 420875901 heartbeat IPC: 0.3975 cumulative IPC: 0.3525 (Simulation time: 00 hr 56 min 44 sec)
Heartbeat CPU 0 instructions: 194001038 cycles: 422337220 heartbeat IPC: 0.3422 cumulative IPC: 0.3525 (Simulation time: 00 hr 56 min 54 sec)
Heartbeat CPU 0 instructions: 194501041 cycles: 423875837 heartbeat IPC: 0.325 cumulative IPC: 0.3524 (Simulation time: 00 hr 57 min 06 sec)
Heartbeat CPU 0 instructions: 195001041 cycles: 425072339 heartbeat IPC: 0.4179 cumulative IPC: 0.3525 (Simulation time: 00 hr 57 min 15 sec)
Heartbeat CPU 0 instructions: 195501041 cycles: 425584158 heartbeat IPC: 0.9769 cumulative IPC: 0.3533 (Simulation time: 00 hr 57 min 20 sec)
Heartbeat CPU 0 instructions: 196001044 cycles: 426081373 heartbeat IPC: 1.006 cumulative IPC: 0.3541 (Simulation time: 00 hr 57 min 25 sec)
Heartbeat CPU 0 instructions: 196501045 cycles: 426264161 heartbeat IPC: 2.735 cumulative IPC: 0.3552 (Simulation time: 00 hr 57 min 28 sec)
Heartbeat CPU 0 instructions: 197001045 cycles: 426447352 heartbeat IPC: 2.729 cumulative IPC: 0.3562 (Simulation time: 00 hr 57 min 30 sec)
Heartbeat CPU 0 instructions: 197501045 cycles: 426638149 heartbeat IPC: 2.621 cumulative IPC: 0.3573 (Simulation time: 00 hr 57 min 33 sec)
Heartbeat CPU 0 instructions: 198001046 cycles: 426855025 heartbeat IPC: 2.305 cumulative IPC: 0.3583 (Simulation time: 00 hr 57 min 36 sec)
Heartbeat CPU 0 instructions: 198501049 cycles: 427074289 heartbeat IPC: 2.28 cumulative IPC: 0.3593 (Simulation time: 00 hr 57 min 39 sec)
Heartbeat CPU 0 instructions: 199001050 cycles: 427376795 heartbeat IPC: 1.653 cumulative IPC: 0.3602 (Simulation time: 00 hr 57 min 43 sec)
Heartbeat CPU 0 instructions: 199501050 cycles: 429555114 heartbeat IPC: 0.2295 cumulative IPC: 0.3596 (Simulation time: 00 hr 57 min 58 sec)
Heartbeat CPU 0 instructions: 200001050 cycles: 431671749 heartbeat IPC: 0.2362 cumulative IPC: 0.3589 (Simulation time: 00 hr 58 min 14 sec)
Heartbeat CPU 0 instructions: 200501051 cycles: 433343230 heartbeat IPC: 0.2991 cumulative IPC: 0.3587 (Simulation time: 00 hr 58 min 26 sec)
Heartbeat CPU 0 instructions: 201001051 cycles: 435586927 heartbeat IPC: 0.2228 cumulative IPC: 0.358 (Simulation time: 00 hr 58 min 42 sec)
Heartbeat CPU 0 instructions: 201501052 cycles: 437069811 heartbeat IPC: 0.3372 cumulative IPC: 0.3579 (Simulation time: 00 hr 58 min 52 sec)
Heartbeat CPU 0 instructions: 202001059 cycles: 437539866 heartbeat IPC: 1.064 cumulative IPC: 0.3587 (Simulation time: 00 hr 58 min 57 sec)
Heartbeat CPU 0 instructions: 202501060 cycles: 437928903 heartbeat IPC: 1.285 cumulative IPC: 0.3595 (Simulation time: 00 hr 59 min 00 sec)
Heartbeat CPU 0 instructions: 203001066 cycles: 438315697 heartbeat IPC: 1.293 cumulative IPC: 0.3604 (Simulation time: 00 hr 59 min 04 sec)
Heartbeat CPU 0 instructions: 203501066 cycles: 438685938 heartbeat IPC: 1.35 cumulative IPC: 0.3613 (Simulation time: 00 hr 59 min 08 sec)
Heartbeat CPU 0 instructions: 204001068 cycles: 439062805 heartbeat IPC: 1.327 cumulative IPC: 0.3621 (Simulation time: 00 hr 59 min 12 sec)
Heartbeat CPU 0 instructions: 204501070 cycles: 439418601 heartbeat IPC: 1.405 cumulative IPC: 0.363 (Simulation time: 00 hr 59 min 15 sec)
Heartbeat CPU 0 instructions: 205001071 cycles: 439805999 heartbeat IPC: 1.291 cumulative IPC: 0.3638 (Simulation time: 00 hr 59 min 19 sec)
Heartbeat CPU 0 instructions: 205501071 cycles: 441644977 heartbeat IPC: 0.2719 cumulative IPC: 0.3634 (Simulation time: 00 hr 59 min 33 sec)
Heartbeat CPU 0 instructions: 206001071 cycles: 442915797 heartbeat IPC: 0.3934 cumulative IPC: 0.3635 (Simulation time: 00 hr 59 min 43 sec)
Heartbeat CPU 0 instructions: 206501076 cycles: 444358065 heartbeat IPC: 0.3467 cumulative IPC: 0.3635 (Simulation time: 00 hr 59 min 54 sec)
Heartbeat CPU 0 instructions: 207001076 cycles: 446244002 heartbeat IPC: 0.2651 cumulative IPC: 0.363 (Simulation time: 01 hr 00 min 07 sec)
Heartbeat CPU 0 instructions: 207501082 cycles: 448426075 heartbeat IPC: 0.2291 cumulative IPC: 0.3624 (Simulation time: 01 hr 00 min 23 sec)
Heartbeat CPU 0 instructions: 208001082 cycles: 450124551 heartbeat IPC: 0.2944 cumulative IPC: 0.3621 (Simulation time: 01 hr 00 min 36 sec)
Heartbeat CPU 0 instructions: 208501086 cycles: 451592095 heartbeat IPC: 0.3407 cumulative IPC: 0.362 (Simulation time: 01 hr 00 min 47 sec)
Heartbeat CPU 0 instructions: 209001090 cycles: 453363743 heartbeat IPC: 0.2822 cumulative IPC: 0.3617 (Simulation time: 01 hr 01 min 00 sec)
Heartbeat CPU 0 instructions: 209501091 cycles: 454895362 heartbeat IPC: 0.3265 cumulative IPC: 0.3616 (Simulation time: 01 hr 01 min 11 sec)
Heartbeat CPU 0 instructions: 210001096 cycles: 456847483 heartbeat IPC: 0.2561 cumulative IPC: 0.3611 (Simulation time: 01 hr 01 min 25 sec)
Heartbeat CPU 0 instructions: 210501100 cycles: 458607908 heartbeat IPC: 0.284 cumulative IPC: 0.3608 (Simulation time: 01 hr 01 min 38 sec)
Heartbeat CPU 0 instructions: 211001103 cycles: 459805632 heartbeat IPC: 0.4175 cumulative IPC: 0.361 (Simulation time: 01 hr 01 min 47 sec)
Heartbeat CPU 0 instructions: 211501110 cycles: 461727688 heartbeat IPC: 0.2601 cumulative IPC: 0.3605 (Simulation time: 01 hr 02 min 01 sec)
Heartbeat CPU 0 instructions: 212001116 cycles: 463651608 heartbeat IPC: 0.2599 cumulative IPC: 0.3601 (Simulation time: 01 hr 02 min 15 sec)
Heartbeat CPU 0 instructions: 212501119 cycles: 465220433 heartbeat IPC: 0.3187 cumulative IPC: 0.36 (Simulation time: 01 hr 02 min 26 sec)
Heartbeat CPU 0 instructions: 213001121 cycles: 467065607 heartbeat IPC: 0.271 cumulative IPC: 0.3596 (Simulation time: 01 hr 02 min 40 sec)
Heartbeat CPU 0 instructions: 213501122 cycles: 468206619 heartbeat IPC: 0.4382 cumulative IPC: 0.3598 (Simulation time: 01 hr 02 min 49 sec)
Heartbeat CPU 0 instructions: 214001128 cycles: 469116169 heartbeat IPC: 0.5497 cumulative IPC: 0.3602 (Simulation time: 01 hr 02 min 57 sec)
Heartbeat CPU 0 instructions: 214501128 cycles: 471818554 heartbeat IPC: 0.185 cumulative IPC: 0.3591 (Simulation time: 01 hr 03 min 15 sec)
Heartbeat CPU 0 instructions: 215001131 cycles: 473378405 heartbeat IPC: 0.3205 cumulative IPC: 0.359 (Simulation time: 01 hr 03 min 27 sec)
Heartbeat CPU 0 instructions: 215501137 cycles: 474443790 heartbeat IPC: 0.4693 cumulative IPC: 0.3593 (Simulation time: 01 hr 03 min 36 sec)
Heartbeat CPU 0 instructions: 216001142 cycles: 475783085 heartbeat IPC: 0.3733 cumulative IPC: 0.3593 (Simulation time: 01 hr 03 min 46 sec)
Heartbeat CPU 0 instructions: 216501142 cycles: 477203445 heartbeat IPC: 0.352 cumulative IPC: 0.3593 (Simulation time: 01 hr 03 min 57 sec)
Heartbeat CPU 0 instructions: 217001143 cycles: 478210263 heartbeat IPC: 0.4966 cumulative IPC: 0.3596 (Simulation time: 01 hr 04 min 05 sec)
Heartbeat CPU 0 instructions: 217501145 cycles: 480574876 heartbeat IPC: 0.2115 cumulative IPC: 0.3588 (Simulation time: 01 hr 04 min 21 sec)
Heartbeat CPU 0 instructions: 218001148 cycles: 481903616 heartbeat IPC: 0.3763 cumulative IPC: 0.3589 (Simulation time: 01 hr 04 min 32 sec)
Heartbeat CPU 0 instructions: 218501148 cycles: 483354923 heartbeat IPC: 0.3445 cumulative IPC: 0.3588 (Simulation time: 01 hr 04 min 43 sec)
Heartbeat CPU 0 instructions: 219001152 cycles: 486142965 heartbeat IPC: 0.1793 cumulative IPC: 0.3578 (Simulation time: 01 hr 05 min 02 sec)
Heartbeat CPU 0 instructions: 219501159 cycles: 487638439 heartbeat IPC: 0.3343 cumulative IPC: 0.3577 (Simulation time: 01 hr 05 min 13 sec)
Heartbeat CPU 0 instructions: 220001162 cycles: 489620237 heartbeat IPC: 0.2523 cumulative IPC: 0.3573 (Simulation time: 01 hr 05 min 27 sec)
Heartbeat CPU 0 instructions: 220501166 cycles: 490860176 heartbeat IPC: 0.4032 cumulative IPC: 0.3574 (Simulation time: 01 hr 05 min 36 sec)
Heartbeat CPU 0 instructions: 221001171 cycles: 492366097 heartbeat IPC: 0.332 cumulative IPC: 0.3573 (Simulation time: 01 hr 05 min 47 sec)
Heartbeat CPU 0 instructions: 221501171 cycles: 493809999 heartbeat IPC: 0.3463 cumulative IPC: 0.3573 (Simulation time: 01 hr 05 min 57 sec)
Heartbeat CPU 0 instructions: 222001171 cycles: 494550241 heartbeat IPC: 0.6755 cumulative IPC: 0.3578 (Simulation time: 01 hr 06 min 03 sec)
Heartbeat CPU 0 instructions: 222501178 cycles: 496911051 heartbeat IPC: 0.2118 cumulative IPC: 0.357 (Simulation time: 01 hr 06 min 20 sec)
Heartbeat CPU 0 instructions: 223001182 cycles: 499927373 heartbeat IPC: 0.1658 cumulative IPC: 0.3559 (Simulation time: 01 hr 06 min 41 sec)
Heartbeat CPU 0 instructions: 223501187 cycles: 501716893 heartbeat IPC: 0.2794 cumulative IPC: 0.3556 (Simulation time: 01 hr 06 min 54 sec)
Heartbeat CPU 0 instructions: 224001188 cycles: 503402730 heartbeat IPC: 0.2966 cumulative IPC: 0.3554 (Simulation time: 01 hr 07 min 06 sec)
Heartbeat CPU 0 instructions: 224501191 cycles: 503994206 heartbeat IPC: 0.8453 cumulative IPC: 0.356 (Simulation time: 01 hr 07 min 11 sec)
Heartbeat CPU 0 instructions: 225001197 cycles: 504779486 heartbeat IPC: 0.6367 cumulative IPC: 0.3564 (Simulation time: 01 hr 07 min 17 sec)
Heartbeat CPU 0 instructions: 225501203 cycles: 505330734 heartbeat IPC: 0.907 cumulative IPC: 0.357 (Simulation time: 01 hr 07 min 22 sec)
Heartbeat CPU 0 instructions: 226001205 cycles: 505951820 heartbeat IPC: 0.805 cumulative IPC: 0.3576 (Simulation time: 01 hr 07 min 27 sec)
Heartbeat CPU 0 instructions: 226501205 cycles: 506516737 heartbeat IPC: 0.8851 cumulative IPC: 0.3582 (Simulation time: 01 hr 07 min 32 sec)
Heartbeat CPU 0 instructions: 227001205 cycles: 508035903 heartbeat IPC: 0.3291 cumulative IPC: 0.3581 (Simulation time: 01 hr 07 min 43 sec)
Heartbeat CPU 0 instructions: 227501209 cycles: 511762405 heartbeat IPC: 0.1342 cumulative IPC: 0.3564 (Simulation time: 01 hr 08 min 09 sec)
Heartbeat CPU 0 instructions: 228001210 cycles: 514628137 heartbeat IPC: 0.1745 cumulative IPC: 0.3554 (Simulation time: 01 hr 08 min 28 sec)
Heartbeat CPU 0 instructions: 228501211 cycles: 515523807 heartbeat IPC: 0.5582 cumulative IPC: 0.3558 (Simulation time: 01 hr 08 min 37 sec)
Heartbeat CPU 0 instructions: 229001212 cycles: 516304249 heartbeat IPC: 0.6407 cumulative IPC: 0.3562 (Simulation time: 01 hr 08 min 46 sec)
Heartbeat CPU 0 instructions: 229501214 cycles: 518599319 heartbeat IPC: 0.2179 cumulative IPC: 0.3556 (Simulation time: 01 hr 09 min 01 sec)
Heartbeat CPU 0 instructions: 230001216 cycles: 520336872 heartbeat IPC: 0.2878 cumulative IPC: 0.3553 (Simulation time: 01 hr 09 min 13 sec)
Heartbeat CPU 0 instructions: 230501217 cycles: 521222355 heartbeat IPC: 0.5647 cumulative IPC: 0.3557 (Simulation time: 01 hr 09 min 22 sec)
Heartbeat CPU 0 instructions: 231001217 cycles: 521996529 heartbeat IPC: 0.6458 cumulative IPC: 0.3561 (Simulation time: 01 hr 09 min 30 sec)
Heartbeat CPU 0 instructions: 231501221 cycles: 524358699 heartbeat IPC: 0.2117 cumulative IPC: 0.3555 (Simulation time: 01 hr 09 min 47 sec)
Heartbeat CPU 0 instructions: 232001228 cycles: 526482659 heartbeat IPC: 0.2354 cumulative IPC: 0.355 (Simulation time: 01 hr 10 min 02 sec)
Heartbeat CPU 0 instructions: 232501230 cycles: 527548994 heartbeat IPC: 0.4689 cumulative IPC: 0.3552 (Simulation time: 01 hr 10 min 10 sec)
Heartbeat CPU 0 instructions: 233001230 cycles: 528263148 heartbeat IPC: 0.7001 cumulative IPC: 0.3557 (Simulation time: 01 hr 10 min 16 sec)
Heartbeat CPU 0 instructions: 233501232 cycles: 528697485 heartbeat IPC: 1.151 cumulative IPC: 0.3564 (Simulation time: 01 hr 10 min 20 sec)
Heartbeat CPU 0 instructions: 234001238 cycles: 530159653 heartbeat IPC: 0.342 cumulative IPC: 0.3563 (Simulation time: 01 hr 10 min 30 sec)
Heartbeat CPU 0 instructions: 234501238 cycles: 531528562 heartbeat IPC: 0.3653 cumulative IPC: 0.3563 (Simulation time: 01 hr 10 min 40 sec)
Heartbeat CPU 0 instructions: 235001238 cycles: 533261064 heartbeat IPC: 0.2886 cumulative IPC: 0.3561 (Simulation time: 01 hr 10 min 52 sec)
Heartbeat CPU 0 instructions: 235501238 cycles: 535706298 heartbeat IPC: 0.2045 cumulative IPC: 0.3554 (Simulation time: 01 hr 11 min 08 sec)
Heartbeat CPU 0 instructions: 236001240 cycles: 537442627 heartbeat IPC: 0.288 cumulative IPC: 0.3552 (Simulation time: 01 hr 11 min 19 sec)
Heartbeat CPU 0 instructions: 236501240 cycles: 538079064 heartbeat IPC: 0.7856 cumulative IPC: 0.3557 (Simulation time: 01 hr 11 min 25 sec)
Heartbeat CPU 0 instructions: 237001242 cycles: 540568113 heartbeat IPC: 0.2009 cumulative IPC: 0.355 (Simulation time: 01 hr 11 min 43 sec)
Heartbeat CPU 0 instructions: 237501243 cycles: 543048689 heartbeat IPC: 0.2016 cumulative IPC: 0.3543 (Simulation time: 01 hr 11 min 59 sec)
Heartbeat CPU 0 instructions: 238001244 cycles: 544293995 heartbeat IPC: 0.4015 cumulative IPC: 0.3544 (Simulation time: 01 hr 12 min 08 sec)
Heartbeat CPU 0 instructions: 238501245 cycles: 544455201 heartbeat IPC: 3.102 cumulative IPC: 0.3552 (Simulation time: 01 hr 12 min 10 sec)
Heartbeat CPU 0 instructions: 239001250 cycles: 544635901 heartbeat IPC: 2.767 cumulative IPC: 0.356 (Simulation time: 01 hr 12 min 13 sec)
Heartbeat CPU 0 instructions: 239501253 cycles: 544801528 heartbeat IPC: 3.019 cumulative IPC: 0.3569 (Simulation time: 01 hr 12 min 15 sec)
Heartbeat CPU 0 instructions: 240001257 cycles: 544988966 heartbeat IPC: 2.668 cumulative IPC: 0.3577 (Simulation time: 01 hr 12 min 18 sec)
Heartbeat CPU 0 instructions: 240501258 cycles: 545747121 heartbeat IPC: 0.6595 cumulative IPC: 0.3581 (Simulation time: 01 hr 12 min 24 sec)
Heartbeat CPU 0 instructions: 241001260 cycles: 547814532 heartbeat IPC: 0.2418 cumulative IPC: 0.3577 (Simulation time: 01 hr 12 min 38 sec)
Heartbeat CPU 0 instructions: 241501267 cycles: 548946421 heartbeat IPC: 0.4417 cumulative IPC: 0.3578 (Simulation time: 01 hr 12 min 47 sec)
Heartbeat CPU 0 instructions: 242001269 cycles: 551215544 heartbeat IPC: 0.2204 cumulative IPC: 0.3572 (Simulation time: 01 hr 13 min 02 sec)
Heartbeat CPU 0 instructions: 242501270 cycles: 552919877 heartbeat IPC: 0.2934 cumulative IPC: 0.357 (Simulation time: 01 hr 13 min 13 sec)
Heartbeat CPU 0 instructions: 243001270 cycles: 554959116 heartbeat IPC: 0.2452 cumulative IPC: 0.3566 (Simulation time: 01 hr 13 min 27 sec)
Heartbeat CPU 0 instructions: 243501277 cycles: 557410239 heartbeat IPC: 0.204 cumulative IPC: 0.3559 (Simulation time: 01 hr 13 min 43 sec)
Heartbeat CPU 0 instructions: 244001277 cycles: 558415267 heartbeat IPC: 0.4975 cumulative IPC: 0.3562 (Simulation time: 01 hr 13 min 51 sec)
Heartbeat CPU 0 instructions: 244501277 cycles: 559831556 heartbeat IPC: 0.353 cumulative IPC: 0.3562 (Simulation time: 01 hr 14 min 01 sec)
Heartbeat CPU 0 instructions: 245001283 cycles: 562482593 heartbeat IPC: 0.1886 cumulative IPC: 0.3554 (Simulation time: 01 hr 14 min 18 sec)
Heartbeat CPU 0 instructions: 245501290 cycles: 564715053 heartbeat IPC: 0.224 cumulative IPC: 0.3548 (Simulation time: 01 hr 14 min 32 sec)
Heartbeat CPU 0 instructions: 246001295 cycles: 566315230 heartbeat IPC: 0.3125 cumulative IPC: 0.3547 (Simulation time: 01 hr 14 min 43 sec)
Heartbeat CPU 0 instructions: 246501299 cycles: 567629747 heartbeat IPC: 0.3804 cumulative IPC: 0.3548 (Simulation time: 01 hr 14 min 53 sec)
Heartbeat CPU 0 instructions: 247001300 cycles: 568766315 heartbeat IPC: 0.4399 cumulative IPC: 0.355 (Simulation time: 01 hr 15 min 01 sec)
Heartbeat CPU 0 instructions: 247501303 cycles: 571282313 heartbeat IPC: 0.1987 cumulative IPC: 0.3543 (Simulation time: 01 hr 15 min 17 sec)
Heartbeat CPU 0 instructions: 248001305 cycles: 573212252 heartbeat IPC: 0.2591 cumulative IPC: 0.3539 (Simulation time: 01 hr 15 min 30 sec)
Heartbeat CPU 0 instructions: 248501307 cycles: 574504180 heartbeat IPC: 0.387 cumulative IPC: 0.354 (Simulation time: 01 hr 15 min 39 sec)
Heartbeat CPU 0 instructions: 249001310 cycles: 575231040 heartbeat IPC: 0.6879 cumulative IPC: 0.3544 (Simulation time: 01 hr 15 min 45 sec)
Heartbeat CPU 0 instructions: 249501310 cycles: 575888332 heartbeat IPC: 0.7607 cumulative IPC: 0.3549 (Simulation time: 01 hr 15 min 50 sec)
Simulation finished CPU 0 instructions: 200000000 cycles: 563497449 cumulative IPC: 0.3549 (Simulation time: 01 hr 16 min 00 sec)
Simulation complete CPU 0 instructions: 200000000 cycles: 563497449 cumulative IPC: 0.3549 (Simulation time: 01 hr 16 min 00 sec)

ChampSim completed all CPUs

=== Simulation ===
CPU 0 runs /local-ssd/ben/dpc4-traces/gtraces_v2/tahoe_0001.champsim.gz

Region of Interest Statistics

CPU 0 cumulative IPC: 0.3549 instructions: 200000000 cycles: 563497449
CPU 0 Branch Prediction Accuracy: 90.69% MPKI: 18.02 Average ROB Occupancy at Mispredict: 27.65
Branch type MPKI
BRANCH_DIRECT_JUMP: 0.754
BRANCH_INDIRECT: 0.3313
BRANCH_CONDITIONAL: 14.72
BRANCH_DIRECT_CALL: 0.889
BRANCH_INDIRECT_CALL: 0.4762
BRANCH_RETURN: 0.846

cpu0->cpu0_STLB TOTAL        ACCESS:    2514880 HIT:    1739537 MISS:     775343 MSHR_MERGE:          0
cpu0->cpu0_STLB LOAD         ACCESS:    2514880 HIT:    1739537 MISS:     775343 MSHR_MERGE:          0
cpu0->cpu0_STLB RFO          ACCESS:          0 HIT:          0 MISS:          0 MSHR_MERGE:          0
cpu0->cpu0_STLB PREFETCH     ACCESS:          0 HIT:          0 MISS:          0 MSHR_MERGE:          0
cpu0->cpu0_STLB WRITE        ACCESS:          0 HIT:          0 MISS:          0 MSHR_MERGE:          0
cpu0->cpu0_STLB TRANSLATION  ACCESS:          0 HIT:          0 MISS:          0 MSHR_MERGE:          0
cpu0->cpu0_STLB PREFETCH REQUESTED:          0 ISSUED:          0 USEFUL:          0 USELESS:          0
cpu0->cpu0_STLB AVERAGE MISS LATENCY: 153.7 cycles
cpu0->cpu0_L2C TOTAL        ACCESS:    9102266 HIT:    4982775 MISS:    4119491 MSHR_MERGE:          0
cpu0->cpu0_L2C LOAD         ACCESS:    4035381 HIT:    2042300 MISS:    1993081 MSHR_MERGE:          0
cpu0->cpu0_L2C RFO          ACCESS:     689508 HIT:     216263 MISS:     473245 MSHR_MERGE:          0
cpu0->cpu0_L2C PREFETCH     ACCESS:    2469283 HIT:    1108519 MISS:    1360764 MSHR_MERGE:          0
cpu0->cpu0_L2C WRITE        ACCESS:    1156544 HIT:    1156478 MISS:         66 MSHR_MERGE:          0
cpu0->cpu0_L2C TRANSLATION  ACCESS:     751550 HIT:     459215 MISS:     292335 MSHR_MERGE:          0
cpu0->cpu0_L2C PREFETCH REQUESTED:          0 ISSUED:          0 USEFUL:          0 USELESS:          0
cpu0->cpu0_L2C AVERAGE MISS LATENCY: 333.2 cycles
cpu0->cpu0_L1I TOTAL        ACCESS:   15740698 HIT:   13344837 MISS:    2395861 MSHR_MERGE:     438208
cpu0->cpu0_L1I LOAD         ACCESS:   15740698 HIT:   13344837 MISS:    2395861 MSHR_MERGE:     438208
cpu0->cpu0_L1I RFO          ACCESS:          0 HIT:          0 MISS:          0 MSHR_MERGE:          0
cpu0->cpu0_L1I PREFETCH     ACCESS:          0 HIT:          0 MISS:          0 MSHR_MERGE:          0
cpu0->cpu0_L1I WRITE        ACCESS:          0 HIT:          0 MISS:          0 MSHR_MERGE:          0
cpu0->cpu0_L1I TRANSLATION  ACCESS:          0 HIT:          0 MISS:          0 MSHR_MERGE:          0
cpu0->cpu0_L1I PREFETCH REQUESTED:          0 ISSUED:          0 USEFUL:          0 USELESS:          0
cpu0->cpu0_L1I AVERAGE MISS LATENCY: 130.8 cycles
cpu0->cpu0_L1D TOTAL        ACCESS:   88479444 HIT:   78549584 MISS:    9929860 MSHR_MERGE:    3941751
cpu0->cpu0_L1D LOAD         ACCESS:   33833357 HIT:   31032853 MISS:    2800504 MSHR_MERGE:     722768
cpu0->cpu0_L1D RFO          ACCESS:          0 HIT:          0 MISS:          0 MSHR_MERGE:          0
cpu0->cpu0_L1D PREFETCH     ACCESS:   29766379 HIT:   25705377 MISS:    4061002 MSHR_MERGE:    1591717
cpu0->cpu0_L1D WRITE        ACCESS:   22966735 HIT:   20656704 MISS:    2310031 MSHR_MERGE:    1620493
cpu0->cpu0_L1D TRANSLATION  ACCESS:    1912973 HIT:    1154650 MISS:     758323 MSHR_MERGE:       6773
cpu0->cpu0_L1D PREFETCH REQUESTED:   41571995 ISSUED:   29766371 USEFUL:     376705 USELESS:    2092356
cpu0->cpu0_L1D AVERAGE MISS LATENCY: 201.2 cycles
cpu0->cpu0_ITLB TOTAL        ACCESS:   13226194 HIT:   12852407 MISS:     373787 MSHR_MERGE:     160530
cpu0->cpu0_ITLB LOAD         ACCESS:   13226194 HIT:   12852407 MISS:     373787 MSHR_MERGE:     160530
cpu0->cpu0_ITLB RFO          ACCESS:          0 HIT:          0 MISS:          0 MSHR_MERGE:          0
cpu0->cpu0_ITLB PREFETCH     ACCESS:          0 HIT:          0 MISS:          0 MSHR_MERGE:          0
cpu0->cpu0_ITLB WRITE        ACCESS:          0 HIT:          0 MISS:          0 MSHR_MERGE:          0
cpu0->cpu0_ITLB TRANSLATION  ACCESS:          0 HIT:          0 MISS:          0 MSHR_MERGE:          0
cpu0->cpu0_ITLB PREFETCH REQUESTED:          0 ISSUED:          0 USEFUL:          0 USELESS:          0
cpu0->cpu0_ITLB AVERAGE MISS LATENCY: 46.48 cycles
cpu0->cpu0_DTLB TOTAL        ACCESS:   78800901 HIT:   75287543 MISS:    3513358 MSHR_MERGE:    1211735
cpu0->cpu0_DTLB LOAD         ACCESS:   78800901 HIT:   75287543 MISS:    3513358 MSHR_MERGE:    1211735
cpu0->cpu0_DTLB RFO          ACCESS:          0 HIT:          0 MISS:          0 MSHR_MERGE:          0
cpu0->cpu0_DTLB PREFETCH     ACCESS:          0 HIT:          0 MISS:          0 MSHR_MERGE:          0
cpu0->cpu0_DTLB WRITE        ACCESS:          0 HIT:          0 MISS:          0 MSHR_MERGE:          0
cpu0->cpu0_DTLB TRANSLATION  ACCESS:          0 HIT:          0 MISS:          0 MSHR_MERGE:          0
cpu0->cpu0_DTLB PREFETCH REQUESTED:          0 ISSUED:          0 USEFUL:          0 USELESS:          0
cpu0->cpu0_DTLB AVERAGE MISS LATENCY: 53.27 cycles
cpu0->LLC TOTAL        ACCESS:    4876522 HIT:     903994 MISS:    3972528 MSHR_MERGE:          0
cpu0->LLC LOAD         ACCESS:    1993081 HIT:     279869 MISS:    1713212 MSHR_MERGE:          0
cpu0->LLC RFO          ACCESS:     473245 HIT:      11937 MISS:     461308 MSHR_MERGE:          0
cpu0->LLC PREFETCH     ACCESS:    1360764 HIT:      69260 MISS:    1291504 MSHR_MERGE:          0
cpu0->LLC WRITE        ACCESS:     757097 HIT:     499007 MISS:     258090 MSHR_MERGE:          0
cpu0->LLC TRANSLATION  ACCESS:     292335 HIT:      43921 MISS:     248414 MSHR_MERGE:          0
cpu0->LLC PREFETCH REQUESTED:          0 ISSUED:          0 USEFUL:          0 USELESS:          0
cpu0->LLC AVERAGE MISS LATENCY: 321 cycles

DRAM Statistics

Channel 0 RQ ROW_BUFFER_HIT:      97805
  ROW_BUFFER_MISS:    3616390
  AVG DBUS CONGESTED CYCLE: 4.171
Channel 0 WQ ROW_BUFFER_HIT:     160028
  ROW_BUFFER_MISS:     565076
  FULL:          0
Channel 0 REFRESHES ISSUED:      46958
