[VMEM] WARNING: physical memory size is smaller than virtual memory size.

*** ChampSim Multicore Out-of-Order Simulator ***
Warmup Instructions: 50000000
Simulation Instructions: 200000000
Number of CPUs: 1
Page size: 4096
Core 0: /local-ssd/ben/dpc4-traces/ai-ml/llama2.c-stories110M.3.champsimtrace.gz
IPCP_AT_L1_CONFIG
NUM_IP_TABLE_L1_ENTRIES 1024
NUM_GHB_ENTRIES 16
NUM_IP_INDEX_BITS 10
NUM_IP_TAG_BITS 6
S_TYPE 1
CS_TYPE 2
CPLX_TYPE 3
NL_TYPE 4

Off-chip DRAM Size: 64 GiB Channels: 1 Width: 64-bit Data Rate: 4807 MT/s
Heartbeat CPU 0 instructions: 500001 cycles: 128540 heartbeat IPC: 3.89 cumulative IPC: 3.89 (Simulation time: 00 hr 00 min 02 sec)
Heartbeat CPU 0 instructions: 1000008 cycles: 255955 heartbeat IPC: 3.924 cumulative IPC: 3.907 (Simulation time: 00 hr 00 min 04 sec)
Heartbeat CPU 0 instructions: 1500010 cycles: 382834 heartbeat IPC: 3.941 cumulative IPC: 3.918 (Simulation time: 00 hr 00 min 06 sec)
Heartbeat CPU 0 instructions: 2000010 cycles: 509876 heartbeat IPC: 3.936 cumulative IPC: 3.923 (Simulation time: 00 hr 00 min 08 sec)
Heartbeat CPU 0 instructions: 2500014 cycles: 636824 heartbeat IPC: 3.939 cumulative IPC: 3.926 (Simulation time: 00 hr 00 min 10 sec)
Heartbeat CPU 0 instructions: 3000018 cycles: 764139 heartbeat IPC: 3.927 cumulative IPC: 3.926 (Simulation time: 00 hr 00 min 12 sec)
Heartbeat CPU 0 instructions: 3500023 cycles: 891551 heartbeat IPC: 3.924 cumulative IPC: 3.926 (Simulation time: 00 hr 00 min 14 sec)
Heartbeat CPU 0 instructions: 4000028 cycles: 1019165 heartbeat IPC: 3.918 cumulative IPC: 3.925 (Simulation time: 00 hr 00 min 16 sec)
Heartbeat CPU 0 instructions: 4500034 cycles: 1146590 heartbeat IPC: 3.924 cumulative IPC: 3.925 (Simulation time: 00 hr 00 min 18 sec)
Heartbeat CPU 0 instructions: 5000039 cycles: 1274168 heartbeat IPC: 3.919 cumulative IPC: 3.924 (Simulation time: 00 hr 00 min 20 sec)
Heartbeat CPU 0 instructions: 5500044 cycles: 1401590 heartbeat IPC: 3.924 cumulative IPC: 3.924 (Simulation time: 00 hr 00 min 22 sec)
Heartbeat CPU 0 instructions: 6000049 cycles: 1529433 heartbeat IPC: 3.911 cumulative IPC: 3.923 (Simulation time: 00 hr 00 min 24 sec)
Heartbeat CPU 0 instructions: 6500054 cycles: 1657041 heartbeat IPC: 3.918 cumulative IPC: 3.923 (Simulation time: 00 hr 00 min 26 sec)
Heartbeat CPU 0 instructions: 7000059 cycles: 1784255 heartbeat IPC: 3.93 cumulative IPC: 3.923 (Simulation time: 00 hr 00 min 28 sec)
Heartbeat CPU 0 instructions: 7500065 cycles: 1911857 heartbeat IPC: 3.918 cumulative IPC: 3.923 (Simulation time: 00 hr 00 min 30 sec)
Heartbeat CPU 0 instructions: 8000070 cycles: 2039242 heartbeat IPC: 3.925 cumulative IPC: 3.923 (Simulation time: 00 hr 00 min 32 sec)
Heartbeat CPU 0 instructions: 8500074 cycles: 2166857 heartbeat IPC: 3.918 cumulative IPC: 3.923 (Simulation time: 00 hr 00 min 34 sec)
Heartbeat CPU 0 instructions: 9000076 cycles: 2292231 heartbeat IPC: 3.988 cumulative IPC: 3.926 (Simulation time: 00 hr 00 min 36 sec)
Heartbeat CPU 0 instructions: 9500076 cycles: 2419310 heartbeat IPC: 3.935 cumulative IPC: 3.927 (Simulation time: 00 hr 00 min 38 sec)
Heartbeat CPU 0 instructions: 10000078 cycles: 2546184 heartbeat IPC: 3.941 cumulative IPC: 3.927 (Simulation time: 00 hr 00 min 40 sec)
Heartbeat CPU 0 instructions: 10500084 cycles: 2673468 heartbeat IPC: 3.928 cumulative IPC: 3.928 (Simulation time: 00 hr 00 min 42 sec)
Heartbeat CPU 0 instructions: 11000087 cycles: 2800341 heartbeat IPC: 3.941 cumulative IPC: 3.928 (Simulation time: 00 hr 00 min 44 sec)
Heartbeat CPU 0 instructions: 11500092 cycles: 2927308 heartbeat IPC: 3.938 cumulative IPC: 3.929 (Simulation time: 00 hr 00 min 46 sec)
Heartbeat CPU 0 instructions: 12000097 cycles: 3054417 heartbeat IPC: 3.934 cumulative IPC: 3.929 (Simulation time: 00 hr 00 min 48 sec)
Heartbeat CPU 0 instructions: 12500099 cycles: 3181101 heartbeat IPC: 3.947 cumulative IPC: 3.929 (Simulation time: 00 hr 00 min 50 sec)
Heartbeat CPU 0 instructions: 13000105 cycles: 3308000 heartbeat IPC: 3.94 cumulative IPC: 3.93 (Simulation time: 00 hr 00 min 52 sec)
Heartbeat CPU 0 instructions: 13500111 cycles: 3434917 heartbeat IPC: 3.94 cumulative IPC: 3.93 (Simulation time: 00 hr 00 min 54 sec)
Heartbeat CPU 0 instructions: 14000114 cycles: 3561794 heartbeat IPC: 3.941 cumulative IPC: 3.931 (Simulation time: 00 hr 00 min 56 sec)
Heartbeat CPU 0 instructions: 14500117 cycles: 3688488 heartbeat IPC: 3.947 cumulative IPC: 3.931 (Simulation time: 00 hr 00 min 59 sec)
Heartbeat CPU 0 instructions: 15000118 cycles: 3815594 heartbeat IPC: 3.934 cumulative IPC: 3.931 (Simulation time: 00 hr 01 min 01 sec)
Heartbeat CPU 0 instructions: 15500121 cycles: 3942272 heartbeat IPC: 3.947 cumulative IPC: 3.932 (Simulation time: 00 hr 01 min 03 sec)
Heartbeat CPU 0 instructions: 16000123 cycles: 4069143 heartbeat IPC: 3.941 cumulative IPC: 3.932 (Simulation time: 00 hr 01 min 05 sec)
Heartbeat CPU 0 instructions: 16500125 cycles: 4196064 heartbeat IPC: 3.939 cumulative IPC: 3.932 (Simulation time: 00 hr 01 min 07 sec)
Heartbeat CPU 0 instructions: 17000127 cycles: 4322961 heartbeat IPC: 3.94 cumulative IPC: 3.933 (Simulation time: 00 hr 01 min 09 sec)
Heartbeat CPU 0 instructions: 17500129 cycles: 4449641 heartbeat IPC: 3.947 cumulative IPC: 3.933 (Simulation time: 00 hr 01 min 11 sec)
Heartbeat CPU 0 instructions: 18000131 cycles: 4576761 heartbeat IPC: 3.933 cumulative IPC: 3.933 (Simulation time: 00 hr 01 min 13 sec)
Heartbeat CPU 0 instructions: 18500134 cycles: 4703439 heartbeat IPC: 3.947 cumulative IPC: 3.933 (Simulation time: 00 hr 01 min 15 sec)
Heartbeat CPU 0 instructions: 19000137 cycles: 4830316 heartbeat IPC: 3.941 cumulative IPC: 3.934 (Simulation time: 00 hr 01 min 17 sec)
Heartbeat CPU 0 instructions: 19500138 cycles: 4957434 heartbeat IPC: 3.933 cumulative IPC: 3.934 (Simulation time: 00 hr 01 min 19 sec)
Heartbeat CPU 0 instructions: 20000141 cycles: 5084108 heartbeat IPC: 3.947 cumulative IPC: 3.934 (Simulation time: 00 hr 01 min 21 sec)
Heartbeat CPU 0 instructions: 20500143 cycles: 5211006 heartbeat IPC: 3.94 cumulative IPC: 3.934 (Simulation time: 00 hr 01 min 23 sec)
Heartbeat CPU 0 instructions: 21000145 cycles: 5337914 heartbeat IPC: 3.94 cumulative IPC: 3.934 (Simulation time: 00 hr 01 min 25 sec)
Heartbeat CPU 0 instructions: 21500147 cycles: 5464815 heartbeat IPC: 3.94 cumulative IPC: 3.934 (Simulation time: 00 hr 01 min 27 sec)
Heartbeat CPU 0 instructions: 22000150 cycles: 5591502 heartbeat IPC: 3.947 cumulative IPC: 3.935 (Simulation time: 00 hr 01 min 29 sec)
Heartbeat CPU 0 instructions: 22500151 cycles: 5718604 heartbeat IPC: 3.934 cumulative IPC: 3.935 (Simulation time: 00 hr 01 min 31 sec)
Heartbeat CPU 0 instructions: 23000154 cycles: 5845295 heartbeat IPC: 3.947 cumulative IPC: 3.935 (Simulation time: 00 hr 01 min 33 sec)
Heartbeat CPU 0 instructions: 23500157 cycles: 5972182 heartbeat IPC: 3.941 cumulative IPC: 3.935 (Simulation time: 00 hr 01 min 35 sec)
Heartbeat CPU 0 instructions: 24000158 cycles: 6099096 heartbeat IPC: 3.94 cumulative IPC: 3.935 (Simulation time: 00 hr 01 min 38 sec)
Heartbeat CPU 0 instructions: 24500161 cycles: 6225988 heartbeat IPC: 3.94 cumulative IPC: 3.935 (Simulation time: 00 hr 01 min 40 sec)
Heartbeat CPU 0 instructions: 25000163 cycles: 6352651 heartbeat IPC: 3.947 cumulative IPC: 3.935 (Simulation time: 00 hr 01 min 42 sec)
Heartbeat CPU 0 instructions: 25500163 cycles: 6479568 heartbeat IPC: 3.94 cumulative IPC: 3.935 (Simulation time: 00 hr 01 min 44 sec)
Heartbeat CPU 0 instructions: 26000167 cycles: 6606658 heartbeat IPC: 3.934 cumulative IPC: 3.935 (Simulation time: 00 hr 01 min 46 sec)
Heartbeat CPU 0 instructions: 26500170 cycles: 6733329 heartbeat IPC: 3.947 cumulative IPC: 3.936 (Simulation time: 00 hr 01 min 48 sec)
Heartbeat CPU 0 instructions: 27000177 cycles: 6860237 heartbeat IPC: 3.94 cumulative IPC: 3.936 (Simulation time: 00 hr 01 min 50 sec)
Heartbeat CPU 0 instructions: 27500182 cycles: 6987131 heartbeat IPC: 3.94 cumulative IPC: 3.936 (Simulation time: 00 hr 01 min 52 sec)
Heartbeat CPU 0 instructions: 28000185 cycles: 7114013 heartbeat IPC: 3.941 cumulative IPC: 3.936 (Simulation time: 00 hr 01 min 54 sec)
Heartbeat CPU 0 instructions: 28500188 cycles: 7240702 heartbeat IPC: 3.947 cumulative IPC: 3.936 (Simulation time: 00 hr 01 min 56 sec)
Heartbeat CPU 0 instructions: 29000189 cycles: 7367805 heartbeat IPC: 3.934 cumulative IPC: 3.936 (Simulation time: 00 hr 01 min 58 sec)
Heartbeat CPU 0 instructions: 29500191 cycles: 7494485 heartbeat IPC: 3.947 cumulative IPC: 3.936 (Simulation time: 00 hr 02 min 00 sec)
Heartbeat CPU 0 instructions: 30000193 cycles: 7621385 heartbeat IPC: 3.94 cumulative IPC: 3.936 (Simulation time: 00 hr 02 min 02 sec)
Heartbeat CPU 0 instructions: 30500195 cycles: 7748297 heartbeat IPC: 3.94 cumulative IPC: 3.936 (Simulation time: 00 hr 02 min 05 sec)
Heartbeat CPU 0 instructions: 31000198 cycles: 7875175 heartbeat IPC: 3.941 cumulative IPC: 3.936 (Simulation time: 00 hr 02 min 07 sec)
Heartbeat CPU 0 instructions: 31500201 cycles: 8001870 heartbeat IPC: 3.947 cumulative IPC: 3.937 (Simulation time: 00 hr 02 min 09 sec)
Heartbeat CPU 0 instructions: 32000202 cycles: 8128990 heartbeat IPC: 3.933 cumulative IPC: 3.937 (Simulation time: 00 hr 02 min 11 sec)
Heartbeat CPU 0 instructions: 32500205 cycles: 8255660 heartbeat IPC: 3.947 cumulative IPC: 3.937 (Simulation time: 00 hr 02 min 13 sec)
Heartbeat CPU 0 instructions: 33000206 cycles: 8382565 heartbeat IPC: 3.94 cumulative IPC: 3.937 (Simulation time: 00 hr 02 min 15 sec)
Heartbeat CPU 0 instructions: 33500209 cycles: 8509675 heartbeat IPC: 3.934 cumulative IPC: 3.937 (Simulation time: 00 hr 02 min 17 sec)
Heartbeat CPU 0 instructions: 34000211 cycles: 8636359 heartbeat IPC: 3.947 cumulative IPC: 3.937 (Simulation time: 00 hr 02 min 19 sec)
Heartbeat CPU 0 instructions: 34500213 cycles: 8763245 heartbeat IPC: 3.941 cumulative IPC: 3.937 (Simulation time: 00 hr 02 min 21 sec)
Heartbeat CPU 0 instructions: 35000215 cycles: 8890146 heartbeat IPC: 3.94 cumulative IPC: 3.937 (Simulation time: 00 hr 02 min 23 sec)
Heartbeat CPU 0 instructions: 35500218 cycles: 9017039 heartbeat IPC: 3.94 cumulative IPC: 3.937 (Simulation time: 00 hr 02 min 25 sec)
Heartbeat CPU 0 instructions: 36000219 cycles: 9143713 heartbeat IPC: 3.947 cumulative IPC: 3.937 (Simulation time: 00 hr 02 min 28 sec)
Heartbeat CPU 0 instructions: 36500222 cycles: 9270837 heartbeat IPC: 3.933 cumulative IPC: 3.937 (Simulation time: 00 hr 02 min 30 sec)
Heartbeat CPU 0 instructions: 37000225 cycles: 9397519 heartbeat IPC: 3.947 cumulative IPC: 3.937 (Simulation time: 00 hr 02 min 32 sec)
Heartbeat CPU 0 instructions: 37500227 cycles: 9524403 heartbeat IPC: 3.941 cumulative IPC: 3.937 (Simulation time: 00 hr 02 min 34 sec)
Heartbeat CPU 0 instructions: 38000229 cycles: 9651326 heartbeat IPC: 3.939 cumulative IPC: 3.937 (Simulation time: 00 hr 02 min 36 sec)
Heartbeat CPU 0 instructions: 38500231 cycles: 9778203 heartbeat IPC: 3.941 cumulative IPC: 3.937 (Simulation time: 00 hr 02 min 38 sec)
Heartbeat CPU 0 instructions: 39000234 cycles: 9904885 heartbeat IPC: 3.947 cumulative IPC: 3.937 (Simulation time: 00 hr 02 min 40 sec)
Heartbeat CPU 0 instructions: 39500235 cycles: 10031991 heartbeat IPC: 3.934 cumulative IPC: 3.937 (Simulation time: 00 hr 02 min 42 sec)
Heartbeat CPU 0 instructions: 40000238 cycles: 10158879 heartbeat IPC: 3.941 cumulative IPC: 3.937 (Simulation time: 00 hr 02 min 44 sec)
Heartbeat CPU 0 instructions: 40500241 cycles: 10285563 heartbeat IPC: 3.947 cumulative IPC: 3.938 (Simulation time: 00 hr 02 min 47 sec)
Heartbeat CPU 0 instructions: 41000242 cycles: 10412701 heartbeat IPC: 3.933 cumulative IPC: 3.938 (Simulation time: 00 hr 02 min 49 sec)
Heartbeat CPU 0 instructions: 41500245 cycles: 10539380 heartbeat IPC: 3.947 cumulative IPC: 3.938 (Simulation time: 00 hr 02 min 51 sec)
Heartbeat CPU 0 instructions: 42000247 cycles: 10666253 heartbeat IPC: 3.941 cumulative IPC: 3.938 (Simulation time: 00 hr 02 min 53 sec)
Heartbeat CPU 0 instructions: 42500249 cycles: 10793169 heartbeat IPC: 3.94 cumulative IPC: 3.938 (Simulation time: 00 hr 02 min 55 sec)
Heartbeat CPU 0 instructions: 43000251 cycles: 10920065 heartbeat IPC: 3.94 cumulative IPC: 3.938 (Simulation time: 00 hr 02 min 57 sec)
Heartbeat CPU 0 instructions: 43500254 cycles: 11046745 heartbeat IPC: 3.947 cumulative IPC: 3.938 (Simulation time: 00 hr 02 min 59 sec)
Heartbeat CPU 0 instructions: 44000257 cycles: 11173659 heartbeat IPC: 3.94 cumulative IPC: 3.938 (Simulation time: 00 hr 03 min 01 sec)
Heartbeat CPU 0 instructions: 44500258 cycles: 11300537 heartbeat IPC: 3.941 cumulative IPC: 3.938 (Simulation time: 00 hr 03 min 03 sec)
Heartbeat CPU 0 instructions: 45000261 cycles: 11427424 heartbeat IPC: 3.941 cumulative IPC: 3.938 (Simulation time: 00 hr 03 min 06 sec)
Heartbeat CPU 0 instructions: 45500264 cycles: 11554130 heartbeat IPC: 3.946 cumulative IPC: 3.938 (Simulation time: 00 hr 03 min 08 sec)
Heartbeat CPU 0 instructions: 46000265 cycles: 11681203 heartbeat IPC: 3.935 cumulative IPC: 3.938 (Simulation time: 00 hr 03 min 10 sec)
Heartbeat CPU 0 instructions: 46500267 cycles: 11807891 heartbeat IPC: 3.947 cumulative IPC: 3.938 (Simulation time: 00 hr 03 min 12 sec)
Heartbeat CPU 0 instructions: 47000267 cycles: 11934797 heartbeat IPC: 3.94 cumulative IPC: 3.938 (Simulation time: 00 hr 03 min 14 sec)
Heartbeat CPU 0 instructions: 47500271 cycles: 12061892 heartbeat IPC: 3.934 cumulative IPC: 3.938 (Simulation time: 00 hr 03 min 16 sec)
Heartbeat CPU 0 instructions: 48000274 cycles: 12188581 heartbeat IPC: 3.947 cumulative IPC: 3.938 (Simulation time: 00 hr 03 min 18 sec)
Heartbeat CPU 0 instructions: 48500275 cycles: 12315463 heartbeat IPC: 3.941 cumulative IPC: 3.938 (Simulation time: 00 hr 03 min 20 sec)
Heartbeat CPU 0 instructions: 49000278 cycles: 12442367 heartbeat IPC: 3.94 cumulative IPC: 3.938 (Simulation time: 00 hr 03 min 22 sec)
Heartbeat CPU 0 instructions: 49500281 cycles: 12569264 heartbeat IPC: 3.94 cumulative IPC: 3.938 (Simulation time: 00 hr 03 min 25 sec)
Warmup finished CPU 0 instructions: 50000003 cycles: 12695900 cumulative IPC: 3.938 (Simulation time: 00 hr 03 min 27 sec)
Warmup complete CPU 0 instructions: 50000003 cycles: 12695900 cumulative IPC: 3.938 (Simulation time: 00 hr 03 min 27 sec)
Heartbeat CPU 0 instructions: 50000283 cycles: 12695977 heartbeat IPC: 3.946 cumulative IPC: 3.636 (Simulation time: 00 hr 03 min 27 sec)
Heartbeat CPU 0 instructions: 50500283 cycles: 12972258 heartbeat IPC: 1.81 cumulative IPC: 1.81 (Simulation time: 00 hr 03 min 30 sec)
Heartbeat CPU 0 instructions: 51000286 cycles: 13246881 heartbeat IPC: 1.821 cumulative IPC: 1.815 (Simulation time: 00 hr 03 min 34 sec)
Heartbeat CPU 0 instructions: 51500287 cycles: 13521910 heartbeat IPC: 1.818 cumulative IPC: 1.816 (Simulation time: 00 hr 03 min 38 sec)
Heartbeat CPU 0 instructions: 52000288 cycles: 13796683 heartbeat IPC: 1.82 cumulative IPC: 1.817 (Simulation time: 00 hr 03 min 42 sec)
Heartbeat CPU 0 instructions: 52500288 cycles: 14070855 heartbeat IPC: 1.824 cumulative IPC: 1.818 (Simulation time: 00 hr 03 min 45 sec)
Heartbeat CPU 0 instructions: 53000288 cycles: 14346393 heartbeat IPC: 1.815 cumulative IPC: 1.818 (Simulation time: 00 hr 03 min 49 sec)
Heartbeat CPU 0 instructions: 53500290 cycles: 14621794 heartbeat IPC: 1.816 cumulative IPC: 1.817 (Simulation time: 00 hr 03 min 53 sec)
Heartbeat CPU 0 instructions: 54000293 cycles: 14896289 heartbeat IPC: 1.822 cumulative IPC: 1.818 (Simulation time: 00 hr 03 min 57 sec)
Heartbeat CPU 0 instructions: 54500293 cycles: 15171697 heartbeat IPC: 1.815 cumulative IPC: 1.818 (Simulation time: 00 hr 04 min 00 sec)
Heartbeat CPU 0 instructions: 55000293 cycles: 15447145 heartbeat IPC: 1.815 cumulative IPC: 1.817 (Simulation time: 00 hr 04 min 04 sec)
Heartbeat CPU 0 instructions: 55500295 cycles: 15764199 heartbeat IPC: 1.577 cumulative IPC: 1.793 (Simulation time: 00 hr 04 min 08 sec)
Heartbeat CPU 0 instructions: 56000296 cycles: 16039546 heartbeat IPC: 1.816 cumulative IPC: 1.795 (Simulation time: 00 hr 04 min 12 sec)
Heartbeat CPU 0 instructions: 56500302 cycles: 16324623 heartbeat IPC: 1.754 cumulative IPC: 1.791 (Simulation time: 00 hr 04 min 15 sec)
Heartbeat CPU 0 instructions: 57000302 cycles: 16599541 heartbeat IPC: 1.819 cumulative IPC: 1.793 (Simulation time: 00 hr 04 min 19 sec)
Heartbeat CPU 0 instructions: 57500306 cycles: 16881079 heartbeat IPC: 1.776 cumulative IPC: 1.792 (Simulation time: 00 hr 04 min 23 sec)
Heartbeat CPU 0 instructions: 58000310 cycles: 17155926 heartbeat IPC: 1.819 cumulative IPC: 1.794 (Simulation time: 00 hr 04 min 26 sec)
Heartbeat CPU 0 instructions: 58500310 cycles: 17451510 heartbeat IPC: 1.692 cumulative IPC: 1.787 (Simulation time: 00 hr 04 min 30 sec)
Heartbeat CPU 0 instructions: 59000315 cycles: 17727484 heartbeat IPC: 1.812 cumulative IPC: 1.789 (Simulation time: 00 hr 04 min 34 sec)
Heartbeat CPU 0 instructions: 59500318 cycles: 18011367 heartbeat IPC: 1.761 cumulative IPC: 1.787 (Simulation time: 00 hr 04 min 38 sec)
Heartbeat CPU 0 instructions: 60000318 cycles: 18295598 heartbeat IPC: 1.759 cumulative IPC: 1.786 (Simulation time: 00 hr 04 min 41 sec)
Heartbeat CPU 0 instructions: 60500319 cycles: 18579622 heartbeat IPC: 1.76 cumulative IPC: 1.785 (Simulation time: 00 hr 04 min 45 sec)
Heartbeat CPU 0 instructions: 61000322 cycles: 18862855 heartbeat IPC: 1.765 cumulative IPC: 1.784 (Simulation time: 00 hr 04 min 49 sec)
Heartbeat CPU 0 instructions: 61500322 cycles: 19147489 heartbeat IPC: 1.757 cumulative IPC: 1.783 (Simulation time: 00 hr 04 min 52 sec)
Heartbeat CPU 0 instructions: 62000322 cycles: 19432453 heartbeat IPC: 1.755 cumulative IPC: 1.781 (Simulation time: 00 hr 04 min 56 sec)
Heartbeat CPU 0 instructions: 62500325 cycles: 19721999 heartbeat IPC: 1.727 cumulative IPC: 1.779 (Simulation time: 00 hr 05 min 00 sec)
Heartbeat CPU 0 instructions: 63000328 cycles: 20007744 heartbeat IPC: 1.75 cumulative IPC: 1.778 (Simulation time: 00 hr 05 min 04 sec)
Heartbeat CPU 0 instructions: 63500328 cycles: 20291770 heartbeat IPC: 1.76 cumulative IPC: 1.777 (Simulation time: 00 hr 05 min 07 sec)
Heartbeat CPU 0 instructions: 64000328 cycles: 20576351 heartbeat IPC: 1.757 cumulative IPC: 1.777 (Simulation time: 00 hr 05 min 11 sec)
Heartbeat CPU 0 instructions: 64500328 cycles: 20860925 heartbeat IPC: 1.757 cumulative IPC: 1.776 (Simulation time: 00 hr 05 min 15 sec)
Heartbeat CPU 0 instructions: 65000334 cycles: 21168705 heartbeat IPC: 1.625 cumulative IPC: 1.77 (Simulation time: 00 hr 05 min 19 sec)
Heartbeat CPU 0 instructions: 65500340 cycles: 21456744 heartbeat IPC: 1.736 cumulative IPC: 1.769 (Simulation time: 00 hr 05 min 23 sec)
Heartbeat CPU 0 instructions: 66000342 cycles: 21744212 heartbeat IPC: 1.739 cumulative IPC: 1.768 (Simulation time: 00 hr 05 min 27 sec)
Heartbeat CPU 0 instructions: 66500345 cycles: 22032062 heartbeat IPC: 1.737 cumulative IPC: 1.767 (Simulation time: 00 hr 05 min 31 sec)
Heartbeat CPU 0 instructions: 67000350 cycles: 22320155 heartbeat IPC: 1.736 cumulative IPC: 1.766 (Simulation time: 00 hr 05 min 35 sec)
Heartbeat CPU 0 instructions: 67500356 cycles: 22605778 heartbeat IPC: 1.751 cumulative IPC: 1.766 (Simulation time: 00 hr 05 min 39 sec)
Heartbeat CPU 0 instructions: 68000361 cycles: 22895230 heartbeat IPC: 1.727 cumulative IPC: 1.765 (Simulation time: 00 hr 05 min 43 sec)
Heartbeat CPU 0 instructions: 68500361 cycles: 23172181 heartbeat IPC: 1.805 cumulative IPC: 1.766 (Simulation time: 00 hr 05 min 46 sec)
Heartbeat CPU 0 instructions: 69000361 cycles: 23454711 heartbeat IPC: 1.77 cumulative IPC: 1.766 (Simulation time: 00 hr 05 min 50 sec)
Heartbeat CPU 0 instructions: 69500362 cycles: 23730830 heartbeat IPC: 1.811 cumulative IPC: 1.767 (Simulation time: 00 hr 05 min 54 sec)
Heartbeat CPU 0 instructions: 70000366 cycles: 24013625 heartbeat IPC: 1.768 cumulative IPC: 1.767 (Simulation time: 00 hr 05 min 57 sec)
Heartbeat CPU 0 instructions: 70500366 cycles: 24288648 heartbeat IPC: 1.818 cumulative IPC: 1.768 (Simulation time: 00 hr 06 min 01 sec)
Heartbeat CPU 0 instructions: 71000366 cycles: 24583057 heartbeat IPC: 1.698 cumulative IPC: 1.767 (Simulation time: 00 hr 06 min 05 sec)
Heartbeat CPU 0 instructions: 71500367 cycles: 24859709 heartbeat IPC: 1.807 cumulative IPC: 1.768 (Simulation time: 00 hr 06 min 09 sec)
Heartbeat CPU 0 instructions: 72000367 cycles: 25134648 heartbeat IPC: 1.819 cumulative IPC: 1.769 (Simulation time: 00 hr 06 min 12 sec)
Heartbeat CPU 0 instructions: 72500371 cycles: 25422036 heartbeat IPC: 1.74 cumulative IPC: 1.768 (Simulation time: 00 hr 06 min 16 sec)
Heartbeat CPU 0 instructions: 73000371 cycles: 25704381 heartbeat IPC: 1.771 cumulative IPC: 1.768 (Simulation time: 00 hr 06 min 20 sec)
Heartbeat CPU 0 instructions: 73500371 cycles: 25988092 heartbeat IPC: 1.762 cumulative IPC: 1.768 (Simulation time: 00 hr 06 min 23 sec)
Heartbeat CPU 0 instructions: 74000375 cycles: 26272781 heartbeat IPC: 1.756 cumulative IPC: 1.768 (Simulation time: 00 hr 06 min 27 sec)
Heartbeat CPU 0 instructions: 74500375 cycles: 26555697 heartbeat IPC: 1.767 cumulative IPC: 1.768 (Simulation time: 00 hr 06 min 31 sec)
Heartbeat CPU 0 instructions: 75000377 cycles: 26845530 heartbeat IPC: 1.725 cumulative IPC: 1.767 (Simulation time: 00 hr 06 min 35 sec)
Heartbeat CPU 0 instructions: 75500377 cycles: 27129859 heartbeat IPC: 1.759 cumulative IPC: 1.767 (Simulation time: 00 hr 06 min 39 sec)
Heartbeat CPU 0 instructions: 76000378 cycles: 27415448 heartbeat IPC: 1.751 cumulative IPC: 1.766 (Simulation time: 00 hr 06 min 43 sec)
Heartbeat CPU 0 instructions: 76500381 cycles: 27700018 heartbeat IPC: 1.757 cumulative IPC: 1.766 (Simulation time: 00 hr 06 min 47 sec)
Heartbeat CPU 0 instructions: 77000381 cycles: 27983411 heartbeat IPC: 1.764 cumulative IPC: 1.766 (Simulation time: 00 hr 06 min 52 sec)
Heartbeat CPU 0 instructions: 77500381 cycles: 28267944 heartbeat IPC: 1.757 cumulative IPC: 1.766 (Simulation time: 00 hr 06 min 56 sec)
Heartbeat CPU 0 instructions: 78000382 cycles: 28573310 heartbeat IPC: 1.637 cumulative IPC: 1.764 (Simulation time: 00 hr 07 min 01 sec)
Heartbeat CPU 0 instructions: 78500384 cycles: 28860391 heartbeat IPC: 1.742 cumulative IPC: 1.763 (Simulation time: 00 hr 07 min 05 sec)
Heartbeat CPU 0 instructions: 79000390 cycles: 29147790 heartbeat IPC: 1.74 cumulative IPC: 1.763 (Simulation time: 00 hr 07 min 10 sec)
Heartbeat CPU 0 instructions: 79500392 cycles: 29434241 heartbeat IPC: 1.746 cumulative IPC: 1.762 (Simulation time: 00 hr 07 min 14 sec)
Heartbeat CPU 0 instructions: 80000398 cycles: 29720970 heartbeat IPC: 1.744 cumulative IPC: 1.762 (Simulation time: 00 hr 07 min 19 sec)
Heartbeat CPU 0 instructions: 80500399 cycles: 30012325 heartbeat IPC: 1.716 cumulative IPC: 1.761 (Simulation time: 00 hr 07 min 23 sec)
Heartbeat CPU 0 instructions: 81000399 cycles: 30288286 heartbeat IPC: 1.812 cumulative IPC: 1.762 (Simulation time: 00 hr 07 min 28 sec)
Heartbeat CPU 0 instructions: 81500404 cycles: 30570617 heartbeat IPC: 1.771 cumulative IPC: 1.762 (Simulation time: 00 hr 07 min 32 sec)
Heartbeat CPU 0 instructions: 82000404 cycles: 30849101 heartbeat IPC: 1.795 cumulative IPC: 1.763 (Simulation time: 00 hr 07 min 36 sec)
Heartbeat CPU 0 instructions: 82500408 cycles: 31123577 heartbeat IPC: 1.822 cumulative IPC: 1.764 (Simulation time: 00 hr 07 min 40 sec)
Heartbeat CPU 0 instructions: 83000408 cycles: 31404050 heartbeat IPC: 1.783 cumulative IPC: 1.764 (Simulation time: 00 hr 07 min 44 sec)
Heartbeat CPU 0 instructions: 83500412 cycles: 31680950 heartbeat IPC: 1.806 cumulative IPC: 1.765 (Simulation time: 00 hr 07 min 49 sec)
Heartbeat CPU 0 instructions: 84000412 cycles: 31977689 heartbeat IPC: 1.685 cumulative IPC: 1.763 (Simulation time: 00 hr 07 min 53 sec)
Heartbeat CPU 0 instructions: 84500412 cycles: 32254011 heartbeat IPC: 1.809 cumulative IPC: 1.764 (Simulation time: 00 hr 07 min 57 sec)
Heartbeat CPU 0 instructions: 85000417 cycles: 32541021 heartbeat IPC: 1.742 cumulative IPC: 1.764 (Simulation time: 00 hr 08 min 01 sec)
Heartbeat CPU 0 instructions: 85500417 cycles: 32824919 heartbeat IPC: 1.761 cumulative IPC: 1.764 (Simulation time: 00 hr 08 min 06 sec)
Heartbeat CPU 0 instructions: 86000417 cycles: 33106464 heartbeat IPC: 1.776 cumulative IPC: 1.764 (Simulation time: 00 hr 08 min 10 sec)
Heartbeat CPU 0 instructions: 86500417 cycles: 33391366 heartbeat IPC: 1.755 cumulative IPC: 1.764 (Simulation time: 00 hr 08 min 14 sec)
Heartbeat CPU 0 instructions: 87000418 cycles: 33673735 heartbeat IPC: 1.771 cumulative IPC: 1.764 (Simulation time: 00 hr 08 min 18 sec)
Heartbeat CPU 0 instructions: 87500421 cycles: 33956591 heartbeat IPC: 1.768 cumulative IPC: 1.764 (Simulation time: 00 hr 08 min 23 sec)
Heartbeat CPU 0 instructions: 88000423 cycles: 34246455 heartbeat IPC: 1.725 cumulative IPC: 1.763 (Simulation time: 00 hr 08 min 27 sec)
Heartbeat CPU 0 instructions: 88500423 cycles: 34530722 heartbeat IPC: 1.759 cumulative IPC: 1.763 (Simulation time: 00 hr 08 min 32 sec)
Heartbeat CPU 0 instructions: 89000423 cycles: 34813670 heartbeat IPC: 1.767 cumulative IPC: 1.763 (Simulation time: 00 hr 08 min 36 sec)
Heartbeat CPU 0 instructions: 89500427 cycles: 35098320 heartbeat IPC: 1.757 cumulative IPC: 1.763 (Simulation time: 00 hr 08 min 40 sec)
Heartbeat CPU 0 instructions: 90000427 cycles: 35382201 heartbeat IPC: 1.761 cumulative IPC: 1.763 (Simulation time: 00 hr 08 min 45 sec)
Heartbeat CPU 0 instructions: 90500431 cycles: 35686481 heartbeat IPC: 1.643 cumulative IPC: 1.762 (Simulation time: 00 hr 08 min 49 sec)
Heartbeat CPU 0 instructions: 91000432 cycles: 35974332 heartbeat IPC: 1.737 cumulative IPC: 1.761 (Simulation time: 00 hr 08 min 54 sec)
Heartbeat CPU 0 instructions: 91500432 cycles: 36261350 heartbeat IPC: 1.742 cumulative IPC: 1.761 (Simulation time: 00 hr 08 min 58 sec)
Heartbeat CPU 0 instructions: 92000434 cycles: 36548229 heartbeat IPC: 1.743 cumulative IPC: 1.761 (Simulation time: 00 hr 09 min 03 sec)
Heartbeat CPU 0 instructions: 92500440 cycles: 36835903 heartbeat IPC: 1.738 cumulative IPC: 1.761 (Simulation time: 00 hr 09 min 07 sec)
Heartbeat CPU 0 instructions: 93000442 cycles: 37121861 heartbeat IPC: 1.749 cumulative IPC: 1.76 (Simulation time: 00 hr 09 min 12 sec)
Heartbeat CPU 0 instructions: 93500444 cycles: 37406373 heartbeat IPC: 1.757 cumulative IPC: 1.76 (Simulation time: 00 hr 09 min 16 sec)
Heartbeat CPU 0 instructions: 94000445 cycles: 37682616 heartbeat IPC: 1.81 cumulative IPC: 1.761 (Simulation time: 00 hr 09 min 20 sec)
Heartbeat CPU 0 instructions: 94500450 cycles: 37966321 heartbeat IPC: 1.762 cumulative IPC: 1.761 (Simulation time: 00 hr 09 min 25 sec)
Heartbeat CPU 0 instructions: 95000450 cycles: 38241290 heartbeat IPC: 1.818 cumulative IPC: 1.762 (Simulation time: 00 hr 09 min 29 sec)
Heartbeat CPU 0 instructions: 95500452 cycles: 38523690 heartbeat IPC: 1.771 cumulative IPC: 1.762 (Simulation time: 00 hr 09 min 33 sec)
Heartbeat CPU 0 instructions: 96000454 cycles: 38800128 heartbeat IPC: 1.809 cumulative IPC: 1.762 (Simulation time: 00 hr 09 min 37 sec)
Heartbeat CPU 0 instructions: 96500457 cycles: 39093872 heartbeat IPC: 1.702 cumulative IPC: 1.762 (Simulation time: 00 hr 09 min 41 sec)
Heartbeat CPU 0 instructions: 97000457 cycles: 39368945 heartbeat IPC: 1.818 cumulative IPC: 1.762 (Simulation time: 00 hr 09 min 46 sec)
Heartbeat CPU 0 instructions: 97500459 cycles: 39653771 heartbeat IPC: 1.755 cumulative IPC: 1.762 (Simulation time: 00 hr 09 min 50 sec)
Heartbeat CPU 0 instructions: 98000459 cycles: 39936635 heartbeat IPC: 1.768 cumulative IPC: 1.762 (Simulation time: 00 hr 09 min 54 sec)
Heartbeat CPU 0 instructions: 98500463 cycles: 40217833 heartbeat IPC: 1.778 cumulative IPC: 1.762 (Simulation time: 00 hr 09 min 58 sec)
Heartbeat CPU 0 instructions: 99000463 cycles: 40500919 heartbeat IPC: 1.766 cumulative IPC: 1.762 (Simulation time: 00 hr 10 min 03 sec)
Heartbeat CPU 0 instructions: 99500463 cycles: 40785007 heartbeat IPC: 1.76 cumulative IPC: 1.762 (Simulation time: 00 hr 10 min 07 sec)
Heartbeat CPU 0 instructions: 100000463 cycles: 41066673 heartbeat IPC: 1.775 cumulative IPC: 1.762 (Simulation time: 00 hr 10 min 11 sec)
Heartbeat CPU 0 instructions: 100500468 cycles: 41358484 heartbeat IPC: 1.713 cumulative IPC: 1.762 (Simulation time: 00 hr 10 min 16 sec)
Heartbeat CPU 0 instructions: 101000469 cycles: 41642317 heartbeat IPC: 1.762 cumulative IPC: 1.762 (Simulation time: 00 hr 10 min 20 sec)
Heartbeat CPU 0 instructions: 101500469 cycles: 41926954 heartbeat IPC: 1.757 cumulative IPC: 1.762 (Simulation time: 00 hr 10 min 24 sec)
Heartbeat CPU 0 instructions: 102000469 cycles: 42210091 heartbeat IPC: 1.766 cumulative IPC: 1.762 (Simulation time: 00 hr 10 min 29 sec)
Heartbeat CPU 0 instructions: 102500473 cycles: 42493352 heartbeat IPC: 1.765 cumulative IPC: 1.762 (Simulation time: 00 hr 10 min 33 sec)
Heartbeat CPU 0 instructions: 103000479 cycles: 42781726 heartbeat IPC: 1.734 cumulative IPC: 1.762 (Simulation time: 00 hr 10 min 37 sec)
Heartbeat CPU 0 instructions: 103500482 cycles: 43085334 heartbeat IPC: 1.647 cumulative IPC: 1.76 (Simulation time: 00 hr 10 min 42 sec)
Heartbeat CPU 0 instructions: 104000488 cycles: 43372944 heartbeat IPC: 1.738 cumulative IPC: 1.76 (Simulation time: 00 hr 10 min 47 sec)
Heartbeat CPU 0 instructions: 104500489 cycles: 43660381 heartbeat IPC: 1.74 cumulative IPC: 1.76 (Simulation time: 00 hr 10 min 51 sec)
Heartbeat CPU 0 instructions: 105000489 cycles: 43945579 heartbeat IPC: 1.753 cumulative IPC: 1.76 (Simulation time: 00 hr 10 min 56 sec)
Heartbeat CPU 0 instructions: 105500491 cycles: 44231821 heartbeat IPC: 1.747 cumulative IPC: 1.76 (Simulation time: 00 hr 11 min 00 sec)
Heartbeat CPU 0 instructions: 106000496 cycles: 44521035 heartbeat IPC: 1.729 cumulative IPC: 1.76 (Simulation time: 00 hr 11 min 05 sec)
Heartbeat CPU 0 instructions: 106500498 cycles: 44796906 heartbeat IPC: 1.812 cumulative IPC: 1.76 (Simulation time: 00 hr 11 min 09 sec)
Heartbeat CPU 0 instructions: 107000503 cycles: 45079224 heartbeat IPC: 1.771 cumulative IPC: 1.76 (Simulation time: 00 hr 11 min 13 sec)
Heartbeat CPU 0 instructions: 107500503 cycles: 45354053 heartbeat IPC: 1.819 cumulative IPC: 1.761 (Simulation time: 00 hr 11 min 17 sec)
Heartbeat CPU 0 instructions: 108000507 cycles: 45636784 heartbeat IPC: 1.768 cumulative IPC: 1.761 (Simulation time: 00 hr 11 min 22 sec)
Heartbeat CPU 0 instructions: 108500507 cycles: 45912634 heartbeat IPC: 1.813 cumulative IPC: 1.761 (Simulation time: 00 hr 11 min 26 sec)
Heartbeat CPU 0 instructions: 109000510 cycles: 46202676 heartbeat IPC: 1.724 cumulative IPC: 1.761 (Simulation time: 00 hr 11 min 30 sec)
Heartbeat CPU 0 instructions: 109500516 cycles: 46482379 heartbeat IPC: 1.788 cumulative IPC: 1.761 (Simulation time: 00 hr 11 min 34 sec)
Heartbeat CPU 0 instructions: 110000516 cycles: 46759513 heartbeat IPC: 1.804 cumulative IPC: 1.761 (Simulation time: 00 hr 11 min 39 sec)
Heartbeat CPU 0 instructions: 110500519 cycles: 47048332 heartbeat IPC: 1.731 cumulative IPC: 1.761 (Simulation time: 00 hr 11 min 43 sec)
Heartbeat CPU 0 instructions: 111000519 cycles: 47333147 heartbeat IPC: 1.756 cumulative IPC: 1.761 (Simulation time: 00 hr 11 min 47 sec)
Heartbeat CPU 0 instructions: 111500523 cycles: 47614536 heartbeat IPC: 1.777 cumulative IPC: 1.761 (Simulation time: 00 hr 11 min 51 sec)
Heartbeat CPU 0 instructions: 112000523 cycles: 47898431 heartbeat IPC: 1.761 cumulative IPC: 1.761 (Simulation time: 00 hr 11 min 56 sec)
Heartbeat CPU 0 instructions: 112500523 cycles: 48181535 heartbeat IPC: 1.766 cumulative IPC: 1.761 (Simulation time: 00 hr 12 min 00 sec)
Heartbeat CPU 0 instructions: 113000524 cycles: 48470446 heartbeat IPC: 1.731 cumulative IPC: 1.761 (Simulation time: 00 hr 12 min 04 sec)
Heartbeat CPU 0 instructions: 113500525 cycles: 48754847 heartbeat IPC: 1.758 cumulative IPC: 1.761 (Simulation time: 00 hr 12 min 09 sec)
Heartbeat CPU 0 instructions: 114000529 cycles: 49038867 heartbeat IPC: 1.76 cumulative IPC: 1.761 (Simulation time: 00 hr 12 min 13 sec)
Heartbeat CPU 0 instructions: 114500529 cycles: 49321968 heartbeat IPC: 1.766 cumulative IPC: 1.761 (Simulation time: 00 hr 12 min 17 sec)
Heartbeat CPU 0 instructions: 115000529 cycles: 49606558 heartbeat IPC: 1.757 cumulative IPC: 1.761 (Simulation time: 00 hr 12 min 22 sec)
Heartbeat CPU 0 instructions: 115500529 cycles: 49890593 heartbeat IPC: 1.76 cumulative IPC: 1.761 (Simulation time: 00 hr 12 min 26 sec)
Heartbeat CPU 0 instructions: 116000531 cycles: 50196041 heartbeat IPC: 1.637 cumulative IPC: 1.76 (Simulation time: 00 hr 12 min 31 sec)
Heartbeat CPU 0 instructions: 116500537 cycles: 50482498 heartbeat IPC: 1.745 cumulative IPC: 1.76 (Simulation time: 00 hr 12 min 35 sec)
Heartbeat CPU 0 instructions: 117000539 cycles: 50767980 heartbeat IPC: 1.751 cumulative IPC: 1.76 (Simulation time: 00 hr 12 min 40 sec)
Heartbeat CPU 0 instructions: 117500545 cycles: 51055412 heartbeat IPC: 1.74 cumulative IPC: 1.76 (Simulation time: 00 hr 12 min 44 sec)
Heartbeat CPU 0 instructions: 118000547 cycles: 51342519 heartbeat IPC: 1.742 cumulative IPC: 1.76 (Simulation time: 00 hr 12 min 49 sec)
Heartbeat CPU 0 instructions: 118500548 cycles: 51633608 heartbeat IPC: 1.718 cumulative IPC: 1.759 (Simulation time: 00 hr 12 min 53 sec)
Heartbeat CPU 0 instructions: 119000548 cycles: 51912757 heartbeat IPC: 1.791 cumulative IPC: 1.759 (Simulation time: 00 hr 12 min 58 sec)
Heartbeat CPU 0 instructions: 119500548 cycles: 52189300 heartbeat IPC: 1.808 cumulative IPC: 1.76 (Simulation time: 00 hr 13 min 02 sec)
Heartbeat CPU 0 instructions: 120000550 cycles: 52472491 heartbeat IPC: 1.766 cumulative IPC: 1.76 (Simulation time: 00 hr 13 min 06 sec)
Heartbeat CPU 0 instructions: 120500556 cycles: 52750254 heartbeat IPC: 1.8 cumulative IPC: 1.76 (Simulation time: 00 hr 13 min 10 sec)
Heartbeat CPU 0 instructions: 121000560 cycles: 53033355 heartbeat IPC: 1.766 cumulative IPC: 1.76 (Simulation time: 00 hr 13 min 15 sec)
Heartbeat CPU 0 instructions: 121500560 cycles: 53307106 heartbeat IPC: 1.826 cumulative IPC: 1.761 (Simulation time: 00 hr 13 min 19 sec)
Heartbeat CPU 0 instructions: 122000560 cycles: 53601733 heartbeat IPC: 1.697 cumulative IPC: 1.76 (Simulation time: 00 hr 13 min 23 sec)
Heartbeat CPU 0 instructions: 122500560 cycles: 53877400 heartbeat IPC: 1.814 cumulative IPC: 1.761 (Simulation time: 00 hr 13 min 27 sec)
Heartbeat CPU 0 instructions: 123000565 cycles: 54163707 heartbeat IPC: 1.746 cumulative IPC: 1.76 (Simulation time: 00 hr 13 min 32 sec)
Heartbeat CPU 0 instructions: 123500565 cycles: 54447113 heartbeat IPC: 1.764 cumulative IPC: 1.76 (Simulation time: 00 hr 13 min 36 sec)
Heartbeat CPU 0 instructions: 124000565 cycles: 54730818 heartbeat IPC: 1.762 cumulative IPC: 1.76 (Simulation time: 00 hr 13 min 40 sec)
Heartbeat CPU 0 instructions: 124500565 cycles: 55015382 heartbeat IPC: 1.757 cumulative IPC: 1.76 (Simulation time: 00 hr 13 min 45 sec)
Heartbeat CPU 0 instructions: 125000569 cycles: 55299055 heartbeat IPC: 1.763 cumulative IPC: 1.76 (Simulation time: 00 hr 13 min 49 sec)
Heartbeat CPU 0 instructions: 125500569 cycles: 55583250 heartbeat IPC: 1.759 cumulative IPC: 1.76 (Simulation time: 00 hr 13 min 53 sec)
Heartbeat CPU 0 instructions: 126000570 cycles: 55874050 heartbeat IPC: 1.719 cumulative IPC: 1.76 (Simulation time: 00 hr 13 min 58 sec)
Heartbeat CPU 0 instructions: 126500571 cycles: 56157674 heartbeat IPC: 1.763 cumulative IPC: 1.76 (Simulation time: 00 hr 14 min 02 sec)
Heartbeat CPU 0 instructions: 127000573 cycles: 56441864 heartbeat IPC: 1.759 cumulative IPC: 1.76 (Simulation time: 00 hr 14 min 06 sec)
Heartbeat CPU 0 instructions: 127500575 cycles: 56724935 heartbeat IPC: 1.766 cumulative IPC: 1.76 (Simulation time: 00 hr 14 min 11 sec)
Heartbeat CPU 0 instructions: 128000575 cycles: 57009217 heartbeat IPC: 1.759 cumulative IPC: 1.76 (Simulation time: 00 hr 14 min 15 sec)
Heartbeat CPU 0 instructions: 128500580 cycles: 57313476 heartbeat IPC: 1.643 cumulative IPC: 1.759 (Simulation time: 00 hr 14 min 20 sec)
Heartbeat CPU 0 instructions: 129000586 cycles: 57600897 heartbeat IPC: 1.74 cumulative IPC: 1.759 (Simulation time: 00 hr 14 min 24 sec)
Heartbeat CPU 0 instructions: 129500588 cycles: 57888183 heartbeat IPC: 1.74 cumulative IPC: 1.759 (Simulation time: 00 hr 14 min 29 sec)
Heartbeat CPU 0 instructions: 130000594 cycles: 58174868 heartbeat IPC: 1.744 cumulative IPC: 1.759 (Simulation time: 00 hr 14 min 33 sec)
Heartbeat CPU 0 instructions: 130500595 cycles: 58462504 heartbeat IPC: 1.738 cumulative IPC: 1.759 (Simulation time: 00 hr 14 min 38 sec)
Heartbeat CPU 0 instructions: 131000595 cycles: 58749837 heartbeat IPC: 1.74 cumulative IPC: 1.759 (Simulation time: 00 hr 14 min 42 sec)
Heartbeat CPU 0 instructions: 131500596 cycles: 59035891 heartbeat IPC: 1.748 cumulative IPC: 1.759 (Simulation time: 00 hr 14 min 47 sec)
Heartbeat CPU 0 instructions: 132000601 cycles: 59312830 heartbeat IPC: 1.805 cumulative IPC: 1.759 (Simulation time: 00 hr 14 min 51 sec)
Heartbeat CPU 0 instructions: 132500605 cycles: 59594980 heartbeat IPC: 1.772 cumulative IPC: 1.759 (Simulation time: 00 hr 14 min 55 sec)
Heartbeat CPU 0 instructions: 133000605 cycles: 59870751 heartbeat IPC: 1.813 cumulative IPC: 1.759 (Simulation time: 00 hr 15 min 00 sec)
Heartbeat CPU 0 instructions: 133500611 cycles: 60155050 heartbeat IPC: 1.759 cumulative IPC: 1.759 (Simulation time: 00 hr 15 min 04 sec)
Heartbeat CPU 0 instructions: 134000612 cycles: 60429959 heartbeat IPC: 1.819 cumulative IPC: 1.76 (Simulation time: 00 hr 15 min 08 sec)
Heartbeat CPU 0 instructions: 134500613 cycles: 60725255 heartbeat IPC: 1.693 cumulative IPC: 1.759 (Simulation time: 00 hr 15 min 12 sec)
Heartbeat CPU 0 instructions: 135000613 cycles: 61002327 heartbeat IPC: 1.805 cumulative IPC: 1.76 (Simulation time: 00 hr 15 min 17 sec)
Heartbeat CPU 0 instructions: 135500614 cycles: 61284075 heartbeat IPC: 1.775 cumulative IPC: 1.76 (Simulation time: 00 hr 15 min 21 sec)
Heartbeat CPU 0 instructions: 136000618 cycles: 61568727 heartbeat IPC: 1.757 cumulative IPC: 1.76 (Simulation time: 00 hr 15 min 25 sec)
Heartbeat CPU 0 instructions: 136500618 cycles: 61851798 heartbeat IPC: 1.766 cumulative IPC: 1.76 (Simulation time: 00 hr 15 min 29 sec)
Heartbeat CPU 0 instructions: 137000618 cycles: 62135715 heartbeat IPC: 1.761 cumulative IPC: 1.76 (Simulation time: 00 hr 15 min 34 sec)
Heartbeat CPU 0 instructions: 137500618 cycles: 62419581 heartbeat IPC: 1.761 cumulative IPC: 1.76 (Simulation time: 00 hr 15 min 38 sec)
Heartbeat CPU 0 instructions: 138000618 cycles: 62703382 heartbeat IPC: 1.762 cumulative IPC: 1.76 (Simulation time: 00 hr 15 min 42 sec)
Heartbeat CPU 0 instructions: 138500621 cycles: 62991517 heartbeat IPC: 1.735 cumulative IPC: 1.76 (Simulation time: 00 hr 15 min 47 sec)
Heartbeat CPU 0 instructions: 139000624 cycles: 63276770 heartbeat IPC: 1.753 cumulative IPC: 1.76 (Simulation time: 00 hr 15 min 51 sec)
Heartbeat CPU 0 instructions: 139500624 cycles: 63560374 heartbeat IPC: 1.763 cumulative IPC: 1.76 (Simulation time: 00 hr 15 min 56 sec)
Heartbeat CPU 0 instructions: 140000624 cycles: 63844297 heartbeat IPC: 1.761 cumulative IPC: 1.76 (Simulation time: 00 hr 16 min 00 sec)
Heartbeat CPU 0 instructions: 140500628 cycles: 64128978 heartbeat IPC: 1.756 cumulative IPC: 1.76 (Simulation time: 00 hr 16 min 04 sec)
Heartbeat CPU 0 instructions: 141000628 cycles: 64413205 heartbeat IPC: 1.759 cumulative IPC: 1.76 (Simulation time: 00 hr 16 min 09 sec)
Heartbeat CPU 0 instructions: 141500628 cycles: 64718675 heartbeat IPC: 1.637 cumulative IPC: 1.759 (Simulation time: 00 hr 16 min 14 sec)
Heartbeat CPU 0 instructions: 142000629 cycles: 65006343 heartbeat IPC: 1.738 cumulative IPC: 1.759 (Simulation time: 00 hr 16 min 18 sec)
Heartbeat CPU 0 instructions: 142500629 cycles: 65294117 heartbeat IPC: 1.737 cumulative IPC: 1.759 (Simulation time: 00 hr 16 min 23 sec)
Heartbeat CPU 0 instructions: 143000631 cycles: 65582162 heartbeat IPC: 1.736 cumulative IPC: 1.759 (Simulation time: 00 hr 16 min 27 sec)
Heartbeat CPU 0 instructions: 143500637 cycles: 65869081 heartbeat IPC: 1.743 cumulative IPC: 1.758 (Simulation time: 00 hr 16 min 32 sec)
Heartbeat CPU 0 instructions: 144000638 cycles: 66158939 heartbeat IPC: 1.725 cumulative IPC: 1.758 (Simulation time: 00 hr 16 min 36 sec)
Heartbeat CPU 0 instructions: 144500639 cycles: 66434084 heartbeat IPC: 1.817 cumulative IPC: 1.759 (Simulation time: 00 hr 16 min 41 sec)
Heartbeat CPU 0 instructions: 145000644 cycles: 66718466 heartbeat IPC: 1.758 cumulative IPC: 1.759 (Simulation time: 00 hr 16 min 45 sec)
Heartbeat CPU 0 instructions: 145500644 cycles: 66994456 heartbeat IPC: 1.812 cumulative IPC: 1.759 (Simulation time: 00 hr 16 min 49 sec)
Heartbeat CPU 0 instructions: 146000648 cycles: 67277720 heartbeat IPC: 1.765 cumulative IPC: 1.759 (Simulation time: 00 hr 16 min 53 sec)
Heartbeat CPU 0 instructions: 146500648 cycles: 67552416 heartbeat IPC: 1.82 cumulative IPC: 1.759 (Simulation time: 00 hr 16 min 58 sec)
Heartbeat CPU 0 instructions: 147000652 cycles: 67829842 heartbeat IPC: 1.802 cumulative IPC: 1.759 (Simulation time: 00 hr 17 min 02 sec)
Heartbeat CPU 0 instructions: 147500658 cycles: 68122439 heartbeat IPC: 1.709 cumulative IPC: 1.759 (Simulation time: 00 hr 17 min 06 sec)
Heartbeat CPU 0 instructions: 148000658 cycles: 68397907 heartbeat IPC: 1.815 cumulative IPC: 1.759 (Simulation time: 00 hr 17 min 10 sec)
Heartbeat CPU 0 instructions: 148500660 cycles: 68685453 heartbeat IPC: 1.739 cumulative IPC: 1.759 (Simulation time: 00 hr 17 min 15 sec)
Heartbeat CPU 0 instructions: 149000660 cycles: 68969789 heartbeat IPC: 1.758 cumulative IPC: 1.759 (Simulation time: 00 hr 17 min 19 sec)
Heartbeat CPU 0 instructions: 149500664 cycles: 69252555 heartbeat IPC: 1.768 cumulative IPC: 1.759 (Simulation time: 00 hr 17 min 23 sec)
Heartbeat CPU 0 instructions: 150000664 cycles: 69536522 heartbeat IPC: 1.761 cumulative IPC: 1.759 (Simulation time: 00 hr 17 min 28 sec)
Heartbeat CPU 0 instructions: 150500664 cycles: 69820149 heartbeat IPC: 1.763 cumulative IPC: 1.759 (Simulation time: 00 hr 17 min 32 sec)
Heartbeat CPU 0 instructions: 151000666 cycles: 70108978 heartbeat IPC: 1.731 cumulative IPC: 1.759 (Simulation time: 00 hr 17 min 36 sec)
Heartbeat CPU 0 instructions: 151500673 cycles: 70389020 heartbeat IPC: 1.785 cumulative IPC: 1.759 (Simulation time: 00 hr 17 min 41 sec)
Heartbeat CPU 0 instructions: 152000677 cycles: 70673884 heartbeat IPC: 1.755 cumulative IPC: 1.759 (Simulation time: 00 hr 17 min 45 sec)
Heartbeat CPU 0 instructions: 152500677 cycles: 70957482 heartbeat IPC: 1.763 cumulative IPC: 1.759 (Simulation time: 00 hr 17 min 49 sec)
Heartbeat CPU 0 instructions: 153000677 cycles: 71242612 heartbeat IPC: 1.754 cumulative IPC: 1.759 (Simulation time: 00 hr 17 min 54 sec)
Heartbeat CPU 0 instructions: 153500677 cycles: 71524481 heartbeat IPC: 1.774 cumulative IPC: 1.759 (Simulation time: 00 hr 17 min 58 sec)
Heartbeat CPU 0 instructions: 154000677 cycles: 71830298 heartbeat IPC: 1.635 cumulative IPC: 1.759 (Simulation time: 00 hr 18 min 03 sec)
Heartbeat CPU 0 instructions: 154500679 cycles: 72116966 heartbeat IPC: 1.744 cumulative IPC: 1.759 (Simulation time: 00 hr 18 min 08 sec)
Heartbeat CPU 0 instructions: 155000682 cycles: 72403894 heartbeat IPC: 1.743 cumulative IPC: 1.759 (Simulation time: 00 hr 18 min 12 sec)
Heartbeat CPU 0 instructions: 155500683 cycles: 72690517 heartbeat IPC: 1.744 cumulative IPC: 1.759 (Simulation time: 00 hr 18 min 17 sec)
Heartbeat CPU 0 instructions: 156000683 cycles: 72976455 heartbeat IPC: 1.749 cumulative IPC: 1.758 (Simulation time: 00 hr 18 min 21 sec)
Heartbeat CPU 0 instructions: 156500684 cycles: 73263149 heartbeat IPC: 1.744 cumulative IPC: 1.758 (Simulation time: 00 hr 18 min 26 sec)
Heartbeat CPU 0 instructions: 157000690 cycles: 73548255 heartbeat IPC: 1.754 cumulative IPC: 1.758 (Simulation time: 00 hr 18 min 30 sec)
Heartbeat CPU 0 instructions: 157500691 cycles: 73823919 heartbeat IPC: 1.814 cumulative IPC: 1.759 (Simulation time: 00 hr 18 min 34 sec)
Heartbeat CPU 0 instructions: 158000693 cycles: 74106871 heartbeat IPC: 1.767 cumulative IPC: 1.759 (Simulation time: 00 hr 18 min 39 sec)
Heartbeat CPU 0 instructions: 158500697 cycles: 74382439 heartbeat IPC: 1.814 cumulative IPC: 1.759 (Simulation time: 00 hr 18 min 43 sec)
Heartbeat CPU 0 instructions: 159000701 cycles: 74663304 heartbeat IPC: 1.78 cumulative IPC: 1.759 (Simulation time: 00 hr 18 min 47 sec)
Heartbeat CPU 0 instructions: 159500701 cycles: 74940460 heartbeat IPC: 1.804 cumulative IPC: 1.759 (Simulation time: 00 hr 18 min 51 sec)
Heartbeat CPU 0 instructions: 160000703 cycles: 75234484 heartbeat IPC: 1.701 cumulative IPC: 1.759 (Simulation time: 00 hr 18 min 56 sec)
Heartbeat CPU 0 instructions: 160500703 cycles: 75510597 heartbeat IPC: 1.811 cumulative IPC: 1.759 (Simulation time: 00 hr 19 min 00 sec)
Heartbeat CPU 0 instructions: 161000706 cycles: 75795273 heartbeat IPC: 1.756 cumulative IPC: 1.759 (Simulation time: 00 hr 19 min 04 sec)
Heartbeat CPU 0 instructions: 161500706 cycles: 76079031 heartbeat IPC: 1.762 cumulative IPC: 1.759 (Simulation time: 00 hr 19 min 09 sec)
Heartbeat CPU 0 instructions: 162000706 cycles: 76362096 heartbeat IPC: 1.766 cumulative IPC: 1.759 (Simulation time: 00 hr 19 min 13 sec)
Heartbeat CPU 0 instructions: 162500706 cycles: 76645508 heartbeat IPC: 1.764 cumulative IPC: 1.759 (Simulation time: 00 hr 19 min 17 sec)
Heartbeat CPU 0 instructions: 163000710 cycles: 76929707 heartbeat IPC: 1.759 cumulative IPC: 1.759 (Simulation time: 00 hr 19 min 22 sec)
Heartbeat CPU 0 instructions: 163500710 cycles: 77214265 heartbeat IPC: 1.757 cumulative IPC: 1.759 (Simulation time: 00 hr 19 min 26 sec)
Heartbeat CPU 0 instructions: 164000712 cycles: 77504985 heartbeat IPC: 1.72 cumulative IPC: 1.759 (Simulation time: 00 hr 19 min 30 sec)
Heartbeat CPU 0 instructions: 164500712 cycles: 77788937 heartbeat IPC: 1.761 cumulative IPC: 1.759 (Simulation time: 00 hr 19 min 35 sec)
Heartbeat CPU 0 instructions: 165000716 cycles: 78072898 heartbeat IPC: 1.761 cumulative IPC: 1.759 (Simulation time: 00 hr 19 min 39 sec)
Heartbeat CPU 0 instructions: 165500716 cycles: 78358360 heartbeat IPC: 1.752 cumulative IPC: 1.759 (Simulation time: 00 hr 19 min 44 sec)
Heartbeat CPU 0 instructions: 166000716 cycles: 78643476 heartbeat IPC: 1.754 cumulative IPC: 1.759 (Simulation time: 00 hr 19 min 48 sec)
Heartbeat CPU 0 instructions: 166500719 cycles: 78947583 heartbeat IPC: 1.644 cumulative IPC: 1.758 (Simulation time: 00 hr 19 min 53 sec)
Heartbeat CPU 0 instructions: 167000721 cycles: 79234613 heartbeat IPC: 1.742 cumulative IPC: 1.758 (Simulation time: 00 hr 19 min 57 sec)
Heartbeat CPU 0 instructions: 167500727 cycles: 79521072 heartbeat IPC: 1.745 cumulative IPC: 1.758 (Simulation time: 00 hr 20 min 02 sec)
Heartbeat CPU 0 instructions: 168000733 cycles: 79808836 heartbeat IPC: 1.738 cumulative IPC: 1.758 (Simulation time: 00 hr 20 min 07 sec)
Heartbeat CPU 0 instructions: 168500735 cycles: 80095882 heartbeat IPC: 1.742 cumulative IPC: 1.758 (Simulation time: 00 hr 20 min 11 sec)
Heartbeat CPU 0 instructions: 169000738 cycles: 80380854 heartbeat IPC: 1.755 cumulative IPC: 1.758 (Simulation time: 00 hr 20 min 16 sec)
Heartbeat CPU 0 instructions: 169500742 cycles: 80668182 heartbeat IPC: 1.74 cumulative IPC: 1.758 (Simulation time: 00 hr 20 min 20 sec)
Heartbeat CPU 0 instructions: 170000743 cycles: 80945280 heartbeat IPC: 1.804 cumulative IPC: 1.758 (Simulation time: 00 hr 20 min 25 sec)
Heartbeat CPU 0 instructions: 170500746 cycles: 81230064 heartbeat IPC: 1.756 cumulative IPC: 1.758 (Simulation time: 00 hr 20 min 29 sec)
Heartbeat CPU 0 instructions: 171000746 cycles: 81507682 heartbeat IPC: 1.801 cumulative IPC: 1.758 (Simulation time: 00 hr 20 min 33 sec)
Heartbeat CPU 0 instructions: 171500746 cycles: 81790372 heartbeat IPC: 1.769 cumulative IPC: 1.758 (Simulation time: 00 hr 20 min 37 sec)
Heartbeat CPU 0 instructions: 172000747 cycles: 82067267 heartbeat IPC: 1.806 cumulative IPC: 1.759 (Simulation time: 00 hr 20 min 42 sec)
Heartbeat CPU 0 instructions: 172500748 cycles: 82357511 heartbeat IPC: 1.723 cumulative IPC: 1.759 (Simulation time: 00 hr 20 min 46 sec)
Heartbeat CPU 0 instructions: 173000748 cycles: 82633485 heartbeat IPC: 1.812 cumulative IPC: 1.759 (Simulation time: 00 hr 20 min 50 sec)
Heartbeat CPU 0 instructions: 173500748 cycles: 82913102 heartbeat IPC: 1.788 cumulative IPC: 1.759 (Simulation time: 00 hr 20 min 55 sec)
Heartbeat CPU 0 instructions: 174000752 cycles: 83201097 heartbeat IPC: 1.736 cumulative IPC: 1.759 (Simulation time: 00 hr 20 min 59 sec)
Heartbeat CPU 0 instructions: 174500752 cycles: 83485984 heartbeat IPC: 1.755 cumulative IPC: 1.759 (Simulation time: 00 hr 21 min 03 sec)
Heartbeat CPU 0 instructions: 175000752 cycles: 83769111 heartbeat IPC: 1.766 cumulative IPC: 1.759 (Simulation time: 00 hr 21 min 08 sec)
Heartbeat CPU 0 instructions: 175500752 cycles: 84051812 heartbeat IPC: 1.769 cumulative IPC: 1.759 (Simulation time: 00 hr 21 min 12 sec)
Heartbeat CPU 0 instructions: 176000758 cycles: 84334889 heartbeat IPC: 1.766 cumulative IPC: 1.759 (Simulation time: 00 hr 21 min 16 sec)
Heartbeat CPU 0 instructions: 176500758 cycles: 84624031 heartbeat IPC: 1.729 cumulative IPC: 1.759 (Simulation time: 00 hr 21 min 21 sec)
Heartbeat CPU 0 instructions: 177000758 cycles: 84908613 heartbeat IPC: 1.757 cumulative IPC: 1.759 (Simulation time: 00 hr 21 min 25 sec)
Heartbeat CPU 0 instructions: 177500758 cycles: 85192220 heartbeat IPC: 1.763 cumulative IPC: 1.759 (Simulation time: 00 hr 21 min 30 sec)
Heartbeat CPU 0 instructions: 178000758 cycles: 85477147 heartbeat IPC: 1.755 cumulative IPC: 1.759 (Simulation time: 00 hr 21 min 34 sec)
Heartbeat CPU 0 instructions: 178500762 cycles: 85761096 heartbeat IPC: 1.761 cumulative IPC: 1.759 (Simulation time: 00 hr 21 min 38 sec)
Heartbeat CPU 0 instructions: 179000762 cycles: 86045079 heartbeat IPC: 1.761 cumulative IPC: 1.759 (Simulation time: 00 hr 21 min 43 sec)
Heartbeat CPU 0 instructions: 179500763 cycles: 86351155 heartbeat IPC: 1.634 cumulative IPC: 1.758 (Simulation time: 00 hr 21 min 48 sec)
Heartbeat CPU 0 instructions: 180000768 cycles: 86639749 heartbeat IPC: 1.733 cumulative IPC: 1.758 (Simulation time: 00 hr 21 min 52 sec)
Heartbeat CPU 0 instructions: 180500768 cycles: 86927106 heartbeat IPC: 1.74 cumulative IPC: 1.758 (Simulation time: 00 hr 21 min 57 sec)
Heartbeat CPU 0 instructions: 181000770 cycles: 87214179 heartbeat IPC: 1.742 cumulative IPC: 1.758 (Simulation time: 00 hr 22 min 01 sec)
Heartbeat CPU 0 instructions: 181500776 cycles: 87501018 heartbeat IPC: 1.743 cumulative IPC: 1.758 (Simulation time: 00 hr 22 min 06 sec)
Heartbeat CPU 0 instructions: 182000780 cycles: 87793509 heartbeat IPC: 1.709 cumulative IPC: 1.758 (Simulation time: 00 hr 22 min 10 sec)
Heartbeat CPU 0 instructions: 182500781 cycles: 88070527 heartbeat IPC: 1.805 cumulative IPC: 1.758 (Simulation time: 00 hr 22 min 15 sec)
Heartbeat CPU 0 instructions: 183000785 cycles: 88353787 heartbeat IPC: 1.765 cumulative IPC: 1.758 (Simulation time: 00 hr 22 min 19 sec)
Heartbeat CPU 0 instructions: 183500785 cycles: 88630919 heartbeat IPC: 1.804 cumulative IPC: 1.758 (Simulation time: 00 hr 22 min 24 sec)
Heartbeat CPU 0 instructions: 184000785 cycles: 88906942 heartbeat IPC: 1.811 cumulative IPC: 1.758 (Simulation time: 00 hr 22 min 28 sec)
Heartbeat CPU 0 instructions: 184500789 cycles: 89188341 heartbeat IPC: 1.777 cumulative IPC: 1.758 (Simulation time: 00 hr 22 min 32 sec)
Heartbeat CPU 0 instructions: 185000793 cycles: 89464370 heartbeat IPC: 1.811 cumulative IPC: 1.759 (Simulation time: 00 hr 22 min 36 sec)
Heartbeat CPU 0 instructions: 185500793 cycles: 89758114 heartbeat IPC: 1.702 cumulative IPC: 1.758 (Simulation time: 00 hr 22 min 41 sec)
Heartbeat CPU 0 instructions: 186000796 cycles: 90033324 heartbeat IPC: 1.817 cumulative IPC: 1.759 (Simulation time: 00 hr 22 min 45 sec)
Heartbeat CPU 0 instructions: 186500801 cycles: 90321998 heartbeat IPC: 1.732 cumulative IPC: 1.758 (Simulation time: 00 hr 22 min 49 sec)
Heartbeat CPU 0 instructions: 187000801 cycles: 90603478 heartbeat IPC: 1.776 cumulative IPC: 1.759 (Simulation time: 00 hr 22 min 54 sec)
Heartbeat CPU 0 instructions: 187500805 cycles: 90888399 heartbeat IPC: 1.755 cumulative IPC: 1.758 (Simulation time: 00 hr 22 min 58 sec)
Heartbeat CPU 0 instructions: 188000805 cycles: 91173246 heartbeat IPC: 1.755 cumulative IPC: 1.758 (Simulation time: 00 hr 23 min 02 sec)
Heartbeat CPU 0 instructions: 188500805 cycles: 91456305 heartbeat IPC: 1.766 cumulative IPC: 1.759 (Simulation time: 00 hr 23 min 07 sec)
Heartbeat CPU 0 instructions: 189000806 cycles: 91745583 heartbeat IPC: 1.728 cumulative IPC: 1.758 (Simulation time: 00 hr 23 min 11 sec)
Heartbeat CPU 0 instructions: 189500808 cycles: 92030718 heartbeat IPC: 1.754 cumulative IPC: 1.758 (Simulation time: 00 hr 23 min 16 sec)
Heartbeat CPU 0 instructions: 190000811 cycles: 92315099 heartbeat IPC: 1.758 cumulative IPC: 1.758 (Simulation time: 00 hr 23 min 20 sec)
Heartbeat CPU 0 instructions: 190500811 cycles: 92599128 heartbeat IPC: 1.76 cumulative IPC: 1.758 (Simulation time: 00 hr 23 min 24 sec)
Heartbeat CPU 0 instructions: 191000811 cycles: 92882263 heartbeat IPC: 1.766 cumulative IPC: 1.758 (Simulation time: 00 hr 23 min 29 sec)
Heartbeat CPU 0 instructions: 191500811 cycles: 93166909 heartbeat IPC: 1.757 cumulative IPC: 1.758 (Simulation time: 00 hr 23 min 33 sec)
Heartbeat CPU 0 instructions: 192000818 cycles: 93472675 heartbeat IPC: 1.635 cumulative IPC: 1.758 (Simulation time: 00 hr 23 min 38 sec)
Heartbeat CPU 0 instructions: 192500818 cycles: 93759495 heartbeat IPC: 1.743 cumulative IPC: 1.758 (Simulation time: 00 hr 23 min 43 sec)
Heartbeat CPU 0 instructions: 193000821 cycles: 94046629 heartbeat IPC: 1.741 cumulative IPC: 1.758 (Simulation time: 00 hr 23 min 47 sec)
Heartbeat CPU 0 instructions: 193500823 cycles: 94333755 heartbeat IPC: 1.741 cumulative IPC: 1.758 (Simulation time: 00 hr 23 min 52 sec)
Heartbeat CPU 0 instructions: 194000825 cycles: 94621241 heartbeat IPC: 1.739 cumulative IPC: 1.758 (Simulation time: 00 hr 23 min 56 sec)
Heartbeat CPU 0 instructions: 194500826 cycles: 94907807 heartbeat IPC: 1.745 cumulative IPC: 1.758 (Simulation time: 00 hr 24 min 01 sec)
Heartbeat CPU 0 instructions: 195000826 cycles: 95192402 heartbeat IPC: 1.757 cumulative IPC: 1.758 (Simulation time: 00 hr 24 min 06 sec)
Heartbeat CPU 0 instructions: 195500826 cycles: 95469309 heartbeat IPC: 1.806 cumulative IPC: 1.758 (Simulation time: 00 hr 24 min 10 sec)
Heartbeat CPU 0 instructions: 196000828 cycles: 95749725 heartbeat IPC: 1.783 cumulative IPC: 1.758 (Simulation time: 00 hr 24 min 14 sec)
Heartbeat CPU 0 instructions: 196500831 cycles: 96003442 heartbeat IPC: 1.971 cumulative IPC: 1.759 (Simulation time: 00 hr 24 min 18 sec)
Heartbeat CPU 0 instructions: 197000835 cycles: 96273155 heartbeat IPC: 1.854 cumulative IPC: 1.759 (Simulation time: 00 hr 24 min 22 sec)
Heartbeat CPU 0 instructions: 197500835 cycles: 96524379 heartbeat IPC: 1.99 cumulative IPC: 1.76 (Simulation time: 00 hr 24 min 26 sec)
Heartbeat CPU 0 instructions: 198000838 cycles: 96781656 heartbeat IPC: 1.943 cumulative IPC: 1.76 (Simulation time: 00 hr 24 min 30 sec)
Heartbeat CPU 0 instructions: 198500838 cycles: 97009653 heartbeat IPC: 2.193 cumulative IPC: 1.761 (Simulation time: 00 hr 24 min 34 sec)
Heartbeat CPU 0 instructions: 199000840 cycles: 97239758 heartbeat IPC: 2.173 cumulative IPC: 1.762 (Simulation time: 00 hr 24 min 38 sec)
Heartbeat CPU 0 instructions: 199500840 cycles: 97471797 heartbeat IPC: 2.155 cumulative IPC: 1.763 (Simulation time: 00 hr 24 min 41 sec)
Heartbeat CPU 0 instructions: 200000840 cycles: 97702972 heartbeat IPC: 2.163 cumulative IPC: 1.765 (Simulation time: 00 hr 24 min 45 sec)
Heartbeat CPU 0 instructions: 200500840 cycles: 97935782 heartbeat IPC: 2.148 cumulative IPC: 1.766 (Simulation time: 00 hr 24 min 49 sec)
Heartbeat CPU 0 instructions: 201000841 cycles: 98183551 heartbeat IPC: 2.018 cumulative IPC: 1.766 (Simulation time: 00 hr 24 min 53 sec)
Heartbeat CPU 0 instructions: 201500844 cycles: 98446458 heartbeat IPC: 1.902 cumulative IPC: 1.767 (Simulation time: 00 hr 24 min 57 sec)
Heartbeat CPU 0 instructions: 202000846 cycles: 98713142 heartbeat IPC: 1.875 cumulative IPC: 1.767 (Simulation time: 00 hr 25 min 01 sec)
Heartbeat CPU 0 instructions: 202500846 cycles: 98978172 heartbeat IPC: 1.887 cumulative IPC: 1.767 (Simulation time: 00 hr 25 min 06 sec)
Heartbeat CPU 0 instructions: 203000850 cycles: 99241039 heartbeat IPC: 1.902 cumulative IPC: 1.768 (Simulation time: 00 hr 25 min 10 sec)
Heartbeat CPU 0 instructions: 203500850 cycles: 99505111 heartbeat IPC: 1.893 cumulative IPC: 1.768 (Simulation time: 00 hr 25 min 14 sec)
Heartbeat CPU 0 instructions: 204000850 cycles: 99765877 heartbeat IPC: 1.917 cumulative IPC: 1.769 (Simulation time: 00 hr 25 min 18 sec)
Heartbeat CPU 0 instructions: 204500854 cycles: 100051628 heartbeat IPC: 1.75 cumulative IPC: 1.769 (Simulation time: 00 hr 25 min 23 sec)
Heartbeat CPU 0 instructions: 205000860 cycles: 100292107 heartbeat IPC: 2.079 cumulative IPC: 1.769 (Simulation time: 00 hr 25 min 27 sec)
Heartbeat CPU 0 instructions: 205500866 cycles: 100520878 heartbeat IPC: 2.186 cumulative IPC: 1.771 (Simulation time: 00 hr 25 min 30 sec)
Heartbeat CPU 0 instructions: 206000868 cycles: 100749241 heartbeat IPC: 2.19 cumulative IPC: 1.772 (Simulation time: 00 hr 25 min 34 sec)
Heartbeat CPU 0 instructions: 206500874 cycles: 100979055 heartbeat IPC: 2.176 cumulative IPC: 1.773 (Simulation time: 00 hr 25 min 38 sec)
Heartbeat CPU 0 instructions: 207000876 cycles: 101208571 heartbeat IPC: 2.179 cumulative IPC: 1.774 (Simulation time: 00 hr 25 min 42 sec)
Heartbeat CPU 0 instructions: 207500879 cycles: 101442642 heartbeat IPC: 2.136 cumulative IPC: 1.775 (Simulation time: 00 hr 25 min 46 sec)
Heartbeat CPU 0 instructions: 208000879 cycles: 101666982 heartbeat IPC: 2.229 cumulative IPC: 1.776 (Simulation time: 00 hr 25 min 50 sec)
Heartbeat CPU 0 instructions: 208500879 cycles: 101891584 heartbeat IPC: 2.226 cumulative IPC: 1.777 (Simulation time: 00 hr 25 min 53 sec)
Heartbeat CPU 0 instructions: 209000885 cycles: 102120994 heartbeat IPC: 2.18 cumulative IPC: 1.778 (Simulation time: 00 hr 25 min 57 sec)
Heartbeat CPU 0 instructions: 209500891 cycles: 102349282 heartbeat IPC: 2.19 cumulative IPC: 1.779 (Simulation time: 00 hr 26 min 01 sec)
Heartbeat CPU 0 instructions: 210000891 cycles: 102581832 heartbeat IPC: 2.15 cumulative IPC: 1.78 (Simulation time: 00 hr 26 min 05 sec)
Heartbeat CPU 0 instructions: 210500891 cycles: 102812252 heartbeat IPC: 2.17 cumulative IPC: 1.781 (Simulation time: 00 hr 26 min 08 sec)
Heartbeat CPU 0 instructions: 211000894 cycles: 103038330 heartbeat IPC: 2.212 cumulative IPC: 1.782 (Simulation time: 00 hr 26 min 12 sec)
Heartbeat CPU 0 instructions: 211500895 cycles: 103262087 heartbeat IPC: 2.235 cumulative IPC: 1.783 (Simulation time: 00 hr 26 min 16 sec)
Heartbeat CPU 0 instructions: 212000896 cycles: 103487853 heartbeat IPC: 2.215 cumulative IPC: 1.784 (Simulation time: 00 hr 26 min 19 sec)
Heartbeat CPU 0 instructions: 212500896 cycles: 103719708 heartbeat IPC: 2.157 cumulative IPC: 1.785 (Simulation time: 00 hr 26 min 23 sec)
Heartbeat CPU 0 instructions: 213000896 cycles: 103948607 heartbeat IPC: 2.184 cumulative IPC: 1.786 (Simulation time: 00 hr 26 min 27 sec)
Heartbeat CPU 0 instructions: 213500901 cycles: 104173707 heartbeat IPC: 2.221 cumulative IPC: 1.787 (Simulation time: 00 hr 26 min 31 sec)
Heartbeat CPU 0 instructions: 214000901 cycles: 104405519 heartbeat IPC: 2.157 cumulative IPC: 1.788 (Simulation time: 00 hr 26 min 34 sec)
Heartbeat CPU 0 instructions: 214500901 cycles: 104640502 heartbeat IPC: 2.128 cumulative IPC: 1.789 (Simulation time: 00 hr 26 min 38 sec)
Heartbeat CPU 0 instructions: 215000901 cycles: 104867459 heartbeat IPC: 2.203 cumulative IPC: 1.79 (Simulation time: 00 hr 26 min 42 sec)
Heartbeat CPU 0 instructions: 215500906 cycles: 105095582 heartbeat IPC: 2.192 cumulative IPC: 1.791 (Simulation time: 00 hr 26 min 46 sec)
Heartbeat CPU 0 instructions: 216000906 cycles: 105319944 heartbeat IPC: 2.229 cumulative IPC: 1.792 (Simulation time: 00 hr 26 min 49 sec)
Heartbeat CPU 0 instructions: 216500906 cycles: 105550172 heartbeat IPC: 2.172 cumulative IPC: 1.793 (Simulation time: 00 hr 26 min 53 sec)
Heartbeat CPU 0 instructions: 217000906 cycles: 105777849 heartbeat IPC: 2.196 cumulative IPC: 1.794 (Simulation time: 00 hr 26 min 57 sec)
Heartbeat CPU 0 instructions: 217500906 cycles: 106004708 heartbeat IPC: 2.204 cumulative IPC: 1.795 (Simulation time: 00 hr 27 min 00 sec)
Heartbeat CPU 0 instructions: 218000911 cycles: 106239031 heartbeat IPC: 2.134 cumulative IPC: 1.796 (Simulation time: 00 hr 27 min 04 sec)
Heartbeat CPU 0 instructions: 218500911 cycles: 106468122 heartbeat IPC: 2.183 cumulative IPC: 1.797 (Simulation time: 00 hr 27 min 08 sec)
Heartbeat CPU 0 instructions: 219000911 cycles: 106702079 heartbeat IPC: 2.137 cumulative IPC: 1.798 (Simulation time: 00 hr 27 min 12 sec)
Heartbeat CPU 0 instructions: 219500911 cycles: 106928447 heartbeat IPC: 2.209 cumulative IPC: 1.799 (Simulation time: 00 hr 27 min 16 sec)
Heartbeat CPU 0 instructions: 220000916 cycles: 107153620 heartbeat IPC: 2.221 cumulative IPC: 1.8 (Simulation time: 00 hr 27 min 19 sec)
Heartbeat CPU 0 instructions: 220500916 cycles: 107385209 heartbeat IPC: 2.159 cumulative IPC: 1.801 (Simulation time: 00 hr 27 min 23 sec)
Heartbeat CPU 0 instructions: 221000916 cycles: 107615437 heartbeat IPC: 2.172 cumulative IPC: 1.802 (Simulation time: 00 hr 27 min 27 sec)
Heartbeat CPU 0 instructions: 221500916 cycles: 107856524 heartbeat IPC: 2.074 cumulative IPC: 1.802 (Simulation time: 00 hr 27 min 31 sec)
Heartbeat CPU 0 instructions: 222000921 cycles: 108083995 heartbeat IPC: 2.198 cumulative IPC: 1.803 (Simulation time: 00 hr 27 min 34 sec)
Heartbeat CPU 0 instructions: 222500921 cycles: 108318059 heartbeat IPC: 2.136 cumulative IPC: 1.804 (Simulation time: 00 hr 27 min 38 sec)
Heartbeat CPU 0 instructions: 223000921 cycles: 108544653 heartbeat IPC: 2.207 cumulative IPC: 1.805 (Simulation time: 00 hr 27 min 42 sec)
Heartbeat CPU 0 instructions: 223500921 cycles: 108777704 heartbeat IPC: 2.145 cumulative IPC: 1.806 (Simulation time: 00 hr 27 min 46 sec)
Heartbeat CPU 0 instructions: 224000926 cycles: 109007123 heartbeat IPC: 2.179 cumulative IPC: 1.807 (Simulation time: 00 hr 27 min 49 sec)
Heartbeat CPU 0 instructions: 224500926 cycles: 109236098 heartbeat IPC: 2.184 cumulative IPC: 1.808 (Simulation time: 00 hr 27 min 53 sec)
Heartbeat CPU 0 instructions: 225000926 cycles: 109466441 heartbeat IPC: 2.171 cumulative IPC: 1.808 (Simulation time: 00 hr 27 min 57 sec)
Heartbeat CPU 0 instructions: 225500926 cycles: 109700864 heartbeat IPC: 2.133 cumulative IPC: 1.809 (Simulation time: 00 hr 28 min 01 sec)
Heartbeat CPU 0 instructions: 226000929 cycles: 109928973 heartbeat IPC: 2.192 cumulative IPC: 1.81 (Simulation time: 00 hr 28 min 05 sec)
Heartbeat CPU 0 instructions: 226500930 cycles: 110153538 heartbeat IPC: 2.227 cumulative IPC: 1.811 (Simulation time: 00 hr 28 min 08 sec)
Heartbeat CPU 0 instructions: 227000931 cycles: 110385068 heartbeat IPC: 2.16 cumulative IPC: 1.812 (Simulation time: 00 hr 28 min 12 sec)
Heartbeat CPU 0 instructions: 227500931 cycles: 110611189 heartbeat IPC: 2.211 cumulative IPC: 1.813 (Simulation time: 00 hr 28 min 16 sec)
Heartbeat CPU 0 instructions: 228000931 cycles: 110838902 heartbeat IPC: 2.196 cumulative IPC: 1.814 (Simulation time: 00 hr 28 min 19 sec)
Heartbeat CPU 0 instructions: 228500933 cycles: 111080672 heartbeat IPC: 2.068 cumulative IPC: 1.814 (Simulation time: 00 hr 28 min 23 sec)
Heartbeat CPU 0 instructions: 229000936 cycles: 111335036 heartbeat IPC: 1.966 cumulative IPC: 1.815 (Simulation time: 00 hr 28 min 27 sec)
Heartbeat CPU 0 instructions: 229500936 cycles: 111588267 heartbeat IPC: 1.974 cumulative IPC: 1.815 (Simulation time: 00 hr 28 min 32 sec)
Heartbeat CPU 0 instructions: 230000939 cycles: 111841356 heartbeat IPC: 1.976 cumulative IPC: 1.816 (Simulation time: 00 hr 28 min 36 sec)
Heartbeat CPU 0 instructions: 230500940 cycles: 112093864 heartbeat IPC: 1.98 cumulative IPC: 1.816 (Simulation time: 00 hr 28 min 40 sec)
Heartbeat CPU 0 instructions: 231000941 cycles: 112346371 heartbeat IPC: 1.98 cumulative IPC: 1.816 (Simulation time: 00 hr 28 min 44 sec)
Heartbeat CPU 0 instructions: 231500941 cycles: 112597177 heartbeat IPC: 1.994 cumulative IPC: 1.817 (Simulation time: 00 hr 28 min 48 sec)
Heartbeat CPU 0 instructions: 232000941 cycles: 112850864 heartbeat IPC: 1.971 cumulative IPC: 1.817 (Simulation time: 00 hr 28 min 52 sec)
Heartbeat CPU 0 instructions: 232500946 cycles: 113101458 heartbeat IPC: 1.995 cumulative IPC: 1.818 (Simulation time: 00 hr 28 min 56 sec)
Heartbeat CPU 0 instructions: 233000946 cycles: 113353651 heartbeat IPC: 1.983 cumulative IPC: 1.818 (Simulation time: 00 hr 29 min 00 sec)
Heartbeat CPU 0 instructions: 233500946 cycles: 113606006 heartbeat IPC: 1.981 cumulative IPC: 1.818 (Simulation time: 00 hr 29 min 04 sec)
Heartbeat CPU 0 instructions: 234000946 cycles: 113857435 heartbeat IPC: 1.989 cumulative IPC: 1.819 (Simulation time: 00 hr 29 min 08 sec)
Heartbeat CPU 0 instructions: 234500951 cycles: 114109482 heartbeat IPC: 1.984 cumulative IPC: 1.819 (Simulation time: 00 hr 29 min 13 sec)
Heartbeat CPU 0 instructions: 235000951 cycles: 114361666 heartbeat IPC: 1.983 cumulative IPC: 1.82 (Simulation time: 00 hr 29 min 17 sec)
Heartbeat CPU 0 instructions: 235500951 cycles: 114614726 heartbeat IPC: 1.976 cumulative IPC: 1.82 (Simulation time: 00 hr 29 min 21 sec)
Heartbeat CPU 0 instructions: 236000951 cycles: 114865910 heartbeat IPC: 1.991 cumulative IPC: 1.821 (Simulation time: 00 hr 29 min 25 sec)
Heartbeat CPU 0 instructions: 236500952 cycles: 115116461 heartbeat IPC: 1.996 cumulative IPC: 1.821 (Simulation time: 00 hr 29 min 29 sec)
Heartbeat CPU 0 instructions: 237000956 cycles: 115367354 heartbeat IPC: 1.993 cumulative IPC: 1.821 (Simulation time: 00 hr 29 min 33 sec)
Heartbeat CPU 0 instructions: 237500956 cycles: 115618583 heartbeat IPC: 1.99 cumulative IPC: 1.822 (Simulation time: 00 hr 29 min 37 sec)
Heartbeat CPU 0 instructions: 238000956 cycles: 115870336 heartbeat IPC: 1.986 cumulative IPC: 1.822 (Simulation time: 00 hr 29 min 41 sec)
Heartbeat CPU 0 instructions: 238500956 cycles: 116121660 heartbeat IPC: 1.989 cumulative IPC: 1.823 (Simulation time: 00 hr 29 min 45 sec)
Heartbeat CPU 0 instructions: 239000961 cycles: 116371480 heartbeat IPC: 2.001 cumulative IPC: 1.823 (Simulation time: 00 hr 29 min 49 sec)
Heartbeat CPU 0 instructions: 239500961 cycles: 116622267 heartbeat IPC: 1.994 cumulative IPC: 1.823 (Simulation time: 00 hr 29 min 53 sec)
Heartbeat CPU 0 instructions: 240000961 cycles: 116874055 heartbeat IPC: 1.986 cumulative IPC: 1.824 (Simulation time: 00 hr 29 min 57 sec)
Heartbeat CPU 0 instructions: 240500961 cycles: 117125605 heartbeat IPC: 1.988 cumulative IPC: 1.824 (Simulation time: 00 hr 30 min 02 sec)
Heartbeat CPU 0 instructions: 241000961 cycles: 117387130 heartbeat IPC: 1.912 cumulative IPC: 1.824 (Simulation time: 00 hr 30 min 06 sec)
Heartbeat CPU 0 instructions: 241500965 cycles: 117637834 heartbeat IPC: 1.994 cumulative IPC: 1.825 (Simulation time: 00 hr 30 min 10 sec)
Heartbeat CPU 0 instructions: 242000966 cycles: 117889338 heartbeat IPC: 1.988 cumulative IPC: 1.825 (Simulation time: 00 hr 30 min 14 sec)
Heartbeat CPU 0 instructions: 242500966 cycles: 118141109 heartbeat IPC: 1.986 cumulative IPC: 1.826 (Simulation time: 00 hr 30 min 18 sec)
Heartbeat CPU 0 instructions: 243000973 cycles: 118392833 heartbeat IPC: 1.986 cumulative IPC: 1.826 (Simulation time: 00 hr 30 min 22 sec)
Heartbeat CPU 0 instructions: 243500978 cycles: 118642333 heartbeat IPC: 2.004 cumulative IPC: 1.826 (Simulation time: 00 hr 30 min 26 sec)
Heartbeat CPU 0 instructions: 244000978 cycles: 118896687 heartbeat IPC: 1.966 cumulative IPC: 1.827 (Simulation time: 00 hr 30 min 30 sec)
Heartbeat CPU 0 instructions: 244500978 cycles: 119151882 heartbeat IPC: 1.959 cumulative IPC: 1.827 (Simulation time: 00 hr 30 min 34 sec)
Heartbeat CPU 0 instructions: 245000978 cycles: 119412130 heartbeat IPC: 1.921 cumulative IPC: 1.827 (Simulation time: 00 hr 30 min 38 sec)
Heartbeat CPU 0 instructions: 245500983 cycles: 119663816 heartbeat IPC: 1.987 cumulative IPC: 1.828 (Simulation time: 00 hr 30 min 42 sec)
Heartbeat CPU 0 instructions: 246000983 cycles: 119917774 heartbeat IPC: 1.969 cumulative IPC: 1.828 (Simulation time: 00 hr 30 min 46 sec)
Heartbeat CPU 0 instructions: 246500983 cycles: 120142313 heartbeat IPC: 2.227 cumulative IPC: 1.829 (Simulation time: 00 hr 30 min 50 sec)
Heartbeat CPU 0 instructions: 247000983 cycles: 120363511 heartbeat IPC: 2.26 cumulative IPC: 1.83 (Simulation time: 00 hr 30 min 54 sec)
Heartbeat CPU 0 instructions: 247500988 cycles: 120590631 heartbeat IPC: 2.202 cumulative IPC: 1.83 (Simulation time: 00 hr 30 min 57 sec)
Heartbeat CPU 0 instructions: 248000988 cycles: 120816833 heartbeat IPC: 2.21 cumulative IPC: 1.831 (Simulation time: 00 hr 31 min 01 sec)
Heartbeat CPU 0 instructions: 248500988 cycles: 121046287 heartbeat IPC: 2.179 cumulative IPC: 1.832 (Simulation time: 00 hr 31 min 05 sec)
Heartbeat CPU 0 instructions: 249000988 cycles: 121275000 heartbeat IPC: 2.186 cumulative IPC: 1.833 (Simulation time: 00 hr 31 min 09 sec)
Heartbeat CPU 0 instructions: 249500994 cycles: 121501625 heartbeat IPC: 2.206 cumulative IPC: 1.834 (Simulation time: 00 hr 31 min 12 sec)
Simulation finished CPU 0 instructions: 200000002 cycles: 109033118 cumulative IPC: 1.834 (Simulation time: 00 hr 31 min 16 sec)
Simulation complete CPU 0 instructions: 200000002 cycles: 109033118 cumulative IPC: 1.834 (Simulation time: 00 hr 31 min 16 sec)

ChampSim completed all CPUs

=== Simulation ===
CPU 0 runs /local-ssd/ben/dpc4-traces/ai-ml/llama2.c-stories110M.3.champsimtrace.gz

Region of Interest Statistics

CPU 0 cumulative IPC: 1.834 instructions: 200000002 cycles: 109033118
CPU 0 Branch Prediction Accuracy: 99.53% MPKI: 0.6661 Average ROB Occupancy at Mispredict: 561.7
Branch type MPKI
BRANCH_DIRECT_JUMP: 0.0001
BRANCH_INDIRECT: 5e-06
BRANCH_CONDITIONAL: 0.6657
BRANCH_DIRECT_CALL: 0.00012
BRANCH_INDIRECT_CALL: 2.5e-05
BRANCH_RETURN: 0.00014

cpu0->cpu0_STLB TOTAL        ACCESS:     109989 HIT:         73 MISS:     109916 MSHR_MERGE:          0
cpu0->cpu0_STLB LOAD         ACCESS:     109989 HIT:         73 MISS:     109916 MSHR_MERGE:          0
cpu0->cpu0_STLB RFO          ACCESS:          0 HIT:          0 MISS:          0 MSHR_MERGE:          0
cpu0->cpu0_STLB PREFETCH     ACCESS:          0 HIT:          0 MISS:          0 MSHR_MERGE:          0
cpu0->cpu0_STLB WRITE        ACCESS:          0 HIT:          0 MISS:          0 MSHR_MERGE:          0
cpu0->cpu0_STLB TRANSLATION  ACCESS:          0 HIT:          0 MISS:          0 MSHR_MERGE:          0
cpu0->cpu0_STLB PREFETCH REQUESTED:          0 ISSUED:          0 USEFUL:          0 USELESS:          0
cpu0->cpu0_STLB AVERAGE MISS LATENCY: 190.9 cycles
cpu0->cpu0_L2C TOTAL        ACCESS:   35599537 HIT:     708484 MISS:   34891053 MSHR_MERGE:   27864446
cpu0->cpu0_L2C LOAD         ACCESS:    2845263 HIT:      55209 MISS:    2790054 MSHR_MERGE:    1894432
cpu0->cpu0_L2C RFO          ACCESS:      17015 HIT:       9066 MISS:       7949 MSHR_MERGE:          0
cpu0->cpu0_L2C PREFETCH     ACCESS:   32701026 HIT:     624580 MISS:   32076446 MSHR_MERGE:   25970014
cpu0->cpu0_L2C WRITE        ACCESS:      21781 HIT:      19503 MISS:       2278 MSHR_MERGE:          0
cpu0->cpu0_L2C TRANSLATION  ACCESS:      14452 HIT:        126 MISS:      14326 MSHR_MERGE:          0
cpu0->cpu0_L2C PREFETCH REQUESTED:   36015228 ISSUED:   28539535 USEFUL:    2003994 USELESS:    3296330
cpu0->cpu0_L2C AVERAGE MISS LATENCY: 107.2 cycles
cpu0->cpu0_L1I TOTAL        ACCESS:   25465785 HIT:   25465618 MISS:        167 MSHR_MERGE:         14
cpu0->cpu0_L1I LOAD         ACCESS:   25465785 HIT:   25465618 MISS:        167 MSHR_MERGE:         14
cpu0->cpu0_L1I RFO          ACCESS:          0 HIT:          0 MISS:          0 MSHR_MERGE:          0
cpu0->cpu0_L1I PREFETCH     ACCESS:          0 HIT:          0 MISS:          0 MSHR_MERGE:          0
cpu0->cpu0_L1I WRITE        ACCESS:          0 HIT:          0 MISS:          0 MSHR_MERGE:          0
cpu0->cpu0_L1I TRANSLATION  ACCESS:          0 HIT:          0 MISS:          0 MSHR_MERGE:          0
cpu0->cpu0_L1I PREFETCH REQUESTED:          0 ISSUED:          0 USEFUL:          0 USELESS:          0
cpu0->cpu0_L1I AVERAGE MISS LATENCY: 161.2 cycles
cpu0->cpu0_L1D TOTAL        ACCESS:   61548180 HIT:   31413160 MISS:   30135020 MSHR_MERGE:   23096953
cpu0->cpu0_L1D LOAD         ACCESS:   37401925 HIT:   19603160 MISS:   17798765 MSHR_MERGE:   14953656
cpu0->cpu0_L1D RFO          ACCESS:          0 HIT:          0 MISS:          0 MSHR_MERGE:          0
cpu0->cpu0_L1D PREFETCH     ACCESS:   23716118 HIT:   11412040 MISS:   12304078 MSHR_MERGE:    8142600
cpu0->cpu0_L1D WRITE        ACCESS:     210023 HIT:     192312 MISS:      17711 MSHR_MERGE:        683
cpu0->cpu0_L1D TRANSLATION  ACCESS:     220114 HIT:     205648 MISS:      14466 MSHR_MERGE:         14
cpu0->cpu0_L1D PREFETCH REQUESTED:   71852099 ISSUED:   23716119 USEFUL:    4155720 USELESS:       5747
cpu0->cpu0_L1D AVERAGE MISS LATENCY: 73.38 cycles
cpu0->cpu0_ITLB TOTAL        ACCESS:   22544042 HIT:   22544016 MISS:         26 MSHR_MERGE:          5
cpu0->cpu0_ITLB LOAD         ACCESS:   22544042 HIT:   22544016 MISS:         26 MSHR_MERGE:          5
cpu0->cpu0_ITLB RFO          ACCESS:          0 HIT:          0 MISS:          0 MSHR_MERGE:          0
cpu0->cpu0_ITLB PREFETCH     ACCESS:          0 HIT:          0 MISS:          0 MSHR_MERGE:          0
cpu0->cpu0_ITLB WRITE        ACCESS:          0 HIT:          0 MISS:          0 MSHR_MERGE:          0
cpu0->cpu0_ITLB TRANSLATION  ACCESS:          0 HIT:          0 MISS:          0 MSHR_MERGE:          0
cpu0->cpu0_ITLB PREFETCH REQUESTED:          0 ISSUED:          0 USEFUL:          0 USELESS:          0
cpu0->cpu0_ITLB AVERAGE MISS LATENCY: 402.7 cycles
cpu0->cpu0_DTLB TOTAL        ACCESS:   47078245 HIT:   45580018 MISS:    1498227 MSHR_MERGE:    1388259
cpu0->cpu0_DTLB LOAD         ACCESS:   47078245 HIT:   45580018 MISS:    1498227 MSHR_MERGE:    1388259
cpu0->cpu0_DTLB RFO          ACCESS:          0 HIT:          0 MISS:          0 MSHR_MERGE:          0
cpu0->cpu0_DTLB PREFETCH     ACCESS:          0 HIT:          0 MISS:          0 MSHR_MERGE:          0
cpu0->cpu0_DTLB WRITE        ACCESS:          0 HIT:          0 MISS:          0 MSHR_MERGE:          0
cpu0->cpu0_DTLB TRANSLATION  ACCESS:          0 HIT:          0 MISS:          0 MSHR_MERGE:          0
cpu0->cpu0_DTLB PREFETCH REQUESTED:          0 ISSUED:          0 USEFUL:          0 USELESS:          0
cpu0->cpu0_DTLB AVERAGE MISS LATENCY: 196.8 cycles
cpu0->LLC TOTAL        ACCESS:   13786055 HIT:     314042 MISS:   13472013 MSHR_MERGE:    6452475
cpu0->LLC LOAD         ACCESS:     895622 HIT:      79840 MISS:     815782 MSHR_MERGE:      57775
cpu0->LLC RFO          ACCESS:       7949 HIT:       3368 MISS:       4581 MSHR_MERGE:          0
cpu0->LLC PREFETCH     ACCESS:   12855347 HIT:     221614 MISS:   12633733 MSHR_MERGE:    6394700
cpu0->LLC WRITE        ACCESS:      12811 HIT:       9099 MISS:       3712 MSHR_MERGE:          0
cpu0->LLC TRANSLATION  ACCESS:      14326 HIT:        121 MISS:      14205 MSHR_MERGE:          0
cpu0->LLC PREFETCH REQUESTED:    6752414 ISSUED:    6748915 USEFUL:     340764 USELESS:    5054458
cpu0->LLC AVERAGE MISS LATENCY: 234.2 cycles

DRAM Statistics

Channel 0 RQ ROW_BUFFER_HIT:    3262460
  ROW_BUFFER_MISS:    3753326
  AVG DBUS CONGESTED CYCLE: 4.705
Channel 0 WQ ROW_BUFFER_HIT:        246
  ROW_BUFFER_MISS:       4401
  FULL:          0
Channel 0 REFRESHES ISSUED:       9086
