[VMEM] WARNING: physical memory size is smaller than virtual memory size.

*** ChampSim Multicore Out-of-Order Simulator ***
Warmup Instructions: 50000000
Simulation Instructions: 200000000
Number of CPUs: 1
Page size: 4096
Core 0: /local-ssd/ben/dpc4-traces/gtraces_v2/yankee_0003.champsim.gz
IPCP_AT_L1_CONFIG
NUM_IP_TABLE_L1_ENTRIES 1024
NUM_GHB_ENTRIES 16
NUM_IP_INDEX_BITS 10
NUM_IP_TAG_BITS 6
S_TYPE 1
CS_TYPE 2
CPLX_TYPE 3
NL_TYPE 4

Off-chip DRAM Size: 64 GiB Channels: 1 Width: 64-bit Data Rate: 4807 MT/s
[BTB] WARNING: target of return is a lower address than the corresponding call. This is usually a problem with your trace.
[BTB] WARNING: target of return is a lower address than the corresponding call. This is usually a problem with your trace.
[BTB] WARNING: target of return is a lower address than the corresponding call. This is usually a problem with your trace.
Heartbeat CPU 0 instructions: 500000 cycles: 234950 heartbeat IPC: 2.128 cumulative IPC: 2.128 (Simulation time: 00 hr 00 min 04 sec)
[BTB] WARNING: target of return is a lower address than the corresponding call. This is usually a problem with your trace.
[BTB] WARNING: target of return is a lower address than the corresponding call. This is usually a problem with your trace.
[BTB] WARNING: target of return is a lower address than the corresponding call. This is usually a problem with your trace.
Heartbeat CPU 0 instructions: 1000006 cycles: 445379 heartbeat IPC: 2.376 cumulative IPC: 2.245 (Simulation time: 00 hr 00 min 07 sec)
[BTB] WARNING: target of return is a lower address than the corresponding call. This is usually a problem with your trace.
Heartbeat CPU 0 instructions: 1500012 cycles: 574102 heartbeat IPC: 3.884 cumulative IPC: 2.613 (Simulation time: 00 hr 00 min 08 sec)
[BTB] WARNING: target of return is a lower address than the corresponding call. This is usually a problem with your trace.
[BTB] WARNING: target of return is a lower address than the corresponding call. This is usually a problem with your trace.
Heartbeat CPU 0 instructions: 2000012 cycles: 704113 heartbeat IPC: 3.846 cumulative IPC: 2.84 (Simulation time: 00 hr 00 min 11 sec)
[BTB] WARNING: target of return is a lower address than the corresponding call. This is usually a problem with your trace.
Heartbeat CPU 0 instructions: 2500012 cycles: 880499 heartbeat IPC: 2.835 cumulative IPC: 2.839 (Simulation time: 00 hr 00 min 13 sec)
Heartbeat CPU 0 instructions: 3000017 cycles: 1073633 heartbeat IPC: 2.589 cumulative IPC: 2.794 (Simulation time: 00 hr 00 min 16 sec)
Heartbeat CPU 0 instructions: 3500021 cycles: 1215098 heartbeat IPC: 3.534 cumulative IPC: 2.88 (Simulation time: 00 hr 00 min 18 sec)
Heartbeat CPU 0 instructions: 4000023 cycles: 1346745 heartbeat IPC: 3.798 cumulative IPC: 2.97 (Simulation time: 00 hr 00 min 20 sec)
Heartbeat CPU 0 instructions: 4500028 cycles: 1463162 heartbeat IPC: 4.295 cumulative IPC: 3.076 (Simulation time: 00 hr 00 min 22 sec)
Heartbeat CPU 0 instructions: 5000032 cycles: 1570368 heartbeat IPC: 4.664 cumulative IPC: 3.184 (Simulation time: 00 hr 00 min 24 sec)
Heartbeat CPU 0 instructions: 5500032 cycles: 1693611 heartbeat IPC: 4.057 cumulative IPC: 3.248 (Simulation time: 00 hr 00 min 26 sec)
Heartbeat CPU 0 instructions: 6000032 cycles: 1826008 heartbeat IPC: 3.777 cumulative IPC: 3.286 (Simulation time: 00 hr 00 min 28 sec)
Heartbeat CPU 0 instructions: 6500036 cycles: 1953707 heartbeat IPC: 3.915 cumulative IPC: 3.327 (Simulation time: 00 hr 00 min 30 sec)
Heartbeat CPU 0 instructions: 7000042 cycles: 2087568 heartbeat IPC: 3.735 cumulative IPC: 3.353 (Simulation time: 00 hr 00 min 32 sec)
Heartbeat CPU 0 instructions: 7500046 cycles: 2209453 heartbeat IPC: 4.102 cumulative IPC: 3.395 (Simulation time: 00 hr 00 min 34 sec)
Heartbeat CPU 0 instructions: 8000050 cycles: 2322568 heartbeat IPC: 4.42 cumulative IPC: 3.444 (Simulation time: 00 hr 00 min 36 sec)
Heartbeat CPU 0 instructions: 8500052 cycles: 2446933 heartbeat IPC: 4.02 cumulative IPC: 3.474 (Simulation time: 00 hr 00 min 38 sec)
Heartbeat CPU 0 instructions: 9000053 cycles: 2612123 heartbeat IPC: 3.027 cumulative IPC: 3.445 (Simulation time: 00 hr 00 min 41 sec)
Heartbeat CPU 0 instructions: 9500059 cycles: 2737516 heartbeat IPC: 3.988 cumulative IPC: 3.47 (Simulation time: 00 hr 00 min 43 sec)
Heartbeat CPU 0 instructions: 10000064 cycles: 2851500 heartbeat IPC: 4.387 cumulative IPC: 3.507 (Simulation time: 00 hr 00 min 44 sec)
Heartbeat CPU 0 instructions: 10500071 cycles: 2967823 heartbeat IPC: 4.298 cumulative IPC: 3.538 (Simulation time: 00 hr 00 min 46 sec)
Heartbeat CPU 0 instructions: 11000076 cycles: 3075707 heartbeat IPC: 4.635 cumulative IPC: 3.576 (Simulation time: 00 hr 00 min 48 sec)
Heartbeat CPU 0 instructions: 11500080 cycles: 3201693 heartbeat IPC: 3.969 cumulative IPC: 3.592 (Simulation time: 00 hr 00 min 50 sec)
Heartbeat CPU 0 instructions: 12000083 cycles: 3314715 heartbeat IPC: 4.424 cumulative IPC: 3.62 (Simulation time: 00 hr 00 min 52 sec)
Heartbeat CPU 0 instructions: 12500089 cycles: 3425739 heartbeat IPC: 4.504 cumulative IPC: 3.649 (Simulation time: 00 hr 00 min 54 sec)
Heartbeat CPU 0 instructions: 13000096 cycles: 3556806 heartbeat IPC: 3.815 cumulative IPC: 3.655 (Simulation time: 00 hr 00 min 56 sec)
Heartbeat CPU 0 instructions: 13500098 cycles: 3705131 heartbeat IPC: 3.371 cumulative IPC: 3.644 (Simulation time: 00 hr 00 min 58 sec)
Heartbeat CPU 0 instructions: 14000098 cycles: 3834929 heartbeat IPC: 3.852 cumulative IPC: 3.651 (Simulation time: 00 hr 01 min 01 sec)
Heartbeat CPU 0 instructions: 14500099 cycles: 3955386 heartbeat IPC: 4.151 cumulative IPC: 3.666 (Simulation time: 00 hr 01 min 03 sec)
Heartbeat CPU 0 instructions: 15000099 cycles: 4085629 heartbeat IPC: 3.839 cumulative IPC: 3.671 (Simulation time: 00 hr 01 min 05 sec)
Heartbeat CPU 0 instructions: 15500099 cycles: 4192376 heartbeat IPC: 4.684 cumulative IPC: 3.697 (Simulation time: 00 hr 01 min 06 sec)
Heartbeat CPU 0 instructions: 16000101 cycles: 4309571 heartbeat IPC: 4.266 cumulative IPC: 3.713 (Simulation time: 00 hr 01 min 09 sec)
Heartbeat CPU 0 instructions: 16500105 cycles: 4460808 heartbeat IPC: 3.306 cumulative IPC: 3.699 (Simulation time: 00 hr 01 min 11 sec)
Heartbeat CPU 0 instructions: 17000107 cycles: 4581872 heartbeat IPC: 4.13 cumulative IPC: 3.71 (Simulation time: 00 hr 01 min 13 sec)
Heartbeat CPU 0 instructions: 17500107 cycles: 4706623 heartbeat IPC: 4.008 cumulative IPC: 3.718 (Simulation time: 00 hr 01 min 15 sec)
Heartbeat CPU 0 instructions: 18000114 cycles: 4822219 heartbeat IPC: 4.325 cumulative IPC: 3.733 (Simulation time: 00 hr 01 min 17 sec)
Heartbeat CPU 0 instructions: 18500121 cycles: 4957255 heartbeat IPC: 3.703 cumulative IPC: 3.732 (Simulation time: 00 hr 01 min 19 sec)
Heartbeat CPU 0 instructions: 19000127 cycles: 5066930 heartbeat IPC: 4.559 cumulative IPC: 3.75 (Simulation time: 00 hr 01 min 21 sec)
Heartbeat CPU 0 instructions: 19500130 cycles: 5186512 heartbeat IPC: 4.181 cumulative IPC: 3.76 (Simulation time: 00 hr 01 min 23 sec)
Heartbeat CPU 0 instructions: 20000136 cycles: 5302955 heartbeat IPC: 4.294 cumulative IPC: 3.772 (Simulation time: 00 hr 01 min 25 sec)
Heartbeat CPU 0 instructions: 20500137 cycles: 5439070 heartbeat IPC: 3.673 cumulative IPC: 3.769 (Simulation time: 00 hr 01 min 27 sec)
Heartbeat CPU 0 instructions: 21000142 cycles: 5552984 heartbeat IPC: 4.389 cumulative IPC: 3.782 (Simulation time: 00 hr 01 min 29 sec)
Heartbeat CPU 0 instructions: 21500147 cycles: 5663271 heartbeat IPC: 4.534 cumulative IPC: 3.796 (Simulation time: 00 hr 01 min 31 sec)
Heartbeat CPU 0 instructions: 22000151 cycles: 5771025 heartbeat IPC: 4.64 cumulative IPC: 3.812 (Simulation time: 00 hr 01 min 33 sec)
Heartbeat CPU 0 instructions: 22500157 cycles: 5880976 heartbeat IPC: 4.548 cumulative IPC: 3.826 (Simulation time: 00 hr 01 min 34 sec)
Heartbeat CPU 0 instructions: 23000163 cycles: 5997190 heartbeat IPC: 4.302 cumulative IPC: 3.835 (Simulation time: 00 hr 01 min 36 sec)
Heartbeat CPU 0 instructions: 23500170 cycles: 6118074 heartbeat IPC: 4.136 cumulative IPC: 3.841 (Simulation time: 00 hr 01 min 38 sec)
Heartbeat CPU 0 instructions: 24000177 cycles: 6257284 heartbeat IPC: 3.592 cumulative IPC: 3.836 (Simulation time: 00 hr 01 min 41 sec)
Heartbeat CPU 0 instructions: 24500183 cycles: 6404774 heartbeat IPC: 3.39 cumulative IPC: 3.825 (Simulation time: 00 hr 01 min 43 sec)
Heartbeat CPU 0 instructions: 25000190 cycles: 6519222 heartbeat IPC: 4.369 cumulative IPC: 3.835 (Simulation time: 00 hr 01 min 45 sec)
Heartbeat CPU 0 instructions: 25500191 cycles: 6638326 heartbeat IPC: 4.198 cumulative IPC: 3.841 (Simulation time: 00 hr 01 min 47 sec)
Heartbeat CPU 0 instructions: 26000196 cycles: 6810318 heartbeat IPC: 2.907 cumulative IPC: 3.818 (Simulation time: 00 hr 01 min 50 sec)
Heartbeat CPU 0 instructions: 26500197 cycles: 6929881 heartbeat IPC: 4.182 cumulative IPC: 3.824 (Simulation time: 00 hr 01 min 52 sec)
Heartbeat CPU 0 instructions: 27000200 cycles: 7063575 heartbeat IPC: 3.74 cumulative IPC: 3.822 (Simulation time: 00 hr 01 min 54 sec)
Heartbeat CPU 0 instructions: 27500200 cycles: 7197833 heartbeat IPC: 3.724 cumulative IPC: 3.821 (Simulation time: 00 hr 01 min 57 sec)
Heartbeat CPU 0 instructions: 28000204 cycles: 7312247 heartbeat IPC: 4.37 cumulative IPC: 3.829 (Simulation time: 00 hr 01 min 59 sec)
Heartbeat CPU 0 instructions: 28500210 cycles: 7430943 heartbeat IPC: 4.212 cumulative IPC: 3.835 (Simulation time: 00 hr 02 min 01 sec)
Heartbeat CPU 0 instructions: 29000210 cycles: 7574397 heartbeat IPC: 3.485 cumulative IPC: 3.829 (Simulation time: 00 hr 02 min 03 sec)
Heartbeat CPU 0 instructions: 29500216 cycles: 7693521 heartbeat IPC: 4.197 cumulative IPC: 3.834 (Simulation time: 00 hr 02 min 05 sec)
Heartbeat CPU 0 instructions: 30000219 cycles: 7850128 heartbeat IPC: 3.193 cumulative IPC: 3.822 (Simulation time: 00 hr 02 min 08 sec)
Heartbeat CPU 0 instructions: 30500219 cycles: 7977174 heartbeat IPC: 3.936 cumulative IPC: 3.823 (Simulation time: 00 hr 02 min 09 sec)
Heartbeat CPU 0 instructions: 31000225 cycles: 8095082 heartbeat IPC: 4.241 cumulative IPC: 3.83 (Simulation time: 00 hr 02 min 11 sec)
Heartbeat CPU 0 instructions: 31500231 cycles: 8262458 heartbeat IPC: 2.987 cumulative IPC: 3.812 (Simulation time: 00 hr 02 min 14 sec)
Heartbeat CPU 0 instructions: 32000237 cycles: 8389555 heartbeat IPC: 3.934 cumulative IPC: 3.814 (Simulation time: 00 hr 02 min 16 sec)
Heartbeat CPU 0 instructions: 32500238 cycles: 8514089 heartbeat IPC: 4.015 cumulative IPC: 3.817 (Simulation time: 00 hr 02 min 18 sec)
Heartbeat CPU 0 instructions: 33000240 cycles: 8655538 heartbeat IPC: 3.535 cumulative IPC: 3.813 (Simulation time: 00 hr 02 min 21 sec)
Heartbeat CPU 0 instructions: 33500244 cycles: 8794671 heartbeat IPC: 3.594 cumulative IPC: 3.809 (Simulation time: 00 hr 02 min 23 sec)
Heartbeat CPU 0 instructions: 34000247 cycles: 8895899 heartbeat IPC: 4.939 cumulative IPC: 3.822 (Simulation time: 00 hr 02 min 25 sec)
Heartbeat CPU 0 instructions: 34500248 cycles: 9014718 heartbeat IPC: 4.208 cumulative IPC: 3.827 (Simulation time: 00 hr 02 min 27 sec)
Heartbeat CPU 0 instructions: 35000252 cycles: 9144357 heartbeat IPC: 3.857 cumulative IPC: 3.828 (Simulation time: 00 hr 02 min 29 sec)
Heartbeat CPU 0 instructions: 35500259 cycles: 9296244 heartbeat IPC: 3.292 cumulative IPC: 3.819 (Simulation time: 00 hr 02 min 31 sec)
Heartbeat CPU 0 instructions: 36000260 cycles: 9409090 heartbeat IPC: 4.431 cumulative IPC: 3.826 (Simulation time: 00 hr 02 min 33 sec)
Heartbeat CPU 0 instructions: 36500263 cycles: 9521712 heartbeat IPC: 4.44 cumulative IPC: 3.833 (Simulation time: 00 hr 02 min 35 sec)
Heartbeat CPU 0 instructions: 37000266 cycles: 9629904 heartbeat IPC: 4.621 cumulative IPC: 3.842 (Simulation time: 00 hr 02 min 37 sec)
Heartbeat CPU 0 instructions: 37500268 cycles: 9773757 heartbeat IPC: 3.476 cumulative IPC: 3.837 (Simulation time: 00 hr 02 min 39 sec)
Heartbeat CPU 0 instructions: 38000268 cycles: 9930462 heartbeat IPC: 3.191 cumulative IPC: 3.827 (Simulation time: 00 hr 02 min 42 sec)
Heartbeat CPU 0 instructions: 38500272 cycles: 10073074 heartbeat IPC: 3.506 cumulative IPC: 3.822 (Simulation time: 00 hr 02 min 44 sec)
Heartbeat CPU 0 instructions: 39000272 cycles: 10206635 heartbeat IPC: 3.744 cumulative IPC: 3.821 (Simulation time: 00 hr 02 min 46 sec)
Heartbeat CPU 0 instructions: 39500274 cycles: 10353526 heartbeat IPC: 3.404 cumulative IPC: 3.815 (Simulation time: 00 hr 02 min 49 sec)
Heartbeat CPU 0 instructions: 40000281 cycles: 10495926 heartbeat IPC: 3.511 cumulative IPC: 3.811 (Simulation time: 00 hr 02 min 52 sec)
Heartbeat CPU 0 instructions: 40500286 cycles: 10601384 heartbeat IPC: 4.741 cumulative IPC: 3.82 (Simulation time: 00 hr 02 min 53 sec)
Heartbeat CPU 0 instructions: 41000290 cycles: 10757334 heartbeat IPC: 3.206 cumulative IPC: 3.811 (Simulation time: 00 hr 02 min 56 sec)
Heartbeat CPU 0 instructions: 41500295 cycles: 10902889 heartbeat IPC: 3.435 cumulative IPC: 3.806 (Simulation time: 00 hr 02 min 59 sec)
Heartbeat CPU 0 instructions: 42000297 cycles: 11039426 heartbeat IPC: 3.662 cumulative IPC: 3.805 (Simulation time: 00 hr 03 min 01 sec)
Heartbeat CPU 0 instructions: 42500299 cycles: 11214534 heartbeat IPC: 2.855 cumulative IPC: 3.79 (Simulation time: 00 hr 03 min 04 sec)
Heartbeat CPU 0 instructions: 43000303 cycles: 11356305 heartbeat IPC: 3.527 cumulative IPC: 3.786 (Simulation time: 00 hr 03 min 06 sec)
Heartbeat CPU 0 instructions: 43500303 cycles: 11507363 heartbeat IPC: 3.31 cumulative IPC: 3.78 (Simulation time: 00 hr 03 min 09 sec)
Heartbeat CPU 0 instructions: 44000303 cycles: 11655237 heartbeat IPC: 3.381 cumulative IPC: 3.775 (Simulation time: 00 hr 03 min 11 sec)
Heartbeat CPU 0 instructions: 44500307 cycles: 11796645 heartbeat IPC: 3.536 cumulative IPC: 3.772 (Simulation time: 00 hr 03 min 14 sec)
Heartbeat CPU 0 instructions: 45000314 cycles: 11941495 heartbeat IPC: 3.452 cumulative IPC: 3.768 (Simulation time: 00 hr 03 min 16 sec)
Heartbeat CPU 0 instructions: 45500318 cycles: 12081383 heartbeat IPC: 3.574 cumulative IPC: 3.766 (Simulation time: 00 hr 03 min 19 sec)
Heartbeat CPU 0 instructions: 46000321 cycles: 12199776 heartbeat IPC: 4.223 cumulative IPC: 3.771 (Simulation time: 00 hr 03 min 21 sec)
Heartbeat CPU 0 instructions: 46500323 cycles: 12352025 heartbeat IPC: 3.284 cumulative IPC: 3.765 (Simulation time: 00 hr 03 min 23 sec)
Heartbeat CPU 0 instructions: 47000325 cycles: 12483348 heartbeat IPC: 3.807 cumulative IPC: 3.765 (Simulation time: 00 hr 03 min 25 sec)
Heartbeat CPU 0 instructions: 47500327 cycles: 12596532 heartbeat IPC: 4.418 cumulative IPC: 3.771 (Simulation time: 00 hr 03 min 27 sec)
Heartbeat CPU 0 instructions: 48000332 cycles: 12707068 heartbeat IPC: 4.523 cumulative IPC: 3.777 (Simulation time: 00 hr 03 min 29 sec)
Heartbeat CPU 0 instructions: 48500336 cycles: 12814746 heartbeat IPC: 4.644 cumulative IPC: 3.785 (Simulation time: 00 hr 03 min 31 sec)
Heartbeat CPU 0 instructions: 49000338 cycles: 12932651 heartbeat IPC: 4.241 cumulative IPC: 3.789 (Simulation time: 00 hr 03 min 33 sec)
Heartbeat CPU 0 instructions: 49500343 cycles: 13071427 heartbeat IPC: 3.603 cumulative IPC: 3.787 (Simulation time: 00 hr 03 min 35 sec)
Warmup finished CPU 0 instructions: 50000006 cycles: 13220606 cumulative IPC: 3.782 (Simulation time: 00 hr 03 min 37 sec)
Warmup complete CPU 0 instructions: 50000006 cycles: 13220606 cumulative IPC: 3.782 (Simulation time: 00 hr 03 min 37 sec)
Heartbeat CPU 0 instructions: 50000343 cycles: 13221199 heartbeat IPC: 3.338 cumulative IPC: 0.5683 (Simulation time: 00 hr 03 min 37 sec)
Heartbeat CPU 0 instructions: 50500348 cycles: 13888171 heartbeat IPC: 0.7497 cumulative IPC: 0.7495 (Simulation time: 00 hr 03 min 43 sec)
Heartbeat CPU 0 instructions: 51000349 cycles: 14316670 heartbeat IPC: 1.167 cumulative IPC: 0.9127 (Simulation time: 00 hr 03 min 46 sec)
Heartbeat CPU 0 instructions: 51500355 cycles: 14757929 heartbeat IPC: 1.133 cumulative IPC: 0.9759 (Simulation time: 00 hr 03 min 50 sec)
Heartbeat CPU 0 instructions: 52000355 cycles: 15884296 heartbeat IPC: 0.4439 cumulative IPC: 0.751 (Simulation time: 00 hr 03 min 59 sec)
Heartbeat CPU 0 instructions: 52500358 cycles: 16672393 heartbeat IPC: 0.6344 cumulative IPC: 0.7244 (Simulation time: 00 hr 04 min 05 sec)
Heartbeat CPU 0 instructions: 53000360 cycles: 17284822 heartbeat IPC: 0.8164 cumulative IPC: 0.7382 (Simulation time: 00 hr 04 min 10 sec)
Heartbeat CPU 0 instructions: 53500360 cycles: 17808300 heartbeat IPC: 0.9551 cumulative IPC: 0.763 (Simulation time: 00 hr 04 min 14 sec)
Heartbeat CPU 0 instructions: 54000364 cycles: 18547925 heartbeat IPC: 0.676 cumulative IPC: 0.7509 (Simulation time: 00 hr 04 min 20 sec)
Heartbeat CPU 0 instructions: 54500367 cycles: 19658508 heartbeat IPC: 0.4502 cumulative IPC: 0.699 (Simulation time: 00 hr 04 min 28 sec)
Heartbeat CPU 0 instructions: 55000368 cycles: 20229289 heartbeat IPC: 0.876 cumulative IPC: 0.7135 (Simulation time: 00 hr 04 min 32 sec)
Heartbeat CPU 0 instructions: 55500368 cycles: 20551810 heartbeat IPC: 1.55 cumulative IPC: 0.7503 (Simulation time: 00 hr 04 min 35 sec)
Heartbeat CPU 0 instructions: 56000369 cycles: 21428687 heartbeat IPC: 0.5702 cumulative IPC: 0.731 (Simulation time: 00 hr 04 min 42 sec)
Heartbeat CPU 0 instructions: 56500375 cycles: 22521296 heartbeat IPC: 0.4576 cumulative IPC: 0.6989 (Simulation time: 00 hr 04 min 50 sec)
Heartbeat CPU 0 instructions: 57000376 cycles: 23199372 heartbeat IPC: 0.7374 cumulative IPC: 0.7015 (Simulation time: 00 hr 04 min 55 sec)
Heartbeat CPU 0 instructions: 57500376 cycles: 23637554 heartbeat IPC: 1.141 cumulative IPC: 0.72 (Simulation time: 00 hr 04 min 59 sec)
Heartbeat CPU 0 instructions: 58000376 cycles: 24997717 heartbeat IPC: 0.3676 cumulative IPC: 0.6793 (Simulation time: 00 hr 05 min 08 sec)
Heartbeat CPU 0 instructions: 58500376 cycles: 26148052 heartbeat IPC: 0.4347 cumulative IPC: 0.6575 (Simulation time: 00 hr 05 min 17 sec)
Heartbeat CPU 0 instructions: 59000376 cycles: 26969161 heartbeat IPC: 0.6089 cumulative IPC: 0.6546 (Simulation time: 00 hr 05 min 23 sec)
Heartbeat CPU 0 instructions: 59500376 cycles: 27568736 heartbeat IPC: 0.8339 cumulative IPC: 0.6621 (Simulation time: 00 hr 05 min 28 sec)
Heartbeat CPU 0 instructions: 60000380 cycles: 28113486 heartbeat IPC: 0.9179 cumulative IPC: 0.6715 (Simulation time: 00 hr 05 min 32 sec)
Heartbeat CPU 0 instructions: 60500384 cycles: 28777119 heartbeat IPC: 0.7534 cumulative IPC: 0.675 (Simulation time: 00 hr 05 min 37 sec)
Heartbeat CPU 0 instructions: 61000385 cycles: 30545439 heartbeat IPC: 0.2828 cumulative IPC: 0.6349 (Simulation time: 00 hr 05 min 49 sec)
Heartbeat CPU 0 instructions: 61500387 cycles: 31370460 heartbeat IPC: 0.606 cumulative IPC: 0.6336 (Simulation time: 00 hr 05 min 56 sec)
Heartbeat CPU 0 instructions: 62000390 cycles: 32259863 heartbeat IPC: 0.5622 cumulative IPC: 0.6303 (Simulation time: 00 hr 06 min 02 sec)
Heartbeat CPU 0 instructions: 62500396 cycles: 32961145 heartbeat IPC: 0.713 cumulative IPC: 0.6332 (Simulation time: 00 hr 06 min 08 sec)
Heartbeat CPU 0 instructions: 63000396 cycles: 34278946 heartbeat IPC: 0.3794 cumulative IPC: 0.6174 (Simulation time: 00 hr 06 min 17 sec)
Heartbeat CPU 0 instructions: 63500398 cycles: 35279246 heartbeat IPC: 0.4999 cumulative IPC: 0.612 (Simulation time: 00 hr 06 min 24 sec)
Heartbeat CPU 0 instructions: 64000398 cycles: 35858540 heartbeat IPC: 0.8631 cumulative IPC: 0.6184 (Simulation time: 00 hr 06 min 29 sec)
Heartbeat CPU 0 instructions: 64500401 cycles: 36367307 heartbeat IPC: 0.9828 cumulative IPC: 0.6265 (Simulation time: 00 hr 06 min 33 sec)
Heartbeat CPU 0 instructions: 65000404 cycles: 37352862 heartbeat IPC: 0.5073 cumulative IPC: 0.6216 (Simulation time: 00 hr 06 min 41 sec)
Heartbeat CPU 0 instructions: 65500410 cycles: 38108247 heartbeat IPC: 0.6619 cumulative IPC: 0.6228 (Simulation time: 00 hr 06 min 47 sec)
Heartbeat CPU 0 instructions: 66000412 cycles: 38791293 heartbeat IPC: 0.732 cumulative IPC: 0.6257 (Simulation time: 00 hr 06 min 53 sec)
Heartbeat CPU 0 instructions: 66500415 cycles: 39660197 heartbeat IPC: 0.5754 cumulative IPC: 0.6241 (Simulation time: 00 hr 07 min 01 sec)
Heartbeat CPU 0 instructions: 67000416 cycles: 41579682 heartbeat IPC: 0.2605 cumulative IPC: 0.5995 (Simulation time: 00 hr 07 min 16 sec)
Heartbeat CPU 0 instructions: 67500416 cycles: 42840308 heartbeat IPC: 0.3966 cumulative IPC: 0.5908 (Simulation time: 00 hr 07 min 26 sec)
Heartbeat CPU 0 instructions: 68000422 cycles: 43593131 heartbeat IPC: 0.6642 cumulative IPC: 0.5927 (Simulation time: 00 hr 07 min 33 sec)
Heartbeat CPU 0 instructions: 68500426 cycles: 44196032 heartbeat IPC: 0.8293 cumulative IPC: 0.5973 (Simulation time: 00 hr 07 min 38 sec)
Heartbeat CPU 0 instructions: 69000429 cycles: 44805483 heartbeat IPC: 0.8204 cumulative IPC: 0.6016 (Simulation time: 00 hr 07 min 43 sec)
Heartbeat CPU 0 instructions: 69500431 cycles: 45365809 heartbeat IPC: 0.8923 cumulative IPC: 0.6066 (Simulation time: 00 hr 07 min 49 sec)
Heartbeat CPU 0 instructions: 70000435 cycles: 46499534 heartbeat IPC: 0.441 cumulative IPC: 0.601 (Simulation time: 00 hr 07 min 58 sec)
Heartbeat CPU 0 instructions: 70500436 cycles: 47508899 heartbeat IPC: 0.4954 cumulative IPC: 0.5979 (Simulation time: 00 hr 08 min 06 sec)
Heartbeat CPU 0 instructions: 71000438 cycles: 48820473 heartbeat IPC: 0.3812 cumulative IPC: 0.5899 (Simulation time: 00 hr 08 min 17 sec)
Heartbeat CPU 0 instructions: 71500439 cycles: 50535200 heartbeat IPC: 0.2916 cumulative IPC: 0.5762 (Simulation time: 00 hr 08 min 30 sec)
Heartbeat CPU 0 instructions: 72000439 cycles: 51869127 heartbeat IPC: 0.3748 cumulative IPC: 0.5692 (Simulation time: 00 hr 08 min 41 sec)
Heartbeat CPU 0 instructions: 72500444 cycles: 53079507 heartbeat IPC: 0.4131 cumulative IPC: 0.5645 (Simulation time: 00 hr 08 min 51 sec)
Heartbeat CPU 0 instructions: 73000445 cycles: 53617206 heartbeat IPC: 0.9299 cumulative IPC: 0.5694 (Simulation time: 00 hr 08 min 56 sec)
Heartbeat CPU 0 instructions: 73500447 cycles: 54893375 heartbeat IPC: 0.3918 cumulative IPC: 0.5639 (Simulation time: 00 hr 09 min 07 sec)
Heartbeat CPU 0 instructions: 74000454 cycles: 55962126 heartbeat IPC: 0.4678 cumulative IPC: 0.5615 (Simulation time: 00 hr 09 min 17 sec)
Heartbeat CPU 0 instructions: 74500457 cycles: 56824817 heartbeat IPC: 0.5796 cumulative IPC: 0.5619 (Simulation time: 00 hr 09 min 24 sec)
Heartbeat CPU 0 instructions: 75000458 cycles: 57505489 heartbeat IPC: 0.7346 cumulative IPC: 0.5645 (Simulation time: 00 hr 09 min 30 sec)
Heartbeat CPU 0 instructions: 75500461 cycles: 58000429 heartbeat IPC: 1.01 cumulative IPC: 0.5695 (Simulation time: 00 hr 09 min 34 sec)
Heartbeat CPU 0 instructions: 76000461 cycles: 58376541 heartbeat IPC: 1.329 cumulative IPC: 0.5758 (Simulation time: 00 hr 09 min 38 sec)
Heartbeat CPU 0 instructions: 76500463 cycles: 59384271 heartbeat IPC: 0.4962 cumulative IPC: 0.5741 (Simulation time: 00 hr 09 min 47 sec)
Heartbeat CPU 0 instructions: 77000463 cycles: 60499062 heartbeat IPC: 0.4485 cumulative IPC: 0.5711 (Simulation time: 00 hr 09 min 56 sec)
Heartbeat CPU 0 instructions: 77500466 cycles: 61101397 heartbeat IPC: 0.8301 cumulative IPC: 0.5744 (Simulation time: 00 hr 10 min 01 sec)
Heartbeat CPU 0 instructions: 78000473 cycles: 61575199 heartbeat IPC: 1.055 cumulative IPC: 0.5791 (Simulation time: 00 hr 10 min 05 sec)
Heartbeat CPU 0 instructions: 78500474 cycles: 62150296 heartbeat IPC: 0.8694 cumulative IPC: 0.5825 (Simulation time: 00 hr 10 min 10 sec)
Heartbeat CPU 0 instructions: 79000475 cycles: 62480092 heartbeat IPC: 1.516 cumulative IPC: 0.5887 (Simulation time: 00 hr 10 min 14 sec)
Heartbeat CPU 0 instructions: 79500475 cycles: 62923724 heartbeat IPC: 1.127 cumulative IPC: 0.5935 (Simulation time: 00 hr 10 min 18 sec)
Heartbeat CPU 0 instructions: 80000477 cycles: 63306158 heartbeat IPC: 1.307 cumulative IPC: 0.599 (Simulation time: 00 hr 10 min 23 sec)
Heartbeat CPU 0 instructions: 80500482 cycles: 64448620 heartbeat IPC: 0.4377 cumulative IPC: 0.5954 (Simulation time: 00 hr 10 min 32 sec)
Heartbeat CPU 0 instructions: 81000484 cycles: 65724379 heartbeat IPC: 0.3919 cumulative IPC: 0.5904 (Simulation time: 00 hr 10 min 42 sec)
Heartbeat CPU 0 instructions: 81500486 cycles: 66517964 heartbeat IPC: 0.6301 cumulative IPC: 0.591 (Simulation time: 00 hr 10 min 49 sec)
Heartbeat CPU 0 instructions: 82000493 cycles: 67003868 heartbeat IPC: 1.029 cumulative IPC: 0.595 (Simulation time: 00 hr 10 min 54 sec)
Heartbeat CPU 0 instructions: 82500496 cycles: 67578170 heartbeat IPC: 0.8706 cumulative IPC: 0.5979 (Simulation time: 00 hr 10 min 59 sec)
Heartbeat CPU 0 instructions: 83000501 cycles: 68351096 heartbeat IPC: 0.6469 cumulative IPC: 0.5986 (Simulation time: 00 hr 11 min 06 sec)
Heartbeat CPU 0 instructions: 83500508 cycles: 68985280 heartbeat IPC: 0.7884 cumulative IPC: 0.6007 (Simulation time: 00 hr 11 min 12 sec)
Heartbeat CPU 0 instructions: 84000513 cycles: 69512477 heartbeat IPC: 0.9484 cumulative IPC: 0.604 (Simulation time: 00 hr 11 min 16 sec)
Heartbeat CPU 0 instructions: 84500513 cycles: 70371939 heartbeat IPC: 0.5818 cumulative IPC: 0.6037 (Simulation time: 00 hr 11 min 24 sec)
Heartbeat CPU 0 instructions: 85000516 cycles: 72026459 heartbeat IPC: 0.3022 cumulative IPC: 0.5952 (Simulation time: 00 hr 11 min 37 sec)
Heartbeat CPU 0 instructions: 85500519 cycles: 72936053 heartbeat IPC: 0.5497 cumulative IPC: 0.5945 (Simulation time: 00 hr 11 min 45 sec)
Heartbeat CPU 0 instructions: 86000520 cycles: 73541913 heartbeat IPC: 0.8253 cumulative IPC: 0.5968 (Simulation time: 00 hr 11 min 50 sec)
Heartbeat CPU 0 instructions: 86500520 cycles: 73930778 heartbeat IPC: 1.286 cumulative IPC: 0.6012 (Simulation time: 00 hr 11 min 54 sec)
Heartbeat CPU 0 instructions: 87000520 cycles: 74425890 heartbeat IPC: 1.01 cumulative IPC: 0.6045 (Simulation time: 00 hr 11 min 59 sec)
Heartbeat CPU 0 instructions: 87500520 cycles: 75012824 heartbeat IPC: 0.8519 cumulative IPC: 0.6069 (Simulation time: 00 hr 12 min 04 sec)
Heartbeat CPU 0 instructions: 88000522 cycles: 76369998 heartbeat IPC: 0.3684 cumulative IPC: 0.6018 (Simulation time: 00 hr 12 min 15 sec)
Heartbeat CPU 0 instructions: 88500523 cycles: 77153033 heartbeat IPC: 0.6385 cumulative IPC: 0.6022 (Simulation time: 00 hr 12 min 21 sec)
Heartbeat CPU 0 instructions: 89000525 cycles: 78499976 heartbeat IPC: 0.3712 cumulative IPC: 0.5974 (Simulation time: 00 hr 12 min 32 sec)
Heartbeat CPU 0 instructions: 89500529 cycles: 79393730 heartbeat IPC: 0.5594 cumulative IPC: 0.5969 (Simulation time: 00 hr 12 min 39 sec)
Heartbeat CPU 0 instructions: 90000532 cycles: 80443401 heartbeat IPC: 0.4763 cumulative IPC: 0.595 (Simulation time: 00 hr 12 min 48 sec)
Heartbeat CPU 0 instructions: 90500532 cycles: 81873705 heartbeat IPC: 0.3496 cumulative IPC: 0.5899 (Simulation time: 00 hr 12 min 59 sec)
Heartbeat CPU 0 instructions: 91000536 cycles: 82875081 heartbeat IPC: 0.4993 cumulative IPC: 0.5886 (Simulation time: 00 hr 13 min 07 sec)
Heartbeat CPU 0 instructions: 91500538 cycles: 84105863 heartbeat IPC: 0.4062 cumulative IPC: 0.5855 (Simulation time: 00 hr 13 min 17 sec)
Heartbeat CPU 0 instructions: 92000541 cycles: 85258936 heartbeat IPC: 0.4336 cumulative IPC: 0.583 (Simulation time: 00 hr 13 min 27 sec)
Heartbeat CPU 0 instructions: 92500543 cycles: 86475413 heartbeat IPC: 0.411 cumulative IPC: 0.5802 (Simulation time: 00 hr 13 min 37 sec)
Heartbeat CPU 0 instructions: 93000547 cycles: 87273713 heartbeat IPC: 0.6263 cumulative IPC: 0.5807 (Simulation time: 00 hr 13 min 44 sec)
Heartbeat CPU 0 instructions: 93500547 cycles: 87886089 heartbeat IPC: 0.8165 cumulative IPC: 0.5826 (Simulation time: 00 hr 13 min 49 sec)
Heartbeat CPU 0 instructions: 94000549 cycles: 88600010 heartbeat IPC: 0.7004 cumulative IPC: 0.5837 (Simulation time: 00 hr 13 min 55 sec)
Heartbeat CPU 0 instructions: 94500549 cycles: 89492226 heartbeat IPC: 0.5604 cumulative IPC: 0.5834 (Simulation time: 00 hr 14 min 03 sec)
Heartbeat CPU 0 instructions: 95000549 cycles: 90357488 heartbeat IPC: 0.5779 cumulative IPC: 0.5834 (Simulation time: 00 hr 14 min 10 sec)
Heartbeat CPU 0 instructions: 95500549 cycles: 91107947 heartbeat IPC: 0.6663 cumulative IPC: 0.5842 (Simulation time: 00 hr 14 min 16 sec)
Heartbeat CPU 0 instructions: 96000551 cycles: 92572545 heartbeat IPC: 0.3414 cumulative IPC: 0.5797 (Simulation time: 00 hr 14 min 28 sec)
Heartbeat CPU 0 instructions: 96500551 cycles: 93494737 heartbeat IPC: 0.5422 cumulative IPC: 0.5793 (Simulation time: 00 hr 14 min 36 sec)
Heartbeat CPU 0 instructions: 97000551 cycles: 94051869 heartbeat IPC: 0.8975 cumulative IPC: 0.5815 (Simulation time: 00 hr 14 min 41 sec)
Heartbeat CPU 0 instructions: 97500557 cycles: 94847895 heartbeat IPC: 0.6281 cumulative IPC: 0.5819 (Simulation time: 00 hr 14 min 48 sec)
Heartbeat CPU 0 instructions: 98000557 cycles: 96639399 heartbeat IPC: 0.2791 cumulative IPC: 0.5754 (Simulation time: 00 hr 15 min 02 sec)
Heartbeat CPU 0 instructions: 98500557 cycles: 98004949 heartbeat IPC: 0.3662 cumulative IPC: 0.572 (Simulation time: 00 hr 15 min 13 sec)
Heartbeat CPU 0 instructions: 99000557 cycles: 98950820 heartbeat IPC: 0.5286 cumulative IPC: 0.5716 (Simulation time: 00 hr 15 min 21 sec)
Heartbeat CPU 0 instructions: 99500557 cycles: 99962392 heartbeat IPC: 0.4943 cumulative IPC: 0.5707 (Simulation time: 00 hr 15 min 29 sec)
Heartbeat CPU 0 instructions: 100000560 cycles: 101068316 heartbeat IPC: 0.4521 cumulative IPC: 0.5692 (Simulation time: 00 hr 15 min 38 sec)
Heartbeat CPU 0 instructions: 100500560 cycles: 101794613 heartbeat IPC: 0.6884 cumulative IPC: 0.5702 (Simulation time: 00 hr 15 min 45 sec)
Heartbeat CPU 0 instructions: 101000560 cycles: 102591183 heartbeat IPC: 0.6277 cumulative IPC: 0.5707 (Simulation time: 00 hr 15 min 52 sec)
Heartbeat CPU 0 instructions: 101500560 cycles: 103108805 heartbeat IPC: 0.966 cumulative IPC: 0.5729 (Simulation time: 00 hr 15 min 57 sec)
Heartbeat CPU 0 instructions: 102000560 cycles: 103484294 heartbeat IPC: 1.332 cumulative IPC: 0.5761 (Simulation time: 00 hr 16 min 01 sec)
Heartbeat CPU 0 instructions: 102500561 cycles: 103960515 heartbeat IPC: 1.05 cumulative IPC: 0.5786 (Simulation time: 00 hr 16 min 06 sec)
Heartbeat CPU 0 instructions: 103000562 cycles: 104409768 heartbeat IPC: 1.113 cumulative IPC: 0.5812 (Simulation time: 00 hr 16 min 10 sec)
Heartbeat CPU 0 instructions: 103500564 cycles: 104701423 heartbeat IPC: 1.714 cumulative IPC: 0.5848 (Simulation time: 00 hr 16 min 13 sec)
Heartbeat CPU 0 instructions: 104000564 cycles: 105211497 heartbeat IPC: 0.9802 cumulative IPC: 0.587 (Simulation time: 00 hr 16 min 18 sec)
Heartbeat CPU 0 instructions: 104500568 cycles: 106518923 heartbeat IPC: 0.3824 cumulative IPC: 0.5842 (Simulation time: 00 hr 16 min 29 sec)
Heartbeat CPU 0 instructions: 105000568 cycles: 107286594 heartbeat IPC: 0.6513 cumulative IPC: 0.5847 (Simulation time: 00 hr 16 min 36 sec)
Heartbeat CPU 0 instructions: 105500568 cycles: 107910708 heartbeat IPC: 0.8011 cumulative IPC: 0.5861 (Simulation time: 00 hr 16 min 41 sec)
Heartbeat CPU 0 instructions: 106000573 cycles: 108546374 heartbeat IPC: 0.7866 cumulative IPC: 0.5875 (Simulation time: 00 hr 16 min 47 sec)
Heartbeat CPU 0 instructions: 106500580 cycles: 109162638 heartbeat IPC: 0.8114 cumulative IPC: 0.5889 (Simulation time: 00 hr 16 min 53 sec)
Heartbeat CPU 0 instructions: 107000586 cycles: 110644745 heartbeat IPC: 0.3374 cumulative IPC: 0.5851 (Simulation time: 00 hr 17 min 05 sec)
Heartbeat CPU 0 instructions: 107500588 cycles: 111532146 heartbeat IPC: 0.5634 cumulative IPC: 0.5849 (Simulation time: 00 hr 17 min 12 sec)
Heartbeat CPU 0 instructions: 108000588 cycles: 113104423 heartbeat IPC: 0.318 cumulative IPC: 0.5807 (Simulation time: 00 hr 17 min 25 sec)
Heartbeat CPU 0 instructions: 108500593 cycles: 113957843 heartbeat IPC: 0.5859 cumulative IPC: 0.5807 (Simulation time: 00 hr 17 min 32 sec)
Heartbeat CPU 0 instructions: 109000593 cycles: 114434619 heartbeat IPC: 1.049 cumulative IPC: 0.5829 (Simulation time: 00 hr 17 min 36 sec)
Heartbeat CPU 0 instructions: 109500598 cycles: 115322843 heartbeat IPC: 0.5629 cumulative IPC: 0.5828 (Simulation time: 00 hr 17 min 44 sec)
Heartbeat CPU 0 instructions: 110000600 cycles: 116681901 heartbeat IPC: 0.3679 cumulative IPC: 0.5799 (Simulation time: 00 hr 17 min 55 sec)
Heartbeat CPU 0 instructions: 110500600 cycles: 118211032 heartbeat IPC: 0.327 cumulative IPC: 0.5762 (Simulation time: 00 hr 18 min 07 sec)
Heartbeat CPU 0 instructions: 111000600 cycles: 119394049 heartbeat IPC: 0.4226 cumulative IPC: 0.5745 (Simulation time: 00 hr 18 min 17 sec)
Heartbeat CPU 0 instructions: 111500601 cycles: 120544330 heartbeat IPC: 0.4347 cumulative IPC: 0.573 (Simulation time: 00 hr 18 min 26 sec)
Heartbeat CPU 0 instructions: 112000603 cycles: 121359754 heartbeat IPC: 0.6132 cumulative IPC: 0.5733 (Simulation time: 00 hr 18 min 33 sec)
Heartbeat CPU 0 instructions: 112500603 cycles: 122289761 heartbeat IPC: 0.5376 cumulative IPC: 0.573 (Simulation time: 00 hr 18 min 41 sec)
Heartbeat CPU 0 instructions: 113000606 cycles: 124021816 heartbeat IPC: 0.2887 cumulative IPC: 0.5686 (Simulation time: 00 hr 18 min 54 sec)
Heartbeat CPU 0 instructions: 113500607 cycles: 124739726 heartbeat IPC: 0.6965 cumulative IPC: 0.5694 (Simulation time: 00 hr 19 min 01 sec)
Heartbeat CPU 0 instructions: 114000609 cycles: 125162640 heartbeat IPC: 1.182 cumulative IPC: 0.5717 (Simulation time: 00 hr 19 min 05 sec)
Heartbeat CPU 0 instructions: 114500609 cycles: 125600030 heartbeat IPC: 1.143 cumulative IPC: 0.574 (Simulation time: 00 hr 19 min 09 sec)
Heartbeat CPU 0 instructions: 115000609 cycles: 126267367 heartbeat IPC: 0.7492 cumulative IPC: 0.575 (Simulation time: 00 hr 19 min 15 sec)
Heartbeat CPU 0 instructions: 115500614 cycles: 126680268 heartbeat IPC: 1.211 cumulative IPC: 0.5773 (Simulation time: 00 hr 19 min 19 sec)
Heartbeat CPU 0 instructions: 116000614 cycles: 127056787 heartbeat IPC: 1.328 cumulative IPC: 0.5798 (Simulation time: 00 hr 19 min 22 sec)
Heartbeat CPU 0 instructions: 116500616 cycles: 127357822 heartbeat IPC: 1.661 cumulative IPC: 0.5826 (Simulation time: 00 hr 19 min 26 sec)
Heartbeat CPU 0 instructions: 117000621 cycles: 127646220 heartbeat IPC: 1.734 cumulative IPC: 0.5855 (Simulation time: 00 hr 19 min 29 sec)
Heartbeat CPU 0 instructions: 117500625 cycles: 128172933 heartbeat IPC: 0.9493 cumulative IPC: 0.5872 (Simulation time: 00 hr 19 min 33 sec)
Heartbeat CPU 0 instructions: 118000626 cycles: 129539303 heartbeat IPC: 0.3659 cumulative IPC: 0.5846 (Simulation time: 00 hr 19 min 44 sec)
Heartbeat CPU 0 instructions: 118500632 cycles: 130282194 heartbeat IPC: 0.6731 cumulative IPC: 0.5852 (Simulation time: 00 hr 19 min 51 sec)
Heartbeat CPU 0 instructions: 119000636 cycles: 131188904 heartbeat IPC: 0.5514 cumulative IPC: 0.5849 (Simulation time: 00 hr 19 min 58 sec)
Heartbeat CPU 0 instructions: 119500636 cycles: 132443025 heartbeat IPC: 0.3987 cumulative IPC: 0.5829 (Simulation time: 00 hr 20 min 09 sec)
Heartbeat CPU 0 instructions: 120000643 cycles: 133422249 heartbeat IPC: 0.5106 cumulative IPC: 0.5824 (Simulation time: 00 hr 20 min 17 sec)
Heartbeat CPU 0 instructions: 120500650 cycles: 134259356 heartbeat IPC: 0.5973 cumulative IPC: 0.5825 (Simulation time: 00 hr 20 min 24 sec)
Heartbeat CPU 0 instructions: 121000650 cycles: 134818525 heartbeat IPC: 0.8942 cumulative IPC: 0.5839 (Simulation time: 00 hr 20 min 29 sec)
Heartbeat CPU 0 instructions: 121500651 cycles: 135575568 heartbeat IPC: 0.6605 cumulative IPC: 0.5844 (Simulation time: 00 hr 20 min 36 sec)
Heartbeat CPU 0 instructions: 122000652 cycles: 136898432 heartbeat IPC: 0.378 cumulative IPC: 0.5822 (Simulation time: 00 hr 20 min 46 sec)
Heartbeat CPU 0 instructions: 122500653 cycles: 137679526 heartbeat IPC: 0.6401 cumulative IPC: 0.5825 (Simulation time: 00 hr 20 min 53 sec)
Heartbeat CPU 0 instructions: 123000654 cycles: 138226434 heartbeat IPC: 0.9142 cumulative IPC: 0.584 (Simulation time: 00 hr 20 min 58 sec)
Heartbeat CPU 0 instructions: 123500654 cycles: 138672412 heartbeat IPC: 1.121 cumulative IPC: 0.5859 (Simulation time: 00 hr 21 min 02 sec)
Heartbeat CPU 0 instructions: 124000655 cycles: 139576299 heartbeat IPC: 0.5532 cumulative IPC: 0.5857 (Simulation time: 00 hr 21 min 10 sec)
Heartbeat CPU 0 instructions: 124500662 cycles: 141006116 heartbeat IPC: 0.3497 cumulative IPC: 0.583 (Simulation time: 00 hr 21 min 21 sec)
Heartbeat CPU 0 instructions: 125000665 cycles: 141665112 heartbeat IPC: 0.7587 cumulative IPC: 0.5839 (Simulation time: 00 hr 21 min 27 sec)
Heartbeat CPU 0 instructions: 125500669 cycles: 142152524 heartbeat IPC: 1.026 cumulative IPC: 0.5856 (Simulation time: 00 hr 21 min 32 sec)
Heartbeat CPU 0 instructions: 126000671 cycles: 142783398 heartbeat IPC: 0.7926 cumulative IPC: 0.5866 (Simulation time: 00 hr 21 min 37 sec)
Heartbeat CPU 0 instructions: 126500671 cycles: 144224537 heartbeat IPC: 0.3469 cumulative IPC: 0.584 (Simulation time: 00 hr 21 min 49 sec)
Heartbeat CPU 0 instructions: 127000678 cycles: 145238279 heartbeat IPC: 0.4932 cumulative IPC: 0.5833 (Simulation time: 00 hr 21 min 57 sec)
Heartbeat CPU 0 instructions: 127500679 cycles: 145891379 heartbeat IPC: 0.7656 cumulative IPC: 0.5842 (Simulation time: 00 hr 22 min 03 sec)
Heartbeat CPU 0 instructions: 128000679 cycles: 146437990 heartbeat IPC: 0.9147 cumulative IPC: 0.5855 (Simulation time: 00 hr 22 min 08 sec)
Heartbeat CPU 0 instructions: 128500679 cycles: 147955978 heartbeat IPC: 0.3294 cumulative IPC: 0.5826 (Simulation time: 00 hr 22 min 20 sec)
Heartbeat CPU 0 instructions: 129000679 cycles: 149183241 heartbeat IPC: 0.4074 cumulative IPC: 0.581 (Simulation time: 00 hr 22 min 30 sec)
Heartbeat CPU 0 instructions: 129500684 cycles: 150262682 heartbeat IPC: 0.4632 cumulative IPC: 0.5801 (Simulation time: 00 hr 22 min 38 sec)
Heartbeat CPU 0 instructions: 130000687 cycles: 151345324 heartbeat IPC: 0.4618 cumulative IPC: 0.5792 (Simulation time: 00 hr 22 min 47 sec)
Heartbeat CPU 0 instructions: 130500690 cycles: 151974398 heartbeat IPC: 0.7948 cumulative IPC: 0.5802 (Simulation time: 00 hr 22 min 53 sec)
Heartbeat CPU 0 instructions: 131000693 cycles: 152765106 heartbeat IPC: 0.6323 cumulative IPC: 0.5805 (Simulation time: 00 hr 23 min 00 sec)
Heartbeat CPU 0 instructions: 131500696 cycles: 153251769 heartbeat IPC: 1.027 cumulative IPC: 0.582 (Simulation time: 00 hr 23 min 05 sec)
Heartbeat CPU 0 instructions: 132000698 cycles: 153607498 heartbeat IPC: 1.406 cumulative IPC: 0.5841 (Simulation time: 00 hr 23 min 09 sec)
Heartbeat CPU 0 instructions: 132500705 cycles: 154196747 heartbeat IPC: 0.8485 cumulative IPC: 0.5852 (Simulation time: 00 hr 23 min 14 sec)
Heartbeat CPU 0 instructions: 133000706 cycles: 154566126 heartbeat IPC: 1.354 cumulative IPC: 0.5872 (Simulation time: 00 hr 23 min 18 sec)
Heartbeat CPU 0 instructions: 133500709 cycles: 154857597 heartbeat IPC: 1.715 cumulative IPC: 0.5895 (Simulation time: 00 hr 23 min 21 sec)
Heartbeat CPU 0 instructions: 134000714 cycles: 155064947 heartbeat IPC: 2.411 cumulative IPC: 0.5922 (Simulation time: 00 hr 23 min 23 sec)
Heartbeat CPU 0 instructions: 134500714 cycles: 155367978 heartbeat IPC: 1.65 cumulative IPC: 0.5945 (Simulation time: 00 hr 23 min 27 sec)
Heartbeat CPU 0 instructions: 135000719 cycles: 156258035 heartbeat IPC: 0.5618 cumulative IPC: 0.5943 (Simulation time: 00 hr 23 min 35 sec)
Heartbeat CPU 0 instructions: 135500724 cycles: 157155289 heartbeat IPC: 0.5573 cumulative IPC: 0.594 (Simulation time: 00 hr 23 min 42 sec)
Heartbeat CPU 0 instructions: 136000725 cycles: 157826203 heartbeat IPC: 0.7453 cumulative IPC: 0.5947 (Simulation time: 00 hr 23 min 48 sec)
Heartbeat CPU 0 instructions: 136500727 cycles: 158285056 heartbeat IPC: 1.09 cumulative IPC: 0.5963 (Simulation time: 00 hr 23 min 52 sec)
Heartbeat CPU 0 instructions: 137000727 cycles: 158548478 heartbeat IPC: 1.898 cumulative IPC: 0.5987 (Simulation time: 00 hr 23 min 56 sec)
Heartbeat CPU 0 instructions: 137500733 cycles: 158761037 heartbeat IPC: 2.352 cumulative IPC: 0.6012 (Simulation time: 00 hr 23 min 58 sec)
Heartbeat CPU 0 instructions: 138000733 cycles: 159201411 heartbeat IPC: 1.135 cumulative IPC: 0.6028 (Simulation time: 00 hr 24 min 03 sec)
Heartbeat CPU 0 instructions: 138500733 cycles: 160015826 heartbeat IPC: 0.6139 cumulative IPC: 0.6029 (Simulation time: 00 hr 24 min 10 sec)
Heartbeat CPU 0 instructions: 139000737 cycles: 161586236 heartbeat IPC: 0.3184 cumulative IPC: 0.5999 (Simulation time: 00 hr 24 min 23 sec)
Heartbeat CPU 0 instructions: 139500739 cycles: 162040941 heartbeat IPC: 1.1 cumulative IPC: 0.6014 (Simulation time: 00 hr 24 min 28 sec)
Heartbeat CPU 0 instructions: 140000740 cycles: 162519054 heartbeat IPC: 1.046 cumulative IPC: 0.6028 (Simulation time: 00 hr 24 min 33 sec)
Heartbeat CPU 0 instructions: 140500742 cycles: 162959379 heartbeat IPC: 1.136 cumulative IPC: 0.6044 (Simulation time: 00 hr 24 min 37 sec)
Heartbeat CPU 0 instructions: 141000747 cycles: 164719687 heartbeat IPC: 0.284 cumulative IPC: 0.6007 (Simulation time: 00 hr 24 min 52 sec)
Heartbeat CPU 0 instructions: 141500749 cycles: 165678434 heartbeat IPC: 0.5215 cumulative IPC: 0.6002 (Simulation time: 00 hr 24 min 59 sec)
Heartbeat CPU 0 instructions: 142000749 cycles: 166289011 heartbeat IPC: 0.8189 cumulative IPC: 0.601 (Simulation time: 00 hr 25 min 05 sec)
Heartbeat CPU 0 instructions: 142500749 cycles: 167307947 heartbeat IPC: 0.4907 cumulative IPC: 0.6003 (Simulation time: 00 hr 25 min 13 sec)
Heartbeat CPU 0 instructions: 143000749 cycles: 168380841 heartbeat IPC: 0.466 cumulative IPC: 0.5994 (Simulation time: 00 hr 25 min 22 sec)
Heartbeat CPU 0 instructions: 143500749 cycles: 168929772 heartbeat IPC: 0.9109 cumulative IPC: 0.6005 (Simulation time: 00 hr 25 min 27 sec)
Heartbeat CPU 0 instructions: 144000751 cycles: 169302178 heartbeat IPC: 1.343 cumulative IPC: 0.6023 (Simulation time: 00 hr 25 min 30 sec)
Heartbeat CPU 0 instructions: 144500753 cycles: 169638298 heartbeat IPC: 1.488 cumulative IPC: 0.6042 (Simulation time: 00 hr 25 min 33 sec)
Heartbeat CPU 0 instructions: 145000758 cycles: 169989986 heartbeat IPC: 1.422 cumulative IPC: 0.606 (Simulation time: 00 hr 25 min 37 sec)
Heartbeat CPU 0 instructions: 145500759 cycles: 170277138 heartbeat IPC: 1.741 cumulative IPC: 0.6081 (Simulation time: 00 hr 25 min 40 sec)
Heartbeat CPU 0 instructions: 146000760 cycles: 170648339 heartbeat IPC: 1.347 cumulative IPC: 0.6098 (Simulation time: 00 hr 25 min 44 sec)
Heartbeat CPU 0 instructions: 146500760 cycles: 170874831 heartbeat IPC: 2.208 cumulative IPC: 0.6121 (Simulation time: 00 hr 25 min 47 sec)
Heartbeat CPU 0 instructions: 147000760 cycles: 171275093 heartbeat IPC: 1.249 cumulative IPC: 0.6137 (Simulation time: 00 hr 25 min 51 sec)
Heartbeat CPU 0 instructions: 147500761 cycles: 172362666 heartbeat IPC: 0.4597 cumulative IPC: 0.6127 (Simulation time: 00 hr 26 min 00 sec)
Heartbeat CPU 0 instructions: 148000764 cycles: 174128045 heartbeat IPC: 0.2832 cumulative IPC: 0.6091 (Simulation time: 00 hr 26 min 13 sec)
Heartbeat CPU 0 instructions: 148500766 cycles: 175831193 heartbeat IPC: 0.2936 cumulative IPC: 0.6057 (Simulation time: 00 hr 26 min 27 sec)
Heartbeat CPU 0 instructions: 149000767 cycles: 177390249 heartbeat IPC: 0.3207 cumulative IPC: 0.603 (Simulation time: 00 hr 26 min 40 sec)
Heartbeat CPU 0 instructions: 149500769 cycles: 178912669 heartbeat IPC: 0.3284 cumulative IPC: 0.6005 (Simulation time: 00 hr 26 min 52 sec)
Heartbeat CPU 0 instructions: 150000769 cycles: 179814423 heartbeat IPC: 0.5545 cumulative IPC: 0.6003 (Simulation time: 00 hr 26 min 59 sec)
Heartbeat CPU 0 instructions: 150500769 cycles: 180524305 heartbeat IPC: 0.7043 cumulative IPC: 0.6007 (Simulation time: 00 hr 27 min 05 sec)
Heartbeat CPU 0 instructions: 151000775 cycles: 181119153 heartbeat IPC: 0.8406 cumulative IPC: 0.6016 (Simulation time: 00 hr 27 min 11 sec)
Heartbeat CPU 0 instructions: 151500779 cycles: 181914064 heartbeat IPC: 0.629 cumulative IPC: 0.6017 (Simulation time: 00 hr 27 min 17 sec)
Heartbeat CPU 0 instructions: 152000784 cycles: 183248313 heartbeat IPC: 0.3747 cumulative IPC: 0.5999 (Simulation time: 00 hr 27 min 28 sec)
Heartbeat CPU 0 instructions: 152500784 cycles: 184045321 heartbeat IPC: 0.6273 cumulative IPC: 0.6 (Simulation time: 00 hr 27 min 35 sec)
Heartbeat CPU 0 instructions: 153000784 cycles: 185169741 heartbeat IPC: 0.4447 cumulative IPC: 0.599 (Simulation time: 00 hr 27 min 44 sec)
Heartbeat CPU 0 instructions: 153500791 cycles: 185919186 heartbeat IPC: 0.6672 cumulative IPC: 0.5993 (Simulation time: 00 hr 27 min 51 sec)
Heartbeat CPU 0 instructions: 154000792 cycles: 186799290 heartbeat IPC: 0.5681 cumulative IPC: 0.5992 (Simulation time: 00 hr 27 min 58 sec)
Heartbeat CPU 0 instructions: 154500795 cycles: 187783100 heartbeat IPC: 0.5082 cumulative IPC: 0.5986 (Simulation time: 00 hr 28 min 06 sec)
Heartbeat CPU 0 instructions: 155000800 cycles: 188499349 heartbeat IPC: 0.6981 cumulative IPC: 0.5991 (Simulation time: 00 hr 28 min 12 sec)
Heartbeat CPU 0 instructions: 155500801 cycles: 189148043 heartbeat IPC: 0.7708 cumulative IPC: 0.5997 (Simulation time: 00 hr 28 min 18 sec)
Heartbeat CPU 0 instructions: 156000801 cycles: 189607465 heartbeat IPC: 1.088 cumulative IPC: 0.601 (Simulation time: 00 hr 28 min 23 sec)
Heartbeat CPU 0 instructions: 156500801 cycles: 190869475 heartbeat IPC: 0.3962 cumulative IPC: 0.5995 (Simulation time: 00 hr 28 min 33 sec)
Heartbeat CPU 0 instructions: 157000801 cycles: 191684908 heartbeat IPC: 0.6132 cumulative IPC: 0.5996 (Simulation time: 00 hr 28 min 40 sec)
Heartbeat CPU 0 instructions: 157500801 cycles: 192229641 heartbeat IPC: 0.9179 cumulative IPC: 0.6005 (Simulation time: 00 hr 28 min 45 sec)
Heartbeat CPU 0 instructions: 158000801 cycles: 192944179 heartbeat IPC: 0.6998 cumulative IPC: 0.6009 (Simulation time: 00 hr 28 min 51 sec)
Heartbeat CPU 0 instructions: 158500802 cycles: 194242290 heartbeat IPC: 0.3852 cumulative IPC: 0.5994 (Simulation time: 00 hr 29 min 02 sec)
Heartbeat CPU 0 instructions: 159000804 cycles: 194984600 heartbeat IPC: 0.6736 cumulative IPC: 0.5997 (Simulation time: 00 hr 29 min 08 sec)
Heartbeat CPU 0 instructions: 159500805 cycles: 195521163 heartbeat IPC: 0.9319 cumulative IPC: 0.6007 (Simulation time: 00 hr 29 min 13 sec)
Heartbeat CPU 0 instructions: 160000805 cycles: 196484409 heartbeat IPC: 0.5191 cumulative IPC: 0.6002 (Simulation time: 00 hr 29 min 21 sec)
Heartbeat CPU 0 instructions: 160500810 cycles: 197483206 heartbeat IPC: 0.5006 cumulative IPC: 0.5997 (Simulation time: 00 hr 29 min 30 sec)
Heartbeat CPU 0 instructions: 161000811 cycles: 198021170 heartbeat IPC: 0.9294 cumulative IPC: 0.6007 (Simulation time: 00 hr 29 min 35 sec)
Heartbeat CPU 0 instructions: 161500814 cycles: 199401436 heartbeat IPC: 0.3623 cumulative IPC: 0.5989 (Simulation time: 00 hr 29 min 45 sec)
Heartbeat CPU 0 instructions: 162000814 cycles: 200407652 heartbeat IPC: 0.4969 cumulative IPC: 0.5983 (Simulation time: 00 hr 29 min 54 sec)
Heartbeat CPU 0 instructions: 162500821 cycles: 201078941 heartbeat IPC: 0.7448 cumulative IPC: 0.5989 (Simulation time: 00 hr 30 min 00 sec)
Heartbeat CPU 0 instructions: 163000823 cycles: 201699236 heartbeat IPC: 0.8061 cumulative IPC: 0.5995 (Simulation time: 00 hr 30 min 05 sec)
Heartbeat CPU 0 instructions: 163500824 cycles: 203366407 heartbeat IPC: 0.2999 cumulative IPC: 0.5969 (Simulation time: 00 hr 30 min 19 sec)
Heartbeat CPU 0 instructions: 164000827 cycles: 204416687 heartbeat IPC: 0.4761 cumulative IPC: 0.5963 (Simulation time: 00 hr 30 min 27 sec)
Heartbeat CPU 0 instructions: 164500829 cycles: 205132924 heartbeat IPC: 0.6981 cumulative IPC: 0.5966 (Simulation time: 00 hr 30 min 33 sec)
Heartbeat CPU 0 instructions: 165000836 cycles: 205734145 heartbeat IPC: 0.8317 cumulative IPC: 0.5974 (Simulation time: 00 hr 30 min 39 sec)
Heartbeat CPU 0 instructions: 165500836 cycles: 207198486 heartbeat IPC: 0.3415 cumulative IPC: 0.5954 (Simulation time: 00 hr 30 min 50 sec)
Heartbeat CPU 0 instructions: 166000838 cycles: 208061526 heartbeat IPC: 0.5793 cumulative IPC: 0.5954 (Simulation time: 00 hr 30 min 58 sec)
Heartbeat CPU 0 instructions: 166500840 cycles: 208638757 heartbeat IPC: 0.8662 cumulative IPC: 0.5962 (Simulation time: 00 hr 31 min 03 sec)
Heartbeat CPU 0 instructions: 167000847 cycles: 210126380 heartbeat IPC: 0.3361 cumulative IPC: 0.5942 (Simulation time: 00 hr 31 min 15 sec)
Heartbeat CPU 0 instructions: 167500847 cycles: 211183340 heartbeat IPC: 0.4731 cumulative IPC: 0.5936 (Simulation time: 00 hr 31 min 23 sec)
Heartbeat CPU 0 instructions: 168000847 cycles: 212434761 heartbeat IPC: 0.3995 cumulative IPC: 0.5923 (Simulation time: 00 hr 31 min 33 sec)
Heartbeat CPU 0 instructions: 168500850 cycles: 213345105 heartbeat IPC: 0.5492 cumulative IPC: 0.5921 (Simulation time: 00 hr 31 min 41 sec)
Heartbeat CPU 0 instructions: 169000851 cycles: 213715990 heartbeat IPC: 1.348 cumulative IPC: 0.5935 (Simulation time: 00 hr 31 min 45 sec)
Heartbeat CPU 0 instructions: 169500856 cycles: 214361811 heartbeat IPC: 0.7742 cumulative IPC: 0.5941 (Simulation time: 00 hr 31 min 50 sec)
Heartbeat CPU 0 instructions: 170000859 cycles: 215639948 heartbeat IPC: 0.3912 cumulative IPC: 0.5928 (Simulation time: 00 hr 32 min 01 sec)
Heartbeat CPU 0 instructions: 170500859 cycles: 216534041 heartbeat IPC: 0.5592 cumulative IPC: 0.5927 (Simulation time: 00 hr 32 min 08 sec)
Heartbeat CPU 0 instructions: 171000860 cycles: 217555495 heartbeat IPC: 0.4895 cumulative IPC: 0.5922 (Simulation time: 00 hr 32 min 17 sec)
Heartbeat CPU 0 instructions: 171500866 cycles: 218348692 heartbeat IPC: 0.6304 cumulative IPC: 0.5923 (Simulation time: 00 hr 32 min 24 sec)
Heartbeat CPU 0 instructions: 172000871 cycles: 219230887 heartbeat IPC: 0.5668 cumulative IPC: 0.5922 (Simulation time: 00 hr 32 min 31 sec)
Heartbeat CPU 0 instructions: 172500878 cycles: 219971067 heartbeat IPC: 0.6755 cumulative IPC: 0.5925 (Simulation time: 00 hr 32 min 38 sec)
Heartbeat CPU 0 instructions: 173000878 cycles: 220377578 heartbeat IPC: 1.23 cumulative IPC: 0.5938 (Simulation time: 00 hr 32 min 42 sec)
Heartbeat CPU 0 instructions: 173500882 cycles: 221425422 heartbeat IPC: 0.4772 cumulative IPC: 0.5932 (Simulation time: 00 hr 32 min 50 sec)
Heartbeat CPU 0 instructions: 174000882 cycles: 222883205 heartbeat IPC: 0.343 cumulative IPC: 0.5914 (Simulation time: 00 hr 33 min 02 sec)
Heartbeat CPU 0 instructions: 174500886 cycles: 223626333 heartbeat IPC: 0.6728 cumulative IPC: 0.5917 (Simulation time: 00 hr 33 min 09 sec)
Heartbeat CPU 0 instructions: 175000888 cycles: 224413167 heartbeat IPC: 0.6355 cumulative IPC: 0.5919 (Simulation time: 00 hr 33 min 15 sec)
Heartbeat CPU 0 instructions: 175500888 cycles: 225783928 heartbeat IPC: 0.3648 cumulative IPC: 0.5904 (Simulation time: 00 hr 33 min 26 sec)
Heartbeat CPU 0 instructions: 176000891 cycles: 226234434 heartbeat IPC: 1.11 cumulative IPC: 0.5915 (Simulation time: 00 hr 33 min 31 sec)
Heartbeat CPU 0 instructions: 176500891 cycles: 226868368 heartbeat IPC: 0.7887 cumulative IPC: 0.5921 (Simulation time: 00 hr 33 min 36 sec)
Heartbeat CPU 0 instructions: 177000891 cycles: 228197224 heartbeat IPC: 0.3763 cumulative IPC: 0.5908 (Simulation time: 00 hr 33 min 47 sec)
Heartbeat CPU 0 instructions: 177500891 cycles: 228730005 heartbeat IPC: 0.9385 cumulative IPC: 0.5916 (Simulation time: 00 hr 33 min 52 sec)
Heartbeat CPU 0 instructions: 178000892 cycles: 230071952 heartbeat IPC: 0.3726 cumulative IPC: 0.5903 (Simulation time: 00 hr 34 min 03 sec)
Heartbeat CPU 0 instructions: 178500895 cycles: 231036976 heartbeat IPC: 0.5181 cumulative IPC: 0.59 (Simulation time: 00 hr 34 min 11 sec)
Heartbeat CPU 0 instructions: 179000895 cycles: 231478737 heartbeat IPC: 1.132 cumulative IPC: 0.591 (Simulation time: 00 hr 34 min 15 sec)
Heartbeat CPU 0 instructions: 179500897 cycles: 231915713 heartbeat IPC: 1.144 cumulative IPC: 0.5922 (Simulation time: 00 hr 34 min 19 sec)
Heartbeat CPU 0 instructions: 180000898 cycles: 233069041 heartbeat IPC: 0.4335 cumulative IPC: 0.5913 (Simulation time: 00 hr 34 min 29 sec)
Heartbeat CPU 0 instructions: 180500901 cycles: 234025409 heartbeat IPC: 0.5228 cumulative IPC: 0.591 (Simulation time: 00 hr 34 min 37 sec)
Heartbeat CPU 0 instructions: 181000901 cycles: 234767819 heartbeat IPC: 0.6735 cumulative IPC: 0.5913 (Simulation time: 00 hr 34 min 43 sec)
Heartbeat CPU 0 instructions: 181500903 cycles: 235467155 heartbeat IPC: 0.715 cumulative IPC: 0.5917 (Simulation time: 00 hr 34 min 49 sec)
Heartbeat CPU 0 instructions: 182000903 cycles: 236672341 heartbeat IPC: 0.4149 cumulative IPC: 0.5907 (Simulation time: 00 hr 34 min 59 sec)
Heartbeat CPU 0 instructions: 182500905 cycles: 237277930 heartbeat IPC: 0.8256 cumulative IPC: 0.5914 (Simulation time: 00 hr 35 min 04 sec)
Heartbeat CPU 0 instructions: 183000905 cycles: 237614438 heartbeat IPC: 1.486 cumulative IPC: 0.5927 (Simulation time: 00 hr 35 min 07 sec)
Heartbeat CPU 0 instructions: 183500908 cycles: 237977886 heartbeat IPC: 1.376 cumulative IPC: 0.594 (Simulation time: 00 hr 35 min 11 sec)
Heartbeat CPU 0 instructions: 184000914 cycles: 238887734 heartbeat IPC: 0.5495 cumulative IPC: 0.5938 (Simulation time: 00 hr 35 min 19 sec)
Heartbeat CPU 0 instructions: 184500921 cycles: 240006292 heartbeat IPC: 0.447 cumulative IPC: 0.5931 (Simulation time: 00 hr 35 min 28 sec)
Heartbeat CPU 0 instructions: 185000922 cycles: 240633681 heartbeat IPC: 0.797 cumulative IPC: 0.5936 (Simulation time: 00 hr 35 min 33 sec)
Heartbeat CPU 0 instructions: 185500922 cycles: 241050482 heartbeat IPC: 1.2 cumulative IPC: 0.5947 (Simulation time: 00 hr 35 min 38 sec)
Heartbeat CPU 0 instructions: 186000924 cycles: 242379266 heartbeat IPC: 0.3763 cumulative IPC: 0.5935 (Simulation time: 00 hr 35 min 48 sec)
Heartbeat CPU 0 instructions: 186500926 cycles: 243392898 heartbeat IPC: 0.4933 cumulative IPC: 0.593 (Simulation time: 00 hr 35 min 57 sec)
Heartbeat CPU 0 instructions: 187000928 cycles: 244319452 heartbeat IPC: 0.5396 cumulative IPC: 0.5928 (Simulation time: 00 hr 36 min 04 sec)
Heartbeat CPU 0 instructions: 187500929 cycles: 245734234 heartbeat IPC: 0.3534 cumulative IPC: 0.5914 (Simulation time: 00 hr 36 min 15 sec)
Heartbeat CPU 0 instructions: 188000936 cycles: 246721134 heartbeat IPC: 0.5066 cumulative IPC: 0.591 (Simulation time: 00 hr 36 min 23 sec)
Heartbeat CPU 0 instructions: 188500942 cycles: 247397388 heartbeat IPC: 0.7394 cumulative IPC: 0.5914 (Simulation time: 00 hr 36 min 29 sec)
Heartbeat CPU 0 instructions: 189000942 cycles: 247926183 heartbeat IPC: 0.9455 cumulative IPC: 0.5922 (Simulation time: 00 hr 36 min 33 sec)
Heartbeat CPU 0 instructions: 189500944 cycles: 248536384 heartbeat IPC: 0.8194 cumulative IPC: 0.5928 (Simulation time: 00 hr 36 min 38 sec)
Heartbeat CPU 0 instructions: 190000946 cycles: 248876124 heartbeat IPC: 1.472 cumulative IPC: 0.5941 (Simulation time: 00 hr 36 min 42 sec)
Heartbeat CPU 0 instructions: 190500953 cycles: 249178995 heartbeat IPC: 1.651 cumulative IPC: 0.5954 (Simulation time: 00 hr 36 min 45 sec)
Heartbeat CPU 0 instructions: 191000957 cycles: 249693155 heartbeat IPC: 0.9725 cumulative IPC: 0.5963 (Simulation time: 00 hr 36 min 50 sec)
Heartbeat CPU 0 instructions: 191500960 cycles: 250590492 heartbeat IPC: 0.5572 cumulative IPC: 0.5961 (Simulation time: 00 hr 36 min 57 sec)
Heartbeat CPU 0 instructions: 192000963 cycles: 252551580 heartbeat IPC: 0.255 cumulative IPC: 0.5933 (Simulation time: 00 hr 37 min 13 sec)
Heartbeat CPU 0 instructions: 192500963 cycles: 253790651 heartbeat IPC: 0.4035 cumulative IPC: 0.5923 (Simulation time: 00 hr 37 min 22 sec)
Heartbeat CPU 0 instructions: 193000963 cycles: 254757955 heartbeat IPC: 0.5169 cumulative IPC: 0.592 (Simulation time: 00 hr 37 min 30 sec)
Heartbeat CPU 0 instructions: 193500964 cycles: 255327214 heartbeat IPC: 0.8783 cumulative IPC: 0.5927 (Simulation time: 00 hr 37 min 35 sec)
Heartbeat CPU 0 instructions: 194000964 cycles: 255734690 heartbeat IPC: 1.227 cumulative IPC: 0.5938 (Simulation time: 00 hr 37 min 39 sec)
Heartbeat CPU 0 instructions: 194500965 cycles: 256287687 heartbeat IPC: 0.9042 cumulative IPC: 0.5945 (Simulation time: 00 hr 37 min 44 sec)
Heartbeat CPU 0 instructions: 195000965 cycles: 257068632 heartbeat IPC: 0.6402 cumulative IPC: 0.5946 (Simulation time: 00 hr 37 min 50 sec)
Heartbeat CPU 0 instructions: 195500968 cycles: 258241044 heartbeat IPC: 0.4265 cumulative IPC: 0.5938 (Simulation time: 00 hr 37 min 59 sec)
Heartbeat CPU 0 instructions: 196000968 cycles: 258911281 heartbeat IPC: 0.746 cumulative IPC: 0.5942 (Simulation time: 00 hr 38 min 05 sec)
Heartbeat CPU 0 instructions: 196500968 cycles: 260158517 heartbeat IPC: 0.4009 cumulative IPC: 0.5933 (Simulation time: 00 hr 38 min 14 sec)
Heartbeat CPU 0 instructions: 197000969 cycles: 261178584 heartbeat IPC: 0.4902 cumulative IPC: 0.5928 (Simulation time: 00 hr 38 min 22 sec)
Heartbeat CPU 0 instructions: 197500971 cycles: 261737127 heartbeat IPC: 0.8952 cumulative IPC: 0.5935 (Simulation time: 00 hr 38 min 27 sec)
Heartbeat CPU 0 instructions: 198000971 cycles: 262055574 heartbeat IPC: 1.57 cumulative IPC: 0.5948 (Simulation time: 00 hr 38 min 30 sec)
Heartbeat CPU 0 instructions: 198500972 cycles: 262650217 heartbeat IPC: 0.8408 cumulative IPC: 0.5954 (Simulation time: 00 hr 38 min 35 sec)
Heartbeat CPU 0 instructions: 199000972 cycles: 263605584 heartbeat IPC: 0.5234 cumulative IPC: 0.5951 (Simulation time: 00 hr 38 min 43 sec)
Heartbeat CPU 0 instructions: 199500979 cycles: 265010468 heartbeat IPC: 0.3559 cumulative IPC: 0.5938 (Simulation time: 00 hr 38 min 53 sec)
Heartbeat CPU 0 instructions: 200000985 cycles: 265929623 heartbeat IPC: 0.544 cumulative IPC: 0.5936 (Simulation time: 00 hr 39 min 01 sec)
Heartbeat CPU 0 instructions: 200500992 cycles: 267299971 heartbeat IPC: 0.3649 cumulative IPC: 0.5923 (Simulation time: 00 hr 39 min 11 sec)
Heartbeat CPU 0 instructions: 201000996 cycles: 268161670 heartbeat IPC: 0.5803 cumulative IPC: 0.5923 (Simulation time: 00 hr 39 min 18 sec)
Heartbeat CPU 0 instructions: 201501000 cycles: 268995573 heartbeat IPC: 0.5996 cumulative IPC: 0.5923 (Simulation time: 00 hr 39 min 25 sec)
Heartbeat CPU 0 instructions: 202001000 cycles: 270446852 heartbeat IPC: 0.3445 cumulative IPC: 0.5909 (Simulation time: 00 hr 39 min 35 sec)
Heartbeat CPU 0 instructions: 202501002 cycles: 271011498 heartbeat IPC: 0.8855 cumulative IPC: 0.5916 (Simulation time: 00 hr 39 min 40 sec)
Heartbeat CPU 0 instructions: 203001002 cycles: 271581875 heartbeat IPC: 0.8766 cumulative IPC: 0.5922 (Simulation time: 00 hr 39 min 45 sec)
Heartbeat CPU 0 instructions: 203501004 cycles: 272048731 heartbeat IPC: 1.071 cumulative IPC: 0.5931 (Simulation time: 00 hr 39 min 49 sec)
Heartbeat CPU 0 instructions: 204001008 cycles: 273025397 heartbeat IPC: 0.5119 cumulative IPC: 0.5928 (Simulation time: 00 hr 39 min 56 sec)
Heartbeat CPU 0 instructions: 204501013 cycles: 274475981 heartbeat IPC: 0.3447 cumulative IPC: 0.5914 (Simulation time: 00 hr 40 min 07 sec)
Heartbeat CPU 0 instructions: 205001014 cycles: 275025391 heartbeat IPC: 0.9101 cumulative IPC: 0.592 (Simulation time: 00 hr 40 min 12 sec)
Heartbeat CPU 0 instructions: 205501014 cycles: 275637295 heartbeat IPC: 0.8171 cumulative IPC: 0.5926 (Simulation time: 00 hr 40 min 17 sec)
Heartbeat CPU 0 instructions: 206001015 cycles: 276827582 heartbeat IPC: 0.4201 cumulative IPC: 0.5918 (Simulation time: 00 hr 40 min 26 sec)
Heartbeat CPU 0 instructions: 206501018 cycles: 277549274 heartbeat IPC: 0.6928 cumulative IPC: 0.5921 (Simulation time: 00 hr 40 min 32 sec)
Heartbeat CPU 0 instructions: 207001019 cycles: 278036388 heartbeat IPC: 1.026 cumulative IPC: 0.5929 (Simulation time: 00 hr 40 min 36 sec)
Heartbeat CPU 0 instructions: 207501022 cycles: 278343816 heartbeat IPC: 1.626 cumulative IPC: 0.5941 (Simulation time: 00 hr 40 min 39 sec)
Heartbeat CPU 0 instructions: 208001022 cycles: 279025468 heartbeat IPC: 0.7335 cumulative IPC: 0.5944 (Simulation time: 00 hr 40 min 45 sec)
Heartbeat CPU 0 instructions: 208501022 cycles: 280512819 heartbeat IPC: 0.3362 cumulative IPC: 0.593 (Simulation time: 00 hr 40 min 56 sec)
Heartbeat CPU 0 instructions: 209001025 cycles: 281318655 heartbeat IPC: 0.6205 cumulative IPC: 0.5931 (Simulation time: 00 hr 41 min 02 sec)
Heartbeat CPU 0 instructions: 209501025 cycles: 282562796 heartbeat IPC: 0.4019 cumulative IPC: 0.5922 (Simulation time: 00 hr 41 min 12 sec)
Heartbeat CPU 0 instructions: 210001025 cycles: 283294704 heartbeat IPC: 0.6831 cumulative IPC: 0.5924 (Simulation time: 00 hr 41 min 18 sec)
Heartbeat CPU 0 instructions: 210501031 cycles: 283630667 heartbeat IPC: 1.488 cumulative IPC: 0.5935 (Simulation time: 00 hr 41 min 21 sec)
Heartbeat CPU 0 instructions: 211001038 cycles: 283930964 heartbeat IPC: 1.665 cumulative IPC: 0.5947 (Simulation time: 00 hr 41 min 24 sec)
Heartbeat CPU 0 instructions: 211501038 cycles: 284547797 heartbeat IPC: 0.8106 cumulative IPC: 0.5952 (Simulation time: 00 hr 41 min 29 sec)
Heartbeat CPU 0 instructions: 212001045 cycles: 285396112 heartbeat IPC: 0.5894 cumulative IPC: 0.5952 (Simulation time: 00 hr 41 min 36 sec)
Heartbeat CPU 0 instructions: 212501045 cycles: 286446282 heartbeat IPC: 0.4761 cumulative IPC: 0.5948 (Simulation time: 00 hr 41 min 44 sec)
Heartbeat CPU 0 instructions: 213001050 cycles: 286880880 heartbeat IPC: 1.151 cumulative IPC: 0.5956 (Simulation time: 00 hr 41 min 48 sec)
Heartbeat CPU 0 instructions: 213501052 cycles: 287361971 heartbeat IPC: 1.039 cumulative IPC: 0.5964 (Simulation time: 00 hr 41 min 52 sec)
Heartbeat CPU 0 instructions: 214001052 cycles: 288042424 heartbeat IPC: 0.7348 cumulative IPC: 0.5968 (Simulation time: 00 hr 41 min 58 sec)
Heartbeat CPU 0 instructions: 214501052 cycles: 289953167 heartbeat IPC: 0.2617 cumulative IPC: 0.5944 (Simulation time: 00 hr 42 min 12 sec)
Heartbeat CPU 0 instructions: 215001054 cycles: 291041295 heartbeat IPC: 0.4595 cumulative IPC: 0.5939 (Simulation time: 00 hr 42 min 20 sec)
Heartbeat CPU 0 instructions: 215501054 cycles: 291720253 heartbeat IPC: 0.7364 cumulative IPC: 0.5943 (Simulation time: 00 hr 42 min 26 sec)
Heartbeat CPU 0 instructions: 216001060 cycles: 292624292 heartbeat IPC: 0.5531 cumulative IPC: 0.5941 (Simulation time: 00 hr 42 min 33 sec)
Heartbeat CPU 0 instructions: 216501062 cycles: 293417250 heartbeat IPC: 0.6306 cumulative IPC: 0.5942 (Simulation time: 00 hr 42 min 39 sec)
Heartbeat CPU 0 instructions: 217001062 cycles: 294054712 heartbeat IPC: 0.7844 cumulative IPC: 0.5947 (Simulation time: 00 hr 42 min 44 sec)
Heartbeat CPU 0 instructions: 217501062 cycles: 294591307 heartbeat IPC: 0.9318 cumulative IPC: 0.5953 (Simulation time: 00 hr 42 min 49 sec)
Heartbeat CPU 0 instructions: 218001063 cycles: 295862127 heartbeat IPC: 0.3934 cumulative IPC: 0.5944 (Simulation time: 00 hr 42 min 58 sec)
Heartbeat CPU 0 instructions: 218501066 cycles: 296896337 heartbeat IPC: 0.4835 cumulative IPC: 0.594 (Simulation time: 00 hr 43 min 06 sec)
Heartbeat CPU 0 instructions: 219001066 cycles: 297215633 heartbeat IPC: 1.566 cumulative IPC: 0.5951 (Simulation time: 00 hr 43 min 09 sec)
Heartbeat CPU 0 instructions: 219501067 cycles: 297792715 heartbeat IPC: 0.8664 cumulative IPC: 0.5956 (Simulation time: 00 hr 43 min 14 sec)
Heartbeat CPU 0 instructions: 220001072 cycles: 299286068 heartbeat IPC: 0.3348 cumulative IPC: 0.5943 (Simulation time: 00 hr 43 min 25 sec)
Heartbeat CPU 0 instructions: 220501072 cycles: 300265069 heartbeat IPC: 0.5107 cumulative IPC: 0.594 (Simulation time: 00 hr 43 min 33 sec)
Heartbeat CPU 0 instructions: 221001073 cycles: 301037234 heartbeat IPC: 0.6475 cumulative IPC: 0.5941 (Simulation time: 00 hr 43 min 39 sec)
Heartbeat CPU 0 instructions: 221501073 cycles: 301929518 heartbeat IPC: 0.5604 cumulative IPC: 0.594 (Simulation time: 00 hr 43 min 45 sec)
Heartbeat CPU 0 instructions: 222001076 cycles: 302962221 heartbeat IPC: 0.4842 cumulative IPC: 0.5936 (Simulation time: 00 hr 43 min 53 sec)
Heartbeat CPU 0 instructions: 222501076 cycles: 303581866 heartbeat IPC: 0.8069 cumulative IPC: 0.5941 (Simulation time: 00 hr 43 min 58 sec)
Heartbeat CPU 0 instructions: 223001078 cycles: 304140541 heartbeat IPC: 0.895 cumulative IPC: 0.5947 (Simulation time: 00 hr 44 min 03 sec)
Heartbeat CPU 0 instructions: 223501078 cycles: 305027812 heartbeat IPC: 0.5635 cumulative IPC: 0.5946 (Simulation time: 00 hr 44 min 10 sec)
Heartbeat CPU 0 instructions: 224001079 cycles: 305685456 heartbeat IPC: 0.7603 cumulative IPC: 0.5949 (Simulation time: 00 hr 44 min 15 sec)
Heartbeat CPU 0 instructions: 224501081 cycles: 307005155 heartbeat IPC: 0.3789 cumulative IPC: 0.594 (Simulation time: 00 hr 44 min 24 sec)
Heartbeat CPU 0 instructions: 225001081 cycles: 308426214 heartbeat IPC: 0.3519 cumulative IPC: 0.5928 (Simulation time: 00 hr 44 min 34 sec)
Heartbeat CPU 0 instructions: 225501083 cycles: 309385541 heartbeat IPC: 0.5212 cumulative IPC: 0.5926 (Simulation time: 00 hr 44 min 42 sec)
Heartbeat CPU 0 instructions: 226001085 cycles: 310611183 heartbeat IPC: 0.408 cumulative IPC: 0.5918 (Simulation time: 00 hr 44 min 51 sec)
Heartbeat CPU 0 instructions: 226501087 cycles: 311963281 heartbeat IPC: 0.3698 cumulative IPC: 0.5908 (Simulation time: 00 hr 45 min 01 sec)
Heartbeat CPU 0 instructions: 227001087 cycles: 313097265 heartbeat IPC: 0.4409 cumulative IPC: 0.5902 (Simulation time: 00 hr 45 min 10 sec)
Heartbeat CPU 0 instructions: 227501091 cycles: 313714221 heartbeat IPC: 0.8104 cumulative IPC: 0.5907 (Simulation time: 00 hr 45 min 14 sec)
Heartbeat CPU 0 instructions: 228001094 cycles: 314436607 heartbeat IPC: 0.6922 cumulative IPC: 0.5909 (Simulation time: 00 hr 45 min 20 sec)
Heartbeat CPU 0 instructions: 228501096 cycles: 314890531 heartbeat IPC: 1.102 cumulative IPC: 0.5917 (Simulation time: 00 hr 45 min 24 sec)
Heartbeat CPU 0 instructions: 229001096 cycles: 316313501 heartbeat IPC: 0.3514 cumulative IPC: 0.5906 (Simulation time: 00 hr 45 min 34 sec)
Heartbeat CPU 0 instructions: 229501098 cycles: 317989973 heartbeat IPC: 0.2982 cumulative IPC: 0.589 (Simulation time: 00 hr 45 min 46 sec)
Heartbeat CPU 0 instructions: 230001101 cycles: 318662116 heartbeat IPC: 0.7439 cumulative IPC: 0.5893 (Simulation time: 00 hr 45 min 51 sec)
Heartbeat CPU 0 instructions: 230501102 cycles: 319162498 heartbeat IPC: 0.9992 cumulative IPC: 0.59 (Simulation time: 00 hr 45 min 55 sec)
Heartbeat CPU 0 instructions: 231001103 cycles: 320194044 heartbeat IPC: 0.4847 cumulative IPC: 0.5896 (Simulation time: 00 hr 46 min 03 sec)
Heartbeat CPU 0 instructions: 231501104 cycles: 321118466 heartbeat IPC: 0.5409 cumulative IPC: 0.5895 (Simulation time: 00 hr 46 min 09 sec)
Heartbeat CPU 0 instructions: 232001111 cycles: 321895928 heartbeat IPC: 0.6431 cumulative IPC: 0.5896 (Simulation time: 00 hr 46 min 15 sec)
Heartbeat CPU 0 instructions: 232501111 cycles: 323046970 heartbeat IPC: 0.4344 cumulative IPC: 0.589 (Simulation time: 00 hr 46 min 24 sec)
Heartbeat CPU 0 instructions: 233001116 cycles: 323903507 heartbeat IPC: 0.5838 cumulative IPC: 0.589 (Simulation time: 00 hr 46 min 30 sec)
Heartbeat CPU 0 instructions: 233501116 cycles: 324734041 heartbeat IPC: 0.602 cumulative IPC: 0.5891 (Simulation time: 00 hr 46 min 36 sec)
Heartbeat CPU 0 instructions: 234001118 cycles: 326574130 heartbeat IPC: 0.2717 cumulative IPC: 0.5872 (Simulation time: 00 hr 46 min 49 sec)
Heartbeat CPU 0 instructions: 234501120 cycles: 327847010 heartbeat IPC: 0.3928 cumulative IPC: 0.5864 (Simulation time: 00 hr 46 min 58 sec)
Heartbeat CPU 0 instructions: 235001123 cycles: 328704505 heartbeat IPC: 0.5831 cumulative IPC: 0.5864 (Simulation time: 00 hr 47 min 05 sec)
Heartbeat CPU 0 instructions: 235501123 cycles: 329302173 heartbeat IPC: 0.8366 cumulative IPC: 0.5869 (Simulation time: 00 hr 47 min 09 sec)
Heartbeat CPU 0 instructions: 236001124 cycles: 329646637 heartbeat IPC: 1.452 cumulative IPC: 0.5878 (Simulation time: 00 hr 47 min 12 sec)
Heartbeat CPU 0 instructions: 236501125 cycles: 330081680 heartbeat IPC: 1.149 cumulative IPC: 0.5886 (Simulation time: 00 hr 47 min 16 sec)
Heartbeat CPU 0 instructions: 237001126 cycles: 330660397 heartbeat IPC: 0.864 cumulative IPC: 0.5891 (Simulation time: 00 hr 47 min 21 sec)
Heartbeat CPU 0 instructions: 237501129 cycles: 331626434 heartbeat IPC: 0.5176 cumulative IPC: 0.5889 (Simulation time: 00 hr 47 min 28 sec)
Heartbeat CPU 0 instructions: 238001134 cycles: 332936597 heartbeat IPC: 0.3816 cumulative IPC: 0.588 (Simulation time: 00 hr 47 min 38 sec)
Heartbeat CPU 0 instructions: 238501135 cycles: 333773284 heartbeat IPC: 0.5976 cumulative IPC: 0.5881 (Simulation time: 00 hr 47 min 44 sec)
Heartbeat CPU 0 instructions: 239001136 cycles: 335082956 heartbeat IPC: 0.3818 cumulative IPC: 0.5872 (Simulation time: 00 hr 47 min 53 sec)
Heartbeat CPU 0 instructions: 239501137 cycles: 335937355 heartbeat IPC: 0.5852 cumulative IPC: 0.5872 (Simulation time: 00 hr 48 min 00 sec)
Heartbeat CPU 0 instructions: 240001137 cycles: 336583319 heartbeat IPC: 0.774 cumulative IPC: 0.5876 (Simulation time: 00 hr 48 min 05 sec)
Heartbeat CPU 0 instructions: 240501143 cycles: 337249608 heartbeat IPC: 0.7504 cumulative IPC: 0.5879 (Simulation time: 00 hr 48 min 10 sec)
Heartbeat CPU 0 instructions: 241001144 cycles: 337687997 heartbeat IPC: 1.141 cumulative IPC: 0.5887 (Simulation time: 00 hr 48 min 14 sec)
Heartbeat CPU 0 instructions: 241501146 cycles: 338985441 heartbeat IPC: 0.3854 cumulative IPC: 0.5879 (Simulation time: 00 hr 48 min 23 sec)
Heartbeat CPU 0 instructions: 242001146 cycles: 340477675 heartbeat IPC: 0.3351 cumulative IPC: 0.5867 (Simulation time: 00 hr 48 min 34 sec)
Heartbeat CPU 0 instructions: 242501151 cycles: 341632624 heartbeat IPC: 0.4329 cumulative IPC: 0.5862 (Simulation time: 00 hr 48 min 42 sec)
Heartbeat CPU 0 instructions: 243001151 cycles: 343163166 heartbeat IPC: 0.3267 cumulative IPC: 0.585 (Simulation time: 00 hr 48 min 53 sec)
Heartbeat CPU 0 instructions: 243501153 cycles: 344234325 heartbeat IPC: 0.4668 cumulative IPC: 0.5846 (Simulation time: 00 hr 49 min 00 sec)
Heartbeat CPU 0 instructions: 244001153 cycles: 345152980 heartbeat IPC: 0.5443 cumulative IPC: 0.5845 (Simulation time: 00 hr 49 min 07 sec)
Heartbeat CPU 0 instructions: 244501156 cycles: 346716046 heartbeat IPC: 0.3199 cumulative IPC: 0.5832 (Simulation time: 00 hr 49 min 18 sec)
Heartbeat CPU 0 instructions: 245001156 cycles: 347789231 heartbeat IPC: 0.4659 cumulative IPC: 0.5828 (Simulation time: 00 hr 49 min 26 sec)
Heartbeat CPU 0 instructions: 245501162 cycles: 348620807 heartbeat IPC: 0.6013 cumulative IPC: 0.5829 (Simulation time: 00 hr 49 min 32 sec)
Heartbeat CPU 0 instructions: 246001163 cycles: 350249307 heartbeat IPC: 0.307 cumulative IPC: 0.5816 (Simulation time: 00 hr 49 min 43 sec)
Heartbeat CPU 0 instructions: 246501163 cycles: 351967454 heartbeat IPC: 0.291 cumulative IPC: 0.5801 (Simulation time: 00 hr 49 min 54 sec)
Heartbeat CPU 0 instructions: 247001163 cycles: 353002354 heartbeat IPC: 0.4831 cumulative IPC: 0.5798 (Simulation time: 00 hr 50 min 02 sec)
Heartbeat CPU 0 instructions: 247501163 cycles: 353998358 heartbeat IPC: 0.502 cumulative IPC: 0.5796 (Simulation time: 00 hr 50 min 09 sec)
Heartbeat CPU 0 instructions: 248001165 cycles: 355856122 heartbeat IPC: 0.2691 cumulative IPC: 0.5779 (Simulation time: 00 hr 50 min 21 sec)
Heartbeat CPU 0 instructions: 248501165 cycles: 357011568 heartbeat IPC: 0.4327 cumulative IPC: 0.5774 (Simulation time: 00 hr 50 min 29 sec)
Heartbeat CPU 0 instructions: 249001165 cycles: 357765445 heartbeat IPC: 0.6632 cumulative IPC: 0.5776 (Simulation time: 00 hr 50 min 35 sec)
Heartbeat CPU 0 instructions: 249501167 cycles: 358471263 heartbeat IPC: 0.7084 cumulative IPC: 0.5778 (Simulation time: 00 hr 50 min 40 sec)
Simulation finished CPU 0 instructions: 200000002 cycles: 346567794 cumulative IPC: 0.5771 (Simulation time: 00 hr 50 min 49 sec)
Simulation complete CPU 0 instructions: 200000002 cycles: 346567794 cumulative IPC: 0.5771 (Simulation time: 00 hr 50 min 49 sec)

ChampSim completed all CPUs

=== Simulation ===
CPU 0 runs /local-ssd/ben/dpc4-traces/gtraces_v2/yankee_0003.champsim.gz

Region of Interest Statistics

CPU 0 cumulative IPC: 0.5771 instructions: 200000002 cycles: 346567794
CPU 0 Branch Prediction Accuracy: 88.49% MPKI: 21.3 Average ROB Occupancy at Mispredict: 23.4
Branch type MPKI
BRANCH_DIRECT_JUMP: 0.9222
BRANCH_INDIRECT: 0.5046
BRANCH_CONDITIONAL: 16.95
BRANCH_DIRECT_CALL: 1.572
BRANCH_INDIRECT_CALL: 0.4834
BRANCH_RETURN: 0.8707

cpu0->cpu0_STLB TOTAL        ACCESS:    1600307 HIT:    1095060 MISS:     505247 MSHR_MERGE:          0
cpu0->cpu0_STLB LOAD         ACCESS:    1600307 HIT:    1095060 MISS:     505247 MSHR_MERGE:          0
cpu0->cpu0_STLB RFO          ACCESS:          0 HIT:          0 MISS:          0 MSHR_MERGE:          0
cpu0->cpu0_STLB PREFETCH     ACCESS:          0 HIT:          0 MISS:          0 MSHR_MERGE:          0
cpu0->cpu0_STLB WRITE        ACCESS:          0 HIT:          0 MISS:          0 MSHR_MERGE:          0
cpu0->cpu0_STLB TRANSLATION  ACCESS:          0 HIT:          0 MISS:          0 MSHR_MERGE:          0
cpu0->cpu0_STLB PREFETCH REQUESTED:          0 ISSUED:          0 USEFUL:          0 USELESS:          0
cpu0->cpu0_STLB AVERAGE MISS LATENCY: 201.2 cycles
cpu0->cpu0_L2C TOTAL        ACCESS:   26118262 HIT:   17341986 MISS:    8776276 MSHR_MERGE:    3117709
cpu0->cpu0_L2C LOAD         ACCESS:    3879556 HIT:    2689750 MISS:    1189806 MSHR_MERGE:     189719
cpu0->cpu0_L2C RFO          ACCESS:     720290 HIT:     249463 MISS:     470827 MSHR_MERGE:       9222
cpu0->cpu0_L2C PREFETCH     ACCESS:   19659094 HIT:   12842400 MISS:    6816694 MSHR_MERGE:    2918768
cpu0->cpu0_L2C WRITE        ACCESS:    1253934 HIT:    1253929 MISS:          5 MSHR_MERGE:          0
cpu0->cpu0_L2C TRANSLATION  ACCESS:     605388 HIT:     306444 MISS:     298944 MSHR_MERGE:          0
cpu0->cpu0_L2C PREFETCH REQUESTED:   18978726 ISSUED:   17319276 USEFUL:    1736845 USELESS:    1390288
cpu0->cpu0_L2C AVERAGE MISS LATENCY: 201.1 cycles
cpu0->cpu0_L1I TOTAL        ACCESS:   13244783 HIT:   10364290 MISS:    2880493 MSHR_MERGE:     647957
cpu0->cpu0_L1I LOAD         ACCESS:   13244783 HIT:   10364290 MISS:    2880493 MSHR_MERGE:     647957
cpu0->cpu0_L1I RFO          ACCESS:          0 HIT:          0 MISS:          0 MSHR_MERGE:          0
cpu0->cpu0_L1I PREFETCH     ACCESS:          0 HIT:          0 MISS:          0 MSHR_MERGE:          0
cpu0->cpu0_L1I WRITE        ACCESS:          0 HIT:          0 MISS:          0 MSHR_MERGE:          0
cpu0->cpu0_L1I TRANSLATION  ACCESS:          0 HIT:          0 MISS:          0 MSHR_MERGE:          0
cpu0->cpu0_L1I PREFETCH REQUESTED:          0 ISSUED:          0 USEFUL:          0 USELESS:          0
cpu0->cpu0_L1I AVERAGE MISS LATENCY: 51.94 cycles
cpu0->cpu0_L1D TOTAL        ACCESS:   75934847 HIT:   67323947 MISS:    8610900 MSHR_MERGE:    3298337
cpu0->cpu0_L1D LOAD         ACCESS:   34216515 HIT:   32079518 MISS:    2136997 MSHR_MERGE:     489962
cpu0->cpu0_L1D RFO          ACCESS:          0 HIT:          0 MISS:          0 MSHR_MERGE:          0
cpu0->cpu0_L1D PREFETCH     ACCESS:   17277752 HIT:   14211730 MISS:    3066022 MSHR_MERGE:     726195
cpu0->cpu0_L1D WRITE        ACCESS:   23126391 HIT:   20327980 MISS:    2798411 MSHR_MERGE:    2078098
cpu0->cpu0_L1D TRANSLATION  ACCESS:    1314189 HIT:     704719 MISS:     609470 MSHR_MERGE:       4082
cpu0->cpu0_L1D PREFETCH REQUESTED:   20439900 ISSUED:   17277746 USEFUL:     804445 USELESS:    1535352
cpu0->cpu0_L1D AVERAGE MISS LATENCY: 107.4 cycles
cpu0->cpu0_ITLB TOTAL        ACCESS:   10682529 HIT:   10432907 MISS:     249622 MSHR_MERGE:     122993
cpu0->cpu0_ITLB LOAD         ACCESS:   10682529 HIT:   10432907 MISS:     249622 MSHR_MERGE:     122993
cpu0->cpu0_ITLB RFO          ACCESS:          0 HIT:          0 MISS:          0 MSHR_MERGE:          0
cpu0->cpu0_ITLB PREFETCH     ACCESS:          0 HIT:          0 MISS:          0 MSHR_MERGE:          0
cpu0->cpu0_ITLB WRITE        ACCESS:          0 HIT:          0 MISS:          0 MSHR_MERGE:          0
cpu0->cpu0_ITLB TRANSLATION  ACCESS:          0 HIT:          0 MISS:          0 MSHR_MERGE:          0
cpu0->cpu0_ITLB PREFETCH REQUESTED:          0 ISSUED:          0 USEFUL:          0 USELESS:          0
cpu0->cpu0_ITLB AVERAGE MISS LATENCY: 46.06 cycles
cpu0->cpu0_DTLB TOTAL        ACCESS:   68258719 HIT:   65669612 MISS:    2589107 MSHR_MERGE:    1115429
cpu0->cpu0_DTLB LOAD         ACCESS:   68258719 HIT:   65669612 MISS:    2589107 MSHR_MERGE:    1115429
cpu0->cpu0_DTLB RFO          ACCESS:          0 HIT:          0 MISS:          0 MSHR_MERGE:          0
cpu0->cpu0_DTLB PREFETCH     ACCESS:          0 HIT:          0 MISS:          0 MSHR_MERGE:          0
cpu0->cpu0_DTLB WRITE        ACCESS:          0 HIT:          0 MISS:          0 MSHR_MERGE:          0
cpu0->cpu0_DTLB TRANSLATION  ACCESS:          0 HIT:          0 MISS:          0 MSHR_MERGE:          0
cpu0->cpu0_DTLB PREFETCH REQUESTED:          0 ISSUED:          0 USEFUL:          0 USELESS:          0
cpu0->cpu0_DTLB AVERAGE MISS LATENCY: 70.8 cycles
cpu0->LLC TOTAL        ACCESS:    8540494 HIT:    2155307 MISS:    6385187 MSHR_MERGE:     344075
cpu0->LLC LOAD         ACCESS:    1000087 HIT:     314574 MISS:     685513 MSHR_MERGE:       2392
cpu0->LLC RFO          ACCESS:     461605 HIT:      28393 MISS:     433212 MSHR_MERGE:        576
cpu0->LLC PREFETCH     ACCESS:    5897269 HIT:    1591238 MISS:    4306031 MSHR_MERGE:     341107
cpu0->LLC WRITE        ACCESS:     882589 HIT:     194848 MISS:     687741 MSHR_MERGE:          0
cpu0->LLC TRANSLATION  ACCESS:     298944 HIT:      26254 MISS:     272690 MSHR_MERGE:          0
cpu0->LLC PREFETCH REQUESTED:    2054997 ISSUED:    1999344 USEFUL:     201068 USELESS:     948943
cpu0->LLC AVERAGE MISS LATENCY: 162.7 cycles

DRAM Statistics

Channel 0 RQ ROW_BUFFER_HIT:     192271
  ROW_BUFFER_MISS:    5160987
  AVG DBUS CONGESTED CYCLE: 16.87
Channel 0 WQ ROW_BUFFER_HIT:     210353
  ROW_BUFFER_MISS:     603009
  FULL:          0
Channel 0 REFRESHES ISSUED:      28879
