[VMEM] WARNING: physical memory size is smaller than virtual memory size.

*** ChampSim Multicore Out-of-Order Simulator ***
Warmup Instructions: 50000000
Simulation Instructions: 200000000
Number of CPUs: 1
Page size: 4096
Core 0: /local-ssd/ben/dpc4-traces/gtraces_v2/merced_0003.champsim.gz
IPCP_AT_L1_CONFIG
NUM_IP_TABLE_L1_ENTRIES 1024
NUM_GHB_ENTRIES 16
NUM_IP_INDEX_BITS 10
NUM_IP_TAG_BITS 6
S_TYPE 1
CS_TYPE 2
CPLX_TYPE 3
NL_TYPE 4

Off-chip DRAM Size: 64 GiB Channels: 1 Width: 64-bit Data Rate: 4807 MT/s
Heartbeat CPU 0 instructions: 500002 cycles: 106607 heartbeat IPC: 4.69 cumulative IPC: 4.69 (Simulation time: 00 hr 00 min 02 sec)
Heartbeat CPU 0 instructions: 1000008 cycles: 209033 heartbeat IPC: 4.882 cumulative IPC: 4.784 (Simulation time: 00 hr 00 min 03 sec)
Heartbeat CPU 0 instructions: 1500010 cycles: 311368 heartbeat IPC: 4.886 cumulative IPC: 4.817 (Simulation time: 00 hr 00 min 04 sec)
Heartbeat CPU 0 instructions: 2000014 cycles: 413714 heartbeat IPC: 4.885 cumulative IPC: 4.834 (Simulation time: 00 hr 00 min 06 sec)
Heartbeat CPU 0 instructions: 2500016 cycles: 515935 heartbeat IPC: 4.891 cumulative IPC: 4.846 (Simulation time: 00 hr 00 min 07 sec)
Heartbeat CPU 0 instructions: 3000020 cycles: 618454 heartbeat IPC: 4.877 cumulative IPC: 4.851 (Simulation time: 00 hr 00 min 08 sec)
Heartbeat CPU 0 instructions: 3500026 cycles: 720318 heartbeat IPC: 4.909 cumulative IPC: 4.859 (Simulation time: 00 hr 00 min 10 sec)
Heartbeat CPU 0 instructions: 4000027 cycles: 822068 heartbeat IPC: 4.914 cumulative IPC: 4.866 (Simulation time: 00 hr 00 min 11 sec)
Heartbeat CPU 0 instructions: 4500027 cycles: 923538 heartbeat IPC: 4.928 cumulative IPC: 4.873 (Simulation time: 00 hr 00 min 12 sec)
Heartbeat CPU 0 instructions: 5000030 cycles: 1062090 heartbeat IPC: 3.609 cumulative IPC: 4.708 (Simulation time: 00 hr 00 min 14 sec)
Heartbeat CPU 0 instructions: 5500030 cycles: 1208135 heartbeat IPC: 3.424 cumulative IPC: 4.552 (Simulation time: 00 hr 00 min 16 sec)
Heartbeat CPU 0 instructions: 6000036 cycles: 1308751 heartbeat IPC: 4.969 cumulative IPC: 4.585 (Simulation time: 00 hr 00 min 18 sec)
Heartbeat CPU 0 instructions: 6500036 cycles: 1408751 heartbeat IPC: 5 cumulative IPC: 4.614 (Simulation time: 00 hr 00 min 19 sec)
Heartbeat CPU 0 instructions: 7000042 cycles: 1508751 heartbeat IPC: 5 cumulative IPC: 4.64 (Simulation time: 00 hr 00 min 20 sec)
Heartbeat CPU 0 instructions: 7500045 cycles: 1608756 heartbeat IPC: 5 cumulative IPC: 4.662 (Simulation time: 00 hr 00 min 22 sec)
Heartbeat CPU 0 instructions: 8000049 cycles: 1708752 heartbeat IPC: 5 cumulative IPC: 4.682 (Simulation time: 00 hr 00 min 23 sec)
Heartbeat CPU 0 instructions: 8500050 cycles: 1808754 heartbeat IPC: 5 cumulative IPC: 4.699 (Simulation time: 00 hr 00 min 24 sec)
Heartbeat CPU 0 instructions: 9000053 cycles: 1908756 heartbeat IPC: 5 cumulative IPC: 4.715 (Simulation time: 00 hr 00 min 26 sec)
Heartbeat CPU 0 instructions: 9500056 cycles: 2008755 heartbeat IPC: 5 cumulative IPC: 4.729 (Simulation time: 00 hr 00 min 27 sec)
[BTB] WARNING: target of return is a lower address than the corresponding call. This is usually a problem with your trace.
[BTB] WARNING: target of return is a lower address than the corresponding call. This is usually a problem with your trace.
Heartbeat CPU 0 instructions: 10000058 cycles: 2109177 heartbeat IPC: 4.979 cumulative IPC: 4.741 (Simulation time: 00 hr 00 min 28 sec)
[BTB] WARNING: target of return is a lower address than the corresponding call. This is usually a problem with your trace.
Heartbeat CPU 0 instructions: 10500058 cycles: 2339792 heartbeat IPC: 2.168 cumulative IPC: 4.488 (Simulation time: 00 hr 00 min 31 sec)
[BTB] WARNING: target of return is a lower address than the corresponding call. This is usually a problem with your trace.
Heartbeat CPU 0 instructions: 11000061 cycles: 2487928 heartbeat IPC: 3.375 cumulative IPC: 4.421 (Simulation time: 00 hr 00 min 33 sec)
[BTB] WARNING: target of return is a lower address than the corresponding call. This is usually a problem with your trace.
Heartbeat CPU 0 instructions: 11500062 cycles: 2732621 heartbeat IPC: 2.043 cumulative IPC: 4.208 (Simulation time: 00 hr 00 min 37 sec)
[BTB] WARNING: target of return is a lower address than the corresponding call. This is usually a problem with your trace.
[BTB] WARNING: target of return is a lower address than the corresponding call. This is usually a problem with your trace.
[BTB] WARNING: target of return is a lower address than the corresponding call. This is usually a problem with your trace.
[BTB] WARNING: target of return is a lower address than the corresponding call. This is usually a problem with your trace.
[BTB] WARNING: target of return is a lower address than the corresponding call. This is usually a problem with your trace.
Heartbeat CPU 0 instructions: 12000064 cycles: 2939149 heartbeat IPC: 2.421 cumulative IPC: 4.083 (Simulation time: 00 hr 00 min 40 sec)
Heartbeat CPU 0 instructions: 12500064 cycles: 3081037 heartbeat IPC: 3.524 cumulative IPC: 4.057 (Simulation time: 00 hr 00 min 43 sec)
Heartbeat CPU 0 instructions: 13000068 cycles: 3229999 heartbeat IPC: 3.357 cumulative IPC: 4.025 (Simulation time: 00 hr 00 min 45 sec)
Heartbeat CPU 0 instructions: 13500072 cycles: 3467619 heartbeat IPC: 2.104 cumulative IPC: 3.893 (Simulation time: 00 hr 00 min 48 sec)
Heartbeat CPU 0 instructions: 14000077 cycles: 3600178 heartbeat IPC: 3.772 cumulative IPC: 3.889 (Simulation time: 00 hr 00 min 51 sec)
Heartbeat CPU 0 instructions: 14500084 cycles: 3743425 heartbeat IPC: 3.491 cumulative IPC: 3.873 (Simulation time: 00 hr 00 min 53 sec)
Heartbeat CPU 0 instructions: 15000085 cycles: 3882294 heartbeat IPC: 3.601 cumulative IPC: 3.864 (Simulation time: 00 hr 00 min 55 sec)
Heartbeat CPU 0 instructions: 15500087 cycles: 4070359 heartbeat IPC: 2.659 cumulative IPC: 3.808 (Simulation time: 00 hr 00 min 58 sec)
Heartbeat CPU 0 instructions: 16000089 cycles: 4246607 heartbeat IPC: 2.837 cumulative IPC: 3.768 (Simulation time: 00 hr 01 min 01 sec)
Heartbeat CPU 0 instructions: 16500092 cycles: 4425083 heartbeat IPC: 2.802 cumulative IPC: 3.729 (Simulation time: 00 hr 01 min 03 sec)
Heartbeat CPU 0 instructions: 17000096 cycles: 4551491 heartbeat IPC: 3.955 cumulative IPC: 3.735 (Simulation time: 00 hr 01 min 06 sec)
Heartbeat CPU 0 instructions: 17500102 cycles: 4711035 heartbeat IPC: 3.134 cumulative IPC: 3.715 (Simulation time: 00 hr 01 min 08 sec)
Heartbeat CPU 0 instructions: 18000105 cycles: 4908363 heartbeat IPC: 2.534 cumulative IPC: 3.667 (Simulation time: 00 hr 01 min 11 sec)
Heartbeat CPU 0 instructions: 18500110 cycles: 5057974 heartbeat IPC: 3.342 cumulative IPC: 3.658 (Simulation time: 00 hr 01 min 14 sec)
Heartbeat CPU 0 instructions: 19000112 cycles: 5226684 heartbeat IPC: 2.964 cumulative IPC: 3.635 (Simulation time: 00 hr 01 min 16 sec)
Heartbeat CPU 0 instructions: 19500112 cycles: 5374048 heartbeat IPC: 3.393 cumulative IPC: 3.629 (Simulation time: 00 hr 01 min 19 sec)
Heartbeat CPU 0 instructions: 20000113 cycles: 5537986 heartbeat IPC: 3.05 cumulative IPC: 3.611 (Simulation time: 00 hr 01 min 21 sec)
Heartbeat CPU 0 instructions: 20500118 cycles: 5698217 heartbeat IPC: 3.121 cumulative IPC: 3.598 (Simulation time: 00 hr 01 min 24 sec)
Heartbeat CPU 0 instructions: 21000121 cycles: 5810841 heartbeat IPC: 4.44 cumulative IPC: 3.614 (Simulation time: 00 hr 01 min 26 sec)
Heartbeat CPU 0 instructions: 21500124 cycles: 5959039 heartbeat IPC: 3.374 cumulative IPC: 3.608 (Simulation time: 00 hr 01 min 28 sec)
Heartbeat CPU 0 instructions: 22000130 cycles: 6074470 heartbeat IPC: 4.332 cumulative IPC: 3.622 (Simulation time: 00 hr 01 min 30 sec)
Heartbeat CPU 0 instructions: 22500131 cycles: 6183375 heartbeat IPC: 4.591 cumulative IPC: 3.639 (Simulation time: 00 hr 01 min 32 sec)
Heartbeat CPU 0 instructions: 23000132 cycles: 6287756 heartbeat IPC: 4.79 cumulative IPC: 3.658 (Simulation time: 00 hr 01 min 34 sec)
Heartbeat CPU 0 instructions: 23500132 cycles: 6390094 heartbeat IPC: 4.886 cumulative IPC: 3.678 (Simulation time: 00 hr 01 min 35 sec)
Heartbeat CPU 0 instructions: 24000138 cycles: 6504575 heartbeat IPC: 4.368 cumulative IPC: 3.69 (Simulation time: 00 hr 01 min 37 sec)
Heartbeat CPU 0 instructions: 24500138 cycles: 6611597 heartbeat IPC: 4.672 cumulative IPC: 3.706 (Simulation time: 00 hr 01 min 39 sec)
Heartbeat CPU 0 instructions: 25000143 cycles: 6740791 heartbeat IPC: 3.87 cumulative IPC: 3.709 (Simulation time: 00 hr 01 min 41 sec)
Heartbeat CPU 0 instructions: 25500150 cycles: 6847498 heartbeat IPC: 4.686 cumulative IPC: 3.724 (Simulation time: 00 hr 01 min 43 sec)
Heartbeat CPU 0 instructions: 26000154 cycles: 6954847 heartbeat IPC: 4.658 cumulative IPC: 3.738 (Simulation time: 00 hr 01 min 45 sec)
Heartbeat CPU 0 instructions: 26500159 cycles: 7066453 heartbeat IPC: 4.48 cumulative IPC: 3.75 (Simulation time: 00 hr 01 min 46 sec)
Heartbeat CPU 0 instructions: 27000161 cycles: 7170159 heartbeat IPC: 4.821 cumulative IPC: 3.766 (Simulation time: 00 hr 01 min 48 sec)
Heartbeat CPU 0 instructions: 27500166 cycles: 7272161 heartbeat IPC: 4.902 cumulative IPC: 3.782 (Simulation time: 00 hr 01 min 49 sec)
Heartbeat CPU 0 instructions: 28000169 cycles: 7390066 heartbeat IPC: 4.241 cumulative IPC: 3.789 (Simulation time: 00 hr 01 min 51 sec)
Heartbeat CPU 0 instructions: 28500172 cycles: 7494843 heartbeat IPC: 4.772 cumulative IPC: 3.803 (Simulation time: 00 hr 01 min 53 sec)
Heartbeat CPU 0 instructions: 29000175 cycles: 7595917 heartbeat IPC: 4.947 cumulative IPC: 3.818 (Simulation time: 00 hr 01 min 54 sec)
Heartbeat CPU 0 instructions: 29500176 cycles: 7696243 heartbeat IPC: 4.984 cumulative IPC: 3.833 (Simulation time: 00 hr 01 min 56 sec)
Heartbeat CPU 0 instructions: 30000178 cycles: 7807736 heartbeat IPC: 4.485 cumulative IPC: 3.842 (Simulation time: 00 hr 01 min 57 sec)
Heartbeat CPU 0 instructions: 30500180 cycles: 7915126 heartbeat IPC: 4.656 cumulative IPC: 3.853 (Simulation time: 00 hr 01 min 59 sec)
Heartbeat CPU 0 instructions: 31000183 cycles: 8018257 heartbeat IPC: 4.848 cumulative IPC: 3.866 (Simulation time: 00 hr 02 min 01 sec)
Heartbeat CPU 0 instructions: 31500183 cycles: 8125062 heartbeat IPC: 4.681 cumulative IPC: 3.877 (Simulation time: 00 hr 02 min 02 sec)
Heartbeat CPU 0 instructions: 32000183 cycles: 8247262 heartbeat IPC: 4.092 cumulative IPC: 3.88 (Simulation time: 00 hr 02 min 04 sec)
Heartbeat CPU 0 instructions: 32500189 cycles: 8349629 heartbeat IPC: 4.884 cumulative IPC: 3.892 (Simulation time: 00 hr 02 min 06 sec)
Heartbeat CPU 0 instructions: 33000193 cycles: 8453788 heartbeat IPC: 4.8 cumulative IPC: 3.904 (Simulation time: 00 hr 02 min 08 sec)
Heartbeat CPU 0 instructions: 33500200 cycles: 8556729 heartbeat IPC: 4.857 cumulative IPC: 3.915 (Simulation time: 00 hr 02 min 09 sec)
Heartbeat CPU 0 instructions: 34000205 cycles: 8658543 heartbeat IPC: 4.911 cumulative IPC: 3.927 (Simulation time: 00 hr 02 min 11 sec)
Heartbeat CPU 0 instructions: 34500209 cycles: 8760052 heartbeat IPC: 4.926 cumulative IPC: 3.938 (Simulation time: 00 hr 02 min 13 sec)
Heartbeat CPU 0 instructions: 35000211 cycles: 8865789 heartbeat IPC: 4.729 cumulative IPC: 3.948 (Simulation time: 00 hr 02 min 14 sec)
Heartbeat CPU 0 instructions: 35500216 cycles: 8970638 heartbeat IPC: 4.769 cumulative IPC: 3.957 (Simulation time: 00 hr 02 min 16 sec)
Heartbeat CPU 0 instructions: 36000217 cycles: 9074268 heartbeat IPC: 4.825 cumulative IPC: 3.967 (Simulation time: 00 hr 02 min 18 sec)
Heartbeat CPU 0 instructions: 36500223 cycles: 9175394 heartbeat IPC: 4.944 cumulative IPC: 3.978 (Simulation time: 00 hr 02 min 19 sec)
Heartbeat CPU 0 instructions: 37000224 cycles: 9277037 heartbeat IPC: 4.919 cumulative IPC: 3.988 (Simulation time: 00 hr 02 min 21 sec)
Heartbeat CPU 0 instructions: 37500225 cycles: 9378491 heartbeat IPC: 4.928 cumulative IPC: 3.999 (Simulation time: 00 hr 02 min 23 sec)
Heartbeat CPU 0 instructions: 38000230 cycles: 9491977 heartbeat IPC: 4.406 cumulative IPC: 4.003 (Simulation time: 00 hr 02 min 24 sec)
Heartbeat CPU 0 instructions: 38500233 cycles: 9602085 heartbeat IPC: 4.541 cumulative IPC: 4.01 (Simulation time: 00 hr 02 min 26 sec)
Heartbeat CPU 0 instructions: 39000238 cycles: 9707756 heartbeat IPC: 4.732 cumulative IPC: 4.017 (Simulation time: 00 hr 02 min 28 sec)
Heartbeat CPU 0 instructions: 39500241 cycles: 9817624 heartbeat IPC: 4.551 cumulative IPC: 4.023 (Simulation time: 00 hr 02 min 30 sec)
Heartbeat CPU 0 instructions: 40000248 cycles: 9921516 heartbeat IPC: 4.813 cumulative IPC: 4.032 (Simulation time: 00 hr 02 min 32 sec)
Heartbeat CPU 0 instructions: 40500255 cycles: 10026692 heartbeat IPC: 4.754 cumulative IPC: 4.039 (Simulation time: 00 hr 02 min 33 sec)
Heartbeat CPU 0 instructions: 41000255 cycles: 10133243 heartbeat IPC: 4.693 cumulative IPC: 4.046 (Simulation time: 00 hr 02 min 35 sec)
Heartbeat CPU 0 instructions: 41500256 cycles: 10243433 heartbeat IPC: 4.538 cumulative IPC: 4.051 (Simulation time: 00 hr 02 min 37 sec)
Heartbeat CPU 0 instructions: 42000260 cycles: 10357903 heartbeat IPC: 4.368 cumulative IPC: 4.055 (Simulation time: 00 hr 02 min 39 sec)
Heartbeat CPU 0 instructions: 42500260 cycles: 10462564 heartbeat IPC: 4.777 cumulative IPC: 4.062 (Simulation time: 00 hr 02 min 40 sec)
Heartbeat CPU 0 instructions: 43000263 cycles: 10574606 heartbeat IPC: 4.463 cumulative IPC: 4.066 (Simulation time: 00 hr 02 min 42 sec)
Heartbeat CPU 0 instructions: 43500270 cycles: 10693802 heartbeat IPC: 4.195 cumulative IPC: 4.068 (Simulation time: 00 hr 02 min 44 sec)
Heartbeat CPU 0 instructions: 44000277 cycles: 10844688 heartbeat IPC: 3.314 cumulative IPC: 4.057 (Simulation time: 00 hr 02 min 47 sec)
Heartbeat CPU 0 instructions: 44500278 cycles: 11003933 heartbeat IPC: 3.14 cumulative IPC: 4.044 (Simulation time: 00 hr 02 min 49 sec)
Heartbeat CPU 0 instructions: 45000279 cycles: 11113889 heartbeat IPC: 4.547 cumulative IPC: 4.049 (Simulation time: 00 hr 02 min 51 sec)
Heartbeat CPU 0 instructions: 45500282 cycles: 11226381 heartbeat IPC: 4.445 cumulative IPC: 4.053 (Simulation time: 00 hr 02 min 52 sec)
Heartbeat CPU 0 instructions: 46000286 cycles: 11338544 heartbeat IPC: 4.458 cumulative IPC: 4.057 (Simulation time: 00 hr 02 min 54 sec)
Heartbeat CPU 0 instructions: 46500292 cycles: 11449140 heartbeat IPC: 4.521 cumulative IPC: 4.061 (Simulation time: 00 hr 02 min 55 sec)
Heartbeat CPU 0 instructions: 47000292 cycles: 11569379 heartbeat IPC: 4.158 cumulative IPC: 4.062 (Simulation time: 00 hr 02 min 57 sec)
Heartbeat CPU 0 instructions: 47500299 cycles: 11728874 heartbeat IPC: 3.135 cumulative IPC: 4.05 (Simulation time: 00 hr 02 min 59 sec)
Heartbeat CPU 0 instructions: 48000302 cycles: 11856156 heartbeat IPC: 3.928 cumulative IPC: 4.049 (Simulation time: 00 hr 03 min 02 sec)
Heartbeat CPU 0 instructions: 48500308 cycles: 11991808 heartbeat IPC: 3.686 cumulative IPC: 4.044 (Simulation time: 00 hr 03 min 04 sec)
Heartbeat CPU 0 instructions: 49000314 cycles: 12116653 heartbeat IPC: 4.005 cumulative IPC: 4.044 (Simulation time: 00 hr 03 min 06 sec)
Heartbeat CPU 0 instructions: 49500320 cycles: 12235285 heartbeat IPC: 4.215 cumulative IPC: 4.046 (Simulation time: 00 hr 03 min 08 sec)
Warmup finished CPU 0 instructions: 50000002 cycles: 12378943 cumulative IPC: 4.039 (Simulation time: 00 hr 03 min 10 sec)
Warmup complete CPU 0 instructions: 50000002 cycles: 12378943 cumulative IPC: 4.039 (Simulation time: 00 hr 03 min 10 sec)
Heartbeat CPU 0 instructions: 50000325 cycles: 12380059 heartbeat IPC: 3.454 cumulative IPC: 0.2894 (Simulation time: 00 hr 03 min 10 sec)
Heartbeat CPU 0 instructions: 50500330 cycles: 15287485 heartbeat IPC: 0.172 cumulative IPC: 0.172 (Simulation time: 00 hr 03 min 35 sec)
Heartbeat CPU 0 instructions: 51000334 cycles: 16689516 heartbeat IPC: 0.3566 cumulative IPC: 0.2321 (Simulation time: 00 hr 03 min 46 sec)
Heartbeat CPU 0 instructions: 51500338 cycles: 17258661 heartbeat IPC: 0.8785 cumulative IPC: 0.3075 (Simulation time: 00 hr 03 min 51 sec)
Heartbeat CPU 0 instructions: 52000338 cycles: 18015461 heartbeat IPC: 0.6607 cumulative IPC: 0.3549 (Simulation time: 00 hr 03 min 56 sec)
Heartbeat CPU 0 instructions: 52500339 cycles: 19009923 heartbeat IPC: 0.5028 cumulative IPC: 0.3771 (Simulation time: 00 hr 04 min 03 sec)
Heartbeat CPU 0 instructions: 53000339 cycles: 19479999 heartbeat IPC: 1.064 cumulative IPC: 0.4225 (Simulation time: 00 hr 04 min 07 sec)
Heartbeat CPU 0 instructions: 53500342 cycles: 20119129 heartbeat IPC: 0.7823 cumulative IPC: 0.4522 (Simulation time: 00 hr 04 min 13 sec)
Heartbeat CPU 0 instructions: 54000344 cycles: 20596989 heartbeat IPC: 1.046 cumulative IPC: 0.4868 (Simulation time: 00 hr 04 min 17 sec)
Heartbeat CPU 0 instructions: 54500344 cycles: 21341818 heartbeat IPC: 0.6713 cumulative IPC: 0.5021 (Simulation time: 00 hr 04 min 22 sec)
Heartbeat CPU 0 instructions: 55000345 cycles: 21802089 heartbeat IPC: 1.086 cumulative IPC: 0.5306 (Simulation time: 00 hr 04 min 26 sec)
Heartbeat CPU 0 instructions: 55500347 cycles: 22050877 heartbeat IPC: 2.01 cumulative IPC: 0.5687 (Simulation time: 00 hr 04 min 29 sec)
Heartbeat CPU 0 instructions: 56000347 cycles: 22654022 heartbeat IPC: 0.829 cumulative IPC: 0.584 (Simulation time: 00 hr 04 min 34 sec)
Heartbeat CPU 0 instructions: 56500348 cycles: 23617581 heartbeat IPC: 0.5189 cumulative IPC: 0.5784 (Simulation time: 00 hr 04 min 41 sec)
Heartbeat CPU 0 instructions: 57000351 cycles: 24410493 heartbeat IPC: 0.6306 cumulative IPC: 0.5818 (Simulation time: 00 hr 04 min 47 sec)
Heartbeat CPU 0 instructions: 57500354 cycles: 25441644 heartbeat IPC: 0.4849 cumulative IPC: 0.5742 (Simulation time: 00 hr 04 min 54 sec)
Heartbeat CPU 0 instructions: 58000356 cycles: 26093833 heartbeat IPC: 0.7667 cumulative IPC: 0.5833 (Simulation time: 00 hr 04 min 59 sec)
Heartbeat CPU 0 instructions: 58500360 cycles: 26497050 heartbeat IPC: 1.24 cumulative IPC: 0.6021 (Simulation time: 00 hr 05 min 03 sec)
Heartbeat CPU 0 instructions: 59000363 cycles: 27284433 heartbeat IPC: 0.635 cumulative IPC: 0.6038 (Simulation time: 00 hr 05 min 09 sec)
Heartbeat CPU 0 instructions: 59500365 cycles: 27647105 heartbeat IPC: 1.379 cumulative IPC: 0.6222 (Simulation time: 00 hr 05 min 12 sec)
Heartbeat CPU 0 instructions: 60000365 cycles: 28062503 heartbeat IPC: 1.204 cumulative IPC: 0.6376 (Simulation time: 00 hr 05 min 16 sec)
Heartbeat CPU 0 instructions: 60500367 cycles: 28795022 heartbeat IPC: 0.6826 cumulative IPC: 0.6396 (Simulation time: 00 hr 05 min 21 sec)
Heartbeat CPU 0 instructions: 61000370 cycles: 30147502 heartbeat IPC: 0.3697 cumulative IPC: 0.6191 (Simulation time: 00 hr 05 min 32 sec)
Heartbeat CPU 0 instructions: 61500371 cycles: 30487890 heartbeat IPC: 1.469 cumulative IPC: 0.6351 (Simulation time: 00 hr 05 min 35 sec)
Heartbeat CPU 0 instructions: 62000374 cycles: 31469155 heartbeat IPC: 0.5095 cumulative IPC: 0.6286 (Simulation time: 00 hr 05 min 42 sec)
Heartbeat CPU 0 instructions: 62500377 cycles: 32818050 heartbeat IPC: 0.3707 cumulative IPC: 0.6116 (Simulation time: 00 hr 05 min 52 sec)
Heartbeat CPU 0 instructions: 63000379 cycles: 33654373 heartbeat IPC: 0.5979 cumulative IPC: 0.6111 (Simulation time: 00 hr 05 min 58 sec)
Heartbeat CPU 0 instructions: 63500379 cycles: 35197884 heartbeat IPC: 0.3239 cumulative IPC: 0.5916 (Simulation time: 00 hr 06 min 08 sec)
Heartbeat CPU 0 instructions: 64000379 cycles: 37223313 heartbeat IPC: 0.2469 cumulative IPC: 0.5635 (Simulation time: 00 hr 06 min 22 sec)
Heartbeat CPU 0 instructions: 64500379 cycles: 38062242 heartbeat IPC: 0.596 cumulative IPC: 0.5646 (Simulation time: 00 hr 06 min 28 sec)
Heartbeat CPU 0 instructions: 65000381 cycles: 38918115 heartbeat IPC: 0.5842 cumulative IPC: 0.5652 (Simulation time: 00 hr 06 min 35 sec)
Heartbeat CPU 0 instructions: 65500383 cycles: 40491914 heartbeat IPC: 0.3177 cumulative IPC: 0.5514 (Simulation time: 00 hr 06 min 47 sec)
Heartbeat CPU 0 instructions: 66000386 cycles: 41303067 heartbeat IPC: 0.6164 cumulative IPC: 0.5532 (Simulation time: 00 hr 06 min 54 sec)
Heartbeat CPU 0 instructions: 66500388 cycles: 41783959 heartbeat IPC: 1.04 cumulative IPC: 0.5611 (Simulation time: 00 hr 06 min 59 sec)
Heartbeat CPU 0 instructions: 67000395 cycles: 42560889 heartbeat IPC: 0.6436 cumulative IPC: 0.5633 (Simulation time: 00 hr 07 min 06 sec)
Heartbeat CPU 0 instructions: 67500399 cycles: 43145023 heartbeat IPC: 0.856 cumulative IPC: 0.5688 (Simulation time: 00 hr 07 min 12 sec)
Heartbeat CPU 0 instructions: 68000400 cycles: 44101766 heartbeat IPC: 0.5226 cumulative IPC: 0.5674 (Simulation time: 00 hr 07 min 20 sec)
Heartbeat CPU 0 instructions: 68500404 cycles: 45709732 heartbeat IPC: 0.311 cumulative IPC: 0.5551 (Simulation time: 00 hr 07 min 32 sec)
Heartbeat CPU 0 instructions: 69000404 cycles: 46836270 heartbeat IPC: 0.4438 cumulative IPC: 0.5514 (Simulation time: 00 hr 07 min 42 sec)
Heartbeat CPU 0 instructions: 69500404 cycles: 47082951 heartbeat IPC: 2.027 cumulative IPC: 0.5619 (Simulation time: 00 hr 07 min 44 sec)
Heartbeat CPU 0 instructions: 70000406 cycles: 47304696 heartbeat IPC: 2.255 cumulative IPC: 0.5727 (Simulation time: 00 hr 07 min 47 sec)
Heartbeat CPU 0 instructions: 70500406 cycles: 47522816 heartbeat IPC: 2.292 cumulative IPC: 0.5833 (Simulation time: 00 hr 07 min 50 sec)
Heartbeat CPU 0 instructions: 71000406 cycles: 48636540 heartbeat IPC: 0.4489 cumulative IPC: 0.5792 (Simulation time: 00 hr 07 min 59 sec)
Heartbeat CPU 0 instructions: 71500410 cycles: 49955564 heartbeat IPC: 0.3791 cumulative IPC: 0.5722 (Simulation time: 00 hr 08 min 09 sec)
Heartbeat CPU 0 instructions: 72000412 cycles: 50930179 heartbeat IPC: 0.513 cumulative IPC: 0.5707 (Simulation time: 00 hr 08 min 18 sec)
Heartbeat CPU 0 instructions: 72500412 cycles: 52213123 heartbeat IPC: 0.3897 cumulative IPC: 0.5649 (Simulation time: 00 hr 08 min 28 sec)
Heartbeat CPU 0 instructions: 73000414 cycles: 53271657 heartbeat IPC: 0.4724 cumulative IPC: 0.5625 (Simulation time: 00 hr 08 min 36 sec)
Heartbeat CPU 0 instructions: 73500414 cycles: 54566352 heartbeat IPC: 0.3862 cumulative IPC: 0.557 (Simulation time: 00 hr 08 min 47 sec)
Heartbeat CPU 0 instructions: 74000415 cycles: 55022250 heartbeat IPC: 1.097 cumulative IPC: 0.5628 (Simulation time: 00 hr 08 min 51 sec)
Heartbeat CPU 0 instructions: 74500417 cycles: 55726918 heartbeat IPC: 0.7096 cumulative IPC: 0.5652 (Simulation time: 00 hr 08 min 57 sec)
Heartbeat CPU 0 instructions: 75000417 cycles: 56057039 heartbeat IPC: 1.515 cumulative IPC: 0.5724 (Simulation time: 00 hr 09 min 01 sec)
Heartbeat CPU 0 instructions: 75500421 cycles: 56341347 heartbeat IPC: 1.759 cumulative IPC: 0.5801 (Simulation time: 00 hr 09 min 04 sec)
Heartbeat CPU 0 instructions: 76000421 cycles: 56674653 heartbeat IPC: 1.5 cumulative IPC: 0.587 (Simulation time: 00 hr 09 min 08 sec)
Heartbeat CPU 0 instructions: 76500421 cycles: 57198311 heartbeat IPC: 0.9548 cumulative IPC: 0.5913 (Simulation time: 00 hr 09 min 13 sec)
Heartbeat CPU 0 instructions: 77000424 cycles: 57476452 heartbeat IPC: 1.798 cumulative IPC: 0.5987 (Simulation time: 00 hr 09 min 16 sec)
Heartbeat CPU 0 instructions: 77500424 cycles: 57749943 heartbeat IPC: 1.828 cumulative IPC: 0.6061 (Simulation time: 00 hr 09 min 19 sec)
Heartbeat CPU 0 instructions: 78000430 cycles: 58011493 heartbeat IPC: 1.912 cumulative IPC: 0.6136 (Simulation time: 00 hr 09 min 22 sec)
Heartbeat CPU 0 instructions: 78500430 cycles: 59101913 heartbeat IPC: 0.4585 cumulative IPC: 0.61 (Simulation time: 00 hr 09 min 32 sec)
Heartbeat CPU 0 instructions: 79000437 cycles: 60751667 heartbeat IPC: 0.3031 cumulative IPC: 0.5995 (Simulation time: 00 hr 09 min 45 sec)
Heartbeat CPU 0 instructions: 79500437 cycles: 62127817 heartbeat IPC: 0.3633 cumulative IPC: 0.593 (Simulation time: 00 hr 09 min 56 sec)
Heartbeat CPU 0 instructions: 80000437 cycles: 63170851 heartbeat IPC: 0.4794 cumulative IPC: 0.5907 (Simulation time: 00 hr 10 min 04 sec)
Heartbeat CPU 0 instructions: 80500437 cycles: 63871092 heartbeat IPC: 0.714 cumulative IPC: 0.5923 (Simulation time: 00 hr 10 min 10 sec)
Heartbeat CPU 0 instructions: 81000439 cycles: 64471251 heartbeat IPC: 0.8331 cumulative IPC: 0.5951 (Simulation time: 00 hr 10 min 15 sec)
Heartbeat CPU 0 instructions: 81500439 cycles: 64879020 heartbeat IPC: 1.226 cumulative IPC: 0.6 (Simulation time: 00 hr 10 min 20 sec)
Heartbeat CPU 0 instructions: 82000439 cycles: 66022758 heartbeat IPC: 0.4372 cumulative IPC: 0.5965 (Simulation time: 00 hr 10 min 29 sec)
Heartbeat CPU 0 instructions: 82500439 cycles: 67105811 heartbeat IPC: 0.4617 cumulative IPC: 0.5939 (Simulation time: 00 hr 10 min 37 sec)
Heartbeat CPU 0 instructions: 83000441 cycles: 68468628 heartbeat IPC: 0.3669 cumulative IPC: 0.5884 (Simulation time: 00 hr 10 min 48 sec)
Heartbeat CPU 0 instructions: 83500444 cycles: 69915231 heartbeat IPC: 0.3456 cumulative IPC: 0.5822 (Simulation time: 00 hr 10 min 59 sec)
Heartbeat CPU 0 instructions: 84000444 cycles: 70670919 heartbeat IPC: 0.6616 cumulative IPC: 0.5833 (Simulation time: 00 hr 11 min 05 sec)
Heartbeat CPU 0 instructions: 84500446 cycles: 71243324 heartbeat IPC: 0.8735 cumulative IPC: 0.5861 (Simulation time: 00 hr 11 min 11 sec)
Heartbeat CPU 0 instructions: 85000446 cycles: 72238465 heartbeat IPC: 0.5024 cumulative IPC: 0.5847 (Simulation time: 00 hr 11 min 19 sec)
Heartbeat CPU 0 instructions: 85500447 cycles: 73498945 heartbeat IPC: 0.3967 cumulative IPC: 0.5808 (Simulation time: 00 hr 11 min 29 sec)
Heartbeat CPU 0 instructions: 86000452 cycles: 74583748 heartbeat IPC: 0.4609 cumulative IPC: 0.5787 (Simulation time: 00 hr 11 min 38 sec)
Heartbeat CPU 0 instructions: 86500454 cycles: 75734646 heartbeat IPC: 0.4344 cumulative IPC: 0.5761 (Simulation time: 00 hr 11 min 48 sec)
Heartbeat CPU 0 instructions: 87000456 cycles: 77168022 heartbeat IPC: 0.3488 cumulative IPC: 0.5711 (Simulation time: 00 hr 12 min 00 sec)
Heartbeat CPU 0 instructions: 87500456 cycles: 77755630 heartbeat IPC: 0.8509 cumulative IPC: 0.5736 (Simulation time: 00 hr 12 min 05 sec)
Heartbeat CPU 0 instructions: 88000463 cycles: 78163193 heartbeat IPC: 1.227 cumulative IPC: 0.5777 (Simulation time: 00 hr 12 min 09 sec)
Heartbeat CPU 0 instructions: 88500464 cycles: 78699797 heartbeat IPC: 0.9318 cumulative IPC: 0.5805 (Simulation time: 00 hr 12 min 14 sec)
Heartbeat CPU 0 instructions: 89000464 cycles: 79280656 heartbeat IPC: 0.8608 cumulative IPC: 0.583 (Simulation time: 00 hr 12 min 19 sec)
Heartbeat CPU 0 instructions: 89500465 cycles: 80736694 heartbeat IPC: 0.3434 cumulative IPC: 0.5778 (Simulation time: 00 hr 12 min 31 sec)
Heartbeat CPU 0 instructions: 90000467 cycles: 81352622 heartbeat IPC: 0.8118 cumulative IPC: 0.5799 (Simulation time: 00 hr 12 min 36 sec)
Heartbeat CPU 0 instructions: 90500468 cycles: 82431061 heartbeat IPC: 0.4636 cumulative IPC: 0.5781 (Simulation time: 00 hr 12 min 45 sec)
Heartbeat CPU 0 instructions: 91000469 cycles: 83044449 heartbeat IPC: 0.8151 cumulative IPC: 0.5802 (Simulation time: 00 hr 12 min 51 sec)
Heartbeat CPU 0 instructions: 91500474 cycles: 84521126 heartbeat IPC: 0.3386 cumulative IPC: 0.5753 (Simulation time: 00 hr 13 min 03 sec)
Heartbeat CPU 0 instructions: 92000475 cycles: 85424130 heartbeat IPC: 0.5537 cumulative IPC: 0.575 (Simulation time: 00 hr 13 min 11 sec)
Heartbeat CPU 0 instructions: 92500475 cycles: 87063315 heartbeat IPC: 0.305 cumulative IPC: 0.5691 (Simulation time: 00 hr 13 min 24 sec)
Heartbeat CPU 0 instructions: 93000475 cycles: 87971971 heartbeat IPC: 0.5503 cumulative IPC: 0.5688 (Simulation time: 00 hr 13 min 31 sec)
Heartbeat CPU 0 instructions: 93500479 cycles: 88441349 heartbeat IPC: 1.065 cumulative IPC: 0.5719 (Simulation time: 00 hr 13 min 36 sec)
Heartbeat CPU 0 instructions: 94000482 cycles: 88931579 heartbeat IPC: 1.02 cumulative IPC: 0.5748 (Simulation time: 00 hr 13 min 40 sec)
Heartbeat CPU 0 instructions: 94500483 cycles: 89158273 heartbeat IPC: 2.206 cumulative IPC: 0.5796 (Simulation time: 00 hr 13 min 43 sec)
Heartbeat CPU 0 instructions: 95000488 cycles: 89383852 heartbeat IPC: 2.217 cumulative IPC: 0.5844 (Simulation time: 00 hr 13 min 45 sec)
Heartbeat CPU 0 instructions: 95500488 cycles: 90000839 heartbeat IPC: 0.8104 cumulative IPC: 0.5862 (Simulation time: 00 hr 13 min 50 sec)
Heartbeat CPU 0 instructions: 96000494 cycles: 90285951 heartbeat IPC: 1.754 cumulative IPC: 0.5905 (Simulation time: 00 hr 13 min 53 sec)
Heartbeat CPU 0 instructions: 96500494 cycles: 90931460 heartbeat IPC: 0.7746 cumulative IPC: 0.592 (Simulation time: 00 hr 13 min 59 sec)
Heartbeat CPU 0 instructions: 97000494 cycles: 91320290 heartbeat IPC: 1.286 cumulative IPC: 0.5954 (Simulation time: 00 hr 14 min 03 sec)
Heartbeat CPU 0 instructions: 97500499 cycles: 91938494 heartbeat IPC: 0.8088 cumulative IPC: 0.597 (Simulation time: 00 hr 14 min 08 sec)
Heartbeat CPU 0 instructions: 98000505 cycles: 92631434 heartbeat IPC: 0.7216 cumulative IPC: 0.5981 (Simulation time: 00 hr 14 min 15 sec)
Heartbeat CPU 0 instructions: 98500509 cycles: 93051288 heartbeat IPC: 1.191 cumulative IPC: 0.6012 (Simulation time: 00 hr 14 min 19 sec)
Heartbeat CPU 0 instructions: 99000510 cycles: 93639425 heartbeat IPC: 0.8501 cumulative IPC: 0.603 (Simulation time: 00 hr 14 min 24 sec)
Heartbeat CPU 0 instructions: 99500510 cycles: 94256081 heartbeat IPC: 0.8108 cumulative IPC: 0.6046 (Simulation time: 00 hr 14 min 29 sec)
Heartbeat CPU 0 instructions: 100000512 cycles: 94882652 heartbeat IPC: 0.798 cumulative IPC: 0.606 (Simulation time: 00 hr 14 min 34 sec)
Heartbeat CPU 0 instructions: 100500512 cycles: 95503284 heartbeat IPC: 0.8056 cumulative IPC: 0.6075 (Simulation time: 00 hr 14 min 40 sec)
Heartbeat CPU 0 instructions: 101000512 cycles: 95692887 heartbeat IPC: 2.637 cumulative IPC: 0.6121 (Simulation time: 00 hr 14 min 42 sec)
Heartbeat CPU 0 instructions: 101500512 cycles: 95930385 heartbeat IPC: 2.105 cumulative IPC: 0.6164 (Simulation time: 00 hr 14 min 44 sec)
Heartbeat CPU 0 instructions: 102000512 cycles: 96632140 heartbeat IPC: 0.7125 cumulative IPC: 0.6172 (Simulation time: 00 hr 14 min 51 sec)
Heartbeat CPU 0 instructions: 102500512 cycles: 97888486 heartbeat IPC: 0.398 cumulative IPC: 0.614 (Simulation time: 00 hr 15 min 01 sec)
Heartbeat CPU 0 instructions: 103000512 cycles: 98737238 heartbeat IPC: 0.5891 cumulative IPC: 0.6137 (Simulation time: 00 hr 15 min 07 sec)
Heartbeat CPU 0 instructions: 103500512 cycles: 99052524 heartbeat IPC: 1.586 cumulative IPC: 0.6173 (Simulation time: 00 hr 15 min 11 sec)
Heartbeat CPU 0 instructions: 104000514 cycles: 100302602 heartbeat IPC: 0.4 cumulative IPC: 0.6142 (Simulation time: 00 hr 15 min 21 sec)
Heartbeat CPU 0 instructions: 104500514 cycles: 101554815 heartbeat IPC: 0.3993 cumulative IPC: 0.6112 (Simulation time: 00 hr 15 min 30 sec)
Heartbeat CPU 0 instructions: 105000519 cycles: 102017190 heartbeat IPC: 1.081 cumulative IPC: 0.6136 (Simulation time: 00 hr 15 min 35 sec)
Heartbeat CPU 0 instructions: 105500526 cycles: 102764532 heartbeat IPC: 0.669 cumulative IPC: 0.614 (Simulation time: 00 hr 15 min 42 sec)
Heartbeat CPU 0 instructions: 106000527 cycles: 103584588 heartbeat IPC: 0.6097 cumulative IPC: 0.614 (Simulation time: 00 hr 15 min 48 sec)
Heartbeat CPU 0 instructions: 106500530 cycles: 103974781 heartbeat IPC: 1.281 cumulative IPC: 0.6168 (Simulation time: 00 hr 15 min 52 sec)
Heartbeat CPU 0 instructions: 107000535 cycles: 105157111 heartbeat IPC: 0.4229 cumulative IPC: 0.6144 (Simulation time: 00 hr 16 min 02 sec)
Heartbeat CPU 0 instructions: 107500539 cycles: 105392079 heartbeat IPC: 2.128 cumulative IPC: 0.6182 (Simulation time: 00 hr 16 min 04 sec)
Heartbeat CPU 0 instructions: 108000541 cycles: 106454163 heartbeat IPC: 0.4708 cumulative IPC: 0.6165 (Simulation time: 00 hr 16 min 13 sec)
Heartbeat CPU 0 instructions: 108500544 cycles: 107772632 heartbeat IPC: 0.3792 cumulative IPC: 0.6133 (Simulation time: 00 hr 16 min 23 sec)
Heartbeat CPU 0 instructions: 109000549 cycles: 108187150 heartbeat IPC: 1.206 cumulative IPC: 0.6158 (Simulation time: 00 hr 16 min 27 sec)
Heartbeat CPU 0 instructions: 109500549 cycles: 108524383 heartbeat IPC: 1.483 cumulative IPC: 0.6189 (Simulation time: 00 hr 16 min 30 sec)
Heartbeat CPU 0 instructions: 110000549 cycles: 109248140 heartbeat IPC: 0.6908 cumulative IPC: 0.6194 (Simulation time: 00 hr 16 min 37 sec)
Heartbeat CPU 0 instructions: 110500550 cycles: 109991986 heartbeat IPC: 0.6722 cumulative IPC: 0.6198 (Simulation time: 00 hr 16 min 43 sec)
Heartbeat CPU 0 instructions: 111000550 cycles: 111381760 heartbeat IPC: 0.3598 cumulative IPC: 0.6161 (Simulation time: 00 hr 16 min 53 sec)
Heartbeat CPU 0 instructions: 111500553 cycles: 111836811 heartbeat IPC: 1.099 cumulative IPC: 0.6184 (Simulation time: 00 hr 16 min 57 sec)
Heartbeat CPU 0 instructions: 112000553 cycles: 112018551 heartbeat IPC: 2.751 cumulative IPC: 0.6222 (Simulation time: 00 hr 16 min 59 sec)
Heartbeat CPU 0 instructions: 112500556 cycles: 112184136 heartbeat IPC: 3.02 cumulative IPC: 0.6262 (Simulation time: 00 hr 17 min 01 sec)
Heartbeat CPU 0 instructions: 113000560 cycles: 112362024 heartbeat IPC: 2.811 cumulative IPC: 0.6301 (Simulation time: 00 hr 17 min 03 sec)
Heartbeat CPU 0 instructions: 113500560 cycles: 113832184 heartbeat IPC: 0.3401 cumulative IPC: 0.6259 (Simulation time: 00 hr 17 min 14 sec)
Heartbeat CPU 0 instructions: 114000562 cycles: 114510280 heartbeat IPC: 0.7374 cumulative IPC: 0.6266 (Simulation time: 00 hr 17 min 20 sec)
Heartbeat CPU 0 instructions: 114500562 cycles: 116122828 heartbeat IPC: 0.3101 cumulative IPC: 0.6217 (Simulation time: 00 hr 17 min 33 sec)
Heartbeat CPU 0 instructions: 115000562 cycles: 117712023 heartbeat IPC: 0.3146 cumulative IPC: 0.6171 (Simulation time: 00 hr 17 min 46 sec)
Heartbeat CPU 0 instructions: 115500564 cycles: 118657692 heartbeat IPC: 0.5287 cumulative IPC: 0.6163 (Simulation time: 00 hr 17 min 54 sec)
Heartbeat CPU 0 instructions: 116000564 cycles: 119447320 heartbeat IPC: 0.6332 cumulative IPC: 0.6164 (Simulation time: 00 hr 18 min 01 sec)
Heartbeat CPU 0 instructions: 116500565 cycles: 120819341 heartbeat IPC: 0.3644 cumulative IPC: 0.6132 (Simulation time: 00 hr 18 min 11 sec)
Heartbeat CPU 0 instructions: 117000566 cycles: 121812214 heartbeat IPC: 0.5036 cumulative IPC: 0.6123 (Simulation time: 00 hr 18 min 19 sec)
Heartbeat CPU 0 instructions: 117500568 cycles: 122801434 heartbeat IPC: 0.5055 cumulative IPC: 0.6113 (Simulation time: 00 hr 18 min 28 sec)
Heartbeat CPU 0 instructions: 118000569 cycles: 123637914 heartbeat IPC: 0.5977 cumulative IPC: 0.6112 (Simulation time: 00 hr 18 min 35 sec)
Heartbeat CPU 0 instructions: 118500573 cycles: 124100223 heartbeat IPC: 1.082 cumulative IPC: 0.6131 (Simulation time: 00 hr 18 min 39 sec)
Heartbeat CPU 0 instructions: 119000579 cycles: 124726847 heartbeat IPC: 0.7979 cumulative IPC: 0.6142 (Simulation time: 00 hr 18 min 45 sec)
Heartbeat CPU 0 instructions: 119500585 cycles: 125702215 heartbeat IPC: 0.5126 cumulative IPC: 0.6133 (Simulation time: 00 hr 18 min 54 sec)
Heartbeat CPU 0 instructions: 120000591 cycles: 126709204 heartbeat IPC: 0.4965 cumulative IPC: 0.6123 (Simulation time: 00 hr 19 min 02 sec)
Heartbeat CPU 0 instructions: 120500592 cycles: 127780518 heartbeat IPC: 0.4667 cumulative IPC: 0.6109 (Simulation time: 00 hr 19 min 11 sec)
Heartbeat CPU 0 instructions: 121000592 cycles: 129151088 heartbeat IPC: 0.3648 cumulative IPC: 0.608 (Simulation time: 00 hr 19 min 22 sec)
Heartbeat CPU 0 instructions: 121500593 cycles: 129629075 heartbeat IPC: 1.046 cumulative IPC: 0.6098 (Simulation time: 00 hr 19 min 26 sec)
Heartbeat CPU 0 instructions: 122000594 cycles: 129822453 heartbeat IPC: 2.586 cumulative IPC: 0.6131 (Simulation time: 00 hr 19 min 29 sec)
Heartbeat CPU 0 instructions: 122500601 cycles: 130354020 heartbeat IPC: 0.9406 cumulative IPC: 0.6145 (Simulation time: 00 hr 19 min 34 sec)
Heartbeat CPU 0 instructions: 123000601 cycles: 131165895 heartbeat IPC: 0.6159 cumulative IPC: 0.6146 (Simulation time: 00 hr 19 min 41 sec)
Heartbeat CPU 0 instructions: 123500602 cycles: 131902392 heartbeat IPC: 0.6789 cumulative IPC: 0.6149 (Simulation time: 00 hr 19 min 47 sec)
Heartbeat CPU 0 instructions: 124000605 cycles: 132764869 heartbeat IPC: 0.5797 cumulative IPC: 0.6147 (Simulation time: 00 hr 19 min 54 sec)
Heartbeat CPU 0 instructions: 124500607 cycles: 134175399 heartbeat IPC: 0.3545 cumulative IPC: 0.6117 (Simulation time: 00 hr 20 min 06 sec)
Heartbeat CPU 0 instructions: 125000608 cycles: 135587185 heartbeat IPC: 0.3542 cumulative IPC: 0.6087 (Simulation time: 00 hr 20 min 17 sec)
Heartbeat CPU 0 instructions: 125500610 cycles: 136441166 heartbeat IPC: 0.5855 cumulative IPC: 0.6086 (Simulation time: 00 hr 20 min 25 sec)
Heartbeat CPU 0 instructions: 126000613 cycles: 136681165 heartbeat IPC: 2.083 cumulative IPC: 0.6114 (Simulation time: 00 hr 20 min 27 sec)
Heartbeat CPU 0 instructions: 126500615 cycles: 137402717 heartbeat IPC: 0.693 cumulative IPC: 0.6119 (Simulation time: 00 hr 20 min 34 sec)
Heartbeat CPU 0 instructions: 127000617 cycles: 138771743 heartbeat IPC: 0.3652 cumulative IPC: 0.6092 (Simulation time: 00 hr 20 min 45 sec)
Heartbeat CPU 0 instructions: 127500619 cycles: 139774284 heartbeat IPC: 0.4987 cumulative IPC: 0.6083 (Simulation time: 00 hr 20 min 53 sec)
Heartbeat CPU 0 instructions: 128000621 cycles: 140847697 heartbeat IPC: 0.4658 cumulative IPC: 0.6072 (Simulation time: 00 hr 21 min 02 sec)
Heartbeat CPU 0 instructions: 128500626 cycles: 142051912 heartbeat IPC: 0.4152 cumulative IPC: 0.6054 (Simulation time: 00 hr 21 min 11 sec)
Heartbeat CPU 0 instructions: 129000626 cycles: 142809219 heartbeat IPC: 0.6602 cumulative IPC: 0.6057 (Simulation time: 00 hr 21 min 17 sec)
Heartbeat CPU 0 instructions: 129500633 cycles: 143371049 heartbeat IPC: 0.89 cumulative IPC: 0.6069 (Simulation time: 00 hr 21 min 23 sec)
Heartbeat CPU 0 instructions: 130000640 cycles: 143508846 heartbeat IPC: 3.629 cumulative IPC: 0.6101 (Simulation time: 00 hr 21 min 25 sec)
Heartbeat CPU 0 instructions: 130500640 cycles: 144814295 heartbeat IPC: 0.383 cumulative IPC: 0.6078 (Simulation time: 00 hr 21 min 35 sec)
Heartbeat CPU 0 instructions: 131000646 cycles: 145779311 heartbeat IPC: 0.5181 cumulative IPC: 0.6072 (Simulation time: 00 hr 21 min 44 sec)
Heartbeat CPU 0 instructions: 131500646 cycles: 147466095 heartbeat IPC: 0.2964 cumulative IPC: 0.6033 (Simulation time: 00 hr 21 min 57 sec)
Heartbeat CPU 0 instructions: 132000651 cycles: 148297583 heartbeat IPC: 0.6013 cumulative IPC: 0.6033 (Simulation time: 00 hr 22 min 04 sec)
Heartbeat CPU 0 instructions: 132500652 cycles: 148895833 heartbeat IPC: 0.8358 cumulative IPC: 0.6043 (Simulation time: 00 hr 22 min 09 sec)
Heartbeat CPU 0 instructions: 133000659 cycles: 149957545 heartbeat IPC: 0.4709 cumulative IPC: 0.6033 (Simulation time: 00 hr 22 min 18 sec)
Heartbeat CPU 0 instructions: 133500665 cycles: 151562304 heartbeat IPC: 0.3116 cumulative IPC: 0.5999 (Simulation time: 00 hr 22 min 30 sec)
Heartbeat CPU 0 instructions: 134000668 cycles: 152453014 heartbeat IPC: 0.5614 cumulative IPC: 0.5997 (Simulation time: 00 hr 22 min 38 sec)
Heartbeat CPU 0 instructions: 134500669 cycles: 153479064 heartbeat IPC: 0.4873 cumulative IPC: 0.5989 (Simulation time: 00 hr 22 min 46 sec)
Heartbeat CPU 0 instructions: 135000669 cycles: 154077945 heartbeat IPC: 0.8349 cumulative IPC: 0.5999 (Simulation time: 00 hr 22 min 52 sec)
Heartbeat CPU 0 instructions: 135500671 cycles: 155190454 heartbeat IPC: 0.4494 cumulative IPC: 0.5987 (Simulation time: 00 hr 23 min 01 sec)
Heartbeat CPU 0 instructions: 136000672 cycles: 156202626 heartbeat IPC: 0.494 cumulative IPC: 0.598 (Simulation time: 00 hr 23 min 10 sec)
Heartbeat CPU 0 instructions: 136500674 cycles: 157083320 heartbeat IPC: 0.5677 cumulative IPC: 0.5978 (Simulation time: 00 hr 23 min 18 sec)
Heartbeat CPU 0 instructions: 137000676 cycles: 158282241 heartbeat IPC: 0.417 cumulative IPC: 0.5963 (Simulation time: 00 hr 23 min 28 sec)
Heartbeat CPU 0 instructions: 137500676 cycles: 159649603 heartbeat IPC: 0.3657 cumulative IPC: 0.5941 (Simulation time: 00 hr 23 min 39 sec)
Heartbeat CPU 0 instructions: 138000680 cycles: 160622517 heartbeat IPC: 0.5139 cumulative IPC: 0.5936 (Simulation time: 00 hr 23 min 46 sec)
Heartbeat CPU 0 instructions: 138500683 cycles: 161199804 heartbeat IPC: 0.8661 cumulative IPC: 0.5947 (Simulation time: 00 hr 23 min 52 sec)
Heartbeat CPU 0 instructions: 139000683 cycles: 161538430 heartbeat IPC: 1.477 cumulative IPC: 0.5967 (Simulation time: 00 hr 23 min 55 sec)
Heartbeat CPU 0 instructions: 139500686 cycles: 161950665 heartbeat IPC: 1.213 cumulative IPC: 0.5984 (Simulation time: 00 hr 24 min 00 sec)
Heartbeat CPU 0 instructions: 140000688 cycles: 162296509 heartbeat IPC: 1.446 cumulative IPC: 0.6003 (Simulation time: 00 hr 24 min 03 sec)
Heartbeat CPU 0 instructions: 140500688 cycles: 163439173 heartbeat IPC: 0.4376 cumulative IPC: 0.5991 (Simulation time: 00 hr 24 min 12 sec)
Heartbeat CPU 0 instructions: 141000694 cycles: 163758228 heartbeat IPC: 1.567 cumulative IPC: 0.6011 (Simulation time: 00 hr 24 min 16 sec)
Heartbeat CPU 0 instructions: 141500701 cycles: 165495772 heartbeat IPC: 0.2878 cumulative IPC: 0.5976 (Simulation time: 00 hr 24 min 30 sec)
Heartbeat CPU 0 instructions: 142000701 cycles: 166227456 heartbeat IPC: 0.6834 cumulative IPC: 0.598 (Simulation time: 00 hr 24 min 37 sec)
Heartbeat CPU 0 instructions: 142500701 cycles: 167059390 heartbeat IPC: 0.601 cumulative IPC: 0.598 (Simulation time: 00 hr 24 min 45 sec)
Heartbeat CPU 0 instructions: 143000701 cycles: 168104422 heartbeat IPC: 0.4785 cumulative IPC: 0.5972 (Simulation time: 00 hr 24 min 54 sec)
Heartbeat CPU 0 instructions: 143500701 cycles: 169163966 heartbeat IPC: 0.4719 cumulative IPC: 0.5964 (Simulation time: 00 hr 25 min 02 sec)
Heartbeat CPU 0 instructions: 144000708 cycles: 170297320 heartbeat IPC: 0.4412 cumulative IPC: 0.5952 (Simulation time: 00 hr 25 min 13 sec)
Heartbeat CPU 0 instructions: 144500711 cycles: 171022769 heartbeat IPC: 0.6892 cumulative IPC: 0.5957 (Simulation time: 00 hr 25 min 22 sec)
Heartbeat CPU 0 instructions: 145000711 cycles: 171761031 heartbeat IPC: 0.6773 cumulative IPC: 0.5961 (Simulation time: 00 hr 25 min 30 sec)
Heartbeat CPU 0 instructions: 145500714 cycles: 172466083 heartbeat IPC: 0.7092 cumulative IPC: 0.5966 (Simulation time: 00 hr 25 min 38 sec)
Heartbeat CPU 0 instructions: 146000718 cycles: 173878987 heartbeat IPC: 0.3539 cumulative IPC: 0.5944 (Simulation time: 00 hr 25 min 53 sec)
Heartbeat CPU 0 instructions: 146500723 cycles: 175228855 heartbeat IPC: 0.3704 cumulative IPC: 0.5926 (Simulation time: 00 hr 26 min 08 sec)
Heartbeat CPU 0 instructions: 147000728 cycles: 176331397 heartbeat IPC: 0.4535 cumulative IPC: 0.5916 (Simulation time: 00 hr 26 min 20 sec)
Heartbeat CPU 0 instructions: 147500728 cycles: 177457502 heartbeat IPC: 0.444 cumulative IPC: 0.5906 (Simulation time: 00 hr 26 min 32 sec)
Heartbeat CPU 0 instructions: 148000730 cycles: 178435678 heartbeat IPC: 0.5112 cumulative IPC: 0.5902 (Simulation time: 00 hr 26 min 43 sec)
Heartbeat CPU 0 instructions: 148500736 cycles: 179978595 heartbeat IPC: 0.3241 cumulative IPC: 0.5877 (Simulation time: 00 hr 27 min 00 sec)
Heartbeat CPU 0 instructions: 149000736 cycles: 181678399 heartbeat IPC: 0.2942 cumulative IPC: 0.5848 (Simulation time: 00 hr 27 min 13 sec)
Heartbeat CPU 0 instructions: 149500736 cycles: 183171254 heartbeat IPC: 0.3349 cumulative IPC: 0.5826 (Simulation time: 00 hr 27 min 28 sec)
Heartbeat CPU 0 instructions: 150000736 cycles: 184210045 heartbeat IPC: 0.4813 cumulative IPC: 0.582 (Simulation time: 00 hr 27 min 39 sec)
Heartbeat CPU 0 instructions: 150500738 cycles: 185450074 heartbeat IPC: 0.4032 cumulative IPC: 0.5807 (Simulation time: 00 hr 27 min 53 sec)
Heartbeat CPU 0 instructions: 151000743 cycles: 186435492 heartbeat IPC: 0.5074 cumulative IPC: 0.5803 (Simulation time: 00 hr 28 min 03 sec)
Heartbeat CPU 0 instructions: 151500749 cycles: 188000281 heartbeat IPC: 0.3195 cumulative IPC: 0.578 (Simulation time: 00 hr 28 min 20 sec)
Heartbeat CPU 0 instructions: 152000753 cycles: 189442882 heartbeat IPC: 0.3466 cumulative IPC: 0.5761 (Simulation time: 00 hr 28 min 35 sec)
Heartbeat CPU 0 instructions: 152500754 cycles: 190639497 heartbeat IPC: 0.4178 cumulative IPC: 0.575 (Simulation time: 00 hr 28 min 48 sec)
Heartbeat CPU 0 instructions: 153000754 cycles: 191725684 heartbeat IPC: 0.4603 cumulative IPC: 0.5743 (Simulation time: 00 hr 29 min 01 sec)
Heartbeat CPU 0 instructions: 153500755 cycles: 193004888 heartbeat IPC: 0.3909 cumulative IPC: 0.573 (Simulation time: 00 hr 29 min 15 sec)
Heartbeat CPU 0 instructions: 154000755 cycles: 194193389 heartbeat IPC: 0.4207 cumulative IPC: 0.572 (Simulation time: 00 hr 29 min 28 sec)
Heartbeat CPU 0 instructions: 154500757 cycles: 195241974 heartbeat IPC: 0.4768 cumulative IPC: 0.5715 (Simulation time: 00 hr 29 min 38 sec)
Heartbeat CPU 0 instructions: 155000757 cycles: 195861077 heartbeat IPC: 0.8076 cumulative IPC: 0.5723 (Simulation time: 00 hr 29 min 43 sec)
Heartbeat CPU 0 instructions: 155500761 cycles: 196410284 heartbeat IPC: 0.9104 cumulative IPC: 0.5733 (Simulation time: 00 hr 29 min 48 sec)
Heartbeat CPU 0 instructions: 156000766 cycles: 197154301 heartbeat IPC: 0.672 cumulative IPC: 0.5737 (Simulation time: 00 hr 29 min 54 sec)
Heartbeat CPU 0 instructions: 156500766 cycles: 197852260 heartbeat IPC: 0.7164 cumulative IPC: 0.5742 (Simulation time: 00 hr 30 min 01 sec)
Heartbeat CPU 0 instructions: 157000767 cycles: 198961526 heartbeat IPC: 0.4507 cumulative IPC: 0.5735 (Simulation time: 00 hr 30 min 10 sec)
Heartbeat CPU 0 instructions: 157500767 cycles: 200153678 heartbeat IPC: 0.4194 cumulative IPC: 0.5725 (Simulation time: 00 hr 30 min 20 sec)
Heartbeat CPU 0 instructions: 158000767 cycles: 201192558 heartbeat IPC: 0.4813 cumulative IPC: 0.572 (Simulation time: 00 hr 30 min 29 sec)
Heartbeat CPU 0 instructions: 158500767 cycles: 201689794 heartbeat IPC: 1.006 cumulative IPC: 0.5731 (Simulation time: 00 hr 30 min 34 sec)
Heartbeat CPU 0 instructions: 159000767 cycles: 202721499 heartbeat IPC: 0.4846 cumulative IPC: 0.5727 (Simulation time: 00 hr 30 min 43 sec)
Heartbeat CPU 0 instructions: 159500769 cycles: 203175165 heartbeat IPC: 1.102 cumulative IPC: 0.5739 (Simulation time: 00 hr 30 min 47 sec)
Heartbeat CPU 0 instructions: 160000770 cycles: 203817453 heartbeat IPC: 0.7785 cumulative IPC: 0.5746 (Simulation time: 00 hr 30 min 54 sec)
Heartbeat CPU 0 instructions: 160500770 cycles: 205028940 heartbeat IPC: 0.4127 cumulative IPC: 0.5736 (Simulation time: 00 hr 31 min 03 sec)
Heartbeat CPU 0 instructions: 161000772 cycles: 205455496 heartbeat IPC: 1.172 cumulative IPC: 0.5749 (Simulation time: 00 hr 31 min 08 sec)
Heartbeat CPU 0 instructions: 161500775 cycles: 207165889 heartbeat IPC: 0.2923 cumulative IPC: 0.5724 (Simulation time: 00 hr 31 min 23 sec)
Heartbeat CPU 0 instructions: 162000775 cycles: 208612150 heartbeat IPC: 0.3457 cumulative IPC: 0.5708 (Simulation time: 00 hr 31 min 35 sec)
Heartbeat CPU 0 instructions: 162500775 cycles: 209290958 heartbeat IPC: 0.7366 cumulative IPC: 0.5713 (Simulation time: 00 hr 31 min 40 sec)
Heartbeat CPU 0 instructions: 163000779 cycles: 209854793 heartbeat IPC: 0.8868 cumulative IPC: 0.5722 (Simulation time: 00 hr 31 min 45 sec)
Heartbeat CPU 0 instructions: 163500786 cycles: 210214222 heartbeat IPC: 1.391 cumulative IPC: 0.5737 (Simulation time: 00 hr 31 min 49 sec)
Heartbeat CPU 0 instructions: 164000788 cycles: 211014238 heartbeat IPC: 0.625 cumulative IPC: 0.5739 (Simulation time: 00 hr 31 min 56 sec)
Heartbeat CPU 0 instructions: 164500792 cycles: 212093968 heartbeat IPC: 0.4631 cumulative IPC: 0.5733 (Simulation time: 00 hr 32 min 04 sec)
Heartbeat CPU 0 instructions: 165000792 cycles: 212740842 heartbeat IPC: 0.7729 cumulative IPC: 0.574 (Simulation time: 00 hr 32 min 10 sec)
Heartbeat CPU 0 instructions: 165500796 cycles: 213966367 heartbeat IPC: 0.408 cumulative IPC: 0.573 (Simulation time: 00 hr 32 min 20 sec)
Heartbeat CPU 0 instructions: 166000797 cycles: 216048001 heartbeat IPC: 0.2402 cumulative IPC: 0.5696 (Simulation time: 00 hr 32 min 36 sec)
Heartbeat CPU 0 instructions: 166500799 cycles: 216580036 heartbeat IPC: 0.9398 cumulative IPC: 0.5705 (Simulation time: 00 hr 32 min 41 sec)
Heartbeat CPU 0 instructions: 167000805 cycles: 217047921 heartbeat IPC: 1.069 cumulative IPC: 0.5717 (Simulation time: 00 hr 32 min 46 sec)
Heartbeat CPU 0 instructions: 167500805 cycles: 217964270 heartbeat IPC: 0.5456 cumulative IPC: 0.5715 (Simulation time: 00 hr 32 min 54 sec)
Heartbeat CPU 0 instructions: 168000805 cycles: 218803763 heartbeat IPC: 0.5956 cumulative IPC: 0.5716 (Simulation time: 00 hr 33 min 01 sec)
Heartbeat CPU 0 instructions: 168500805 cycles: 219255351 heartbeat IPC: 1.107 cumulative IPC: 0.5728 (Simulation time: 00 hr 33 min 06 sec)
Heartbeat CPU 0 instructions: 169000810 cycles: 220626518 heartbeat IPC: 0.3647 cumulative IPC: 0.5714 (Simulation time: 00 hr 33 min 17 sec)
Heartbeat CPU 0 instructions: 169500810 cycles: 220981595 heartbeat IPC: 1.408 cumulative IPC: 0.5729 (Simulation time: 00 hr 33 min 21 sec)
Heartbeat CPU 0 instructions: 170000810 cycles: 222645902 heartbeat IPC: 0.3004 cumulative IPC: 0.5707 (Simulation time: 00 hr 33 min 35 sec)
Heartbeat CPU 0 instructions: 170500816 cycles: 223725544 heartbeat IPC: 0.4631 cumulative IPC: 0.5702 (Simulation time: 00 hr 33 min 44 sec)
Heartbeat CPU 0 instructions: 171000821 cycles: 225085458 heartbeat IPC: 0.3677 cumulative IPC: 0.5689 (Simulation time: 00 hr 33 min 55 sec)
Heartbeat CPU 0 instructions: 171500821 cycles: 225612958 heartbeat IPC: 0.9479 cumulative IPC: 0.5698 (Simulation time: 00 hr 34 min 00 sec)
Heartbeat CPU 0 instructions: 172000826 cycles: 225893566 heartbeat IPC: 1.782 cumulative IPC: 0.5714 (Simulation time: 00 hr 34 min 03 sec)
Heartbeat CPU 0 instructions: 172500826 cycles: 226722289 heartbeat IPC: 0.6033 cumulative IPC: 0.5715 (Simulation time: 00 hr 34 min 11 sec)
Heartbeat CPU 0 instructions: 173000829 cycles: 227666632 heartbeat IPC: 0.5295 cumulative IPC: 0.5713 (Simulation time: 00 hr 34 min 18 sec)
Heartbeat CPU 0 instructions: 173500831 cycles: 228413389 heartbeat IPC: 0.6696 cumulative IPC: 0.5717 (Simulation time: 00 hr 34 min 25 sec)
Heartbeat CPU 0 instructions: 174000838 cycles: 229895663 heartbeat IPC: 0.3373 cumulative IPC: 0.5701 (Simulation time: 00 hr 34 min 37 sec)
Heartbeat CPU 0 instructions: 174500838 cycles: 230794337 heartbeat IPC: 0.5564 cumulative IPC: 0.57 (Simulation time: 00 hr 34 min 45 sec)
Heartbeat CPU 0 instructions: 175000840 cycles: 231402956 heartbeat IPC: 0.8215 cumulative IPC: 0.5707 (Simulation time: 00 hr 34 min 50 sec)
Heartbeat CPU 0 instructions: 175500842 cycles: 232031174 heartbeat IPC: 0.7959 cumulative IPC: 0.5714 (Simulation time: 00 hr 34 min 56 sec)
Heartbeat CPU 0 instructions: 176000842 cycles: 232463846 heartbeat IPC: 1.156 cumulative IPC: 0.5725 (Simulation time: 00 hr 35 min 01 sec)
Heartbeat CPU 0 instructions: 176500845 cycles: 233105805 heartbeat IPC: 0.7789 cumulative IPC: 0.5731 (Simulation time: 00 hr 35 min 07 sec)
Heartbeat CPU 0 instructions: 177000846 cycles: 234029925 heartbeat IPC: 0.5411 cumulative IPC: 0.573 (Simulation time: 00 hr 35 min 15 sec)
Heartbeat CPU 0 instructions: 177500847 cycles: 235205326 heartbeat IPC: 0.4254 cumulative IPC: 0.5722 (Simulation time: 00 hr 35 min 25 sec)
Heartbeat CPU 0 instructions: 178000851 cycles: 236770604 heartbeat IPC: 0.3194 cumulative IPC: 0.5704 (Simulation time: 00 hr 35 min 37 sec)
Heartbeat CPU 0 instructions: 178500852 cycles: 237877777 heartbeat IPC: 0.4516 cumulative IPC: 0.5699 (Simulation time: 00 hr 35 min 46 sec)
Heartbeat CPU 0 instructions: 179000856 cycles: 239319283 heartbeat IPC: 0.3469 cumulative IPC: 0.5684 (Simulation time: 00 hr 35 min 57 sec)
Heartbeat CPU 0 instructions: 179500863 cycles: 240426210 heartbeat IPC: 0.4517 cumulative IPC: 0.5679 (Simulation time: 00 hr 36 min 06 sec)
Heartbeat CPU 0 instructions: 180000863 cycles: 242081159 heartbeat IPC: 0.3021 cumulative IPC: 0.566 (Simulation time: 00 hr 36 min 19 sec)
Heartbeat CPU 0 instructions: 180500863 cycles: 243034520 heartbeat IPC: 0.5245 cumulative IPC: 0.5658 (Simulation time: 00 hr 36 min 27 sec)
Heartbeat CPU 0 instructions: 181000864 cycles: 244278679 heartbeat IPC: 0.4019 cumulative IPC: 0.5649 (Simulation time: 00 hr 36 min 37 sec)
Heartbeat CPU 0 instructions: 181500868 cycles: 244955546 heartbeat IPC: 0.7387 cumulative IPC: 0.5654 (Simulation time: 00 hr 36 min 43 sec)
Heartbeat CPU 0 instructions: 182000870 cycles: 246108202 heartbeat IPC: 0.4338 cumulative IPC: 0.5648 (Simulation time: 00 hr 36 min 51 sec)
Heartbeat CPU 0 instructions: 182500872 cycles: 247372685 heartbeat IPC: 0.3954 cumulative IPC: 0.5638 (Simulation time: 00 hr 37 min 01 sec)
Heartbeat CPU 0 instructions: 183000873 cycles: 248006330 heartbeat IPC: 0.7891 cumulative IPC: 0.5645 (Simulation time: 00 hr 37 min 07 sec)
Heartbeat CPU 0 instructions: 183500873 cycles: 249656398 heartbeat IPC: 0.303 cumulative IPC: 0.5626 (Simulation time: 00 hr 37 min 19 sec)
Heartbeat CPU 0 instructions: 184000880 cycles: 251207381 heartbeat IPC: 0.3224 cumulative IPC: 0.5611 (Simulation time: 00 hr 37 min 31 sec)
Heartbeat CPU 0 instructions: 184500882 cycles: 252807049 heartbeat IPC: 0.3126 cumulative IPC: 0.5594 (Simulation time: 00 hr 37 min 43 sec)
Heartbeat CPU 0 instructions: 185000889 cycles: 254096719 heartbeat IPC: 0.3877 cumulative IPC: 0.5585 (Simulation time: 00 hr 37 min 53 sec)
Heartbeat CPU 0 instructions: 185500889 cycles: 255450295 heartbeat IPC: 0.3694 cumulative IPC: 0.5575 (Simulation time: 00 hr 38 min 03 sec)
Heartbeat CPU 0 instructions: 186000889 cycles: 256000952 heartbeat IPC: 0.908 cumulative IPC: 0.5582 (Simulation time: 00 hr 38 min 08 sec)
Heartbeat CPU 0 instructions: 186500889 cycles: 256181892 heartbeat IPC: 2.763 cumulative IPC: 0.5599 (Simulation time: 00 hr 38 min 10 sec)
Heartbeat CPU 0 instructions: 187000891 cycles: 256399935 heartbeat IPC: 2.293 cumulative IPC: 0.5614 (Simulation time: 00 hr 38 min 13 sec)
Heartbeat CPU 0 instructions: 187500893 cycles: 257848932 heartbeat IPC: 0.3451 cumulative IPC: 0.5602 (Simulation time: 00 hr 38 min 24 sec)
Heartbeat CPU 0 instructions: 188000894 cycles: 258859613 heartbeat IPC: 0.4947 cumulative IPC: 0.5599 (Simulation time: 00 hr 38 min 31 sec)
Heartbeat CPU 0 instructions: 188500895 cycles: 260363898 heartbeat IPC: 0.3324 cumulative IPC: 0.5585 (Simulation time: 00 hr 38 min 43 sec)
Heartbeat CPU 0 instructions: 189000898 cycles: 261028305 heartbeat IPC: 0.7526 cumulative IPC: 0.559 (Simulation time: 00 hr 38 min 49 sec)
Heartbeat CPU 0 instructions: 189500899 cycles: 261716465 heartbeat IPC: 0.7266 cumulative IPC: 0.5595 (Simulation time: 00 hr 38 min 54 sec)
Heartbeat CPU 0 instructions: 190000899 cycles: 262676999 heartbeat IPC: 0.5205 cumulative IPC: 0.5593 (Simulation time: 00 hr 39 min 01 sec)
Heartbeat CPU 0 instructions: 190500900 cycles: 263639437 heartbeat IPC: 0.5195 cumulative IPC: 0.5592 (Simulation time: 00 hr 39 min 09 sec)
Heartbeat CPU 0 instructions: 191000900 cycles: 265179818 heartbeat IPC: 0.3246 cumulative IPC: 0.5578 (Simulation time: 00 hr 39 min 20 sec)
Heartbeat CPU 0 instructions: 191500902 cycles: 266492442 heartbeat IPC: 0.3809 cumulative IPC: 0.5568 (Simulation time: 00 hr 39 min 30 sec)
Heartbeat CPU 0 instructions: 192000902 cycles: 267266219 heartbeat IPC: 0.6462 cumulative IPC: 0.5571 (Simulation time: 00 hr 39 min 37 sec)
Heartbeat CPU 0 instructions: 192500902 cycles: 268343394 heartbeat IPC: 0.4642 cumulative IPC: 0.5567 (Simulation time: 00 hr 39 min 45 sec)
Heartbeat CPU 0 instructions: 193000904 cycles: 268575967 heartbeat IPC: 2.15 cumulative IPC: 0.5582 (Simulation time: 00 hr 39 min 48 sec)
Heartbeat CPU 0 instructions: 193500907 cycles: 268832122 heartbeat IPC: 1.952 cumulative IPC: 0.5596 (Simulation time: 00 hr 39 min 51 sec)
Heartbeat CPU 0 instructions: 194000911 cycles: 269439737 heartbeat IPC: 0.8229 cumulative IPC: 0.5602 (Simulation time: 00 hr 39 min 56 sec)
Heartbeat CPU 0 instructions: 194500911 cycles: 270112151 heartbeat IPC: 0.7436 cumulative IPC: 0.5607 (Simulation time: 00 hr 40 min 02 sec)
Heartbeat CPU 0 instructions: 195000911 cycles: 270559577 heartbeat IPC: 1.118 cumulative IPC: 0.5616 (Simulation time: 00 hr 40 min 06 sec)
Heartbeat CPU 0 instructions: 195500912 cycles: 271649145 heartbeat IPC: 0.4589 cumulative IPC: 0.5612 (Simulation time: 00 hr 40 min 15 sec)
Heartbeat CPU 0 instructions: 196000917 cycles: 272475325 heartbeat IPC: 0.6052 cumulative IPC: 0.5613 (Simulation time: 00 hr 40 min 21 sec)
Heartbeat CPU 0 instructions: 196500920 cycles: 273261353 heartbeat IPC: 0.6361 cumulative IPC: 0.5616 (Simulation time: 00 hr 40 min 28 sec)
Heartbeat CPU 0 instructions: 197000920 cycles: 273935534 heartbeat IPC: 0.7416 cumulative IPC: 0.562 (Simulation time: 00 hr 40 min 33 sec)
Heartbeat CPU 0 instructions: 197500920 cycles: 274416755 heartbeat IPC: 1.039 cumulative IPC: 0.5629 (Simulation time: 00 hr 40 min 38 sec)
Heartbeat CPU 0 instructions: 198000923 cycles: 274909338 heartbeat IPC: 1.015 cumulative IPC: 0.5637 (Simulation time: 00 hr 40 min 42 sec)
Heartbeat CPU 0 instructions: 198500923 cycles: 275398852 heartbeat IPC: 1.021 cumulative IPC: 0.5646 (Simulation time: 00 hr 40 min 46 sec)
Heartbeat CPU 0 instructions: 199000929 cycles: 276065636 heartbeat IPC: 0.7499 cumulative IPC: 0.5651 (Simulation time: 00 hr 40 min 52 sec)
Heartbeat CPU 0 instructions: 199500930 cycles: 276593923 heartbeat IPC: 0.9465 cumulative IPC: 0.5658 (Simulation time: 00 hr 40 min 57 sec)
Heartbeat CPU 0 instructions: 200000935 cycles: 277529938 heartbeat IPC: 0.5342 cumulative IPC: 0.5657 (Simulation time: 00 hr 41 min 04 sec)
Heartbeat CPU 0 instructions: 200500935 cycles: 278903562 heartbeat IPC: 0.364 cumulative IPC: 0.5647 (Simulation time: 00 hr 41 min 15 sec)
Heartbeat CPU 0 instructions: 201000935 cycles: 279898768 heartbeat IPC: 0.5024 cumulative IPC: 0.5644 (Simulation time: 00 hr 41 min 22 sec)
Heartbeat CPU 0 instructions: 201500937 cycles: 280507219 heartbeat IPC: 0.8218 cumulative IPC: 0.565 (Simulation time: 00 hr 41 min 27 sec)
Heartbeat CPU 0 instructions: 202000940 cycles: 280895548 heartbeat IPC: 1.288 cumulative IPC: 0.5661 (Simulation time: 00 hr 41 min 30 sec)
Heartbeat CPU 0 instructions: 202500944 cycles: 281391038 heartbeat IPC: 1.009 cumulative IPC: 0.5669 (Simulation time: 00 hr 41 min 34 sec)
Heartbeat CPU 0 instructions: 203000949 cycles: 281963729 heartbeat IPC: 0.8731 cumulative IPC: 0.5675 (Simulation time: 00 hr 41 min 39 sec)
Heartbeat CPU 0 instructions: 203500953 cycles: 282260605 heartbeat IPC: 1.684 cumulative IPC: 0.5688 (Simulation time: 00 hr 41 min 42 sec)
Heartbeat CPU 0 instructions: 204000959 cycles: 282573992 heartbeat IPC: 1.595 cumulative IPC: 0.57 (Simulation time: 00 hr 41 min 45 sec)
Heartbeat CPU 0 instructions: 204500960 cycles: 283581754 heartbeat IPC: 0.4961 cumulative IPC: 0.5697 (Simulation time: 00 hr 41 min 53 sec)
Heartbeat CPU 0 instructions: 205000961 cycles: 284835266 heartbeat IPC: 0.3989 cumulative IPC: 0.5689 (Simulation time: 00 hr 42 min 01 sec)
Heartbeat CPU 0 instructions: 205500961 cycles: 285675499 heartbeat IPC: 0.5951 cumulative IPC: 0.569 (Simulation time: 00 hr 42 min 08 sec)
Heartbeat CPU 0 instructions: 206000965 cycles: 286059815 heartbeat IPC: 1.301 cumulative IPC: 0.57 (Simulation time: 00 hr 42 min 11 sec)
Heartbeat CPU 0 instructions: 206500971 cycles: 286423539 heartbeat IPC: 1.375 cumulative IPC: 0.5711 (Simulation time: 00 hr 42 min 15 sec)
Heartbeat CPU 0 instructions: 207000972 cycles: 286733865 heartbeat IPC: 1.611 cumulative IPC: 0.5723 (Simulation time: 00 hr 42 min 18 sec)
Heartbeat CPU 0 instructions: 207500973 cycles: 287389885 heartbeat IPC: 0.7622 cumulative IPC: 0.5727 (Simulation time: 00 hr 42 min 23 sec)
Heartbeat CPU 0 instructions: 208000973 cycles: 288686737 heartbeat IPC: 0.3855 cumulative IPC: 0.5718 (Simulation time: 00 hr 42 min 33 sec)
Heartbeat CPU 0 instructions: 208500973 cycles: 289337833 heartbeat IPC: 0.7679 cumulative IPC: 0.5723 (Simulation time: 00 hr 42 min 38 sec)
Heartbeat CPU 0 instructions: 209000974 cycles: 290611675 heartbeat IPC: 0.3925 cumulative IPC: 0.5715 (Simulation time: 00 hr 42 min 47 sec)
Heartbeat CPU 0 instructions: 209500975 cycles: 291642855 heartbeat IPC: 0.4849 cumulative IPC: 0.5711 (Simulation time: 00 hr 42 min 55 sec)
Heartbeat CPU 0 instructions: 210000981 cycles: 292141182 heartbeat IPC: 1.003 cumulative IPC: 0.5719 (Simulation time: 00 hr 42 min 59 sec)
Heartbeat CPU 0 instructions: 210500984 cycles: 292572632 heartbeat IPC: 1.159 cumulative IPC: 0.5728 (Simulation time: 00 hr 43 min 03 sec)
Heartbeat CPU 0 instructions: 211000984 cycles: 293309681 heartbeat IPC: 0.6784 cumulative IPC: 0.5731 (Simulation time: 00 hr 43 min 09 sec)
Heartbeat CPU 0 instructions: 211500984 cycles: 294591978 heartbeat IPC: 0.3899 cumulative IPC: 0.5723 (Simulation time: 00 hr 43 min 19 sec)
Heartbeat CPU 0 instructions: 212000984 cycles: 295361068 heartbeat IPC: 0.6501 cumulative IPC: 0.5725 (Simulation time: 00 hr 43 min 24 sec)
Heartbeat CPU 0 instructions: 212500986 cycles: 296137760 heartbeat IPC: 0.6438 cumulative IPC: 0.5727 (Simulation time: 00 hr 43 min 30 sec)
Heartbeat CPU 0 instructions: 213000988 cycles: 297372004 heartbeat IPC: 0.4051 cumulative IPC: 0.5719 (Simulation time: 00 hr 43 min 39 sec)
Heartbeat CPU 0 instructions: 213500992 cycles: 298212299 heartbeat IPC: 0.595 cumulative IPC: 0.572 (Simulation time: 00 hr 43 min 46 sec)
Heartbeat CPU 0 instructions: 214000994 cycles: 299364025 heartbeat IPC: 0.4341 cumulative IPC: 0.5715 (Simulation time: 00 hr 43 min 55 sec)
Heartbeat CPU 0 instructions: 214500998 cycles: 300178398 heartbeat IPC: 0.614 cumulative IPC: 0.5716 (Simulation time: 00 hr 44 min 02 sec)
Heartbeat CPU 0 instructions: 215000999 cycles: 300999809 heartbeat IPC: 0.6087 cumulative IPC: 0.5717 (Simulation time: 00 hr 44 min 08 sec)
Heartbeat CPU 0 instructions: 215501006 cycles: 301487958 heartbeat IPC: 1.024 cumulative IPC: 0.5725 (Simulation time: 00 hr 44 min 12 sec)
Heartbeat CPU 0 instructions: 216001011 cycles: 302381168 heartbeat IPC: 0.5598 cumulative IPC: 0.5724 (Simulation time: 00 hr 44 min 19 sec)
Heartbeat CPU 0 instructions: 216501011 cycles: 303412398 heartbeat IPC: 0.4849 cumulative IPC: 0.5721 (Simulation time: 00 hr 44 min 27 sec)
Heartbeat CPU 0 instructions: 217001011 cycles: 303773108 heartbeat IPC: 1.386 cumulative IPC: 0.5731 (Simulation time: 00 hr 44 min 30 sec)
Heartbeat CPU 0 instructions: 217501013 cycles: 304910661 heartbeat IPC: 0.4395 cumulative IPC: 0.5726 (Simulation time: 00 hr 44 min 39 sec)
Heartbeat CPU 0 instructions: 218001015 cycles: 305734419 heartbeat IPC: 0.607 cumulative IPC: 0.5727 (Simulation time: 00 hr 44 min 45 sec)
Heartbeat CPU 0 instructions: 218501021 cycles: 306475384 heartbeat IPC: 0.6748 cumulative IPC: 0.5729 (Simulation time: 00 hr 44 min 51 sec)
Heartbeat CPU 0 instructions: 219001023 cycles: 306874995 heartbeat IPC: 1.251 cumulative IPC: 0.5739 (Simulation time: 00 hr 44 min 54 sec)
Heartbeat CPU 0 instructions: 219501025 cycles: 307182837 heartbeat IPC: 1.624 cumulative IPC: 0.575 (Simulation time: 00 hr 44 min 57 sec)
Heartbeat CPU 0 instructions: 220001029 cycles: 308529896 heartbeat IPC: 0.3712 cumulative IPC: 0.574 (Simulation time: 00 hr 45 min 07 sec)
Heartbeat CPU 0 instructions: 220501034 cycles: 309377150 heartbeat IPC: 0.5901 cumulative IPC: 0.5741 (Simulation time: 00 hr 45 min 13 sec)
Heartbeat CPU 0 instructions: 221001037 cycles: 310360037 heartbeat IPC: 0.5087 cumulative IPC: 0.5739 (Simulation time: 00 hr 45 min 21 sec)
Heartbeat CPU 0 instructions: 221501041 cycles: 311455445 heartbeat IPC: 0.4565 cumulative IPC: 0.5734 (Simulation time: 00 hr 45 min 29 sec)
Heartbeat CPU 0 instructions: 222001043 cycles: 312278556 heartbeat IPC: 0.6075 cumulative IPC: 0.5735 (Simulation time: 00 hr 45 min 35 sec)
Heartbeat CPU 0 instructions: 222501043 cycles: 312761517 heartbeat IPC: 1.035 cumulative IPC: 0.5743 (Simulation time: 00 hr 45 min 39 sec)
Heartbeat CPU 0 instructions: 223001044 cycles: 313074672 heartbeat IPC: 1.597 cumulative IPC: 0.5753 (Simulation time: 00 hr 45 min 43 sec)
Heartbeat CPU 0 instructions: 223501048 cycles: 313530294 heartbeat IPC: 1.097 cumulative IPC: 0.5761 (Simulation time: 00 hr 45 min 47 sec)
Heartbeat CPU 0 instructions: 224001051 cycles: 314911685 heartbeat IPC: 0.362 cumulative IPC: 0.5751 (Simulation time: 00 hr 45 min 57 sec)
Heartbeat CPU 0 instructions: 224501054 cycles: 316471155 heartbeat IPC: 0.3206 cumulative IPC: 0.5738 (Simulation time: 00 hr 46 min 07 sec)
Heartbeat CPU 0 instructions: 225001056 cycles: 317595263 heartbeat IPC: 0.4448 cumulative IPC: 0.5734 (Simulation time: 00 hr 46 min 16 sec)
Heartbeat CPU 0 instructions: 225501059 cycles: 318575691 heartbeat IPC: 0.51 cumulative IPC: 0.5732 (Simulation time: 00 hr 46 min 24 sec)
Heartbeat CPU 0 instructions: 226001061 cycles: 319956849 heartbeat IPC: 0.362 cumulative IPC: 0.5722 (Simulation time: 00 hr 46 min 34 sec)
Heartbeat CPU 0 instructions: 226501067 cycles: 320967772 heartbeat IPC: 0.4946 cumulative IPC: 0.572 (Simulation time: 00 hr 46 min 42 sec)
Heartbeat CPU 0 instructions: 227001067 cycles: 321759083 heartbeat IPC: 0.6319 cumulative IPC: 0.5721 (Simulation time: 00 hr 46 min 48 sec)
Heartbeat CPU 0 instructions: 227501067 cycles: 322441284 heartbeat IPC: 0.7329 cumulative IPC: 0.5725 (Simulation time: 00 hr 46 min 53 sec)
Heartbeat CPU 0 instructions: 228001068 cycles: 323484677 heartbeat IPC: 0.4792 cumulative IPC: 0.5722 (Simulation time: 00 hr 47 min 01 sec)
Heartbeat CPU 0 instructions: 228501070 cycles: 323923046 heartbeat IPC: 1.141 cumulative IPC: 0.573 (Simulation time: 00 hr 47 min 05 sec)
Heartbeat CPU 0 instructions: 229001070 cycles: 324319665 heartbeat IPC: 1.261 cumulative IPC: 0.5738 (Simulation time: 00 hr 47 min 08 sec)
Heartbeat CPU 0 instructions: 229501075 cycles: 325054396 heartbeat IPC: 0.6805 cumulative IPC: 0.5741 (Simulation time: 00 hr 47 min 14 sec)
Heartbeat CPU 0 instructions: 230001076 cycles: 325463060 heartbeat IPC: 1.224 cumulative IPC: 0.5749 (Simulation time: 00 hr 47 min 17 sec)
Heartbeat CPU 0 instructions: 230501076 cycles: 325808127 heartbeat IPC: 1.449 cumulative IPC: 0.5759 (Simulation time: 00 hr 47 min 20 sec)
Heartbeat CPU 0 instructions: 231001082 cycles: 326180522 heartbeat IPC: 1.343 cumulative IPC: 0.5768 (Simulation time: 00 hr 47 min 24 sec)
Heartbeat CPU 0 instructions: 231501083 cycles: 326794453 heartbeat IPC: 0.8144 cumulative IPC: 0.5773 (Simulation time: 00 hr 47 min 28 sec)
Heartbeat CPU 0 instructions: 232001083 cycles: 327356326 heartbeat IPC: 0.8899 cumulative IPC: 0.5778 (Simulation time: 00 hr 47 min 33 sec)
Heartbeat CPU 0 instructions: 232501087 cycles: 328903555 heartbeat IPC: 0.3232 cumulative IPC: 0.5766 (Simulation time: 00 hr 47 min 44 sec)
Heartbeat CPU 0 instructions: 233001087 cycles: 330488732 heartbeat IPC: 0.3154 cumulative IPC: 0.5753 (Simulation time: 00 hr 47 min 54 sec)
Heartbeat CPU 0 instructions: 233501087 cycles: 331272971 heartbeat IPC: 0.6376 cumulative IPC: 0.5754 (Simulation time: 00 hr 48 min 00 sec)
Heartbeat CPU 0 instructions: 234001089 cycles: 331657313 heartbeat IPC: 1.301 cumulative IPC: 0.5763 (Simulation time: 00 hr 48 min 04 sec)
Heartbeat CPU 0 instructions: 234501094 cycles: 333083674 heartbeat IPC: 0.3505 cumulative IPC: 0.5753 (Simulation time: 00 hr 48 min 15 sec)
Heartbeat CPU 0 instructions: 235001096 cycles: 334200261 heartbeat IPC: 0.4478 cumulative IPC: 0.5749 (Simulation time: 00 hr 48 min 23 sec)
Heartbeat CPU 0 instructions: 235501103 cycles: 335034102 heartbeat IPC: 0.5996 cumulative IPC: 0.5749 (Simulation time: 00 hr 48 min 30 sec)
Heartbeat CPU 0 instructions: 236001106 cycles: 336028977 heartbeat IPC: 0.5026 cumulative IPC: 0.5747 (Simulation time: 00 hr 48 min 38 sec)
Heartbeat CPU 0 instructions: 236501110 cycles: 336959326 heartbeat IPC: 0.5374 cumulative IPC: 0.5746 (Simulation time: 00 hr 48 min 46 sec)
Heartbeat CPU 0 instructions: 237001110 cycles: 337634490 heartbeat IPC: 0.7406 cumulative IPC: 0.5749 (Simulation time: 00 hr 48 min 51 sec)
Heartbeat CPU 0 instructions: 237501111 cycles: 338923540 heartbeat IPC: 0.3879 cumulative IPC: 0.5742 (Simulation time: 00 hr 49 min 01 sec)
Heartbeat CPU 0 instructions: 238001111 cycles: 340367363 heartbeat IPC: 0.3463 cumulative IPC: 0.5732 (Simulation time: 00 hr 49 min 12 sec)
Heartbeat CPU 0 instructions: 238501112 cycles: 340879925 heartbeat IPC: 0.9755 cumulative IPC: 0.5738 (Simulation time: 00 hr 49 min 16 sec)
Heartbeat CPU 0 instructions: 239001112 cycles: 342003258 heartbeat IPC: 0.4451 cumulative IPC: 0.5734 (Simulation time: 00 hr 49 min 24 sec)
Heartbeat CPU 0 instructions: 239501116 cycles: 343623688 heartbeat IPC: 0.3086 cumulative IPC: 0.5721 (Simulation time: 00 hr 49 min 35 sec)
Heartbeat CPU 0 instructions: 240001121 cycles: 344852616 heartbeat IPC: 0.4069 cumulative IPC: 0.5715 (Simulation time: 00 hr 49 min 44 sec)
Heartbeat CPU 0 instructions: 240501123 cycles: 345509669 heartbeat IPC: 0.761 cumulative IPC: 0.5719 (Simulation time: 00 hr 49 min 49 sec)
Heartbeat CPU 0 instructions: 241001124 cycles: 346237014 heartbeat IPC: 0.6874 cumulative IPC: 0.5721 (Simulation time: 00 hr 49 min 54 sec)
Heartbeat CPU 0 instructions: 241501124 cycles: 347378378 heartbeat IPC: 0.4381 cumulative IPC: 0.5716 (Simulation time: 00 hr 50 min 02 sec)
Heartbeat CPU 0 instructions: 242001130 cycles: 348658783 heartbeat IPC: 0.3905 cumulative IPC: 0.571 (Simulation time: 00 hr 50 min 11 sec)
Heartbeat CPU 0 instructions: 242501132 cycles: 348907242 heartbeat IPC: 2.012 cumulative IPC: 0.572 (Simulation time: 00 hr 50 min 13 sec)
Heartbeat CPU 0 instructions: 243001137 cycles: 349135286 heartbeat IPC: 2.193 cumulative IPC: 0.5731 (Simulation time: 00 hr 50 min 15 sec)
Heartbeat CPU 0 instructions: 243501140 cycles: 349376117 heartbeat IPC: 2.076 cumulative IPC: 0.5742 (Simulation time: 00 hr 50 min 17 sec)
Heartbeat CPU 0 instructions: 244001140 cycles: 349595394 heartbeat IPC: 2.28 cumulative IPC: 0.5753 (Simulation time: 00 hr 50 min 19 sec)
Heartbeat CPU 0 instructions: 244501140 cycles: 350128434 heartbeat IPC: 0.938 cumulative IPC: 0.5759 (Simulation time: 00 hr 50 min 23 sec)
Heartbeat CPU 0 instructions: 245001145 cycles: 350515406 heartbeat IPC: 1.292 cumulative IPC: 0.5767 (Simulation time: 00 hr 50 min 26 sec)
Heartbeat CPU 0 instructions: 245501149 cycles: 351240733 heartbeat IPC: 0.6893 cumulative IPC: 0.5769 (Simulation time: 00 hr 50 min 32 sec)
Heartbeat CPU 0 instructions: 246001153 cycles: 352967794 heartbeat IPC: 0.2895 cumulative IPC: 0.5755 (Simulation time: 00 hr 50 min 44 sec)
Heartbeat CPU 0 instructions: 246501155 cycles: 353857061 heartbeat IPC: 0.5623 cumulative IPC: 0.5754 (Simulation time: 00 hr 50 min 50 sec)
Heartbeat CPU 0 instructions: 247001157 cycles: 355220307 heartbeat IPC: 0.3668 cumulative IPC: 0.5746 (Simulation time: 00 hr 50 min 59 sec)
Heartbeat CPU 0 instructions: 247501158 cycles: 355772498 heartbeat IPC: 0.9055 cumulative IPC: 0.5751 (Simulation time: 00 hr 51 min 04 sec)
Heartbeat CPU 0 instructions: 248001165 cycles: 356822482 heartbeat IPC: 0.4762 cumulative IPC: 0.5748 (Simulation time: 00 hr 51 min 11 sec)
Heartbeat CPU 0 instructions: 248501170 cycles: 358116998 heartbeat IPC: 0.3862 cumulative IPC: 0.5741 (Simulation time: 00 hr 51 min 20 sec)
Heartbeat CPU 0 instructions: 249001170 cycles: 358613107 heartbeat IPC: 1.008 cumulative IPC: 0.5748 (Simulation time: 00 hr 51 min 24 sec)
Heartbeat CPU 0 instructions: 249501171 cycles: 359341661 heartbeat IPC: 0.6863 cumulative IPC: 0.575 (Simulation time: 00 hr 51 min 29 sec)
Simulation finished CPU 0 instructions: 200000007 cycles: 347519946 cumulative IPC: 0.5755 (Simulation time: 00 hr 51 min 33 sec)
Simulation complete CPU 0 instructions: 200000007 cycles: 347519946 cumulative IPC: 0.5755 (Simulation time: 00 hr 51 min 33 sec)

ChampSim completed all CPUs

=== Simulation ===
CPU 0 runs /local-ssd/ben/dpc4-traces/gtraces_v2/merced_0003.champsim.gz

Region of Interest Statistics

CPU 0 cumulative IPC: 0.5755 instructions: 200000007 cycles: 347519946
CPU 0 Branch Prediction Accuracy: 90.83% MPKI: 16.34 Average ROB Occupancy at Mispredict: 25.72
Branch type MPKI
BRANCH_DIRECT_JUMP: 0.924
BRANCH_INDIRECT: 0.3118
BRANCH_CONDITIONAL: 13.42
BRANCH_DIRECT_CALL: 0.8213
BRANCH_INDIRECT_CALL: 0.3049
BRANCH_RETURN: 0.5598

cpu0->cpu0_STLB TOTAL        ACCESS:    1910495 HIT:    1359292 MISS:     551203 MSHR_MERGE:          0
cpu0->cpu0_STLB LOAD         ACCESS:    1910495 HIT:    1359292 MISS:     551203 MSHR_MERGE:          0
cpu0->cpu0_STLB RFO          ACCESS:          0 HIT:          0 MISS:          0 MSHR_MERGE:          0
cpu0->cpu0_STLB PREFETCH     ACCESS:          0 HIT:          0 MISS:          0 MSHR_MERGE:          0
cpu0->cpu0_STLB WRITE        ACCESS:          0 HIT:          0 MISS:          0 MSHR_MERGE:          0
cpu0->cpu0_STLB TRANSLATION  ACCESS:          0 HIT:          0 MISS:          0 MSHR_MERGE:          0
cpu0->cpu0_STLB PREFETCH REQUESTED:          0 ISSUED:          0 USEFUL:          0 USELESS:          0
cpu0->cpu0_STLB AVERAGE MISS LATENCY: 212 cycles
cpu0->cpu0_L2C TOTAL        ACCESS:   23161109 HIT:   15390495 MISS:    7770614 MSHR_MERGE:    2683607
cpu0->cpu0_L2C LOAD         ACCESS:    3623656 HIT:    2443181 MISS:    1180475 MSHR_MERGE:     135434
cpu0->cpu0_L2C RFO          ACCESS:     613086 HIT:     250396 MISS:     362690 MSHR_MERGE:       3831
cpu0->cpu0_L2C PREFETCH     ACCESS:   17177507 HIT:   11237708 MISS:    5939799 MSHR_MERGE:    2544342
cpu0->cpu0_L2C WRITE        ACCESS:    1140363 HIT:    1140343 MISS:         20 MSHR_MERGE:          0
cpu0->cpu0_L2C TRANSLATION  ACCESS:     606497 HIT:     318867 MISS:     287630 MSHR_MERGE:          0
cpu0->cpu0_L2C PREFETCH REQUESTED:   16257683 ISSUED:   14876405 USEFUL:    1280687 USELESS:    1413720
cpu0->cpu0_L2C AVERAGE MISS LATENCY: 228.6 cycles
cpu0->cpu0_L1I TOTAL        ACCESS:   16141938 HIT:   14060850 MISS:    2081088 MSHR_MERGE:     482726
cpu0->cpu0_L1I LOAD         ACCESS:   16141938 HIT:   14060850 MISS:    2081088 MSHR_MERGE:     482726
cpu0->cpu0_L1I RFO          ACCESS:          0 HIT:          0 MISS:          0 MSHR_MERGE:          0
cpu0->cpu0_L1I PREFETCH     ACCESS:          0 HIT:          0 MISS:          0 MSHR_MERGE:          0
cpu0->cpu0_L1I WRITE        ACCESS:          0 HIT:          0 MISS:          0 MSHR_MERGE:          0
cpu0->cpu0_L1I TRANSLATION  ACCESS:          0 HIT:          0 MISS:          0 MSHR_MERGE:          0
cpu0->cpu0_L1I PREFETCH REQUESTED:          0 ISSUED:          0 USEFUL:          0 USELESS:          0
cpu0->cpu0_L1I AVERAGE MISS LATENCY: 59.15 cycles
cpu0->cpu0_L1D TOTAL        ACCESS:   65252088 HIT:   56655096 MISS:    8596992 MSHR_MERGE:    3050898
cpu0->cpu0_L1D LOAD         ACCESS:   30647756 HIT:   27895301 MISS:    2752455 MSHR_MERGE:     727117
cpu0->cpu0_L1D RFO          ACCESS:          0 HIT:          0 MISS:          0 MSHR_MERGE:          0
cpu0->cpu0_L1D PREFETCH     ACCESS:   14360388 HIT:   11328695 MISS:    3031693 MSHR_MERGE:     730593
cpu0->cpu0_L1D WRITE        ACCESS:   18832991 HIT:   16633138 MISS:    2199853 MSHR_MERGE:    1586694
cpu0->cpu0_L1D TRANSLATION  ACCESS:    1410953 HIT:     797962 MISS:     612991 MSHR_MERGE:       6494
cpu0->cpu0_L1D PREFETCH REQUESTED:   16857656 ISSUED:   14360380 USEFUL:     759453 USELESS:    1541519
cpu0->cpu0_L1D AVERAGE MISS LATENCY: 111.7 cycles
cpu0->cpu0_ITLB TOTAL        ACCESS:   13301700 HIT:   13077291 MISS:     224409 MSHR_MERGE:     111911
cpu0->cpu0_ITLB LOAD         ACCESS:   13301700 HIT:   13077291 MISS:     224409 MSHR_MERGE:     111911
cpu0->cpu0_ITLB RFO          ACCESS:          0 HIT:          0 MISS:          0 MSHR_MERGE:          0
cpu0->cpu0_ITLB PREFETCH     ACCESS:          0 HIT:          0 MISS:          0 MSHR_MERGE:          0
cpu0->cpu0_ITLB WRITE        ACCESS:          0 HIT:          0 MISS:          0 MSHR_MERGE:          0
cpu0->cpu0_ITLB TRANSLATION  ACCESS:          0 HIT:          0 MISS:          0 MSHR_MERGE:          0
cpu0->cpu0_ITLB PREFETCH REQUESTED:          0 ISSUED:          0 USEFUL:          0 USELESS:          0
cpu0->cpu0_ITLB AVERAGE MISS LATENCY: 46.56 cycles
cpu0->cpu0_DTLB TOTAL        ACCESS:   58300517 HIT:   55362429 MISS:    2938088 MSHR_MERGE:    1140091
cpu0->cpu0_DTLB LOAD         ACCESS:   58300517 HIT:   55362429 MISS:    2938088 MSHR_MERGE:    1140091
cpu0->cpu0_DTLB RFO          ACCESS:          0 HIT:          0 MISS:          0 MSHR_MERGE:          0
cpu0->cpu0_DTLB PREFETCH     ACCESS:          0 HIT:          0 MISS:          0 MSHR_MERGE:          0
cpu0->cpu0_DTLB WRITE        ACCESS:          0 HIT:          0 MISS:          0 MSHR_MERGE:          0
cpu0->cpu0_DTLB TRANSLATION  ACCESS:          0 HIT:          0 MISS:          0 MSHR_MERGE:          0
cpu0->cpu0_DTLB PREFETCH REQUESTED:          0 ISSUED:          0 USEFUL:          0 USELESS:          0
cpu0->cpu0_DTLB AVERAGE MISS LATENCY: 67.71 cycles
cpu0->LLC TOTAL        ACCESS:    7701519 HIT:    1154101 MISS:    6547418 MSHR_MERGE:     508928
cpu0->LLC LOAD         ACCESS:    1045041 HIT:     129124 MISS:     915917 MSHR_MERGE:       3438
cpu0->LLC RFO          ACCESS:     358859 HIT:      20173 MISS:     338686 MSHR_MERGE:        506
cpu0->LLC PREFETCH     ACCESS:    5286107 HIT:     788830 MISS:    4497277 MSHR_MERGE:     504984
cpu0->LLC WRITE        ACCESS:     723882 HIT:     199996 MISS:     523886 MSHR_MERGE:          0
cpu0->LLC TRANSLATION  ACCESS:     287630 HIT:      15978 MISS:     271652 MSHR_MERGE:          0
cpu0->LLC PREFETCH REQUESTED:    2000642 ISSUED:    1890618 USEFUL:     303740 USELESS:     896885
cpu0->LLC AVERAGE MISS LATENCY: 179.6 cycles

DRAM Statistics

Channel 0 RQ ROW_BUFFER_HIT:     274068
  ROW_BUFFER_MISS:    5240433
  AVG DBUS CONGESTED CYCLE: 16.18
Channel 0 WQ ROW_BUFFER_HIT:     173786
  ROW_BUFFER_MISS:     508284
  FULL:          0
Channel 0 REFRESHES ISSUED:      28958
