[VMEM] WARNING: physical memory size is smaller than virtual memory size.

*** ChampSim Multicore Out-of-Order Simulator ***
Warmup Instructions: 50000000
Simulation Instructions: 200000000
Number of CPUs: 1
Page size: 4096
Core 0: /local-ssd/ben/dpc4-traces/SPEC17/603.bwaves_s-1740B.champsimtrace.xz
IPCP_AT_L1_CONFIG
NUM_IP_TABLE_L1_ENTRIES 1024
NUM_GHB_ENTRIES 16
NUM_IP_INDEX_BITS 10
NUM_IP_TAG_BITS 6
S_TYPE 1
CS_TYPE 2
CPLX_TYPE 3
NL_TYPE 4

Off-chip DRAM Size: 64 GiB Channels: 1 Width: 64-bit Data Rate: 4807 MT/s
Heartbeat CPU 0 instructions: 500001 cycles: 106557 heartbeat IPC: 4.692 cumulative IPC: 4.692 (Simulation time: 00 hr 00 min 02 sec)
Heartbeat CPU 0 instructions: 1000008 cycles: 211254 heartbeat IPC: 4.776 cumulative IPC: 4.734 (Simulation time: 00 hr 00 min 04 sec)
Heartbeat CPU 0 instructions: 1500011 cycles: 315724 heartbeat IPC: 4.786 cumulative IPC: 4.751 (Simulation time: 00 hr 00 min 06 sec)
Heartbeat CPU 0 instructions: 2000016 cycles: 420523 heartbeat IPC: 4.771 cumulative IPC: 4.756 (Simulation time: 00 hr 00 min 08 sec)
Heartbeat CPU 0 instructions: 2500016 cycles: 524794 heartbeat IPC: 4.795 cumulative IPC: 4.764 (Simulation time: 00 hr 00 min 10 sec)
Heartbeat CPU 0 instructions: 3000021 cycles: 628871 heartbeat IPC: 4.804 cumulative IPC: 4.77 (Simulation time: 00 hr 00 min 11 sec)
Heartbeat CPU 0 instructions: 3500026 cycles: 733375 heartbeat IPC: 4.785 cumulative IPC: 4.772 (Simulation time: 00 hr 00 min 13 sec)
Heartbeat CPU 0 instructions: 4000030 cycles: 837734 heartbeat IPC: 4.791 cumulative IPC: 4.775 (Simulation time: 00 hr 00 min 15 sec)
Heartbeat CPU 0 instructions: 4500037 cycles: 942174 heartbeat IPC: 4.788 cumulative IPC: 4.776 (Simulation time: 00 hr 00 min 17 sec)
Heartbeat CPU 0 instructions: 5000037 cycles: 1046486 heartbeat IPC: 4.793 cumulative IPC: 4.778 (Simulation time: 00 hr 00 min 19 sec)
Heartbeat CPU 0 instructions: 5500040 cycles: 1150619 heartbeat IPC: 4.802 cumulative IPC: 4.78 (Simulation time: 00 hr 00 min 21 sec)
Heartbeat CPU 0 instructions: 6000046 cycles: 1255008 heartbeat IPC: 4.79 cumulative IPC: 4.781 (Simulation time: 00 hr 00 min 22 sec)
Heartbeat CPU 0 instructions: 6500049 cycles: 1359967 heartbeat IPC: 4.764 cumulative IPC: 4.78 (Simulation time: 00 hr 00 min 24 sec)
Heartbeat CPU 0 instructions: 7000050 cycles: 1464379 heartbeat IPC: 4.789 cumulative IPC: 4.78 (Simulation time: 00 hr 00 min 26 sec)
Heartbeat CPU 0 instructions: 7500057 cycles: 1568899 heartbeat IPC: 4.784 cumulative IPC: 4.78 (Simulation time: 00 hr 00 min 28 sec)
Heartbeat CPU 0 instructions: 8000059 cycles: 1673087 heartbeat IPC: 4.799 cumulative IPC: 4.782 (Simulation time: 00 hr 00 min 30 sec)
Heartbeat CPU 0 instructions: 8500061 cycles: 1777372 heartbeat IPC: 4.795 cumulative IPC: 4.782 (Simulation time: 00 hr 00 min 32 sec)
Heartbeat CPU 0 instructions: 9000064 cycles: 1881937 heartbeat IPC: 4.782 cumulative IPC: 4.782 (Simulation time: 00 hr 00 min 34 sec)
Heartbeat CPU 0 instructions: 9500067 cycles: 1986292 heartbeat IPC: 4.791 cumulative IPC: 4.783 (Simulation time: 00 hr 00 min 35 sec)
Heartbeat CPU 0 instructions: 10000072 cycles: 2090549 heartbeat IPC: 4.796 cumulative IPC: 4.783 (Simulation time: 00 hr 00 min 37 sec)
Heartbeat CPU 0 instructions: 10500072 cycles: 2194870 heartbeat IPC: 4.793 cumulative IPC: 4.784 (Simulation time: 00 hr 00 min 39 sec)
Heartbeat CPU 0 instructions: 11000073 cycles: 2299491 heartbeat IPC: 4.779 cumulative IPC: 4.784 (Simulation time: 00 hr 00 min 41 sec)
Heartbeat CPU 0 instructions: 11500076 cycles: 2404227 heartbeat IPC: 4.774 cumulative IPC: 4.783 (Simulation time: 00 hr 00 min 43 sec)
Heartbeat CPU 0 instructions: 12000079 cycles: 2508785 heartbeat IPC: 4.782 cumulative IPC: 4.783 (Simulation time: 00 hr 00 min 45 sec)
Heartbeat CPU 0 instructions: 12500085 cycles: 2613074 heartbeat IPC: 4.794 cumulative IPC: 4.784 (Simulation time: 00 hr 00 min 46 sec)
Heartbeat CPU 0 instructions: 13000087 cycles: 2717365 heartbeat IPC: 4.794 cumulative IPC: 4.784 (Simulation time: 00 hr 00 min 48 sec)
Heartbeat CPU 0 instructions: 13500091 cycles: 2821795 heartbeat IPC: 4.788 cumulative IPC: 4.784 (Simulation time: 00 hr 00 min 50 sec)
Heartbeat CPU 0 instructions: 14000096 cycles: 2926328 heartbeat IPC: 4.783 cumulative IPC: 4.784 (Simulation time: 00 hr 00 min 52 sec)
Heartbeat CPU 0 instructions: 14500096 cycles: 3030761 heartbeat IPC: 4.788 cumulative IPC: 4.784 (Simulation time: 00 hr 00 min 54 sec)
Heartbeat CPU 0 instructions: 15000100 cycles: 3135265 heartbeat IPC: 4.785 cumulative IPC: 4.784 (Simulation time: 00 hr 00 min 56 sec)
Heartbeat CPU 0 instructions: 15500102 cycles: 3239972 heartbeat IPC: 4.775 cumulative IPC: 4.784 (Simulation time: 00 hr 00 min 58 sec)
Heartbeat CPU 0 instructions: 16000107 cycles: 3344309 heartbeat IPC: 4.792 cumulative IPC: 4.784 (Simulation time: 00 hr 00 min 59 sec)
Heartbeat CPU 0 instructions: 16500108 cycles: 3448642 heartbeat IPC: 4.792 cumulative IPC: 4.785 (Simulation time: 00 hr 01 min 01 sec)
Heartbeat CPU 0 instructions: 17000115 cycles: 3553081 heartbeat IPC: 4.788 cumulative IPC: 4.785 (Simulation time: 00 hr 01 min 03 sec)
Heartbeat CPU 0 instructions: 17500115 cycles: 3657475 heartbeat IPC: 4.79 cumulative IPC: 4.785 (Simulation time: 00 hr 01 min 05 sec)
Heartbeat CPU 0 instructions: 18000121 cycles: 3761645 heartbeat IPC: 4.8 cumulative IPC: 4.785 (Simulation time: 00 hr 01 min 07 sec)
Heartbeat CPU 0 instructions: 18500122 cycles: 3865098 heartbeat IPC: 4.833 cumulative IPC: 4.786 (Simulation time: 00 hr 01 min 09 sec)
Heartbeat CPU 0 instructions: 19000122 cycles: 3968714 heartbeat IPC: 4.826 cumulative IPC: 4.787 (Simulation time: 00 hr 01 min 10 sec)
Heartbeat CPU 0 instructions: 19500125 cycles: 4072305 heartbeat IPC: 4.827 cumulative IPC: 4.788 (Simulation time: 00 hr 01 min 12 sec)
Heartbeat CPU 0 instructions: 20000130 cycles: 4176302 heartbeat IPC: 4.808 cumulative IPC: 4.789 (Simulation time: 00 hr 01 min 14 sec)
Heartbeat CPU 0 instructions: 20500136 cycles: 4279836 heartbeat IPC: 4.829 cumulative IPC: 4.79 (Simulation time: 00 hr 01 min 16 sec)
Heartbeat CPU 0 instructions: 21000143 cycles: 4383418 heartbeat IPC: 4.827 cumulative IPC: 4.791 (Simulation time: 00 hr 01 min 18 sec)
Heartbeat CPU 0 instructions: 21500145 cycles: 4486922 heartbeat IPC: 4.831 cumulative IPC: 4.792 (Simulation time: 00 hr 01 min 20 sec)
Heartbeat CPU 0 instructions: 22000146 cycles: 4590517 heartbeat IPC: 4.826 cumulative IPC: 4.793 (Simulation time: 00 hr 01 min 21 sec)
Heartbeat CPU 0 instructions: 22500147 cycles: 4694094 heartbeat IPC: 4.827 cumulative IPC: 4.793 (Simulation time: 00 hr 01 min 23 sec)
Heartbeat CPU 0 instructions: 23000153 cycles: 4797744 heartbeat IPC: 4.824 cumulative IPC: 4.794 (Simulation time: 00 hr 01 min 25 sec)
Heartbeat CPU 0 instructions: 23500157 cycles: 4901396 heartbeat IPC: 4.824 cumulative IPC: 4.795 (Simulation time: 00 hr 01 min 27 sec)
Heartbeat CPU 0 instructions: 24000158 cycles: 5004961 heartbeat IPC: 4.828 cumulative IPC: 4.795 (Simulation time: 00 hr 01 min 29 sec)
Heartbeat CPU 0 instructions: 24500158 cycles: 5109229 heartbeat IPC: 4.795 cumulative IPC: 4.795 (Simulation time: 00 hr 01 min 31 sec)
Heartbeat CPU 0 instructions: 25000158 cycles: 5212835 heartbeat IPC: 4.826 cumulative IPC: 4.796 (Simulation time: 00 hr 01 min 33 sec)
Heartbeat CPU 0 instructions: 25500160 cycles: 5316518 heartbeat IPC: 4.822 cumulative IPC: 4.796 (Simulation time: 00 hr 01 min 34 sec)
Heartbeat CPU 0 instructions: 26000163 cycles: 5420254 heartbeat IPC: 4.82 cumulative IPC: 4.797 (Simulation time: 00 hr 01 min 36 sec)
Heartbeat CPU 0 instructions: 26500165 cycles: 5523716 heartbeat IPC: 4.833 cumulative IPC: 4.798 (Simulation time: 00 hr 01 min 38 sec)
Heartbeat CPU 0 instructions: 27000170 cycles: 5627252 heartbeat IPC: 4.829 cumulative IPC: 4.798 (Simulation time: 00 hr 01 min 40 sec)
Heartbeat CPU 0 instructions: 27500170 cycles: 5730894 heartbeat IPC: 4.824 cumulative IPC: 4.799 (Simulation time: 00 hr 01 min 42 sec)
Heartbeat CPU 0 instructions: 28000174 cycles: 5834620 heartbeat IPC: 4.82 cumulative IPC: 4.799 (Simulation time: 00 hr 01 min 44 sec)
Heartbeat CPU 0 instructions: 28500180 cycles: 5938206 heartbeat IPC: 4.827 cumulative IPC: 4.799 (Simulation time: 00 hr 01 min 45 sec)
Heartbeat CPU 0 instructions: 29000184 cycles: 6042072 heartbeat IPC: 4.814 cumulative IPC: 4.8 (Simulation time: 00 hr 01 min 47 sec)
Heartbeat CPU 0 instructions: 29500184 cycles: 6145745 heartbeat IPC: 4.823 cumulative IPC: 4.8 (Simulation time: 00 hr 01 min 49 sec)
Heartbeat CPU 0 instructions: 30000185 cycles: 6249339 heartbeat IPC: 4.827 cumulative IPC: 4.801 (Simulation time: 00 hr 01 min 51 sec)
Heartbeat CPU 0 instructions: 30500185 cycles: 6353004 heartbeat IPC: 4.823 cumulative IPC: 4.801 (Simulation time: 00 hr 01 min 53 sec)
Heartbeat CPU 0 instructions: 31000190 cycles: 6456997 heartbeat IPC: 4.808 cumulative IPC: 4.801 (Simulation time: 00 hr 01 min 55 sec)
Heartbeat CPU 0 instructions: 31500191 cycles: 6560424 heartbeat IPC: 4.834 cumulative IPC: 4.802 (Simulation time: 00 hr 01 min 56 sec)
Heartbeat CPU 0 instructions: 32000191 cycles: 6663902 heartbeat IPC: 4.832 cumulative IPC: 4.802 (Simulation time: 00 hr 01 min 58 sec)
Heartbeat CPU 0 instructions: 32500191 cycles: 6767696 heartbeat IPC: 4.817 cumulative IPC: 4.802 (Simulation time: 00 hr 02 min 00 sec)
Heartbeat CPU 0 instructions: 33000192 cycles: 6871417 heartbeat IPC: 4.821 cumulative IPC: 4.803 (Simulation time: 00 hr 02 min 02 sec)
Heartbeat CPU 0 instructions: 33500198 cycles: 6975384 heartbeat IPC: 4.809 cumulative IPC: 4.803 (Simulation time: 00 hr 02 min 04 sec)
Heartbeat CPU 0 instructions: 34000199 cycles: 7078860 heartbeat IPC: 4.832 cumulative IPC: 4.803 (Simulation time: 00 hr 02 min 06 sec)
Heartbeat CPU 0 instructions: 34500206 cycles: 7182519 heartbeat IPC: 4.824 cumulative IPC: 4.803 (Simulation time: 00 hr 02 min 08 sec)
Heartbeat CPU 0 instructions: 35000213 cycles: 7286204 heartbeat IPC: 4.822 cumulative IPC: 4.804 (Simulation time: 00 hr 02 min 09 sec)
Heartbeat CPU 0 instructions: 35500219 cycles: 7389793 heartbeat IPC: 4.827 cumulative IPC: 4.804 (Simulation time: 00 hr 02 min 11 sec)
Heartbeat CPU 0 instructions: 36000221 cycles: 7493481 heartbeat IPC: 4.822 cumulative IPC: 4.804 (Simulation time: 00 hr 02 min 13 sec)
Heartbeat CPU 0 instructions: 36500221 cycles: 7597173 heartbeat IPC: 4.822 cumulative IPC: 4.804 (Simulation time: 00 hr 02 min 15 sec)
Heartbeat CPU 0 instructions: 37000228 cycles: 7700579 heartbeat IPC: 4.835 cumulative IPC: 4.805 (Simulation time: 00 hr 02 min 17 sec)
Heartbeat CPU 0 instructions: 37500235 cycles: 7804187 heartbeat IPC: 4.826 cumulative IPC: 4.805 (Simulation time: 00 hr 02 min 19 sec)
Heartbeat CPU 0 instructions: 38000240 cycles: 7908379 heartbeat IPC: 4.799 cumulative IPC: 4.805 (Simulation time: 00 hr 02 min 20 sec)
Heartbeat CPU 0 instructions: 38500247 cycles: 8012052 heartbeat IPC: 4.823 cumulative IPC: 4.805 (Simulation time: 00 hr 02 min 22 sec)
Heartbeat CPU 0 instructions: 39000249 cycles: 8115640 heartbeat IPC: 4.827 cumulative IPC: 4.806 (Simulation time: 00 hr 02 min 24 sec)
Heartbeat CPU 0 instructions: 39500253 cycles: 8219221 heartbeat IPC: 4.827 cumulative IPC: 4.806 (Simulation time: 00 hr 02 min 26 sec)
Heartbeat CPU 0 instructions: 40000253 cycles: 8322840 heartbeat IPC: 4.825 cumulative IPC: 4.806 (Simulation time: 00 hr 02 min 28 sec)
Heartbeat CPU 0 instructions: 40500255 cycles: 8426340 heartbeat IPC: 4.831 cumulative IPC: 4.806 (Simulation time: 00 hr 02 min 30 sec)
Heartbeat CPU 0 instructions: 41000256 cycles: 8529963 heartbeat IPC: 4.825 cumulative IPC: 4.807 (Simulation time: 00 hr 02 min 32 sec)
Heartbeat CPU 0 instructions: 41500256 cycles: 8633544 heartbeat IPC: 4.827 cumulative IPC: 4.807 (Simulation time: 00 hr 02 min 33 sec)
Heartbeat CPU 0 instructions: 42000262 cycles: 8737048 heartbeat IPC: 4.831 cumulative IPC: 4.807 (Simulation time: 00 hr 02 min 35 sec)
Heartbeat CPU 0 instructions: 42500263 cycles: 8841110 heartbeat IPC: 4.805 cumulative IPC: 4.807 (Simulation time: 00 hr 02 min 37 sec)
Heartbeat CPU 0 instructions: 43000270 cycles: 8944787 heartbeat IPC: 4.823 cumulative IPC: 4.807 (Simulation time: 00 hr 02 min 39 sec)
Heartbeat CPU 0 instructions: 43500270 cycles: 9048312 heartbeat IPC: 4.83 cumulative IPC: 4.808 (Simulation time: 00 hr 02 min 41 sec)
Heartbeat CPU 0 instructions: 44000275 cycles: 9152055 heartbeat IPC: 4.82 cumulative IPC: 4.808 (Simulation time: 00 hr 02 min 43 sec)
Heartbeat CPU 0 instructions: 44500282 cycles: 9255558 heartbeat IPC: 4.831 cumulative IPC: 4.808 (Simulation time: 00 hr 02 min 44 sec)
Heartbeat CPU 0 instructions: 45000284 cycles: 9359157 heartbeat IPC: 4.826 cumulative IPC: 4.808 (Simulation time: 00 hr 02 min 46 sec)
Heartbeat CPU 0 instructions: 45500289 cycles: 9462742 heartbeat IPC: 4.827 cumulative IPC: 4.808 (Simulation time: 00 hr 02 min 48 sec)
Heartbeat CPU 0 instructions: 46000296 cycles: 9566514 heartbeat IPC: 4.818 cumulative IPC: 4.808 (Simulation time: 00 hr 02 min 50 sec)
Heartbeat CPU 0 instructions: 46500296 cycles: 9670139 heartbeat IPC: 4.825 cumulative IPC: 4.809 (Simulation time: 00 hr 02 min 52 sec)
Heartbeat CPU 0 instructions: 47000297 cycles: 9773897 heartbeat IPC: 4.819 cumulative IPC: 4.809 (Simulation time: 00 hr 02 min 54 sec)
Heartbeat CPU 0 instructions: 47500298 cycles: 9877637 heartbeat IPC: 4.82 cumulative IPC: 4.809 (Simulation time: 00 hr 02 min 55 sec)
Heartbeat CPU 0 instructions: 48000301 cycles: 9981290 heartbeat IPC: 4.824 cumulative IPC: 4.809 (Simulation time: 00 hr 02 min 57 sec)
Heartbeat CPU 0 instructions: 48500305 cycles: 10084902 heartbeat IPC: 4.826 cumulative IPC: 4.809 (Simulation time: 00 hr 02 min 59 sec)
Heartbeat CPU 0 instructions: 49000307 cycles: 10188626 heartbeat IPC: 4.821 cumulative IPC: 4.809 (Simulation time: 00 hr 03 min 01 sec)
Heartbeat CPU 0 instructions: 49500309 cycles: 10292041 heartbeat IPC: 4.835 cumulative IPC: 4.81 (Simulation time: 00 hr 03 min 03 sec)
Warmup finished CPU 0 instructions: 50000006 cycles: 10395599 cumulative IPC: 4.81 (Simulation time: 00 hr 03 min 05 sec)
Warmup complete CPU 0 instructions: 50000006 cycles: 10395599 cumulative IPC: 4.81 (Simulation time: 00 hr 03 min 05 sec)
Heartbeat CPU 0 instructions: 50000316 cycles: 10395696 heartbeat IPC: 4.824 cumulative IPC: 3.196 (Simulation time: 00 hr 03 min 05 sec)
Heartbeat CPU 0 instructions: 50500316 cycles: 10613653 heartbeat IPC: 2.294 cumulative IPC: 2.294 (Simulation time: 00 hr 03 min 08 sec)
Heartbeat CPU 0 instructions: 51000319 cycles: 10840665 heartbeat IPC: 2.203 cumulative IPC: 2.248 (Simulation time: 00 hr 03 min 11 sec)
Heartbeat CPU 0 instructions: 51500319 cycles: 11064494 heartbeat IPC: 2.234 cumulative IPC: 2.243 (Simulation time: 00 hr 03 min 14 sec)
Heartbeat CPU 0 instructions: 52000319 cycles: 11286233 heartbeat IPC: 2.255 cumulative IPC: 2.246 (Simulation time: 00 hr 03 min 17 sec)
Heartbeat CPU 0 instructions: 52500325 cycles: 11507944 heartbeat IPC: 2.255 cumulative IPC: 2.248 (Simulation time: 00 hr 03 min 20 sec)
Heartbeat CPU 0 instructions: 53000325 cycles: 11724392 heartbeat IPC: 2.31 cumulative IPC: 2.258 (Simulation time: 00 hr 03 min 24 sec)
Heartbeat CPU 0 instructions: 53500325 cycles: 11946920 heartbeat IPC: 2.247 cumulative IPC: 2.256 (Simulation time: 00 hr 03 min 27 sec)
Heartbeat CPU 0 instructions: 54000325 cycles: 12170686 heartbeat IPC: 2.234 cumulative IPC: 2.254 (Simulation time: 00 hr 03 min 30 sec)
Heartbeat CPU 0 instructions: 54500327 cycles: 12392843 heartbeat IPC: 2.251 cumulative IPC: 2.253 (Simulation time: 00 hr 03 min 33 sec)
Heartbeat CPU 0 instructions: 55000331 cycles: 12620263 heartbeat IPC: 2.199 cumulative IPC: 2.248 (Simulation time: 00 hr 03 min 36 sec)
Heartbeat CPU 0 instructions: 55500331 cycles: 12844351 heartbeat IPC: 2.231 cumulative IPC: 2.246 (Simulation time: 00 hr 03 min 39 sec)
Heartbeat CPU 0 instructions: 56000333 cycles: 13072110 heartbeat IPC: 2.195 cumulative IPC: 2.242 (Simulation time: 00 hr 03 min 43 sec)
Heartbeat CPU 0 instructions: 56500337 cycles: 13293058 heartbeat IPC: 2.263 cumulative IPC: 2.243 (Simulation time: 00 hr 03 min 46 sec)
Heartbeat CPU 0 instructions: 57000340 cycles: 13516358 heartbeat IPC: 2.239 cumulative IPC: 2.243 (Simulation time: 00 hr 03 min 49 sec)
Heartbeat CPU 0 instructions: 57500342 cycles: 13733404 heartbeat IPC: 2.304 cumulative IPC: 2.247 (Simulation time: 00 hr 03 min 52 sec)
Heartbeat CPU 0 instructions: 58000343 cycles: 13961383 heartbeat IPC: 2.193 cumulative IPC: 2.244 (Simulation time: 00 hr 03 min 55 sec)
Heartbeat CPU 0 instructions: 58500346 cycles: 14182834 heartbeat IPC: 2.258 cumulative IPC: 2.244 (Simulation time: 00 hr 03 min 59 sec)
Heartbeat CPU 0 instructions: 59000346 cycles: 14411519 heartbeat IPC: 2.186 cumulative IPC: 2.241 (Simulation time: 00 hr 04 min 02 sec)
Heartbeat CPU 0 instructions: 59500346 cycles: 14639927 heartbeat IPC: 2.189 cumulative IPC: 2.238 (Simulation time: 00 hr 04 min 05 sec)
Heartbeat CPU 0 instructions: 60000352 cycles: 14865698 heartbeat IPC: 2.215 cumulative IPC: 2.237 (Simulation time: 00 hr 04 min 08 sec)
Heartbeat CPU 0 instructions: 60500352 cycles: 15090476 heartbeat IPC: 2.224 cumulative IPC: 2.237 (Simulation time: 00 hr 04 min 11 sec)
Heartbeat CPU 0 instructions: 61000352 cycles: 15309080 heartbeat IPC: 2.287 cumulative IPC: 2.239 (Simulation time: 00 hr 04 min 15 sec)
Heartbeat CPU 0 instructions: 61500352 cycles: 15531459 heartbeat IPC: 2.248 cumulative IPC: 2.239 (Simulation time: 00 hr 04 min 18 sec)
Heartbeat CPU 0 instructions: 62000354 cycles: 15760054 heartbeat IPC: 2.187 cumulative IPC: 2.237 (Simulation time: 00 hr 04 min 21 sec)
Heartbeat CPU 0 instructions: 62500358 cycles: 15979483 heartbeat IPC: 2.279 cumulative IPC: 2.239 (Simulation time: 00 hr 04 min 24 sec)
Heartbeat CPU 0 instructions: 63000359 cycles: 16198315 heartbeat IPC: 2.285 cumulative IPC: 2.24 (Simulation time: 00 hr 04 min 27 sec)
Heartbeat CPU 0 instructions: 63500359 cycles: 16425932 heartbeat IPC: 2.197 cumulative IPC: 2.239 (Simulation time: 00 hr 04 min 30 sec)
Heartbeat CPU 0 instructions: 64000359 cycles: 16648888 heartbeat IPC: 2.243 cumulative IPC: 2.239 (Simulation time: 00 hr 04 min 34 sec)
Heartbeat CPU 0 instructions: 64500360 cycles: 16874340 heartbeat IPC: 2.218 cumulative IPC: 2.238 (Simulation time: 00 hr 04 min 37 sec)
Heartbeat CPU 0 instructions: 65000365 cycles: 17093291 heartbeat IPC: 2.284 cumulative IPC: 2.24 (Simulation time: 00 hr 04 min 40 sec)
Heartbeat CPU 0 instructions: 65500365 cycles: 17321321 heartbeat IPC: 2.193 cumulative IPC: 2.238 (Simulation time: 00 hr 04 min 43 sec)
Heartbeat CPU 0 instructions: 66000365 cycles: 17543385 heartbeat IPC: 2.252 cumulative IPC: 2.239 (Simulation time: 00 hr 04 min 46 sec)
Heartbeat CPU 0 instructions: 66500367 cycles: 17766530 heartbeat IPC: 2.241 cumulative IPC: 2.239 (Simulation time: 00 hr 04 min 49 sec)
Heartbeat CPU 0 instructions: 67000372 cycles: 17989231 heartbeat IPC: 2.245 cumulative IPC: 2.239 (Simulation time: 00 hr 04 min 53 sec)
Heartbeat CPU 0 instructions: 67500379 cycles: 18210657 heartbeat IPC: 2.258 cumulative IPC: 2.239 (Simulation time: 00 hr 04 min 56 sec)
Heartbeat CPU 0 instructions: 68000379 cycles: 18436426 heartbeat IPC: 2.215 cumulative IPC: 2.239 (Simulation time: 00 hr 04 min 59 sec)
Heartbeat CPU 0 instructions: 68500385 cycles: 18662879 heartbeat IPC: 2.208 cumulative IPC: 2.238 (Simulation time: 00 hr 05 min 02 sec)
Heartbeat CPU 0 instructions: 69000386 cycles: 18884182 heartbeat IPC: 2.259 cumulative IPC: 2.238 (Simulation time: 00 hr 05 min 05 sec)
Heartbeat CPU 0 instructions: 69500386 cycles: 19112607 heartbeat IPC: 2.189 cumulative IPC: 2.237 (Simulation time: 00 hr 05 min 09 sec)
Heartbeat CPU 0 instructions: 70000387 cycles: 19339315 heartbeat IPC: 2.205 cumulative IPC: 2.236 (Simulation time: 00 hr 05 min 12 sec)
Heartbeat CPU 0 instructions: 70500392 cycles: 19563755 heartbeat IPC: 2.228 cumulative IPC: 2.236 (Simulation time: 00 hr 05 min 15 sec)
Heartbeat CPU 0 instructions: 71000399 cycles: 19785541 heartbeat IPC: 2.254 cumulative IPC: 2.236 (Simulation time: 00 hr 05 min 18 sec)
Heartbeat CPU 0 instructions: 71500400 cycles: 20010921 heartbeat IPC: 2.218 cumulative IPC: 2.236 (Simulation time: 00 hr 05 min 21 sec)
Heartbeat CPU 0 instructions: 72000400 cycles: 20229203 heartbeat IPC: 2.291 cumulative IPC: 2.237 (Simulation time: 00 hr 05 min 24 sec)
Heartbeat CPU 0 instructions: 72500400 cycles: 20454042 heartbeat IPC: 2.224 cumulative IPC: 2.237 (Simulation time: 00 hr 05 min 28 sec)
Heartbeat CPU 0 instructions: 73000402 cycles: 20681442 heartbeat IPC: 2.199 cumulative IPC: 2.236 (Simulation time: 00 hr 05 min 31 sec)
Heartbeat CPU 0 instructions: 73500405 cycles: 20903274 heartbeat IPC: 2.254 cumulative IPC: 2.236 (Simulation time: 00 hr 05 min 34 sec)
Heartbeat CPU 0 instructions: 74000406 cycles: 21127175 heartbeat IPC: 2.233 cumulative IPC: 2.236 (Simulation time: 00 hr 05 min 37 sec)
Heartbeat CPU 0 instructions: 74500406 cycles: 21344010 heartbeat IPC: 2.306 cumulative IPC: 2.238 (Simulation time: 00 hr 05 min 40 sec)
Heartbeat CPU 0 instructions: 75000406 cycles: 21569041 heartbeat IPC: 2.222 cumulative IPC: 2.237 (Simulation time: 00 hr 05 min 44 sec)
Heartbeat CPU 0 instructions: 75500412 cycles: 21792233 heartbeat IPC: 2.24 cumulative IPC: 2.238 (Simulation time: 00 hr 05 min 47 sec)
Heartbeat CPU 0 instructions: 76000419 cycles: 22020447 heartbeat IPC: 2.191 cumulative IPC: 2.237 (Simulation time: 00 hr 05 min 50 sec)
Heartbeat CPU 0 instructions: 76500420 cycles: 22245855 heartbeat IPC: 2.218 cumulative IPC: 2.236 (Simulation time: 00 hr 05 min 53 sec)
Heartbeat CPU 0 instructions: 77000421 cycles: 22474426 heartbeat IPC: 2.188 cumulative IPC: 2.235 (Simulation time: 00 hr 05 min 57 sec)
Heartbeat CPU 0 instructions: 77500428 cycles: 22696404 heartbeat IPC: 2.253 cumulative IPC: 2.236 (Simulation time: 00 hr 06 min 00 sec)
Heartbeat CPU 0 instructions: 78000434 cycles: 22923854 heartbeat IPC: 2.198 cumulative IPC: 2.235 (Simulation time: 00 hr 06 min 03 sec)
Heartbeat CPU 0 instructions: 78500441 cycles: 23152463 heartbeat IPC: 2.187 cumulative IPC: 2.234 (Simulation time: 00 hr 06 min 06 sec)
Heartbeat CPU 0 instructions: 79000442 cycles: 23375286 heartbeat IPC: 2.244 cumulative IPC: 2.234 (Simulation time: 00 hr 06 min 09 sec)
Heartbeat CPU 0 instructions: 79500443 cycles: 23593311 heartbeat IPC: 2.293 cumulative IPC: 2.235 (Simulation time: 00 hr 06 min 12 sec)
Heartbeat CPU 0 instructions: 80000447 cycles: 23814195 heartbeat IPC: 2.264 cumulative IPC: 2.236 (Simulation time: 00 hr 06 min 16 sec)
Heartbeat CPU 0 instructions: 80500448 cycles: 24035362 heartbeat IPC: 2.261 cumulative IPC: 2.236 (Simulation time: 00 hr 06 min 19 sec)
Heartbeat CPU 0 instructions: 81000455 cycles: 24258540 heartbeat IPC: 2.24 cumulative IPC: 2.236 (Simulation time: 00 hr 06 min 22 sec)
Heartbeat CPU 0 instructions: 81500456 cycles: 24486465 heartbeat IPC: 2.194 cumulative IPC: 2.236 (Simulation time: 00 hr 06 min 25 sec)
Heartbeat CPU 0 instructions: 82000458 cycles: 24705227 heartbeat IPC: 2.286 cumulative IPC: 2.236 (Simulation time: 00 hr 06 min 28 sec)
Heartbeat CPU 0 instructions: 82500459 cycles: 24925821 heartbeat IPC: 2.267 cumulative IPC: 2.237 (Simulation time: 00 hr 06 min 32 sec)
Heartbeat CPU 0 instructions: 83000462 cycles: 25148204 heartbeat IPC: 2.248 cumulative IPC: 2.237 (Simulation time: 00 hr 06 min 35 sec)
Heartbeat CPU 0 instructions: 83500462 cycles: 25371580 heartbeat IPC: 2.238 cumulative IPC: 2.237 (Simulation time: 00 hr 06 min 39 sec)
Heartbeat CPU 0 instructions: 84000462 cycles: 25596693 heartbeat IPC: 2.221 cumulative IPC: 2.237 (Simulation time: 00 hr 06 min 43 sec)
Heartbeat CPU 0 instructions: 84500468 cycles: 25816730 heartbeat IPC: 2.272 cumulative IPC: 2.237 (Simulation time: 00 hr 06 min 46 sec)
Heartbeat CPU 0 instructions: 85000468 cycles: 26037310 heartbeat IPC: 2.267 cumulative IPC: 2.238 (Simulation time: 00 hr 06 min 50 sec)
Heartbeat CPU 0 instructions: 85500468 cycles: 26265199 heartbeat IPC: 2.194 cumulative IPC: 2.237 (Simulation time: 00 hr 06 min 53 sec)
Heartbeat CPU 0 instructions: 86000468 cycles: 26489162 heartbeat IPC: 2.233 cumulative IPC: 2.237 (Simulation time: 00 hr 06 min 57 sec)
Heartbeat CPU 0 instructions: 86500470 cycles: 26712825 heartbeat IPC: 2.236 cumulative IPC: 2.237 (Simulation time: 00 hr 07 min 01 sec)
Heartbeat CPU 0 instructions: 87000474 cycles: 26938305 heartbeat IPC: 2.218 cumulative IPC: 2.237 (Simulation time: 00 hr 07 min 04 sec)
Heartbeat CPU 0 instructions: 87500474 cycles: 27167244 heartbeat IPC: 2.184 cumulative IPC: 2.236 (Simulation time: 00 hr 07 min 08 sec)
Heartbeat CPU 0 instructions: 88000476 cycles: 27389879 heartbeat IPC: 2.246 cumulative IPC: 2.236 (Simulation time: 00 hr 07 min 12 sec)
Heartbeat CPU 0 instructions: 88500480 cycles: 27611397 heartbeat IPC: 2.257 cumulative IPC: 2.236 (Simulation time: 00 hr 07 min 15 sec)
Heartbeat CPU 0 instructions: 89000483 cycles: 27838957 heartbeat IPC: 2.197 cumulative IPC: 2.236 (Simulation time: 00 hr 07 min 19 sec)
Heartbeat CPU 0 instructions: 89500485 cycles: 28063496 heartbeat IPC: 2.227 cumulative IPC: 2.236 (Simulation time: 00 hr 07 min 23 sec)
Heartbeat CPU 0 instructions: 90000486 cycles: 28284604 heartbeat IPC: 2.261 cumulative IPC: 2.236 (Simulation time: 00 hr 07 min 26 sec)
Heartbeat CPU 0 instructions: 90500489 cycles: 28513287 heartbeat IPC: 2.186 cumulative IPC: 2.235 (Simulation time: 00 hr 07 min 30 sec)
Heartbeat CPU 0 instructions: 91000489 cycles: 28737438 heartbeat IPC: 2.231 cumulative IPC: 2.235 (Simulation time: 00 hr 07 min 34 sec)
Heartbeat CPU 0 instructions: 91500489 cycles: 28959680 heartbeat IPC: 2.25 cumulative IPC: 2.236 (Simulation time: 00 hr 07 min 37 sec)
Heartbeat CPU 0 instructions: 92000495 cycles: 29178409 heartbeat IPC: 2.286 cumulative IPC: 2.236 (Simulation time: 00 hr 07 min 41 sec)
Heartbeat CPU 0 instructions: 92500495 cycles: 29398993 heartbeat IPC: 2.267 cumulative IPC: 2.236 (Simulation time: 00 hr 07 min 44 sec)
Heartbeat CPU 0 instructions: 93000495 cycles: 29621452 heartbeat IPC: 2.248 cumulative IPC: 2.237 (Simulation time: 00 hr 07 min 48 sec)
Heartbeat CPU 0 instructions: 93500495 cycles: 29848733 heartbeat IPC: 2.2 cumulative IPC: 2.236 (Simulation time: 00 hr 07 min 52 sec)
Heartbeat CPU 0 instructions: 94000497 cycles: 30076532 heartbeat IPC: 2.195 cumulative IPC: 2.236 (Simulation time: 00 hr 07 min 55 sec)
Heartbeat CPU 0 instructions: 94500501 cycles: 30299852 heartbeat IPC: 2.239 cumulative IPC: 2.236 (Simulation time: 00 hr 07 min 59 sec)
Heartbeat CPU 0 instructions: 95000501 cycles: 30519823 heartbeat IPC: 2.273 cumulative IPC: 2.236 (Simulation time: 00 hr 08 min 03 sec)
Heartbeat CPU 0 instructions: 95500503 cycles: 30738727 heartbeat IPC: 2.284 cumulative IPC: 2.237 (Simulation time: 00 hr 08 min 06 sec)
Heartbeat CPU 0 instructions: 96000507 cycles: 30966388 heartbeat IPC: 2.196 cumulative IPC: 2.236 (Simulation time: 00 hr 08 min 10 sec)
Heartbeat CPU 0 instructions: 96500508 cycles: 31189709 heartbeat IPC: 2.239 cumulative IPC: 2.236 (Simulation time: 00 hr 08 min 14 sec)
Heartbeat CPU 0 instructions: 97000509 cycles: 31416119 heartbeat IPC: 2.208 cumulative IPC: 2.236 (Simulation time: 00 hr 08 min 17 sec)
Heartbeat CPU 0 instructions: 97500513 cycles: 31633812 heartbeat IPC: 2.297 cumulative IPC: 2.237 (Simulation time: 00 hr 08 min 21 sec)
Heartbeat CPU 0 instructions: 98000516 cycles: 31861018 heartbeat IPC: 2.201 cumulative IPC: 2.236 (Simulation time: 00 hr 08 min 24 sec)
Heartbeat CPU 0 instructions: 98500516 cycles: 32079493 heartbeat IPC: 2.289 cumulative IPC: 2.237 (Simulation time: 00 hr 08 min 28 sec)
Heartbeat CPU 0 instructions: 99000517 cycles: 32296372 heartbeat IPC: 2.305 cumulative IPC: 2.237 (Simulation time: 00 hr 08 min 32 sec)
Heartbeat CPU 0 instructions: 99500522 cycles: 32521751 heartbeat IPC: 2.219 cumulative IPC: 2.237 (Simulation time: 00 hr 08 min 35 sec)
Heartbeat CPU 0 instructions: 100000528 cycles: 32745524 heartbeat IPC: 2.234 cumulative IPC: 2.237 (Simulation time: 00 hr 08 min 39 sec)
Heartbeat CPU 0 instructions: 100500535 cycles: 32969508 heartbeat IPC: 2.232 cumulative IPC: 2.237 (Simulation time: 00 hr 08 min 43 sec)
Heartbeat CPU 0 instructions: 101000536 cycles: 33190765 heartbeat IPC: 2.26 cumulative IPC: 2.237 (Simulation time: 00 hr 08 min 46 sec)
Heartbeat CPU 0 instructions: 101500537 cycles: 33418044 heartbeat IPC: 2.2 cumulative IPC: 2.237 (Simulation time: 00 hr 08 min 50 sec)
Heartbeat CPU 0 instructions: 102000544 cycles: 33646760 heartbeat IPC: 2.186 cumulative IPC: 2.236 (Simulation time: 00 hr 08 min 54 sec)
Heartbeat CPU 0 instructions: 102500550 cycles: 33870320 heartbeat IPC: 2.237 cumulative IPC: 2.236 (Simulation time: 00 hr 08 min 57 sec)
Heartbeat CPU 0 instructions: 103000557 cycles: 34091557 heartbeat IPC: 2.26 cumulative IPC: 2.237 (Simulation time: 00 hr 09 min 01 sec)
Heartbeat CPU 0 instructions: 103500558 cycles: 34319156 heartbeat IPC: 2.197 cumulative IPC: 2.236 (Simulation time: 00 hr 09 min 05 sec)
Heartbeat CPU 0 instructions: 104000561 cycles: 34538298 heartbeat IPC: 2.282 cumulative IPC: 2.237 (Simulation time: 00 hr 09 min 08 sec)
Heartbeat CPU 0 instructions: 104500566 cycles: 34759454 heartbeat IPC: 2.261 cumulative IPC: 2.237 (Simulation time: 00 hr 09 min 12 sec)
Heartbeat CPU 0 instructions: 105000572 cycles: 34982940 heartbeat IPC: 2.237 cumulative IPC: 2.237 (Simulation time: 00 hr 09 min 15 sec)
Heartbeat CPU 0 instructions: 105500579 cycles: 35204712 heartbeat IPC: 2.255 cumulative IPC: 2.237 (Simulation time: 00 hr 09 min 19 sec)
Heartbeat CPU 0 instructions: 106000580 cycles: 35432622 heartbeat IPC: 2.194 cumulative IPC: 2.237 (Simulation time: 00 hr 09 min 23 sec)
Heartbeat CPU 0 instructions: 106500581 cycles: 35661228 heartbeat IPC: 2.187 cumulative IPC: 2.236 (Simulation time: 00 hr 09 min 26 sec)
Heartbeat CPU 0 instructions: 107000588 cycles: 35882821 heartbeat IPC: 2.256 cumulative IPC: 2.236 (Simulation time: 00 hr 09 min 30 sec)
Heartbeat CPU 0 instructions: 107500594 cycles: 36111860 heartbeat IPC: 2.183 cumulative IPC: 2.236 (Simulation time: 00 hr 09 min 34 sec)
Heartbeat CPU 0 instructions: 108000601 cycles: 36329227 heartbeat IPC: 2.3 cumulative IPC: 2.237 (Simulation time: 00 hr 09 min 37 sec)
Heartbeat CPU 0 instructions: 108500602 cycles: 36553393 heartbeat IPC: 2.23 cumulative IPC: 2.236 (Simulation time: 00 hr 09 min 41 sec)
Heartbeat CPU 0 instructions: 109000603 cycles: 36776432 heartbeat IPC: 2.242 cumulative IPC: 2.236 (Simulation time: 00 hr 09 min 45 sec)
Heartbeat CPU 0 instructions: 109500610 cycles: 37000568 heartbeat IPC: 2.231 cumulative IPC: 2.236 (Simulation time: 00 hr 09 min 48 sec)
Heartbeat CPU 0 instructions: 110000616 cycles: 37219621 heartbeat IPC: 2.283 cumulative IPC: 2.237 (Simulation time: 00 hr 09 min 52 sec)
Heartbeat CPU 0 instructions: 110500623 cycles: 37446945 heartbeat IPC: 2.2 cumulative IPC: 2.237 (Simulation time: 00 hr 09 min 55 sec)
Heartbeat CPU 0 instructions: 111000624 cycles: 37669351 heartbeat IPC: 2.248 cumulative IPC: 2.237 (Simulation time: 00 hr 09 min 59 sec)
Heartbeat CPU 0 instructions: 111500625 cycles: 37885351 heartbeat IPC: 2.315 cumulative IPC: 2.237 (Simulation time: 00 hr 10 min 03 sec)
Heartbeat CPU 0 instructions: 112000629 cycles: 38112649 heartbeat IPC: 2.2 cumulative IPC: 2.237 (Simulation time: 00 hr 10 min 06 sec)
Heartbeat CPU 0 instructions: 112500630 cycles: 38335782 heartbeat IPC: 2.241 cumulative IPC: 2.237 (Simulation time: 00 hr 10 min 10 sec)
Heartbeat CPU 0 instructions: 113000637 cycles: 38558428 heartbeat IPC: 2.246 cumulative IPC: 2.237 (Simulation time: 00 hr 10 min 14 sec)
Heartbeat CPU 0 instructions: 113500638 cycles: 38780938 heartbeat IPC: 2.247 cumulative IPC: 2.237 (Simulation time: 00 hr 10 min 17 sec)
Heartbeat CPU 0 instructions: 114000641 cycles: 39008409 heartbeat IPC: 2.198 cumulative IPC: 2.237 (Simulation time: 00 hr 10 min 21 sec)
Heartbeat CPU 0 instructions: 114500643 cycles: 39230956 heartbeat IPC: 2.247 cumulative IPC: 2.237 (Simulation time: 00 hr 10 min 25 sec)
Heartbeat CPU 0 instructions: 115000644 cycles: 39461628 heartbeat IPC: 2.168 cumulative IPC: 2.236 (Simulation time: 00 hr 10 min 28 sec)
Heartbeat CPU 0 instructions: 115500645 cycles: 39688782 heartbeat IPC: 2.201 cumulative IPC: 2.236 (Simulation time: 00 hr 10 min 32 sec)
Heartbeat CPU 0 instructions: 116000652 cycles: 39905852 heartbeat IPC: 2.303 cumulative IPC: 2.237 (Simulation time: 00 hr 10 min 36 sec)
Heartbeat CPU 0 instructions: 116500657 cycles: 40133279 heartbeat IPC: 2.199 cumulative IPC: 2.236 (Simulation time: 00 hr 10 min 39 sec)
Heartbeat CPU 0 instructions: 117000657 cycles: 40355021 heartbeat IPC: 2.255 cumulative IPC: 2.236 (Simulation time: 00 hr 10 min 43 sec)
Heartbeat CPU 0 instructions: 117500658 cycles: 40577532 heartbeat IPC: 2.247 cumulative IPC: 2.236 (Simulation time: 00 hr 10 min 47 sec)
Heartbeat CPU 0 instructions: 118000658 cycles: 40799456 heartbeat IPC: 2.253 cumulative IPC: 2.237 (Simulation time: 00 hr 10 min 50 sec)
Heartbeat CPU 0 instructions: 118500658 cycles: 41023401 heartbeat IPC: 2.233 cumulative IPC: 2.237 (Simulation time: 00 hr 10 min 54 sec)
Heartbeat CPU 0 instructions: 119000664 cycles: 41251210 heartbeat IPC: 2.195 cumulative IPC: 2.236 (Simulation time: 00 hr 10 min 58 sec)
Heartbeat CPU 0 instructions: 119500664 cycles: 41472019 heartbeat IPC: 2.264 cumulative IPC: 2.236 (Simulation time: 00 hr 11 min 01 sec)
Heartbeat CPU 0 instructions: 120000664 cycles: 41688748 heartbeat IPC: 2.307 cumulative IPC: 2.237 (Simulation time: 00 hr 11 min 05 sec)
Heartbeat CPU 0 instructions: 120500666 cycles: 41917599 heartbeat IPC: 2.185 cumulative IPC: 2.237 (Simulation time: 00 hr 11 min 08 sec)
Heartbeat CPU 0 instructions: 121000670 cycles: 42141047 heartbeat IPC: 2.238 cumulative IPC: 2.237 (Simulation time: 00 hr 11 min 12 sec)
Heartbeat CPU 0 instructions: 121500670 cycles: 42357966 heartbeat IPC: 2.305 cumulative IPC: 2.237 (Simulation time: 00 hr 11 min 15 sec)
Heartbeat CPU 0 instructions: 122000672 cycles: 42581116 heartbeat IPC: 2.241 cumulative IPC: 2.237 (Simulation time: 00 hr 11 min 19 sec)
Heartbeat CPU 0 instructions: 122500676 cycles: 42803022 heartbeat IPC: 2.253 cumulative IPC: 2.237 (Simulation time: 00 hr 11 min 23 sec)
Heartbeat CPU 0 instructions: 123000679 cycles: 43031803 heartbeat IPC: 2.186 cumulative IPC: 2.237 (Simulation time: 00 hr 11 min 26 sec)
Heartbeat CPU 0 instructions: 123500679 cycles: 43253289 heartbeat IPC: 2.257 cumulative IPC: 2.237 (Simulation time: 00 hr 11 min 30 sec)
Heartbeat CPU 0 instructions: 124000682 cycles: 43475456 heartbeat IPC: 2.251 cumulative IPC: 2.237 (Simulation time: 00 hr 11 min 34 sec)
Heartbeat CPU 0 instructions: 124500685 cycles: 43696455 heartbeat IPC: 2.262 cumulative IPC: 2.237 (Simulation time: 00 hr 11 min 37 sec)
Heartbeat CPU 0 instructions: 125000685 cycles: 43920294 heartbeat IPC: 2.234 cumulative IPC: 2.237 (Simulation time: 00 hr 11 min 41 sec)
Heartbeat CPU 0 instructions: 125500685 cycles: 44143181 heartbeat IPC: 2.243 cumulative IPC: 2.237 (Simulation time: 00 hr 11 min 44 sec)
Heartbeat CPU 0 instructions: 126000685 cycles: 44364658 heartbeat IPC: 2.258 cumulative IPC: 2.237 (Simulation time: 00 hr 11 min 48 sec)
Heartbeat CPU 0 instructions: 126500691 cycles: 44587294 heartbeat IPC: 2.246 cumulative IPC: 2.237 (Simulation time: 00 hr 11 min 52 sec)
Heartbeat CPU 0 instructions: 127000691 cycles: 44805117 heartbeat IPC: 2.295 cumulative IPC: 2.238 (Simulation time: 00 hr 11 min 55 sec)
Heartbeat CPU 0 instructions: 127500691 cycles: 45026572 heartbeat IPC: 2.258 cumulative IPC: 2.238 (Simulation time: 00 hr 11 min 59 sec)
Heartbeat CPU 0 instructions: 128000693 cycles: 45254686 heartbeat IPC: 2.192 cumulative IPC: 2.238 (Simulation time: 00 hr 12 min 03 sec)
Heartbeat CPU 0 instructions: 128500694 cycles: 45477982 heartbeat IPC: 2.239 cumulative IPC: 2.238 (Simulation time: 00 hr 12 min 06 sec)
Heartbeat CPU 0 instructions: 129000694 cycles: 45705386 heartbeat IPC: 2.199 cumulative IPC: 2.237 (Simulation time: 00 hr 12 min 10 sec)
Heartbeat CPU 0 instructions: 129500695 cycles: 45933771 heartbeat IPC: 2.189 cumulative IPC: 2.237 (Simulation time: 00 hr 12 min 14 sec)
Heartbeat CPU 0 instructions: 130000698 cycles: 46162144 heartbeat IPC: 2.189 cumulative IPC: 2.237 (Simulation time: 00 hr 12 min 17 sec)
Heartbeat CPU 0 instructions: 130500698 cycles: 46390518 heartbeat IPC: 2.189 cumulative IPC: 2.236 (Simulation time: 00 hr 12 min 21 sec)
Heartbeat CPU 0 instructions: 131000699 cycles: 46619156 heartbeat IPC: 2.187 cumulative IPC: 2.236 (Simulation time: 00 hr 12 min 25 sec)
Heartbeat CPU 0 instructions: 131500704 cycles: 46843393 heartbeat IPC: 2.23 cumulative IPC: 2.236 (Simulation time: 00 hr 12 min 28 sec)
Heartbeat CPU 0 instructions: 132000704 cycles: 47065011 heartbeat IPC: 2.256 cumulative IPC: 2.236 (Simulation time: 00 hr 12 min 32 sec)
Heartbeat CPU 0 instructions: 132500710 cycles: 47291138 heartbeat IPC: 2.211 cumulative IPC: 2.236 (Simulation time: 00 hr 12 min 36 sec)
Heartbeat CPU 0 instructions: 133000712 cycles: 47515053 heartbeat IPC: 2.233 cumulative IPC: 2.236 (Simulation time: 00 hr 12 min 39 sec)
Heartbeat CPU 0 instructions: 133500713 cycles: 47736708 heartbeat IPC: 2.256 cumulative IPC: 2.236 (Simulation time: 00 hr 12 min 43 sec)
Heartbeat CPU 0 instructions: 134000718 cycles: 47964604 heartbeat IPC: 2.194 cumulative IPC: 2.236 (Simulation time: 00 hr 12 min 47 sec)
Heartbeat CPU 0 instructions: 134500718 cycles: 48188639 heartbeat IPC: 2.232 cumulative IPC: 2.236 (Simulation time: 00 hr 12 min 50 sec)
Heartbeat CPU 0 instructions: 135000724 cycles: 48411736 heartbeat IPC: 2.241 cumulative IPC: 2.236 (Simulation time: 00 hr 12 min 54 sec)
Heartbeat CPU 0 instructions: 135500725 cycles: 48638565 heartbeat IPC: 2.204 cumulative IPC: 2.236 (Simulation time: 00 hr 12 min 58 sec)
Heartbeat CPU 0 instructions: 136000730 cycles: 48866365 heartbeat IPC: 2.195 cumulative IPC: 2.235 (Simulation time: 00 hr 13 min 01 sec)
Heartbeat CPU 0 instructions: 136500731 cycles: 49095090 heartbeat IPC: 2.186 cumulative IPC: 2.235 (Simulation time: 00 hr 13 min 05 sec)
Heartbeat CPU 0 instructions: 137000738 cycles: 49325125 heartbeat IPC: 2.174 cumulative IPC: 2.235 (Simulation time: 00 hr 13 min 09 sec)
Heartbeat CPU 0 instructions: 137500739 cycles: 49552514 heartbeat IPC: 2.199 cumulative IPC: 2.235 (Simulation time: 00 hr 13 min 12 sec)
Heartbeat CPU 0 instructions: 138000746 cycles: 49775752 heartbeat IPC: 2.24 cumulative IPC: 2.235 (Simulation time: 00 hr 13 min 16 sec)
Heartbeat CPU 0 instructions: 138500752 cycles: 49998688 heartbeat IPC: 2.243 cumulative IPC: 2.235 (Simulation time: 00 hr 13 min 20 sec)
Heartbeat CPU 0 instructions: 139000752 cycles: 50220227 heartbeat IPC: 2.257 cumulative IPC: 2.235 (Simulation time: 00 hr 13 min 23 sec)
Heartbeat CPU 0 instructions: 139500752 cycles: 50448681 heartbeat IPC: 2.189 cumulative IPC: 2.235 (Simulation time: 00 hr 13 min 27 sec)
Heartbeat CPU 0 instructions: 140000752 cycles: 50668874 heartbeat IPC: 2.271 cumulative IPC: 2.235 (Simulation time: 00 hr 13 min 31 sec)
Heartbeat CPU 0 instructions: 140500752 cycles: 50887611 heartbeat IPC: 2.286 cumulative IPC: 2.235 (Simulation time: 00 hr 13 min 34 sec)
Heartbeat CPU 0 instructions: 141000758 cycles: 51116002 heartbeat IPC: 2.189 cumulative IPC: 2.235 (Simulation time: 00 hr 13 min 38 sec)
Heartbeat CPU 0 instructions: 141500759 cycles: 51338409 heartbeat IPC: 2.248 cumulative IPC: 2.235 (Simulation time: 00 hr 13 min 41 sec)
Heartbeat CPU 0 instructions: 142000766 cycles: 51560220 heartbeat IPC: 2.254 cumulative IPC: 2.235 (Simulation time: 00 hr 13 min 45 sec)
Heartbeat CPU 0 instructions: 142500766 cycles: 51783395 heartbeat IPC: 2.24 cumulative IPC: 2.235 (Simulation time: 00 hr 13 min 49 sec)
Heartbeat CPU 0 instructions: 143000766 cycles: 52005052 heartbeat IPC: 2.256 cumulative IPC: 2.235 (Simulation time: 00 hr 13 min 52 sec)
Heartbeat CPU 0 instructions: 143500772 cycles: 52227515 heartbeat IPC: 2.248 cumulative IPC: 2.235 (Simulation time: 00 hr 13 min 56 sec)
Heartbeat CPU 0 instructions: 144000772 cycles: 52450330 heartbeat IPC: 2.244 cumulative IPC: 2.235 (Simulation time: 00 hr 14 min 00 sec)
Heartbeat CPU 0 instructions: 144500772 cycles: 52673649 heartbeat IPC: 2.239 cumulative IPC: 2.235 (Simulation time: 00 hr 14 min 03 sec)
Heartbeat CPU 0 instructions: 145000772 cycles: 52895048 heartbeat IPC: 2.258 cumulative IPC: 2.235 (Simulation time: 00 hr 14 min 07 sec)
Heartbeat CPU 0 instructions: 145500774 cycles: 53118016 heartbeat IPC: 2.242 cumulative IPC: 2.235 (Simulation time: 00 hr 14 min 10 sec)
Heartbeat CPU 0 instructions: 146000778 cycles: 53339021 heartbeat IPC: 2.262 cumulative IPC: 2.236 (Simulation time: 00 hr 14 min 14 sec)
Heartbeat CPU 0 instructions: 146500778 cycles: 53562859 heartbeat IPC: 2.234 cumulative IPC: 2.236 (Simulation time: 00 hr 14 min 18 sec)
Heartbeat CPU 0 instructions: 147000780 cycles: 53783302 heartbeat IPC: 2.268 cumulative IPC: 2.236 (Simulation time: 00 hr 14 min 21 sec)
Heartbeat CPU 0 instructions: 147500784 cycles: 54011774 heartbeat IPC: 2.188 cumulative IPC: 2.235 (Simulation time: 00 hr 14 min 25 sec)
Heartbeat CPU 0 instructions: 148000787 cycles: 54228429 heartbeat IPC: 2.308 cumulative IPC: 2.236 (Simulation time: 00 hr 14 min 28 sec)
Heartbeat CPU 0 instructions: 148500789 cycles: 54451449 heartbeat IPC: 2.242 cumulative IPC: 2.236 (Simulation time: 00 hr 14 min 32 sec)
Heartbeat CPU 0 instructions: 149000790 cycles: 54672361 heartbeat IPC: 2.263 cumulative IPC: 2.236 (Simulation time: 00 hr 14 min 36 sec)
Heartbeat CPU 0 instructions: 149500793 cycles: 54890873 heartbeat IPC: 2.288 cumulative IPC: 2.236 (Simulation time: 00 hr 14 min 39 sec)
Heartbeat CPU 0 instructions: 150000793 cycles: 55118192 heartbeat IPC: 2.2 cumulative IPC: 2.236 (Simulation time: 00 hr 14 min 43 sec)
Heartbeat CPU 0 instructions: 150500793 cycles: 55341411 heartbeat IPC: 2.24 cumulative IPC: 2.236 (Simulation time: 00 hr 14 min 47 sec)
Heartbeat CPU 0 instructions: 151000799 cycles: 55561921 heartbeat IPC: 2.267 cumulative IPC: 2.236 (Simulation time: 00 hr 14 min 50 sec)
Heartbeat CPU 0 instructions: 151500799 cycles: 55785306 heartbeat IPC: 2.238 cumulative IPC: 2.236 (Simulation time: 00 hr 14 min 54 sec)
Heartbeat CPU 0 instructions: 152000799 cycles: 56007954 heartbeat IPC: 2.246 cumulative IPC: 2.236 (Simulation time: 00 hr 14 min 57 sec)
Heartbeat CPU 0 instructions: 152500799 cycles: 56231778 heartbeat IPC: 2.234 cumulative IPC: 2.236 (Simulation time: 00 hr 15 min 01 sec)
Heartbeat CPU 0 instructions: 153000801 cycles: 56453957 heartbeat IPC: 2.25 cumulative IPC: 2.236 (Simulation time: 00 hr 15 min 05 sec)
Heartbeat CPU 0 instructions: 153500805 cycles: 56676559 heartbeat IPC: 2.246 cumulative IPC: 2.236 (Simulation time: 00 hr 15 min 08 sec)
Heartbeat CPU 0 instructions: 154000806 cycles: 56905280 heartbeat IPC: 2.186 cumulative IPC: 2.236 (Simulation time: 00 hr 15 min 12 sec)
Heartbeat CPU 0 instructions: 154500806 cycles: 57133463 heartbeat IPC: 2.191 cumulative IPC: 2.236 (Simulation time: 00 hr 15 min 16 sec)
Heartbeat CPU 0 instructions: 155000806 cycles: 57356076 heartbeat IPC: 2.246 cumulative IPC: 2.236 (Simulation time: 00 hr 15 min 19 sec)
Heartbeat CPU 0 instructions: 155500807 cycles: 57583069 heartbeat IPC: 2.203 cumulative IPC: 2.236 (Simulation time: 00 hr 15 min 23 sec)
Heartbeat CPU 0 instructions: 156000812 cycles: 57805670 heartbeat IPC: 2.246 cumulative IPC: 2.236 (Simulation time: 00 hr 15 min 27 sec)
Heartbeat CPU 0 instructions: 156500812 cycles: 58028746 heartbeat IPC: 2.241 cumulative IPC: 2.236 (Simulation time: 00 hr 15 min 30 sec)
Heartbeat CPU 0 instructions: 157000812 cycles: 58251110 heartbeat IPC: 2.249 cumulative IPC: 2.236 (Simulation time: 00 hr 15 min 34 sec)
Heartbeat CPU 0 instructions: 157500814 cycles: 58473054 heartbeat IPC: 2.253 cumulative IPC: 2.236 (Simulation time: 00 hr 15 min 38 sec)
Heartbeat CPU 0 instructions: 158000819 cycles: 58701619 heartbeat IPC: 2.188 cumulative IPC: 2.236 (Simulation time: 00 hr 15 min 41 sec)
Heartbeat CPU 0 instructions: 158500826 cycles: 58927282 heartbeat IPC: 2.216 cumulative IPC: 2.236 (Simulation time: 00 hr 15 min 45 sec)
Heartbeat CPU 0 instructions: 159000826 cycles: 59152421 heartbeat IPC: 2.221 cumulative IPC: 2.236 (Simulation time: 00 hr 15 min 49 sec)
Heartbeat CPU 0 instructions: 159500828 cycles: 59375605 heartbeat IPC: 2.24 cumulative IPC: 2.236 (Simulation time: 00 hr 15 min 52 sec)
Heartbeat CPU 0 instructions: 160000829 cycles: 59601918 heartbeat IPC: 2.209 cumulative IPC: 2.236 (Simulation time: 00 hr 15 min 56 sec)
Heartbeat CPU 0 instructions: 160500833 cycles: 59819927 heartbeat IPC: 2.294 cumulative IPC: 2.236 (Simulation time: 00 hr 15 min 59 sec)
Heartbeat CPU 0 instructions: 161000834 cycles: 60047495 heartbeat IPC: 2.197 cumulative IPC: 2.236 (Simulation time: 00 hr 16 min 03 sec)
Heartbeat CPU 0 instructions: 161500835 cycles: 60271307 heartbeat IPC: 2.234 cumulative IPC: 2.236 (Simulation time: 00 hr 16 min 07 sec)
Heartbeat CPU 0 instructions: 162000841 cycles: 60492245 heartbeat IPC: 2.263 cumulative IPC: 2.236 (Simulation time: 00 hr 16 min 10 sec)
Heartbeat CPU 0 instructions: 162500843 cycles: 60720872 heartbeat IPC: 2.187 cumulative IPC: 2.235 (Simulation time: 00 hr 16 min 14 sec)
Heartbeat CPU 0 instructions: 163000847 cycles: 60944160 heartbeat IPC: 2.239 cumulative IPC: 2.235 (Simulation time: 00 hr 16 min 18 sec)
Heartbeat CPU 0 instructions: 163500847 cycles: 61165335 heartbeat IPC: 2.261 cumulative IPC: 2.236 (Simulation time: 00 hr 16 min 21 sec)
Heartbeat CPU 0 instructions: 164000849 cycles: 61393026 heartbeat IPC: 2.196 cumulative IPC: 2.235 (Simulation time: 00 hr 16 min 25 sec)
Heartbeat CPU 0 instructions: 164500855 cycles: 61620876 heartbeat IPC: 2.194 cumulative IPC: 2.235 (Simulation time: 00 hr 16 min 29 sec)
Heartbeat CPU 0 instructions: 165000861 cycles: 61838290 heartbeat IPC: 2.3 cumulative IPC: 2.236 (Simulation time: 00 hr 16 min 32 sec)
Heartbeat CPU 0 instructions: 165500861 cycles: 62064539 heartbeat IPC: 2.21 cumulative IPC: 2.235 (Simulation time: 00 hr 16 min 36 sec)
Heartbeat CPU 0 instructions: 166000861 cycles: 62282976 heartbeat IPC: 2.289 cumulative IPC: 2.236 (Simulation time: 00 hr 16 min 40 sec)
Heartbeat CPU 0 instructions: 166500867 cycles: 62508034 heartbeat IPC: 2.222 cumulative IPC: 2.236 (Simulation time: 00 hr 16 min 43 sec)
Heartbeat CPU 0 instructions: 167000874 cycles: 62729720 heartbeat IPC: 2.255 cumulative IPC: 2.236 (Simulation time: 00 hr 16 min 47 sec)
Heartbeat CPU 0 instructions: 167500875 cycles: 62951239 heartbeat IPC: 2.257 cumulative IPC: 2.236 (Simulation time: 00 hr 16 min 50 sec)
Heartbeat CPU 0 instructions: 168000875 cycles: 63171542 heartbeat IPC: 2.27 cumulative IPC: 2.236 (Simulation time: 00 hr 16 min 54 sec)
Heartbeat CPU 0 instructions: 168500875 cycles: 63390603 heartbeat IPC: 2.282 cumulative IPC: 2.236 (Simulation time: 00 hr 16 min 58 sec)
Heartbeat CPU 0 instructions: 169000881 cycles: 63618476 heartbeat IPC: 2.194 cumulative IPC: 2.236 (Simulation time: 00 hr 17 min 01 sec)
Heartbeat CPU 0 instructions: 169500888 cycles: 63838326 heartbeat IPC: 2.274 cumulative IPC: 2.236 (Simulation time: 00 hr 17 min 05 sec)
Heartbeat CPU 0 instructions: 170000889 cycles: 64058432 heartbeat IPC: 2.272 cumulative IPC: 2.236 (Simulation time: 00 hr 17 min 08 sec)
Heartbeat CPU 0 instructions: 170500890 cycles: 64280463 heartbeat IPC: 2.252 cumulative IPC: 2.236 (Simulation time: 00 hr 17 min 12 sec)
Heartbeat CPU 0 instructions: 171000897 cycles: 64508116 heartbeat IPC: 2.196 cumulative IPC: 2.236 (Simulation time: 00 hr 17 min 16 sec)
Heartbeat CPU 0 instructions: 171500903 cycles: 64726283 heartbeat IPC: 2.292 cumulative IPC: 2.236 (Simulation time: 00 hr 17 min 19 sec)
Heartbeat CPU 0 instructions: 172000904 cycles: 64952721 heartbeat IPC: 2.208 cumulative IPC: 2.236 (Simulation time: 00 hr 17 min 23 sec)
Heartbeat CPU 0 instructions: 172500908 cycles: 65181220 heartbeat IPC: 2.188 cumulative IPC: 2.236 (Simulation time: 00 hr 17 min 27 sec)
Heartbeat CPU 0 instructions: 173000908 cycles: 65403480 heartbeat IPC: 2.25 cumulative IPC: 2.236 (Simulation time: 00 hr 17 min 30 sec)
Heartbeat CPU 0 instructions: 173500909 cycles: 65626037 heartbeat IPC: 2.247 cumulative IPC: 2.236 (Simulation time: 00 hr 17 min 34 sec)
Heartbeat CPU 0 instructions: 174000909 cycles: 65848165 heartbeat IPC: 2.251 cumulative IPC: 2.236 (Simulation time: 00 hr 17 min 38 sec)
Heartbeat CPU 0 instructions: 174500909 cycles: 66071168 heartbeat IPC: 2.242 cumulative IPC: 2.236 (Simulation time: 00 hr 17 min 41 sec)
Heartbeat CPU 0 instructions: 175000909 cycles: 66294438 heartbeat IPC: 2.239 cumulative IPC: 2.236 (Simulation time: 00 hr 17 min 45 sec)
Heartbeat CPU 0 instructions: 175500915 cycles: 66518631 heartbeat IPC: 2.23 cumulative IPC: 2.236 (Simulation time: 00 hr 17 min 48 sec)
Heartbeat CPU 0 instructions: 176000915 cycles: 66739034 heartbeat IPC: 2.269 cumulative IPC: 2.236 (Simulation time: 00 hr 17 min 52 sec)
Heartbeat CPU 0 instructions: 176500915 cycles: 66960598 heartbeat IPC: 2.257 cumulative IPC: 2.236 (Simulation time: 00 hr 17 min 56 sec)
Heartbeat CPU 0 instructions: 177000915 cycles: 67187844 heartbeat IPC: 2.2 cumulative IPC: 2.236 (Simulation time: 00 hr 17 min 59 sec)
Heartbeat CPU 0 instructions: 177500917 cycles: 67412313 heartbeat IPC: 2.227 cumulative IPC: 2.236 (Simulation time: 00 hr 18 min 03 sec)
Heartbeat CPU 0 instructions: 178000921 cycles: 67640352 heartbeat IPC: 2.193 cumulative IPC: 2.236 (Simulation time: 00 hr 18 min 07 sec)
Heartbeat CPU 0 instructions: 178500921 cycles: 67862535 heartbeat IPC: 2.25 cumulative IPC: 2.236 (Simulation time: 00 hr 18 min 10 sec)
Heartbeat CPU 0 instructions: 179000923 cycles: 68089331 heartbeat IPC: 2.205 cumulative IPC: 2.236 (Simulation time: 00 hr 18 min 14 sec)
Heartbeat CPU 0 instructions: 179500927 cycles: 68306701 heartbeat IPC: 2.3 cumulative IPC: 2.236 (Simulation time: 00 hr 18 min 18 sec)
Heartbeat CPU 0 instructions: 180000930 cycles: 68534570 heartbeat IPC: 2.194 cumulative IPC: 2.236 (Simulation time: 00 hr 18 min 21 sec)
Heartbeat CPU 0 instructions: 180500932 cycles: 68763192 heartbeat IPC: 2.187 cumulative IPC: 2.236 (Simulation time: 00 hr 18 min 25 sec)
Heartbeat CPU 0 instructions: 181000933 cycles: 68990882 heartbeat IPC: 2.196 cumulative IPC: 2.236 (Simulation time: 00 hr 18 min 29 sec)
Heartbeat CPU 0 instructions: 181500936 cycles: 69214173 heartbeat IPC: 2.239 cumulative IPC: 2.236 (Simulation time: 00 hr 18 min 32 sec)
Heartbeat CPU 0 instructions: 182000936 cycles: 69438106 heartbeat IPC: 2.233 cumulative IPC: 2.236 (Simulation time: 00 hr 18 min 36 sec)
Heartbeat CPU 0 instructions: 182500936 cycles: 69660473 heartbeat IPC: 2.249 cumulative IPC: 2.236 (Simulation time: 00 hr 18 min 40 sec)
Heartbeat CPU 0 instructions: 183000942 cycles: 69882710 heartbeat IPC: 2.25 cumulative IPC: 2.236 (Simulation time: 00 hr 18 min 43 sec)
Heartbeat CPU 0 instructions: 183500942 cycles: 70102357 heartbeat IPC: 2.276 cumulative IPC: 2.236 (Simulation time: 00 hr 18 min 47 sec)
Heartbeat CPU 0 instructions: 184000942 cycles: 70321140 heartbeat IPC: 2.285 cumulative IPC: 2.236 (Simulation time: 00 hr 18 min 50 sec)
Heartbeat CPU 0 instructions: 184500942 cycles: 70537619 heartbeat IPC: 2.31 cumulative IPC: 2.236 (Simulation time: 00 hr 18 min 54 sec)
Heartbeat CPU 0 instructions: 185000944 cycles: 70766584 heartbeat IPC: 2.184 cumulative IPC: 2.236 (Simulation time: 00 hr 18 min 58 sec)
Heartbeat CPU 0 instructions: 185500948 cycles: 70994177 heartbeat IPC: 2.197 cumulative IPC: 2.236 (Simulation time: 00 hr 19 min 02 sec)
Heartbeat CPU 0 instructions: 186000948 cycles: 71217170 heartbeat IPC: 2.242 cumulative IPC: 2.236 (Simulation time: 00 hr 19 min 05 sec)
Heartbeat CPU 0 instructions: 186500950 cycles: 71444308 heartbeat IPC: 2.201 cumulative IPC: 2.236 (Simulation time: 00 hr 19 min 09 sec)
Heartbeat CPU 0 instructions: 187000954 cycles: 71662812 heartbeat IPC: 2.288 cumulative IPC: 2.236 (Simulation time: 00 hr 19 min 12 sec)
Heartbeat CPU 0 instructions: 187500955 cycles: 71889006 heartbeat IPC: 2.21 cumulative IPC: 2.236 (Simulation time: 00 hr 19 min 16 sec)
Heartbeat CPU 0 instructions: 188000956 cycles: 72112554 heartbeat IPC: 2.237 cumulative IPC: 2.236 (Simulation time: 00 hr 19 min 20 sec)
Heartbeat CPU 0 instructions: 188500960 cycles: 72334667 heartbeat IPC: 2.251 cumulative IPC: 2.236 (Simulation time: 00 hr 19 min 23 sec)
Heartbeat CPU 0 instructions: 189000963 cycles: 72557274 heartbeat IPC: 2.246 cumulative IPC: 2.236 (Simulation time: 00 hr 19 min 27 sec)
Heartbeat CPU 0 instructions: 189500963 cycles: 72782950 heartbeat IPC: 2.216 cumulative IPC: 2.236 (Simulation time: 00 hr 19 min 31 sec)
Heartbeat CPU 0 instructions: 190000968 cycles: 73007812 heartbeat IPC: 2.224 cumulative IPC: 2.236 (Simulation time: 00 hr 19 min 34 sec)
Heartbeat CPU 0 instructions: 190500969 cycles: 73235227 heartbeat IPC: 2.199 cumulative IPC: 2.236 (Simulation time: 00 hr 19 min 38 sec)
Heartbeat CPU 0 instructions: 191000975 cycles: 73455678 heartbeat IPC: 2.268 cumulative IPC: 2.236 (Simulation time: 00 hr 19 min 42 sec)
Heartbeat CPU 0 instructions: 191500975 cycles: 73679851 heartbeat IPC: 2.23 cumulative IPC: 2.236 (Simulation time: 00 hr 19 min 45 sec)
Heartbeat CPU 0 instructions: 192000975 cycles: 73903729 heartbeat IPC: 2.233 cumulative IPC: 2.236 (Simulation time: 00 hr 19 min 49 sec)
Heartbeat CPU 0 instructions: 192500978 cycles: 74125295 heartbeat IPC: 2.257 cumulative IPC: 2.236 (Simulation time: 00 hr 19 min 53 sec)
Heartbeat CPU 0 instructions: 193000980 cycles: 74348625 heartbeat IPC: 2.239 cumulative IPC: 2.236 (Simulation time: 00 hr 19 min 56 sec)
Heartbeat CPU 0 instructions: 193500981 cycles: 74569920 heartbeat IPC: 2.259 cumulative IPC: 2.236 (Simulation time: 00 hr 20 min 00 sec)
Heartbeat CPU 0 instructions: 194000982 cycles: 74796805 heartbeat IPC: 2.204 cumulative IPC: 2.236 (Simulation time: 00 hr 20 min 04 sec)
Heartbeat CPU 0 instructions: 194500989 cycles: 75021650 heartbeat IPC: 2.224 cumulative IPC: 2.236 (Simulation time: 00 hr 20 min 07 sec)
Heartbeat CPU 0 instructions: 195000995 cycles: 75249414 heartbeat IPC: 2.195 cumulative IPC: 2.236 (Simulation time: 00 hr 20 min 11 sec)
Heartbeat CPU 0 instructions: 195500995 cycles: 75471082 heartbeat IPC: 2.256 cumulative IPC: 2.236 (Simulation time: 00 hr 20 min 15 sec)
Heartbeat CPU 0 instructions: 196000995 cycles: 75699891 heartbeat IPC: 2.185 cumulative IPC: 2.236 (Simulation time: 00 hr 20 min 18 sec)
Heartbeat CPU 0 instructions: 196500996 cycles: 75928893 heartbeat IPC: 2.183 cumulative IPC: 2.236 (Simulation time: 00 hr 20 min 22 sec)
Heartbeat CPU 0 instructions: 197001003 cycles: 76156264 heartbeat IPC: 2.199 cumulative IPC: 2.235 (Simulation time: 00 hr 20 min 26 sec)
Heartbeat CPU 0 instructions: 197501009 cycles: 76385210 heartbeat IPC: 2.184 cumulative IPC: 2.235 (Simulation time: 00 hr 20 min 30 sec)
Heartbeat CPU 0 instructions: 198001010 cycles: 76610205 heartbeat IPC: 2.222 cumulative IPC: 2.235 (Simulation time: 00 hr 20 min 33 sec)
Heartbeat CPU 0 instructions: 198501017 cycles: 76837085 heartbeat IPC: 2.204 cumulative IPC: 2.235 (Simulation time: 00 hr 20 min 37 sec)
Heartbeat CPU 0 instructions: 199001017 cycles: 77054207 heartbeat IPC: 2.303 cumulative IPC: 2.235 (Simulation time: 00 hr 20 min 40 sec)
Heartbeat CPU 0 instructions: 199501017 cycles: 77279659 heartbeat IPC: 2.218 cumulative IPC: 2.235 (Simulation time: 00 hr 20 min 44 sec)
Heartbeat CPU 0 instructions: 200001023 cycles: 77502528 heartbeat IPC: 2.243 cumulative IPC: 2.235 (Simulation time: 00 hr 20 min 48 sec)
Heartbeat CPU 0 instructions: 200501024 cycles: 77726299 heartbeat IPC: 2.234 cumulative IPC: 2.235 (Simulation time: 00 hr 20 min 51 sec)
Heartbeat CPU 0 instructions: 201001031 cycles: 77949138 heartbeat IPC: 2.244 cumulative IPC: 2.235 (Simulation time: 00 hr 20 min 55 sec)
Heartbeat CPU 0 instructions: 201501031 cycles: 78165408 heartbeat IPC: 2.312 cumulative IPC: 2.236 (Simulation time: 00 hr 20 min 59 sec)
Heartbeat CPU 0 instructions: 202001031 cycles: 78390328 heartbeat IPC: 2.223 cumulative IPC: 2.235 (Simulation time: 00 hr 21 min 02 sec)
Heartbeat CPU 0 instructions: 202501037 cycles: 78609646 heartbeat IPC: 2.28 cumulative IPC: 2.236 (Simulation time: 00 hr 21 min 06 sec)
Heartbeat CPU 0 instructions: 203001038 cycles: 78838396 heartbeat IPC: 2.186 cumulative IPC: 2.235 (Simulation time: 00 hr 21 min 09 sec)
Heartbeat CPU 0 instructions: 203501045 cycles: 79060208 heartbeat IPC: 2.254 cumulative IPC: 2.236 (Simulation time: 00 hr 21 min 13 sec)
Heartbeat CPU 0 instructions: 204001045 cycles: 79283301 heartbeat IPC: 2.241 cumulative IPC: 2.236 (Simulation time: 00 hr 21 min 17 sec)
Heartbeat CPU 0 instructions: 204501045 cycles: 79506707 heartbeat IPC: 2.238 cumulative IPC: 2.236 (Simulation time: 00 hr 21 min 20 sec)
Heartbeat CPU 0 instructions: 205001051 cycles: 79727809 heartbeat IPC: 2.261 cumulative IPC: 2.236 (Simulation time: 00 hr 21 min 24 sec)
Heartbeat CPU 0 instructions: 205501052 cycles: 79944063 heartbeat IPC: 2.312 cumulative IPC: 2.236 (Simulation time: 00 hr 21 min 27 sec)
Heartbeat CPU 0 instructions: 206001059 cycles: 80172584 heartbeat IPC: 2.188 cumulative IPC: 2.236 (Simulation time: 00 hr 21 min 31 sec)
Heartbeat CPU 0 instructions: 206501059 cycles: 80396116 heartbeat IPC: 2.237 cumulative IPC: 2.236 (Simulation time: 00 hr 21 min 35 sec)
Heartbeat CPU 0 instructions: 207001061 cycles: 80617652 heartbeat IPC: 2.257 cumulative IPC: 2.236 (Simulation time: 00 hr 21 min 38 sec)
Heartbeat CPU 0 instructions: 207501065 cycles: 80840784 heartbeat IPC: 2.241 cumulative IPC: 2.236 (Simulation time: 00 hr 21 min 42 sec)
Heartbeat CPU 0 instructions: 208001066 cycles: 81068518 heartbeat IPC: 2.196 cumulative IPC: 2.236 (Simulation time: 00 hr 21 min 46 sec)
Heartbeat CPU 0 instructions: 208501066 cycles: 81296661 heartbeat IPC: 2.192 cumulative IPC: 2.236 (Simulation time: 00 hr 21 min 49 sec)
Heartbeat CPU 0 instructions: 209001066 cycles: 81513922 heartbeat IPC: 2.301 cumulative IPC: 2.236 (Simulation time: 00 hr 21 min 53 sec)
Heartbeat CPU 0 instructions: 209501066 cycles: 81742324 heartbeat IPC: 2.189 cumulative IPC: 2.236 (Simulation time: 00 hr 21 min 57 sec)
Heartbeat CPU 0 instructions: 210001072 cycles: 81962595 heartbeat IPC: 2.27 cumulative IPC: 2.236 (Simulation time: 00 hr 22 min 00 sec)
Heartbeat CPU 0 instructions: 210501072 cycles: 82188200 heartbeat IPC: 2.216 cumulative IPC: 2.236 (Simulation time: 00 hr 22 min 04 sec)
Heartbeat CPU 0 instructions: 211001072 cycles: 82409856 heartbeat IPC: 2.256 cumulative IPC: 2.236 (Simulation time: 00 hr 22 min 08 sec)
Heartbeat CPU 0 instructions: 211501074 cycles: 82635702 heartbeat IPC: 2.214 cumulative IPC: 2.236 (Simulation time: 00 hr 22 min 11 sec)
Heartbeat CPU 0 instructions: 212001078 cycles: 82850470 heartbeat IPC: 2.328 cumulative IPC: 2.236 (Simulation time: 00 hr 22 min 15 sec)
Heartbeat CPU 0 instructions: 212501078 cycles: 83076117 heartbeat IPC: 2.216 cumulative IPC: 2.236 (Simulation time: 00 hr 22 min 18 sec)
Heartbeat CPU 0 instructions: 213001080 cycles: 83299381 heartbeat IPC: 2.24 cumulative IPC: 2.236 (Simulation time: 00 hr 22 min 22 sec)
Heartbeat CPU 0 instructions: 213501084 cycles: 83522001 heartbeat IPC: 2.246 cumulative IPC: 2.236 (Simulation time: 00 hr 22 min 26 sec)
Heartbeat CPU 0 instructions: 214001087 cycles: 83744285 heartbeat IPC: 2.249 cumulative IPC: 2.236 (Simulation time: 00 hr 22 min 29 sec)
Heartbeat CPU 0 instructions: 214501087 cycles: 83967063 heartbeat IPC: 2.244 cumulative IPC: 2.236 (Simulation time: 00 hr 22 min 33 sec)
Heartbeat CPU 0 instructions: 215001090 cycles: 84189110 heartbeat IPC: 2.252 cumulative IPC: 2.236 (Simulation time: 00 hr 22 min 36 sec)
Heartbeat CPU 0 instructions: 215501093 cycles: 84411636 heartbeat IPC: 2.247 cumulative IPC: 2.236 (Simulation time: 00 hr 22 min 40 sec)
Heartbeat CPU 0 instructions: 216001093 cycles: 84633684 heartbeat IPC: 2.252 cumulative IPC: 2.236 (Simulation time: 00 hr 22 min 44 sec)
Heartbeat CPU 0 instructions: 216501093 cycles: 84861559 heartbeat IPC: 2.194 cumulative IPC: 2.236 (Simulation time: 00 hr 22 min 47 sec)
Heartbeat CPU 0 instructions: 217001093 cycles: 85091193 heartbeat IPC: 2.177 cumulative IPC: 2.236 (Simulation time: 00 hr 22 min 51 sec)
Heartbeat CPU 0 instructions: 217501099 cycles: 85311781 heartbeat IPC: 2.267 cumulative IPC: 2.236 (Simulation time: 00 hr 22 min 55 sec)
Heartbeat CPU 0 instructions: 218001099 cycles: 85535093 heartbeat IPC: 2.239 cumulative IPC: 2.236 (Simulation time: 00 hr 22 min 58 sec)
Heartbeat CPU 0 instructions: 218501099 cycles: 85763351 heartbeat IPC: 2.191 cumulative IPC: 2.236 (Simulation time: 00 hr 23 min 02 sec)
Heartbeat CPU 0 instructions: 219001101 cycles: 85990982 heartbeat IPC: 2.197 cumulative IPC: 2.236 (Simulation time: 00 hr 23 min 06 sec)
Heartbeat CPU 0 instructions: 219501106 cycles: 86207687 heartbeat IPC: 2.307 cumulative IPC: 2.236 (Simulation time: 00 hr 23 min 09 sec)
Heartbeat CPU 0 instructions: 220001113 cycles: 86436319 heartbeat IPC: 2.187 cumulative IPC: 2.236 (Simulation time: 00 hr 23 min 13 sec)
Heartbeat CPU 0 instructions: 220501113 cycles: 86663923 heartbeat IPC: 2.197 cumulative IPC: 2.236 (Simulation time: 00 hr 23 min 17 sec)
Heartbeat CPU 0 instructions: 221001115 cycles: 86885897 heartbeat IPC: 2.253 cumulative IPC: 2.236 (Simulation time: 00 hr 23 min 20 sec)
Heartbeat CPU 0 instructions: 221501116 cycles: 87098077 heartbeat IPC: 2.356 cumulative IPC: 2.236 (Simulation time: 00 hr 23 min 24 sec)
Heartbeat CPU 0 instructions: 222001120 cycles: 87322835 heartbeat IPC: 2.225 cumulative IPC: 2.236 (Simulation time: 00 hr 23 min 27 sec)
Heartbeat CPU 0 instructions: 222501121 cycles: 87542841 heartbeat IPC: 2.273 cumulative IPC: 2.236 (Simulation time: 00 hr 23 min 31 sec)
Heartbeat CPU 0 instructions: 223001122 cycles: 87770017 heartbeat IPC: 2.201 cumulative IPC: 2.236 (Simulation time: 00 hr 23 min 35 sec)
Heartbeat CPU 0 instructions: 223501128 cycles: 87994106 heartbeat IPC: 2.231 cumulative IPC: 2.236 (Simulation time: 00 hr 23 min 38 sec)
Heartbeat CPU 0 instructions: 224001131 cycles: 88214561 heartbeat IPC: 2.268 cumulative IPC: 2.236 (Simulation time: 00 hr 23 min 42 sec)
Heartbeat CPU 0 instructions: 224501134 cycles: 88437975 heartbeat IPC: 2.238 cumulative IPC: 2.236 (Simulation time: 00 hr 23 min 45 sec)
Heartbeat CPU 0 instructions: 225001134 cycles: 88660351 heartbeat IPC: 2.248 cumulative IPC: 2.236 (Simulation time: 00 hr 23 min 49 sec)
Heartbeat CPU 0 instructions: 225501136 cycles: 88882809 heartbeat IPC: 2.248 cumulative IPC: 2.236 (Simulation time: 00 hr 23 min 53 sec)
Heartbeat CPU 0 instructions: 226001142 cycles: 89103920 heartbeat IPC: 2.261 cumulative IPC: 2.236 (Simulation time: 00 hr 23 min 56 sec)
Heartbeat CPU 0 instructions: 226501147 cycles: 89332722 heartbeat IPC: 2.185 cumulative IPC: 2.236 (Simulation time: 00 hr 24 min 00 sec)
Heartbeat CPU 0 instructions: 227001153 cycles: 89560780 heartbeat IPC: 2.192 cumulative IPC: 2.236 (Simulation time: 00 hr 24 min 04 sec)
Heartbeat CPU 0 instructions: 227501154 cycles: 89792238 heartbeat IPC: 2.16 cumulative IPC: 2.236 (Simulation time: 00 hr 24 min 08 sec)
Heartbeat CPU 0 instructions: 228001161 cycles: 90007921 heartbeat IPC: 2.318 cumulative IPC: 2.236 (Simulation time: 00 hr 24 min 11 sec)
Heartbeat CPU 0 instructions: 228501162 cycles: 90231331 heartbeat IPC: 2.238 cumulative IPC: 2.236 (Simulation time: 00 hr 24 min 15 sec)
Heartbeat CPU 0 instructions: 229001169 cycles: 90452858 heartbeat IPC: 2.257 cumulative IPC: 2.236 (Simulation time: 00 hr 24 min 18 sec)
Heartbeat CPU 0 instructions: 229501175 cycles: 90675203 heartbeat IPC: 2.249 cumulative IPC: 2.236 (Simulation time: 00 hr 24 min 22 sec)
Heartbeat CPU 0 instructions: 230001176 cycles: 90897297 heartbeat IPC: 2.251 cumulative IPC: 2.236 (Simulation time: 00 hr 24 min 26 sec)
Heartbeat CPU 0 instructions: 230501183 cycles: 91125758 heartbeat IPC: 2.189 cumulative IPC: 2.236 (Simulation time: 00 hr 24 min 29 sec)
Heartbeat CPU 0 instructions: 231001183 cycles: 91349053 heartbeat IPC: 2.239 cumulative IPC: 2.236 (Simulation time: 00 hr 24 min 33 sec)
Heartbeat CPU 0 instructions: 231501183 cycles: 91564927 heartbeat IPC: 2.316 cumulative IPC: 2.236 (Simulation time: 00 hr 24 min 36 sec)
Heartbeat CPU 0 instructions: 232001189 cycles: 91786258 heartbeat IPC: 2.259 cumulative IPC: 2.236 (Simulation time: 00 hr 24 min 40 sec)
Heartbeat CPU 0 instructions: 232501190 cycles: 92008594 heartbeat IPC: 2.249 cumulative IPC: 2.236 (Simulation time: 00 hr 24 min 44 sec)
Heartbeat CPU 0 instructions: 233001197 cycles: 92234987 heartbeat IPC: 2.209 cumulative IPC: 2.236 (Simulation time: 00 hr 24 min 47 sec)
Heartbeat CPU 0 instructions: 233501197 cycles: 92459097 heartbeat IPC: 2.231 cumulative IPC: 2.236 (Simulation time: 00 hr 24 min 51 sec)
Heartbeat CPU 0 instructions: 234001199 cycles: 92681267 heartbeat IPC: 2.251 cumulative IPC: 2.236 (Simulation time: 00 hr 24 min 55 sec)
Heartbeat CPU 0 instructions: 234501203 cycles: 92901901 heartbeat IPC: 2.266 cumulative IPC: 2.236 (Simulation time: 00 hr 24 min 58 sec)
Heartbeat CPU 0 instructions: 235001204 cycles: 93128140 heartbeat IPC: 2.21 cumulative IPC: 2.236 (Simulation time: 00 hr 25 min 02 sec)
Heartbeat CPU 0 instructions: 235501205 cycles: 93355353 heartbeat IPC: 2.201 cumulative IPC: 2.236 (Simulation time: 00 hr 25 min 06 sec)
Heartbeat CPU 0 instructions: 236001209 cycles: 93577218 heartbeat IPC: 2.254 cumulative IPC: 2.236 (Simulation time: 00 hr 25 min 09 sec)
Heartbeat CPU 0 instructions: 236501212 cycles: 93801184 heartbeat IPC: 2.232 cumulative IPC: 2.236 (Simulation time: 00 hr 25 min 13 sec)
Heartbeat CPU 0 instructions: 237001214 cycles: 94018542 heartbeat IPC: 2.3 cumulative IPC: 2.236 (Simulation time: 00 hr 25 min 16 sec)
Heartbeat CPU 0 instructions: 237501218 cycles: 94234011 heartbeat IPC: 2.321 cumulative IPC: 2.236 (Simulation time: 00 hr 25 min 20 sec)
Heartbeat CPU 0 instructions: 238001218 cycles: 94455390 heartbeat IPC: 2.259 cumulative IPC: 2.237 (Simulation time: 00 hr 25 min 24 sec)
Heartbeat CPU 0 instructions: 238501218 cycles: 94678291 heartbeat IPC: 2.243 cumulative IPC: 2.237 (Simulation time: 00 hr 25 min 27 sec)
Heartbeat CPU 0 instructions: 239001218 cycles: 94899899 heartbeat IPC: 2.256 cumulative IPC: 2.237 (Simulation time: 00 hr 25 min 31 sec)
Heartbeat CPU 0 instructions: 239501224 cycles: 95122853 heartbeat IPC: 2.243 cumulative IPC: 2.237 (Simulation time: 00 hr 25 min 34 sec)
Heartbeat CPU 0 instructions: 240001224 cycles: 95343359 heartbeat IPC: 2.268 cumulative IPC: 2.237 (Simulation time: 00 hr 25 min 38 sec)
Heartbeat CPU 0 instructions: 240501224 cycles: 95560160 heartbeat IPC: 2.306 cumulative IPC: 2.237 (Simulation time: 00 hr 25 min 41 sec)
Heartbeat CPU 0 instructions: 241001224 cycles: 95788780 heartbeat IPC: 2.187 cumulative IPC: 2.237 (Simulation time: 00 hr 25 min 45 sec)
Heartbeat CPU 0 instructions: 241501226 cycles: 96011937 heartbeat IPC: 2.241 cumulative IPC: 2.237 (Simulation time: 00 hr 25 min 49 sec)
Heartbeat CPU 0 instructions: 242001230 cycles: 96240927 heartbeat IPC: 2.184 cumulative IPC: 2.237 (Simulation time: 00 hr 25 min 53 sec)
Heartbeat CPU 0 instructions: 242501230 cycles: 96462354 heartbeat IPC: 2.258 cumulative IPC: 2.237 (Simulation time: 00 hr 25 min 58 sec)
Heartbeat CPU 0 instructions: 243001232 cycles: 96686336 heartbeat IPC: 2.232 cumulative IPC: 2.237 (Simulation time: 00 hr 26 min 04 sec)
Heartbeat CPU 0 instructions: 243501236 cycles: 96908727 heartbeat IPC: 2.248 cumulative IPC: 2.237 (Simulation time: 00 hr 26 min 09 sec)
Heartbeat CPU 0 instructions: 244001239 cycles: 97134676 heartbeat IPC: 2.213 cumulative IPC: 2.237 (Simulation time: 00 hr 26 min 15 sec)
Heartbeat CPU 0 instructions: 244501245 cycles: 97359694 heartbeat IPC: 2.222 cumulative IPC: 2.237 (Simulation time: 00 hr 26 min 21 sec)
Heartbeat CPU 0 instructions: 245001245 cycles: 97581512 heartbeat IPC: 2.254 cumulative IPC: 2.237 (Simulation time: 00 hr 26 min 26 sec)
Heartbeat CPU 0 instructions: 245501245 cycles: 97809684 heartbeat IPC: 2.191 cumulative IPC: 2.236 (Simulation time: 00 hr 26 min 32 sec)
Heartbeat CPU 0 instructions: 246001245 cycles: 98032043 heartbeat IPC: 2.249 cumulative IPC: 2.237 (Simulation time: 00 hr 26 min 37 sec)
Heartbeat CPU 0 instructions: 246501247 cycles: 98254115 heartbeat IPC: 2.252 cumulative IPC: 2.237 (Simulation time: 00 hr 26 min 43 sec)
Heartbeat CPU 0 instructions: 247001251 cycles: 98470632 heartbeat IPC: 2.309 cumulative IPC: 2.237 (Simulation time: 00 hr 26 min 48 sec)
Heartbeat CPU 0 instructions: 247501251 cycles: 98694242 heartbeat IPC: 2.236 cumulative IPC: 2.237 (Simulation time: 00 hr 26 min 54 sec)
Heartbeat CPU 0 instructions: 248001253 cycles: 98915933 heartbeat IPC: 2.255 cumulative IPC: 2.237 (Simulation time: 00 hr 26 min 59 sec)
Heartbeat CPU 0 instructions: 248501253 cycles: 99144335 heartbeat IPC: 2.189 cumulative IPC: 2.237 (Simulation time: 00 hr 27 min 05 sec)
Heartbeat CPU 0 instructions: 249001260 cycles: 99366177 heartbeat IPC: 2.254 cumulative IPC: 2.237 (Simulation time: 00 hr 27 min 11 sec)
Heartbeat CPU 0 instructions: 249501262 cycles: 99588269 heartbeat IPC: 2.251 cumulative IPC: 2.237 (Simulation time: 00 hr 27 min 16 sec)
Simulation finished CPU 0 instructions: 200000001 cycles: 89420754 cumulative IPC: 2.237 (Simulation time: 00 hr 27 min 22 sec)
Simulation complete CPU 0 instructions: 200000001 cycles: 89420754 cumulative IPC: 2.237 (Simulation time: 00 hr 27 min 22 sec)

ChampSim completed all CPUs

=== Simulation ===
CPU 0 runs /local-ssd/ben/dpc4-traces/SPEC17/603.bwaves_s-1740B.champsimtrace.xz

Region of Interest Statistics

CPU 0 cumulative IPC: 2.237 instructions: 200000001 cycles: 89420754
CPU 0 Branch Prediction Accuracy: 81.23% MPKI: 4.685 Average ROB Occupancy at Mispredict: 255.9
Branch type MPKI
BRANCH_DIRECT_JUMP: 0
BRANCH_INDIRECT: 0
BRANCH_CONDITIONAL: 4.685
BRANCH_DIRECT_CALL: 0
BRANCH_INDIRECT_CALL: 0
BRANCH_RETURN: 0

cpu0->cpu0_STLB TOTAL        ACCESS:     299285 HIT:     239902 MISS:      59383 MSHR_MERGE:          0
cpu0->cpu0_STLB LOAD         ACCESS:     299285 HIT:     239902 MISS:      59383 MSHR_MERGE:          0
cpu0->cpu0_STLB RFO          ACCESS:          0 HIT:          0 MISS:          0 MSHR_MERGE:          0
cpu0->cpu0_STLB PREFETCH     ACCESS:          0 HIT:          0 MISS:          0 MSHR_MERGE:          0
cpu0->cpu0_STLB WRITE        ACCESS:          0 HIT:          0 MISS:          0 MSHR_MERGE:          0
cpu0->cpu0_STLB TRANSLATION  ACCESS:          0 HIT:          0 MISS:          0 MSHR_MERGE:          0
cpu0->cpu0_STLB PREFETCH REQUESTED:          0 ISSUED:          0 USEFUL:          0 USELESS:          0
cpu0->cpu0_STLB AVERAGE MISS LATENCY: 247.6 cycles
cpu0->cpu0_L2C TOTAL        ACCESS:   17017179 HIT:   12163947 MISS:    4853232 MSHR_MERGE:    1045144
cpu0->cpu0_L2C LOAD         ACCESS:    1851425 HIT:    1695271 MISS:     156154 MSHR_MERGE:      48723
cpu0->cpu0_L2C RFO          ACCESS:      97449 HIT:          0 MISS:      97449 MSHR_MERGE:          0
cpu0->cpu0_L2C PREFETCH     ACCESS:   14949993 HIT:   10357900 MISS:    4592093 MSHR_MERGE:     996421
cpu0->cpu0_L2C WRITE        ACCESS:      98929 HIT:      98929 MISS:          0 MSHR_MERGE:          0
cpu0->cpu0_L2C TRANSLATION  ACCESS:      19383 HIT:      11847 MISS:       7536 MSHR_MERGE:          0
cpu0->cpu0_L2C PREFETCH REQUESTED:   20150040 ISSUED:   12900374 USEFUL:    3416912 USELESS:      96532
cpu0->cpu0_L2C AVERAGE MISS LATENCY: 375.8 cycles
cpu0->cpu0_L1I TOTAL        ACCESS:   17943612 HIT:   17943612 MISS:          0 MSHR_MERGE:          0
cpu0->cpu0_L1I LOAD         ACCESS:   17943612 HIT:   17943612 MISS:          0 MSHR_MERGE:          0
cpu0->cpu0_L1I RFO          ACCESS:          0 HIT:          0 MISS:          0 MSHR_MERGE:          0
cpu0->cpu0_L1I PREFETCH     ACCESS:          0 HIT:          0 MISS:          0 MSHR_MERGE:          0
cpu0->cpu0_L1I WRITE        ACCESS:          0 HIT:          0 MISS:          0 MSHR_MERGE:          0
cpu0->cpu0_L1I TRANSLATION  ACCESS:          0 HIT:          0 MISS:          0 MSHR_MERGE:          0
cpu0->cpu0_L1I PREFETCH REQUESTED:          0 ISSUED:          0 USEFUL:          0 USELESS:          0
cpu0->cpu0_L1I AVERAGE MISS LATENCY: - cycles
cpu0->cpu0_L1D TOTAL        ACCESS:   68642399 HIT:   63725301 MISS:    4917098 MSHR_MERGE:     899237
cpu0->cpu0_L1D LOAD         ACCESS:   45579109 HIT:   43602594 MISS:    1976515 MSHR_MERGE:     125090
cpu0->cpu0_L1D RFO          ACCESS:          0 HIT:          0 MISS:          0 MSHR_MERGE:          0
cpu0->cpu0_L1D PREFETCH     ACCESS:   11677588 HIT:    9384593 MISS:    2292995 MSHR_MERGE:     243391
cpu0->cpu0_L1D WRITE        ACCESS:   11266825 HIT:   10638620 MISS:     628205 MSHR_MERGE:     530756
cpu0->cpu0_L1D TRANSLATION  ACCESS:     118877 HIT:      99494 MISS:      19383 MSHR_MERGE:          0
cpu0->cpu0_L1D PREFETCH REQUESTED:   66620053 ISSUED:   11677586 USEFUL:    2049493 USELESS:         97
cpu0->cpu0_L1D AVERAGE MISS LATENCY: 61.12 cycles
cpu0->cpu0_ITLB TOTAL        ACCESS:   10924437 HIT:   10924437 MISS:          0 MSHR_MERGE:          0
cpu0->cpu0_ITLB LOAD         ACCESS:   10924437 HIT:   10924437 MISS:          0 MSHR_MERGE:          0
cpu0->cpu0_ITLB RFO          ACCESS:          0 HIT:          0 MISS:          0 MSHR_MERGE:          0
cpu0->cpu0_ITLB PREFETCH     ACCESS:          0 HIT:          0 MISS:          0 MSHR_MERGE:          0
cpu0->cpu0_ITLB WRITE        ACCESS:          0 HIT:          0 MISS:          0 MSHR_MERGE:          0
cpu0->cpu0_ITLB TRANSLATION  ACCESS:          0 HIT:          0 MISS:          0 MSHR_MERGE:          0
cpu0->cpu0_ITLB PREFETCH REQUESTED:          0 ISSUED:          0 USEFUL:          0 USELESS:          0
cpu0->cpu0_ITLB AVERAGE MISS LATENCY: - cycles
cpu0->cpu0_DTLB TOTAL        ACCESS:   64417369 HIT:   64015451 MISS:     401918 MSHR_MERGE:     102633
cpu0->cpu0_DTLB LOAD         ACCESS:   64417369 HIT:   64015451 MISS:     401918 MSHR_MERGE:     102633
cpu0->cpu0_DTLB RFO          ACCESS:          0 HIT:          0 MISS:          0 MSHR_MERGE:          0
cpu0->cpu0_DTLB PREFETCH     ACCESS:          0 HIT:          0 MISS:          0 MSHR_MERGE:          0
cpu0->cpu0_DTLB WRITE        ACCESS:          0 HIT:          0 MISS:          0 MSHR_MERGE:          0
cpu0->cpu0_DTLB TRANSLATION  ACCESS:          0 HIT:          0 MISS:          0 MSHR_MERGE:          0
cpu0->cpu0_DTLB PREFETCH REQUESTED:          0 ISSUED:          0 USEFUL:          0 USELESS:          0
cpu0->cpu0_DTLB AVERAGE MISS LATENCY: 54.34 cycles
cpu0->LLC TOTAL        ACCESS:    7492287 HIT:    3136997 MISS:    4355290 MSHR_MERGE:     435073
cpu0->LLC LOAD         ACCESS:     107431 HIT:      15642 MISS:      91789 MSHR_MERGE:       1805
cpu0->LLC RFO          ACCESS:      97449 HIT:          0 MISS:      97449 MSHR_MERGE:          0
cpu0->LLC PREFETCH     ACCESS:    7182295 HIT:    3110682 MISS:    4071613 MSHR_MERGE:     433268
cpu0->LLC WRITE        ACCESS:      97576 HIT:      10673 MISS:      86903 MSHR_MERGE:          0
cpu0->LLC TRANSLATION  ACCESS:       7536 HIT:          0 MISS:       7536 MSHR_MERGE:          0
cpu0->LLC PREFETCH REQUESTED:   20703785 ISSUED:    3586672 USEFUL:    3020270 USELESS:     218397
cpu0->LLC AVERAGE MISS LATENCY: 252.1 cycles

DRAM Statistics

Channel 0 RQ ROW_BUFFER_HIT:       9614
  ROW_BUFFER_MISS:    3823640
  AVG DBUS CONGESTED CYCLE: 4.613
Channel 0 WQ ROW_BUFFER_HIT:      17668
  ROW_BUFFER_MISS:      79847
  FULL:          0
Channel 0 REFRESHES ISSUED:       7451
