[VMEM] WARNING: physical memory size is smaller than virtual memory size.

*** ChampSim Multicore Out-of-Order Simulator ***
Warmup Instructions: 50000000
Simulation Instructions: 200000000
Number of CPUs: 1
Page size: 4096
Core 0: /local-ssd/ben/dpc4-traces/SPEC17/623.xalancbmk_s-10B.champsimtrace.xz
IPCP_AT_L1_CONFIG
NUM_IP_TABLE_L1_ENTRIES 1024
NUM_GHB_ENTRIES 16
NUM_IP_INDEX_BITS 10
NUM_IP_TAG_BITS 6
S_TYPE 1
CS_TYPE 2
CPLX_TYPE 3
NL_TYPE 4

Off-chip DRAM Size: 64 GiB Channels: 1 Width: 64-bit Data Rate: 4807 MT/s
Heartbeat CPU 0 instructions: 500002 cycles: 205379 heartbeat IPC: 2.435 cumulative IPC: 2.435 (Simulation time: 00 hr 00 min 04 sec)
Heartbeat CPU 0 instructions: 1000002 cycles: 355337 heartbeat IPC: 3.334 cumulative IPC: 2.814 (Simulation time: 00 hr 00 min 06 sec)
Heartbeat CPU 0 instructions: 1500004 cycles: 534359 heartbeat IPC: 2.793 cumulative IPC: 2.807 (Simulation time: 00 hr 00 min 09 sec)
Heartbeat CPU 0 instructions: 2000007 cycles: 683018 heartbeat IPC: 3.363 cumulative IPC: 2.928 (Simulation time: 00 hr 00 min 12 sec)
Heartbeat CPU 0 instructions: 2500007 cycles: 794864 heartbeat IPC: 4.47 cumulative IPC: 3.145 (Simulation time: 00 hr 00 min 13 sec)
Heartbeat CPU 0 instructions: 3000010 cycles: 912687 heartbeat IPC: 4.244 cumulative IPC: 3.287 (Simulation time: 00 hr 00 min 15 sec)
Heartbeat CPU 0 instructions: 3500016 cycles: 1015058 heartbeat IPC: 4.884 cumulative IPC: 3.448 (Simulation time: 00 hr 00 min 17 sec)
Heartbeat CPU 0 instructions: 4000020 cycles: 1121179 heartbeat IPC: 4.712 cumulative IPC: 3.568 (Simulation time: 00 hr 00 min 19 sec)
Heartbeat CPU 0 instructions: 4500022 cycles: 1221179 heartbeat IPC: 5 cumulative IPC: 3.685 (Simulation time: 00 hr 00 min 20 sec)
Heartbeat CPU 0 instructions: 5000024 cycles: 1321184 heartbeat IPC: 5 cumulative IPC: 3.785 (Simulation time: 00 hr 00 min 22 sec)
Heartbeat CPU 0 instructions: 5500025 cycles: 1426673 heartbeat IPC: 4.74 cumulative IPC: 3.855 (Simulation time: 00 hr 00 min 24 sec)
Heartbeat CPU 0 instructions: 6000030 cycles: 1530945 heartbeat IPC: 4.795 cumulative IPC: 3.919 (Simulation time: 00 hr 00 min 25 sec)
Heartbeat CPU 0 instructions: 6500036 cycles: 1632536 heartbeat IPC: 4.922 cumulative IPC: 3.982 (Simulation time: 00 hr 00 min 27 sec)
Heartbeat CPU 0 instructions: 7000036 cycles: 1733849 heartbeat IPC: 4.935 cumulative IPC: 4.037 (Simulation time: 00 hr 00 min 29 sec)
Heartbeat CPU 0 instructions: 7500039 cycles: 1833847 heartbeat IPC: 5 cumulative IPC: 4.09 (Simulation time: 00 hr 00 min 30 sec)
Heartbeat CPU 0 instructions: 8000044 cycles: 1941012 heartbeat IPC: 4.666 cumulative IPC: 4.122 (Simulation time: 00 hr 00 min 32 sec)
Heartbeat CPU 0 instructions: 8500048 cycles: 2044850 heartbeat IPC: 4.815 cumulative IPC: 4.157 (Simulation time: 00 hr 00 min 34 sec)
Heartbeat CPU 0 instructions: 9000053 cycles: 2146193 heartbeat IPC: 4.934 cumulative IPC: 4.193 (Simulation time: 00 hr 00 min 36 sec)
Heartbeat CPU 0 instructions: 9500057 cycles: 2246201 heartbeat IPC: 5 cumulative IPC: 4.229 (Simulation time: 00 hr 00 min 37 sec)
Heartbeat CPU 0 instructions: 10000064 cycles: 2352237 heartbeat IPC: 4.715 cumulative IPC: 4.251 (Simulation time: 00 hr 00 min 39 sec)
Heartbeat CPU 0 instructions: 10500064 cycles: 2453797 heartbeat IPC: 4.923 cumulative IPC: 4.279 (Simulation time: 00 hr 00 min 41 sec)
Heartbeat CPU 0 instructions: 11000066 cycles: 2557407 heartbeat IPC: 4.826 cumulative IPC: 4.301 (Simulation time: 00 hr 00 min 43 sec)
Heartbeat CPU 0 instructions: 11500066 cycles: 2657406 heartbeat IPC: 5 cumulative IPC: 4.328 (Simulation time: 00 hr 00 min 44 sec)
Heartbeat CPU 0 instructions: 12000066 cycles: 2763305 heartbeat IPC: 4.721 cumulative IPC: 4.343 (Simulation time: 00 hr 00 min 46 sec)
Heartbeat CPU 0 instructions: 12500067 cycles: 2866265 heartbeat IPC: 4.856 cumulative IPC: 4.361 (Simulation time: 00 hr 00 min 48 sec)
Heartbeat CPU 0 instructions: 13000067 cycles: 2966264 heartbeat IPC: 5 cumulative IPC: 4.383 (Simulation time: 00 hr 00 min 50 sec)
Heartbeat CPU 0 instructions: 13500067 cycles: 3066265 heartbeat IPC: 5 cumulative IPC: 4.403 (Simulation time: 00 hr 00 min 51 sec)
Heartbeat CPU 0 instructions: 14000068 cycles: 3174277 heartbeat IPC: 4.629 cumulative IPC: 4.41 (Simulation time: 00 hr 00 min 53 sec)
Heartbeat CPU 0 instructions: 14500070 cycles: 3274285 heartbeat IPC: 5 cumulative IPC: 4.428 (Simulation time: 00 hr 00 min 55 sec)
Heartbeat CPU 0 instructions: 15000070 cycles: 3374286 heartbeat IPC: 5 cumulative IPC: 4.445 (Simulation time: 00 hr 00 min 57 sec)
Heartbeat CPU 0 instructions: 15500070 cycles: 3480176 heartbeat IPC: 4.722 cumulative IPC: 4.454 (Simulation time: 00 hr 00 min 59 sec)
Heartbeat CPU 0 instructions: 16000074 cycles: 3582229 heartbeat IPC: 4.899 cumulative IPC: 4.467 (Simulation time: 00 hr 01 min 00 sec)
Heartbeat CPU 0 instructions: 16500081 cycles: 3683777 heartbeat IPC: 4.924 cumulative IPC: 4.479 (Simulation time: 00 hr 01 min 02 sec)
Heartbeat CPU 0 instructions: 17000081 cycles: 3790438 heartbeat IPC: 4.688 cumulative IPC: 4.485 (Simulation time: 00 hr 01 min 04 sec)
Heartbeat CPU 0 instructions: 17500081 cycles: 3890438 heartbeat IPC: 5 cumulative IPC: 4.498 (Simulation time: 00 hr 01 min 05 sec)
Heartbeat CPU 0 instructions: 18000084 cycles: 3993969 heartbeat IPC: 4.83 cumulative IPC: 4.507 (Simulation time: 00 hr 01 min 07 sec)
Heartbeat CPU 0 instructions: 18500088 cycles: 4100516 heartbeat IPC: 4.693 cumulative IPC: 4.512 (Simulation time: 00 hr 01 min 09 sec)
Heartbeat CPU 0 instructions: 19000094 cycles: 4202153 heartbeat IPC: 4.92 cumulative IPC: 4.522 (Simulation time: 00 hr 01 min 11 sec)
Heartbeat CPU 0 instructions: 19500098 cycles: 4302155 heartbeat IPC: 5 cumulative IPC: 4.533 (Simulation time: 00 hr 01 min 12 sec)
Heartbeat CPU 0 instructions: 20000105 cycles: 4408479 heartbeat IPC: 4.703 cumulative IPC: 4.537 (Simulation time: 00 hr 01 min 14 sec)
Heartbeat CPU 0 instructions: 20500111 cycles: 4514903 heartbeat IPC: 4.698 cumulative IPC: 4.541 (Simulation time: 00 hr 01 min 16 sec)
Heartbeat CPU 0 instructions: 21000113 cycles: 4614903 heartbeat IPC: 5 cumulative IPC: 4.55 (Simulation time: 00 hr 01 min 18 sec)
Heartbeat CPU 0 instructions: 21500113 cycles: 4719759 heartbeat IPC: 4.768 cumulative IPC: 4.555 (Simulation time: 00 hr 01 min 20 sec)
Heartbeat CPU 0 instructions: 22000116 cycles: 4827502 heartbeat IPC: 4.641 cumulative IPC: 4.557 (Simulation time: 00 hr 01 min 21 sec)
Heartbeat CPU 0 instructions: 22500116 cycles: 4927505 heartbeat IPC: 5 cumulative IPC: 4.566 (Simulation time: 00 hr 01 min 23 sec)
Heartbeat CPU 0 instructions: 23000122 cycles: 5027504 heartbeat IPC: 5 cumulative IPC: 4.575 (Simulation time: 00 hr 01 min 25 sec)
Heartbeat CPU 0 instructions: 23500124 cycles: 5135956 heartbeat IPC: 4.61 cumulative IPC: 4.576 (Simulation time: 00 hr 01 min 27 sec)
Heartbeat CPU 0 instructions: 24000125 cycles: 5239919 heartbeat IPC: 4.809 cumulative IPC: 4.58 (Simulation time: 00 hr 01 min 28 sec)
Heartbeat CPU 0 instructions: 24500125 cycles: 5339912 heartbeat IPC: 5 cumulative IPC: 4.588 (Simulation time: 00 hr 01 min 30 sec)
Heartbeat CPU 0 instructions: 25000125 cycles: 5439916 heartbeat IPC: 5 cumulative IPC: 4.596 (Simulation time: 00 hr 01 min 32 sec)
Heartbeat CPU 0 instructions: 25500125 cycles: 5545777 heartbeat IPC: 4.723 cumulative IPC: 4.598 (Simulation time: 00 hr 01 min 34 sec)
Heartbeat CPU 0 instructions: 26000132 cycles: 5656129 heartbeat IPC: 4.531 cumulative IPC: 4.597 (Simulation time: 00 hr 01 min 35 sec)
Heartbeat CPU 0 instructions: 26500137 cycles: 5756789 heartbeat IPC: 4.967 cumulative IPC: 4.603 (Simulation time: 00 hr 01 min 37 sec)
Heartbeat CPU 0 instructions: 27000137 cycles: 5856788 heartbeat IPC: 5 cumulative IPC: 4.61 (Simulation time: 00 hr 01 min 39 sec)
Heartbeat CPU 0 instructions: 27500140 cycles: 5962410 heartbeat IPC: 4.734 cumulative IPC: 4.612 (Simulation time: 00 hr 01 min 41 sec)
Heartbeat CPU 0 instructions: 28000142 cycles: 6065110 heartbeat IPC: 4.869 cumulative IPC: 4.617 (Simulation time: 00 hr 01 min 42 sec)
Heartbeat CPU 0 instructions: 28500143 cycles: 6166831 heartbeat IPC: 4.915 cumulative IPC: 4.622 (Simulation time: 00 hr 01 min 44 sec)
Heartbeat CPU 0 instructions: 29000147 cycles: 6266835 heartbeat IPC: 5 cumulative IPC: 4.628 (Simulation time: 00 hr 01 min 46 sec)
Heartbeat CPU 0 instructions: 29500149 cycles: 6370953 heartbeat IPC: 4.802 cumulative IPC: 4.63 (Simulation time: 00 hr 01 min 48 sec)
Heartbeat CPU 0 instructions: 30000153 cycles: 6473745 heartbeat IPC: 4.864 cumulative IPC: 4.634 (Simulation time: 00 hr 01 min 49 sec)
Heartbeat CPU 0 instructions: 30500157 cycles: 6592864 heartbeat IPC: 4.198 cumulative IPC: 4.626 (Simulation time: 00 hr 01 min 51 sec)
Heartbeat CPU 0 instructions: 31000159 cycles: 6693046 heartbeat IPC: 4.991 cumulative IPC: 4.632 (Simulation time: 00 hr 01 min 53 sec)
Heartbeat CPU 0 instructions: 31500161 cycles: 6793040 heartbeat IPC: 5 cumulative IPC: 4.637 (Simulation time: 00 hr 01 min 55 sec)
Heartbeat CPU 0 instructions: 32000164 cycles: 6898125 heartbeat IPC: 4.758 cumulative IPC: 4.639 (Simulation time: 00 hr 01 min 57 sec)
Heartbeat CPU 0 instructions: 32500171 cycles: 6998644 heartbeat IPC: 4.974 cumulative IPC: 4.644 (Simulation time: 00 hr 01 min 58 sec)
Heartbeat CPU 0 instructions: 33000173 cycles: 7105451 heartbeat IPC: 4.681 cumulative IPC: 4.644 (Simulation time: 00 hr 02 min 00 sec)
Heartbeat CPU 0 instructions: 33500179 cycles: 7205455 heartbeat IPC: 5 cumulative IPC: 4.649 (Simulation time: 00 hr 02 min 02 sec)
Heartbeat CPU 0 instructions: 34000181 cycles: 7305462 heartbeat IPC: 5 cumulative IPC: 4.654 (Simulation time: 00 hr 02 min 04 sec)
Heartbeat CPU 0 instructions: 34500185 cycles: 7414843 heartbeat IPC: 4.571 cumulative IPC: 4.653 (Simulation time: 00 hr 02 min 05 sec)
Heartbeat CPU 0 instructions: 35000192 cycles: 7515726 heartbeat IPC: 4.956 cumulative IPC: 4.657 (Simulation time: 00 hr 02 min 07 sec)
Heartbeat CPU 0 instructions: 35500194 cycles: 7616969 heartbeat IPC: 4.939 cumulative IPC: 4.661 (Simulation time: 00 hr 02 min 09 sec)
Heartbeat CPU 0 instructions: 36000195 cycles: 7716976 heartbeat IPC: 5 cumulative IPC: 4.665 (Simulation time: 00 hr 02 min 10 sec)
Heartbeat CPU 0 instructions: 36500200 cycles: 7818021 heartbeat IPC: 4.948 cumulative IPC: 4.669 (Simulation time: 00 hr 02 min 12 sec)
Heartbeat CPU 0 instructions: 37000201 cycles: 7932992 heartbeat IPC: 4.349 cumulative IPC: 4.664 (Simulation time: 00 hr 02 min 14 sec)
Heartbeat CPU 0 instructions: 37500207 cycles: 8038823 heartbeat IPC: 4.725 cumulative IPC: 4.665 (Simulation time: 00 hr 02 min 16 sec)
Heartbeat CPU 0 instructions: 38000207 cycles: 8138831 heartbeat IPC: 5 cumulative IPC: 4.669 (Simulation time: 00 hr 02 min 18 sec)
Heartbeat CPU 0 instructions: 38500211 cycles: 8238833 heartbeat IPC: 5 cumulative IPC: 4.673 (Simulation time: 00 hr 02 min 20 sec)
Heartbeat CPU 0 instructions: 39000218 cycles: 8346395 heartbeat IPC: 4.649 cumulative IPC: 4.673 (Simulation time: 00 hr 02 min 21 sec)
Heartbeat CPU 0 instructions: 39500218 cycles: 8449332 heartbeat IPC: 4.857 cumulative IPC: 4.675 (Simulation time: 00 hr 02 min 23 sec)
Heartbeat CPU 0 instructions: 40000224 cycles: 8555771 heartbeat IPC: 4.698 cumulative IPC: 4.675 (Simulation time: 00 hr 02 min 25 sec)
Heartbeat CPU 0 instructions: 40500225 cycles: 8658420 heartbeat IPC: 4.871 cumulative IPC: 4.678 (Simulation time: 00 hr 02 min 27 sec)
Heartbeat CPU 0 instructions: 41000226 cycles: 8758423 heartbeat IPC: 5 cumulative IPC: 4.681 (Simulation time: 00 hr 02 min 28 sec)
Heartbeat CPU 0 instructions: 41500227 cycles: 8864378 heartbeat IPC: 4.719 cumulative IPC: 4.682 (Simulation time: 00 hr 02 min 30 sec)
Heartbeat CPU 0 instructions: 42000227 cycles: 8979541 heartbeat IPC: 4.342 cumulative IPC: 4.677 (Simulation time: 00 hr 02 min 32 sec)
Heartbeat CPU 0 instructions: 42500233 cycles: 9082218 heartbeat IPC: 4.87 cumulative IPC: 4.679 (Simulation time: 00 hr 02 min 34 sec)
Heartbeat CPU 0 instructions: 43000235 cycles: 9182213 heartbeat IPC: 5 cumulative IPC: 4.683 (Simulation time: 00 hr 02 min 36 sec)
Heartbeat CPU 0 instructions: 43500240 cycles: 9290408 heartbeat IPC: 4.621 cumulative IPC: 4.682 (Simulation time: 00 hr 02 min 38 sec)
Heartbeat CPU 0 instructions: 44000246 cycles: 9392587 heartbeat IPC: 4.893 cumulative IPC: 4.685 (Simulation time: 00 hr 02 min 40 sec)
Heartbeat CPU 0 instructions: 44500248 cycles: 9492588 heartbeat IPC: 5 cumulative IPC: 4.688 (Simulation time: 00 hr 02 min 41 sec)
Heartbeat CPU 0 instructions: 45000254 cycles: 9595766 heartbeat IPC: 4.846 cumulative IPC: 4.69 (Simulation time: 00 hr 02 min 43 sec)
Heartbeat CPU 0 instructions: 45500254 cycles: 9706509 heartbeat IPC: 4.515 cumulative IPC: 4.688 (Simulation time: 00 hr 02 min 45 sec)
Heartbeat CPU 0 instructions: 46000260 cycles: 9806504 heartbeat IPC: 5 cumulative IPC: 4.691 (Simulation time: 00 hr 02 min 47 sec)
Heartbeat CPU 0 instructions: 46500260 cycles: 9906508 heartbeat IPC: 5 cumulative IPC: 4.694 (Simulation time: 00 hr 02 min 49 sec)
Heartbeat CPU 0 instructions: 47000265 cycles: 10015813 heartbeat IPC: 4.574 cumulative IPC: 4.693 (Simulation time: 00 hr 02 min 51 sec)
Heartbeat CPU 0 instructions: 47500267 cycles: 10122209 heartbeat IPC: 4.699 cumulative IPC: 4.693 (Simulation time: 00 hr 02 min 53 sec)
Heartbeat CPU 0 instructions: 48000268 cycles: 10222201 heartbeat IPC: 5 cumulative IPC: 4.696 (Simulation time: 00 hr 02 min 54 sec)
Heartbeat CPU 0 instructions: 48500269 cycles: 10325838 heartbeat IPC: 4.825 cumulative IPC: 4.697 (Simulation time: 00 hr 02 min 56 sec)
Heartbeat CPU 0 instructions: 49000271 cycles: 10432506 heartbeat IPC: 4.687 cumulative IPC: 4.697 (Simulation time: 00 hr 02 min 58 sec)
Heartbeat CPU 0 instructions: 49500272 cycles: 10532505 heartbeat IPC: 5 cumulative IPC: 4.7 (Simulation time: 00 hr 03 min 00 sec)
Warmup finished CPU 0 instructions: 50000005 cycles: 10635237 cumulative IPC: 4.701 (Simulation time: 00 hr 03 min 02 sec)
Warmup complete CPU 0 instructions: 50000005 cycles: 10635237 cumulative IPC: 4.701 (Simulation time: 00 hr 03 min 02 sec)
Heartbeat CPU 0 instructions: 50000277 cycles: 10635271 heartbeat IPC: 4.865 cumulative IPC: 8 (Simulation time: 00 hr 03 min 02 sec)
Heartbeat CPU 0 instructions: 50500277 cycles: 11136218 heartbeat IPC: 0.9981 cumulative IPC: 0.9986 (Simulation time: 00 hr 03 min 06 sec)
Heartbeat CPU 0 instructions: 51000277 cycles: 11524076 heartbeat IPC: 1.289 cumulative IPC: 1.125 (Simulation time: 00 hr 03 min 10 sec)
Heartbeat CPU 0 instructions: 51500277 cycles: 12674966 heartbeat IPC: 0.4344 cumulative IPC: 0.7355 (Simulation time: 00 hr 03 min 22 sec)
Heartbeat CPU 0 instructions: 52000280 cycles: 13745438 heartbeat IPC: 0.4671 cumulative IPC: 0.6431 (Simulation time: 00 hr 03 min 34 sec)
Heartbeat CPU 0 instructions: 52500281 cycles: 14432832 heartbeat IPC: 0.7274 cumulative IPC: 0.6584 (Simulation time: 00 hr 03 min 40 sec)
Heartbeat CPU 0 instructions: 53000283 cycles: 15444988 heartbeat IPC: 0.494 cumulative IPC: 0.6238 (Simulation time: 00 hr 03 min 51 sec)
Heartbeat CPU 0 instructions: 53500285 cycles: 16538862 heartbeat IPC: 0.4571 cumulative IPC: 0.5929 (Simulation time: 00 hr 04 min 02 sec)
Heartbeat CPU 0 instructions: 54000285 cycles: 17401957 heartbeat IPC: 0.5793 cumulative IPC: 0.5912 (Simulation time: 00 hr 04 min 11 sec)
Heartbeat CPU 0 instructions: 54500287 cycles: 18360507 heartbeat IPC: 0.5216 cumulative IPC: 0.5825 (Simulation time: 00 hr 04 min 21 sec)
Heartbeat CPU 0 instructions: 55000289 cycles: 19455835 heartbeat IPC: 0.4565 cumulative IPC: 0.5669 (Simulation time: 00 hr 04 min 33 sec)
Heartbeat CPU 0 instructions: 55500291 cycles: 20397511 heartbeat IPC: 0.531 cumulative IPC: 0.5634 (Simulation time: 00 hr 04 min 42 sec)
Heartbeat CPU 0 instructions: 56000293 cycles: 21070322 heartbeat IPC: 0.7432 cumulative IPC: 0.575 (Simulation time: 00 hr 04 min 48 sec)
Heartbeat CPU 0 instructions: 56500294 cycles: 22051353 heartbeat IPC: 0.5097 cumulative IPC: 0.5694 (Simulation time: 00 hr 04 min 58 sec)
Heartbeat CPU 0 instructions: 57000295 cycles: 23144600 heartbeat IPC: 0.4574 cumulative IPC: 0.5596 (Simulation time: 00 hr 05 min 10 sec)
Heartbeat CPU 0 instructions: 57500295 cycles: 24036178 heartbeat IPC: 0.5608 cumulative IPC: 0.5597 (Simulation time: 00 hr 05 min 18 sec)
Heartbeat CPU 0 instructions: 58000296 cycles: 24713193 heartbeat IPC: 0.7385 cumulative IPC: 0.5683 (Simulation time: 00 hr 05 min 24 sec)
Heartbeat CPU 0 instructions: 58500300 cycles: 25093304 heartbeat IPC: 1.315 cumulative IPC: 0.5879 (Simulation time: 00 hr 05 min 28 sec)
Heartbeat CPU 0 instructions: 59000300 cycles: 25786450 heartbeat IPC: 0.7213 cumulative IPC: 0.594 (Simulation time: 00 hr 05 min 34 sec)
Heartbeat CPU 0 instructions: 59500305 cycles: 26964650 heartbeat IPC: 0.4244 cumulative IPC: 0.5818 (Simulation time: 00 hr 05 min 47 sec)
Heartbeat CPU 0 instructions: 60000306 cycles: 28108805 heartbeat IPC: 0.437 cumulative IPC: 0.5723 (Simulation time: 00 hr 05 min 59 sec)
Heartbeat CPU 0 instructions: 60500309 cycles: 28613454 heartbeat IPC: 0.9908 cumulative IPC: 0.5841 (Simulation time: 00 hr 06 min 04 sec)
Heartbeat CPU 0 instructions: 61000310 cycles: 29520827 heartbeat IPC: 0.551 cumulative IPC: 0.5825 (Simulation time: 00 hr 06 min 13 sec)
Heartbeat CPU 0 instructions: 61500315 cycles: 30652979 heartbeat IPC: 0.4416 cumulative IPC: 0.5745 (Simulation time: 00 hr 06 min 25 sec)
Heartbeat CPU 0 instructions: 62000317 cycles: 31582630 heartbeat IPC: 0.5378 cumulative IPC: 0.5729 (Simulation time: 00 hr 06 min 34 sec)
Heartbeat CPU 0 instructions: 62500319 cycles: 32060327 heartbeat IPC: 1.047 cumulative IPC: 0.5834 (Simulation time: 00 hr 06 min 40 sec)
Heartbeat CPU 0 instructions: 63000323 cycles: 32785803 heartbeat IPC: 0.6892 cumulative IPC: 0.5869 (Simulation time: 00 hr 06 min 48 sec)
Heartbeat CPU 0 instructions: 63500328 cycles: 33935909 heartbeat IPC: 0.4347 cumulative IPC: 0.5794 (Simulation time: 00 hr 07 min 03 sec)
Heartbeat CPU 0 instructions: 64000329 cycles: 34942582 heartbeat IPC: 0.4967 cumulative IPC: 0.576 (Simulation time: 00 hr 07 min 14 sec)
Heartbeat CPU 0 instructions: 64500329 cycles: 35331323 heartbeat IPC: 1.286 cumulative IPC: 0.5872 (Simulation time: 00 hr 07 min 18 sec)
Heartbeat CPU 0 instructions: 65000329 cycles: 36125706 heartbeat IPC: 0.6294 cumulative IPC: 0.5885 (Simulation time: 00 hr 07 min 28 sec)
Heartbeat CPU 0 instructions: 65500331 cycles: 37254230 heartbeat IPC: 0.4431 cumulative IPC: 0.5823 (Simulation time: 00 hr 07 min 41 sec)
Heartbeat CPU 0 instructions: 66000331 cycles: 38237300 heartbeat IPC: 0.5086 cumulative IPC: 0.5797 (Simulation time: 00 hr 07 min 52 sec)
Heartbeat CPU 0 instructions: 66500332 cycles: 38768708 heartbeat IPC: 0.9409 cumulative IPC: 0.5865 (Simulation time: 00 hr 07 min 58 sec)
Heartbeat CPU 0 instructions: 67000332 cycles: 38967711 heartbeat IPC: 2.513 cumulative IPC: 0.6 (Simulation time: 00 hr 08 min 01 sec)
Heartbeat CPU 0 instructions: 67500333 cycles: 39592913 heartbeat IPC: 0.7997 cumulative IPC: 0.6043 (Simulation time: 00 hr 08 min 08 sec)
Heartbeat CPU 0 instructions: 68000334 cycles: 40752284 heartbeat IPC: 0.4313 cumulative IPC: 0.5977 (Simulation time: 00 hr 08 min 22 sec)
Heartbeat CPU 0 instructions: 68500341 cycles: 41856396 heartbeat IPC: 0.4529 cumulative IPC: 0.5926 (Simulation time: 00 hr 08 min 35 sec)
Heartbeat CPU 0 instructions: 69000342 cycles: 42273340 heartbeat IPC: 1.199 cumulative IPC: 0.6006 (Simulation time: 00 hr 08 min 40 sec)
Heartbeat CPU 0 instructions: 69500346 cycles: 43397996 heartbeat IPC: 0.4446 cumulative IPC: 0.5952 (Simulation time: 00 hr 08 min 53 sec)
Heartbeat CPU 0 instructions: 70000350 cycles: 44532794 heartbeat IPC: 0.4406 cumulative IPC: 0.59 (Simulation time: 00 hr 09 min 07 sec)
Heartbeat CPU 0 instructions: 70500351 cycles: 45352862 heartbeat IPC: 0.6097 cumulative IPC: 0.5905 (Simulation time: 00 hr 09 min 16 sec)
Heartbeat CPU 0 instructions: 71000351 cycles: 45774424 heartbeat IPC: 1.186 cumulative IPC: 0.5976 (Simulation time: 00 hr 09 min 21 sec)
Heartbeat CPU 0 instructions: 71500353 cycles: 46141569 heartbeat IPC: 1.362 cumulative IPC: 0.6055 (Simulation time: 00 hr 09 min 25 sec)
Heartbeat CPU 0 instructions: 72000355 cycles: 47044249 heartbeat IPC: 0.5539 cumulative IPC: 0.6043 (Simulation time: 00 hr 09 min 36 sec)
Heartbeat CPU 0 instructions: 72500359 cycles: 48181630 heartbeat IPC: 0.4396 cumulative IPC: 0.5993 (Simulation time: 00 hr 09 min 49 sec)
Heartbeat CPU 0 instructions: 73000361 cycles: 49054250 heartbeat IPC: 0.573 cumulative IPC: 0.5987 (Simulation time: 00 hr 09 min 59 sec)
Heartbeat CPU 0 instructions: 73500367 cycles: 49447654 heartbeat IPC: 1.271 cumulative IPC: 0.6055 (Simulation time: 00 hr 10 min 04 sec)
Heartbeat CPU 0 instructions: 74000367 cycles: 50130363 heartbeat IPC: 0.7324 cumulative IPC: 0.6077 (Simulation time: 00 hr 10 min 11 sec)
Heartbeat CPU 0 instructions: 74500371 cycles: 51285646 heartbeat IPC: 0.4328 cumulative IPC: 0.6027 (Simulation time: 00 hr 10 min 25 sec)
Heartbeat CPU 0 instructions: 75000374 cycles: 52417081 heartbeat IPC: 0.4419 cumulative IPC: 0.5984 (Simulation time: 00 hr 10 min 39 sec)
Heartbeat CPU 0 instructions: 75500376 cycles: 52929049 heartbeat IPC: 0.9766 cumulative IPC: 0.6029 (Simulation time: 00 hr 10 min 44 sec)
Heartbeat CPU 0 instructions: 76000377 cycles: 53707065 heartbeat IPC: 0.6427 cumulative IPC: 0.6037 (Simulation time: 00 hr 10 min 53 sec)
Heartbeat CPU 0 instructions: 76500384 cycles: 54859356 heartbeat IPC: 0.4339 cumulative IPC: 0.5992 (Simulation time: 00 hr 11 min 07 sec)
Heartbeat CPU 0 instructions: 77000387 cycles: 55914752 heartbeat IPC: 0.4738 cumulative IPC: 0.5963 (Simulation time: 00 hr 11 min 19 sec)
Heartbeat CPU 0 instructions: 77500392 cycles: 56603788 heartbeat IPC: 0.7257 cumulative IPC: 0.5982 (Simulation time: 00 hr 11 min 27 sec)
Heartbeat CPU 0 instructions: 78000392 cycles: 57749439 heartbeat IPC: 0.4364 cumulative IPC: 0.5943 (Simulation time: 00 hr 11 min 41 sec)
Heartbeat CPU 0 instructions: 78500394 cycles: 58873735 heartbeat IPC: 0.4447 cumulative IPC: 0.5908 (Simulation time: 00 hr 11 min 55 sec)
Heartbeat CPU 0 instructions: 79000397 cycles: 59595014 heartbeat IPC: 0.6932 cumulative IPC: 0.5923 (Simulation time: 00 hr 12 min 02 sec)
Heartbeat CPU 0 instructions: 79500401 cycles: 60732555 heartbeat IPC: 0.4395 cumulative IPC: 0.5889 (Simulation time: 00 hr 12 min 16 sec)
Heartbeat CPU 0 instructions: 80000408 cycles: 61861055 heartbeat IPC: 0.4431 cumulative IPC: 0.5857 (Simulation time: 00 hr 12 min 30 sec)
Heartbeat CPU 0 instructions: 80500408 cycles: 62283156 heartbeat IPC: 1.185 cumulative IPC: 0.5905 (Simulation time: 00 hr 12 min 34 sec)
Heartbeat CPU 0 instructions: 81000408 cycles: 62497050 heartbeat IPC: 2.338 cumulative IPC: 0.5978 (Simulation time: 00 hr 12 min 37 sec)
Heartbeat CPU 0 instructions: 81500408 cycles: 63627513 heartbeat IPC: 0.4423 cumulative IPC: 0.5944 (Simulation time: 00 hr 12 min 50 sec)
Heartbeat CPU 0 instructions: 82000409 cycles: 64761506 heartbeat IPC: 0.4409 cumulative IPC: 0.5912 (Simulation time: 00 hr 13 min 04 sec)
Heartbeat CPU 0 instructions: 82500411 cycles: 65567397 heartbeat IPC: 0.6204 cumulative IPC: 0.5916 (Simulation time: 00 hr 13 min 13 sec)
Heartbeat CPU 0 instructions: 83000414 cycles: 65989413 heartbeat IPC: 1.185 cumulative IPC: 0.5962 (Simulation time: 00 hr 13 min 18 sec)
Heartbeat CPU 0 instructions: 83500416 cycles: 66750987 heartbeat IPC: 0.6565 cumulative IPC: 0.597 (Simulation time: 00 hr 13 min 27 sec)
Heartbeat CPU 0 instructions: 84000417 cycles: 67893662 heartbeat IPC: 0.4376 cumulative IPC: 0.5938 (Simulation time: 00 hr 13 min 41 sec)
Heartbeat CPU 0 instructions: 84500417 cycles: 68852603 heartbeat IPC: 0.5214 cumulative IPC: 0.5926 (Simulation time: 00 hr 13 min 52 sec)
Heartbeat CPU 0 instructions: 85000419 cycles: 69203459 heartbeat IPC: 1.425 cumulative IPC: 0.5976 (Simulation time: 00 hr 13 min 56 sec)
Heartbeat CPU 0 instructions: 85500420 cycles: 70146096 heartbeat IPC: 0.5304 cumulative IPC: 0.5965 (Simulation time: 00 hr 14 min 07 sec)
Heartbeat CPU 0 instructions: 86000424 cycles: 71267422 heartbeat IPC: 0.4459 cumulative IPC: 0.5938 (Simulation time: 00 hr 14 min 20 sec)
Heartbeat CPU 0 instructions: 86500425 cycles: 72180470 heartbeat IPC: 0.5476 cumulative IPC: 0.5931 (Simulation time: 00 hr 14 min 31 sec)
Heartbeat CPU 0 instructions: 87000432 cycles: 72753472 heartbeat IPC: 0.8726 cumulative IPC: 0.5956 (Simulation time: 00 hr 14 min 37 sec)
Heartbeat CPU 0 instructions: 87500432 cycles: 73888767 heartbeat IPC: 0.4404 cumulative IPC: 0.5929 (Simulation time: 00 hr 14 min 51 sec)
Heartbeat CPU 0 instructions: 88000434 cycles: 75014305 heartbeat IPC: 0.4442 cumulative IPC: 0.5903 (Simulation time: 00 hr 15 min 04 sec)
Heartbeat CPU 0 instructions: 88500436 cycles: 75588279 heartbeat IPC: 0.8711 cumulative IPC: 0.5927 (Simulation time: 00 hr 15 min 11 sec)
Heartbeat CPU 0 instructions: 89000439 cycles: 76192518 heartbeat IPC: 0.8275 cumulative IPC: 0.5949 (Simulation time: 00 hr 15 min 18 sec)
Heartbeat CPU 0 instructions: 89500440 cycles: 76488869 heartbeat IPC: 1.687 cumulative IPC: 0.5998 (Simulation time: 00 hr 15 min 21 sec)
Heartbeat CPU 0 instructions: 90000440 cycles: 76780278 heartbeat IPC: 1.716 cumulative IPC: 0.6047 (Simulation time: 00 hr 15 min 25 sec)
Heartbeat CPU 0 instructions: 90500441 cycles: 77113698 heartbeat IPC: 1.5 cumulative IPC: 0.6092 (Simulation time: 00 hr 15 min 29 sec)
Heartbeat CPU 0 instructions: 91000442 cycles: 78219496 heartbeat IPC: 0.4522 cumulative IPC: 0.6067 (Simulation time: 00 hr 15 min 42 sec)
Heartbeat CPU 0 instructions: 91500444 cycles: 79340448 heartbeat IPC: 0.4461 cumulative IPC: 0.604 (Simulation time: 00 hr 15 min 55 sec)
Heartbeat CPU 0 instructions: 92000445 cycles: 80128100 heartbeat IPC: 0.6348 cumulative IPC: 0.6044 (Simulation time: 00 hr 16 min 04 sec)
Heartbeat CPU 0 instructions: 92500445 cycles: 80924281 heartbeat IPC: 0.628 cumulative IPC: 0.6047 (Simulation time: 00 hr 16 min 13 sec)
Heartbeat CPU 0 instructions: 93000445 cycles: 82064792 heartbeat IPC: 0.4384 cumulative IPC: 0.602 (Simulation time: 00 hr 16 min 27 sec)
Heartbeat CPU 0 instructions: 93500447 cycles: 83141969 heartbeat IPC: 0.4642 cumulative IPC: 0.6 (Simulation time: 00 hr 16 min 39 sec)
Heartbeat CPU 0 instructions: 94000451 cycles: 83705609 heartbeat IPC: 0.8871 cumulative IPC: 0.6022 (Simulation time: 00 hr 16 min 46 sec)
Heartbeat CPU 0 instructions: 94500453 cycles: 84843451 heartbeat IPC: 0.4394 cumulative IPC: 0.5997 (Simulation time: 00 hr 16 min 59 sec)
Heartbeat CPU 0 instructions: 95000454 cycles: 85971909 heartbeat IPC: 0.4431 cumulative IPC: 0.5973 (Simulation time: 00 hr 17 min 13 sec)
Heartbeat CPU 0 instructions: 95500456 cycles: 86401280 heartbeat IPC: 1.164 cumulative IPC: 0.6005 (Simulation time: 00 hr 17 min 18 sec)
Heartbeat CPU 0 instructions: 96000458 cycles: 87015147 heartbeat IPC: 0.8145 cumulative IPC: 0.6023 (Simulation time: 00 hr 17 min 24 sec)
Heartbeat CPU 0 instructions: 96500460 cycles: 87347547 heartbeat IPC: 1.504 cumulative IPC: 0.6062 (Simulation time: 00 hr 17 min 28 sec)
Heartbeat CPU 0 instructions: 97000462 cycles: 87801734 heartbeat IPC: 1.101 cumulative IPC: 0.6091 (Simulation time: 00 hr 17 min 33 sec)
Heartbeat CPU 0 instructions: 97500467 cycles: 88979872 heartbeat IPC: 0.4244 cumulative IPC: 0.6063 (Simulation time: 00 hr 17 min 48 sec)
Heartbeat CPU 0 instructions: 98000471 cycles: 90116388 heartbeat IPC: 0.4399 cumulative IPC: 0.6039 (Simulation time: 00 hr 18 min 02 sec)
Heartbeat CPU 0 instructions: 98500475 cycles: 90562348 heartbeat IPC: 1.121 cumulative IPC: 0.6068 (Simulation time: 00 hr 18 min 06 sec)
Heartbeat CPU 0 instructions: 99000475 cycles: 91358702 heartbeat IPC: 0.6279 cumulative IPC: 0.607 (Simulation time: 00 hr 18 min 15 sec)
Heartbeat CPU 0 instructions: 99500477 cycles: 92505413 heartbeat IPC: 0.436 cumulative IPC: 0.6046 (Simulation time: 00 hr 18 min 29 sec)
Heartbeat CPU 0 instructions: 100000479 cycles: 93594780 heartbeat IPC: 0.459 cumulative IPC: 0.6027 (Simulation time: 00 hr 18 min 42 sec)
Heartbeat CPU 0 instructions: 100500482 cycles: 94018104 heartbeat IPC: 1.181 cumulative IPC: 0.6056 (Simulation time: 00 hr 18 min 47 sec)
Heartbeat CPU 0 instructions: 101000483 cycles: 94299243 heartbeat IPC: 1.778 cumulative IPC: 0.6096 (Simulation time: 00 hr 18 min 50 sec)
Heartbeat CPU 0 instructions: 101500485 cycles: 94594099 heartbeat IPC: 1.696 cumulative IPC: 0.6134 (Simulation time: 00 hr 18 min 53 sec)
Heartbeat CPU 0 instructions: 102000488 cycles: 95655670 heartbeat IPC: 0.471 cumulative IPC: 0.6116 (Simulation time: 00 hr 19 min 06 sec)
Heartbeat CPU 0 instructions: 102500492 cycles: 96779214 heartbeat IPC: 0.445 cumulative IPC: 0.6095 (Simulation time: 00 hr 19 min 20 sec)
Heartbeat CPU 0 instructions: 103000492 cycles: 97483880 heartbeat IPC: 0.7096 cumulative IPC: 0.6103 (Simulation time: 00 hr 19 min 28 sec)
Heartbeat CPU 0 instructions: 103500495 cycles: 97705345 heartbeat IPC: 2.258 cumulative IPC: 0.6145 (Simulation time: 00 hr 19 min 31 sec)
Heartbeat CPU 0 instructions: 104000495 cycles: 98069312 heartbeat IPC: 1.374 cumulative IPC: 0.6176 (Simulation time: 00 hr 19 min 34 sec)
Heartbeat CPU 0 instructions: 104500497 cycles: 98989264 heartbeat IPC: 0.5435 cumulative IPC: 0.6168 (Simulation time: 00 hr 19 min 45 sec)
Heartbeat CPU 0 instructions: 105000498 cycles: 100127028 heartbeat IPC: 0.4395 cumulative IPC: 0.6146 (Simulation time: 00 hr 19 min 59 sec)
Heartbeat CPU 0 instructions: 105500500 cycles: 100998405 heartbeat IPC: 0.5738 cumulative IPC: 0.6142 (Simulation time: 00 hr 20 min 09 sec)
Heartbeat CPU 0 instructions: 106000502 cycles: 101473319 heartbeat IPC: 1.053 cumulative IPC: 0.6165 (Simulation time: 00 hr 20 min 14 sec)
Heartbeat CPU 0 instructions: 106500502 cycles: 101812056 heartbeat IPC: 1.476 cumulative IPC: 0.6197 (Simulation time: 00 hr 20 min 18 sec)
Heartbeat CPU 0 instructions: 107000507 cycles: 102932925 heartbeat IPC: 0.4461 cumulative IPC: 0.6176 (Simulation time: 00 hr 20 min 31 sec)
Heartbeat CPU 0 instructions: 107500510 cycles: 104049332 heartbeat IPC: 0.4479 cumulative IPC: 0.6155 (Simulation time: 00 hr 20 min 45 sec)
Heartbeat CPU 0 instructions: 108000511 cycles: 104769163 heartbeat IPC: 0.6946 cumulative IPC: 0.6161 (Simulation time: 00 hr 20 min 52 sec)
Heartbeat CPU 0 instructions: 108500513 cycles: 105288860 heartbeat IPC: 0.9621 cumulative IPC: 0.618 (Simulation time: 00 hr 20 min 58 sec)
Heartbeat CPU 0 instructions: 109000518 cycles: 105715982 heartbeat IPC: 1.171 cumulative IPC: 0.6205 (Simulation time: 00 hr 21 min 03 sec)
Heartbeat CPU 0 instructions: 109500519 cycles: 106242416 heartbeat IPC: 0.9498 cumulative IPC: 0.6223 (Simulation time: 00 hr 21 min 09 sec)
Heartbeat CPU 0 instructions: 110000520 cycles: 107117799 heartbeat IPC: 0.5712 cumulative IPC: 0.6219 (Simulation time: 00 hr 21 min 20 sec)
Heartbeat CPU 0 instructions: 110500520 cycles: 108316063 heartbeat IPC: 0.4173 cumulative IPC: 0.6194 (Simulation time: 00 hr 21 min 34 sec)
Heartbeat CPU 0 instructions: 111000521 cycles: 109281282 heartbeat IPC: 0.518 cumulative IPC: 0.6184 (Simulation time: 00 hr 21 min 46 sec)
Heartbeat CPU 0 instructions: 111500522 cycles: 109931697 heartbeat IPC: 0.7687 cumulative IPC: 0.6194 (Simulation time: 00 hr 21 min 53 sec)
Heartbeat CPU 0 instructions: 112000524 cycles: 110197753 heartbeat IPC: 1.879 cumulative IPC: 0.6227 (Simulation time: 00 hr 21 min 56 sec)
Heartbeat CPU 0 instructions: 112500524 cycles: 110502531 heartbeat IPC: 1.641 cumulative IPC: 0.6258 (Simulation time: 00 hr 22 min 00 sec)
Heartbeat CPU 0 instructions: 113000531 cycles: 110802299 heartbeat IPC: 1.668 cumulative IPC: 0.629 (Simulation time: 00 hr 22 min 04 sec)
Heartbeat CPU 0 instructions: 113500533 cycles: 111587918 heartbeat IPC: 0.6364 cumulative IPC: 0.629 (Simulation time: 00 hr 22 min 13 sec)
Heartbeat CPU 0 instructions: 114000534 cycles: 112769540 heartbeat IPC: 0.4231 cumulative IPC: 0.6266 (Simulation time: 00 hr 22 min 27 sec)
Heartbeat CPU 0 instructions: 114500536 cycles: 113760057 heartbeat IPC: 0.5048 cumulative IPC: 0.6255 (Simulation time: 00 hr 22 min 39 sec)
Heartbeat CPU 0 instructions: 115000539 cycles: 114104958 heartbeat IPC: 1.45 cumulative IPC: 0.6282 (Simulation time: 00 hr 22 min 43 sec)
Heartbeat CPU 0 instructions: 115500543 cycles: 114769311 heartbeat IPC: 0.7526 cumulative IPC: 0.629 (Simulation time: 00 hr 22 min 50 sec)
Heartbeat CPU 0 instructions: 116000544 cycles: 115285233 heartbeat IPC: 0.9691 cumulative IPC: 0.6307 (Simulation time: 00 hr 22 min 56 sec)
Heartbeat CPU 0 instructions: 116500546 cycles: 116445934 heartbeat IPC: 0.4308 cumulative IPC: 0.6285 (Simulation time: 00 hr 23 min 11 sec)
Heartbeat CPU 0 instructions: 117000550 cycles: 117619193 heartbeat IPC: 0.4262 cumulative IPC: 0.6263 (Simulation time: 00 hr 23 min 25 sec)
Heartbeat CPU 0 instructions: 117500551 cycles: 118149725 heartbeat IPC: 0.9425 cumulative IPC: 0.6278 (Simulation time: 00 hr 23 min 31 sec)
Heartbeat CPU 0 instructions: 118000555 cycles: 119125842 heartbeat IPC: 0.5122 cumulative IPC: 0.6268 (Simulation time: 00 hr 23 min 42 sec)
Heartbeat CPU 0 instructions: 118500556 cycles: 120290380 heartbeat IPC: 0.4294 cumulative IPC: 0.6247 (Simulation time: 00 hr 23 min 56 sec)
Heartbeat CPU 0 instructions: 119000562 cycles: 121142053 heartbeat IPC: 0.5871 cumulative IPC: 0.6244 (Simulation time: 00 hr 24 min 06 sec)
Heartbeat CPU 0 instructions: 119500563 cycles: 121574235 heartbeat IPC: 1.157 cumulative IPC: 0.6265 (Simulation time: 00 hr 24 min 11 sec)
Heartbeat CPU 0 instructions: 120000564 cycles: 121970173 heartbeat IPC: 1.263 cumulative IPC: 0.6287 (Simulation time: 00 hr 24 min 15 sec)
Heartbeat CPU 0 instructions: 120500566 cycles: 123106556 heartbeat IPC: 0.44 cumulative IPC: 0.6268 (Simulation time: 00 hr 24 min 29 sec)
Heartbeat CPU 0 instructions: 121000568 cycles: 124271508 heartbeat IPC: 0.4292 cumulative IPC: 0.6248 (Simulation time: 00 hr 24 min 43 sec)
Heartbeat CPU 0 instructions: 121500568 cycles: 124829242 heartbeat IPC: 0.8965 cumulative IPC: 0.6261 (Simulation time: 00 hr 24 min 49 sec)
Heartbeat CPU 0 instructions: 122000570 cycles: 125234567 heartbeat IPC: 1.234 cumulative IPC: 0.6283 (Simulation time: 00 hr 24 min 54 sec)
Heartbeat CPU 0 instructions: 122500572 cycles: 125949319 heartbeat IPC: 0.6995 cumulative IPC: 0.6287 (Simulation time: 00 hr 25 min 02 sec)
Heartbeat CPU 0 instructions: 123000572 cycles: 127106556 heartbeat IPC: 0.4321 cumulative IPC: 0.6268 (Simulation time: 00 hr 25 min 16 sec)
Heartbeat CPU 0 instructions: 123500576 cycles: 128120683 heartbeat IPC: 0.493 cumulative IPC: 0.6256 (Simulation time: 00 hr 25 min 28 sec)
Heartbeat CPU 0 instructions: 124000576 cycles: 129054918 heartbeat IPC: 0.5352 cumulative IPC: 0.6249 (Simulation time: 00 hr 25 min 39 sec)
Heartbeat CPU 0 instructions: 124500578 cycles: 130201807 heartbeat IPC: 0.436 cumulative IPC: 0.6231 (Simulation time: 00 hr 25 min 53 sec)
Heartbeat CPU 0 instructions: 125000581 cycles: 131097595 heartbeat IPC: 0.5582 cumulative IPC: 0.6226 (Simulation time: 00 hr 26 min 03 sec)
Heartbeat CPU 0 instructions: 125500583 cycles: 131543837 heartbeat IPC: 1.12 cumulative IPC: 0.6244 (Simulation time: 00 hr 26 min 08 sec)
Heartbeat CPU 0 instructions: 126000588 cycles: 132634861 heartbeat IPC: 0.4583 cumulative IPC: 0.623 (Simulation time: 00 hr 26 min 21 sec)
Heartbeat CPU 0 instructions: 126500590 cycles: 133779374 heartbeat IPC: 0.4369 cumulative IPC: 0.6212 (Simulation time: 00 hr 26 min 34 sec)
Heartbeat CPU 0 instructions: 127000591 cycles: 134539954 heartbeat IPC: 0.6574 cumulative IPC: 0.6214 (Simulation time: 00 hr 26 min 42 sec)
Heartbeat CPU 0 instructions: 127500592 cycles: 135018743 heartbeat IPC: 1.044 cumulative IPC: 0.6231 (Simulation time: 00 hr 26 min 48 sec)
Heartbeat CPU 0 instructions: 128000594 cycles: 136146169 heartbeat IPC: 0.4435 cumulative IPC: 0.6215 (Simulation time: 00 hr 27 min 02 sec)
Heartbeat CPU 0 instructions: 128500595 cycles: 137306643 heartbeat IPC: 0.4309 cumulative IPC: 0.6197 (Simulation time: 00 hr 27 min 16 sec)
Heartbeat CPU 0 instructions: 129000601 cycles: 138112690 heartbeat IPC: 0.6203 cumulative IPC: 0.6197 (Simulation time: 00 hr 27 min 25 sec)
Heartbeat CPU 0 instructions: 129500605 cycles: 139268005 heartbeat IPC: 0.4328 cumulative IPC: 0.618 (Simulation time: 00 hr 27 min 39 sec)
Heartbeat CPU 0 instructions: 130000607 cycles: 140404772 heartbeat IPC: 0.4398 cumulative IPC: 0.6165 (Simulation time: 00 hr 27 min 53 sec)
Heartbeat CPU 0 instructions: 130500609 cycles: 140800082 heartbeat IPC: 1.265 cumulative IPC: 0.6185 (Simulation time: 00 hr 27 min 57 sec)
Heartbeat CPU 0 instructions: 131000610 cycles: 141511577 heartbeat IPC: 0.7027 cumulative IPC: 0.6189 (Simulation time: 00 hr 28 min 05 sec)
Heartbeat CPU 0 instructions: 131500612 cycles: 142674448 heartbeat IPC: 0.43 cumulative IPC: 0.6172 (Simulation time: 00 hr 28 min 19 sec)
Heartbeat CPU 0 instructions: 132000619 cycles: 143833013 heartbeat IPC: 0.4316 cumulative IPC: 0.6156 (Simulation time: 00 hr 28 min 34 sec)
Heartbeat CPU 0 instructions: 132500621 cycles: 144313662 heartbeat IPC: 1.04 cumulative IPC: 0.6172 (Simulation time: 00 hr 28 min 38 sec)
Heartbeat CPU 0 instructions: 133000623 cycles: 144943369 heartbeat IPC: 0.794 cumulative IPC: 0.618 (Simulation time: 00 hr 28 min 48 sec)
Heartbeat CPU 0 instructions: 133500629 cycles: 146105987 heartbeat IPC: 0.4301 cumulative IPC: 0.6164 (Simulation time: 00 hr 29 min 09 sec)
Heartbeat CPU 0 instructions: 134000630 cycles: 147259959 heartbeat IPC: 0.4333 cumulative IPC: 0.6148 (Simulation time: 00 hr 29 min 29 sec)
Heartbeat CPU 0 instructions: 134500637 cycles: 147732128 heartbeat IPC: 1.059 cumulative IPC: 0.6164 (Simulation time: 00 hr 29 min 36 sec)
Heartbeat CPU 0 instructions: 135000638 cycles: 148477744 heartbeat IPC: 0.6706 cumulative IPC: 0.6167 (Simulation time: 00 hr 29 min 45 sec)
Heartbeat CPU 0 instructions: 135500640 cycles: 149645056 heartbeat IPC: 0.4283 cumulative IPC: 0.6151 (Simulation time: 00 hr 29 min 59 sec)
Heartbeat CPU 0 instructions: 136000645 cycles: 150672527 heartbeat IPC: 0.4866 cumulative IPC: 0.6141 (Simulation time: 00 hr 30 min 12 sec)
Heartbeat CPU 0 instructions: 136500645 cycles: 151186643 heartbeat IPC: 0.9725 cumulative IPC: 0.6154 (Simulation time: 00 hr 30 min 17 sec)
Heartbeat CPU 0 instructions: 137000647 cycles: 152188942 heartbeat IPC: 0.4989 cumulative IPC: 0.6146 (Simulation time: 00 hr 30 min 29 sec)
Heartbeat CPU 0 instructions: 137500649 cycles: 153343911 heartbeat IPC: 0.4329 cumulative IPC: 0.6131 (Simulation time: 00 hr 30 min 43 sec)
Heartbeat CPU 0 instructions: 138000649 cycles: 154113278 heartbeat IPC: 0.6499 cumulative IPC: 0.6133 (Simulation time: 00 hr 30 min 52 sec)
Heartbeat CPU 0 instructions: 138500649 cycles: 154550928 heartbeat IPC: 1.142 cumulative IPC: 0.6149 (Simulation time: 00 hr 30 min 56 sec)
Heartbeat CPU 0 instructions: 139000650 cycles: 155400280 heartbeat IPC: 0.5887 cumulative IPC: 0.6148 (Simulation time: 00 hr 31 min 06 sec)
Heartbeat CPU 0 instructions: 139500651 cycles: 156546115 heartbeat IPC: 0.4364 cumulative IPC: 0.6134 (Simulation time: 00 hr 31 min 20 sec)
Heartbeat CPU 0 instructions: 140000652 cycles: 157443975 heartbeat IPC: 0.5569 cumulative IPC: 0.613 (Simulation time: 00 hr 31 min 30 sec)
Heartbeat CPU 0 instructions: 140500652 cycles: 157925929 heartbeat IPC: 1.037 cumulative IPC: 0.6144 (Simulation time: 00 hr 31 min 35 sec)
Heartbeat CPU 0 instructions: 141000656 cycles: 158320795 heartbeat IPC: 1.266 cumulative IPC: 0.6162 (Simulation time: 00 hr 31 min 40 sec)
Heartbeat CPU 0 instructions: 141500656 cycles: 158701367 heartbeat IPC: 1.314 cumulative IPC: 0.618 (Simulation time: 00 hr 31 min 45 sec)
Heartbeat CPU 0 instructions: 142000658 cycles: 158984921 heartbeat IPC: 1.763 cumulative IPC: 0.6202 (Simulation time: 00 hr 31 min 48 sec)
Heartbeat CPU 0 instructions: 142500659 cycles: 160063421 heartbeat IPC: 0.4636 cumulative IPC: 0.619 (Simulation time: 00 hr 32 min 01 sec)
Heartbeat CPU 0 instructions: 143000664 cycles: 161225674 heartbeat IPC: 0.4302 cumulative IPC: 0.6176 (Simulation time: 00 hr 32 min 16 sec)
Heartbeat CPU 0 instructions: 143500671 cycles: 161787608 heartbeat IPC: 0.8898 cumulative IPC: 0.6186 (Simulation time: 00 hr 32 min 22 sec)
Heartbeat CPU 0 instructions: 144000671 cycles: 162360055 heartbeat IPC: 0.8734 cumulative IPC: 0.6195 (Simulation time: 00 hr 32 min 29 sec)
Heartbeat CPU 0 instructions: 144500671 cycles: 163500961 heartbeat IPC: 0.4382 cumulative IPC: 0.6182 (Simulation time: 00 hr 32 min 43 sec)
Heartbeat CPU 0 instructions: 145000675 cycles: 164657635 heartbeat IPC: 0.4323 cumulative IPC: 0.6168 (Simulation time: 00 hr 32 min 57 sec)
Heartbeat CPU 0 instructions: 145500677 cycles: 165208758 heartbeat IPC: 0.9072 cumulative IPC: 0.6178 (Simulation time: 00 hr 33 min 03 sec)
Heartbeat CPU 0 instructions: 146000678 cycles: 165482947 heartbeat IPC: 1.824 cumulative IPC: 0.62 (Simulation time: 00 hr 33 min 06 sec)
Heartbeat CPU 0 instructions: 146500680 cycles: 166377040 heartbeat IPC: 0.5592 cumulative IPC: 0.6196 (Simulation time: 00 hr 33 min 16 sec)
Heartbeat CPU 0 instructions: 147000680 cycles: 167516766 heartbeat IPC: 0.4387 cumulative IPC: 0.6183 (Simulation time: 00 hr 33 min 30 sec)
Heartbeat CPU 0 instructions: 147500684 cycles: 168378894 heartbeat IPC: 0.58 cumulative IPC: 0.6181 (Simulation time: 00 hr 33 min 40 sec)
Heartbeat CPU 0 instructions: 148000685 cycles: 168853294 heartbeat IPC: 1.054 cumulative IPC: 0.6194 (Simulation time: 00 hr 33 min 45 sec)
Heartbeat CPU 0 instructions: 148500686 cycles: 169579352 heartbeat IPC: 0.6887 cumulative IPC: 0.6197 (Simulation time: 00 hr 33 min 52 sec)
Heartbeat CPU 0 instructions: 149000690 cycles: 170040275 heartbeat IPC: 1.085 cumulative IPC: 0.6211 (Simulation time: 00 hr 33 min 57 sec)
Heartbeat CPU 0 instructions: 149500692 cycles: 170400831 heartbeat IPC: 1.387 cumulative IPC: 0.6228 (Simulation time: 00 hr 34 min 01 sec)
Heartbeat CPU 0 instructions: 150000692 cycles: 170744795 heartbeat IPC: 1.454 cumulative IPC: 0.6246 (Simulation time: 00 hr 34 min 04 sec)
Heartbeat CPU 0 instructions: 150500696 cycles: 171799462 heartbeat IPC: 0.4741 cumulative IPC: 0.6236 (Simulation time: 00 hr 34 min 17 sec)
Heartbeat CPU 0 instructions: 151000700 cycles: 172958448 heartbeat IPC: 0.4314 cumulative IPC: 0.6222 (Simulation time: 00 hr 34 min 31 sec)
Heartbeat CPU 0 instructions: 151500700 cycles: 173739324 heartbeat IPC: 0.6403 cumulative IPC: 0.6223 (Simulation time: 00 hr 34 min 40 sec)
Heartbeat CPU 0 instructions: 152000706 cycles: 174441173 heartbeat IPC: 0.7124 cumulative IPC: 0.6227 (Simulation time: 00 hr 34 min 48 sec)
Heartbeat CPU 0 instructions: 152500708 cycles: 175602547 heartbeat IPC: 0.4305 cumulative IPC: 0.6213 (Simulation time: 00 hr 35 min 02 sec)
Heartbeat CPU 0 instructions: 153000711 cycles: 176767522 heartbeat IPC: 0.4292 cumulative IPC: 0.62 (Simulation time: 00 hr 35 min 16 sec)
Heartbeat CPU 0 instructions: 153500716 cycles: 177386262 heartbeat IPC: 0.8081 cumulative IPC: 0.6207 (Simulation time: 00 hr 35 min 22 sec)
Heartbeat CPU 0 instructions: 154000717 cycles: 178413201 heartbeat IPC: 0.4869 cumulative IPC: 0.6199 (Simulation time: 00 hr 35 min 34 sec)
Heartbeat CPU 0 instructions: 154500718 cycles: 179568739 heartbeat IPC: 0.4327 cumulative IPC: 0.6186 (Simulation time: 00 hr 35 min 48 sec)
Heartbeat CPU 0 instructions: 155000724 cycles: 180238779 heartbeat IPC: 0.7462 cumulative IPC: 0.6191 (Simulation time: 00 hr 35 min 56 sec)
Heartbeat CPU 0 instructions: 155500724 cycles: 180629647 heartbeat IPC: 1.279 cumulative IPC: 0.6206 (Simulation time: 00 hr 36 min 00 sec)
Heartbeat CPU 0 instructions: 156000725 cycles: 181597559 heartbeat IPC: 0.5166 cumulative IPC: 0.62 (Simulation time: 00 hr 36 min 11 sec)
Heartbeat CPU 0 instructions: 156500727 cycles: 182743109 heartbeat IPC: 0.4365 cumulative IPC: 0.6188 (Simulation time: 00 hr 36 min 25 sec)
Heartbeat CPU 0 instructions: 157000729 cycles: 183567104 heartbeat IPC: 0.6068 cumulative IPC: 0.6187 (Simulation time: 00 hr 36 min 34 sec)
Heartbeat CPU 0 instructions: 157500729 cycles: 183950528 heartbeat IPC: 1.304 cumulative IPC: 0.6203 (Simulation time: 00 hr 36 min 38 sec)
Heartbeat CPU 0 instructions: 158000729 cycles: 184761006 heartbeat IPC: 0.6169 cumulative IPC: 0.6202 (Simulation time: 00 hr 36 min 47 sec)
Heartbeat CPU 0 instructions: 158500730 cycles: 185921599 heartbeat IPC: 0.4308 cumulative IPC: 0.619 (Simulation time: 00 hr 37 min 01 sec)
Heartbeat CPU 0 instructions: 159000733 cycles: 186908091 heartbeat IPC: 0.5068 cumulative IPC: 0.6184 (Simulation time: 00 hr 37 min 12 sec)
Heartbeat CPU 0 instructions: 159500733 cycles: 187403853 heartbeat IPC: 1.009 cumulative IPC: 0.6195 (Simulation time: 00 hr 37 min 18 sec)
Heartbeat CPU 0 instructions: 160000733 cycles: 188541346 heartbeat IPC: 0.4396 cumulative IPC: 0.6183 (Simulation time: 00 hr 37 min 31 sec)
Heartbeat CPU 0 instructions: 160500737 cycles: 189691263 heartbeat IPC: 0.4348 cumulative IPC: 0.6171 (Simulation time: 00 hr 37 min 45 sec)
Heartbeat CPU 0 instructions: 161000742 cycles: 190322014 heartbeat IPC: 0.7927 cumulative IPC: 0.6177 (Simulation time: 00 hr 37 min 51 sec)
Heartbeat CPU 0 instructions: 161500743 cycles: 191118549 heartbeat IPC: 0.6277 cumulative IPC: 0.6178 (Simulation time: 00 hr 38 min 00 sec)
Heartbeat CPU 0 instructions: 162000744 cycles: 192258111 heartbeat IPC: 0.4388 cumulative IPC: 0.6167 (Simulation time: 00 hr 38 min 13 sec)
Heartbeat CPU 0 instructions: 162500751 cycles: 193206411 heartbeat IPC: 0.5273 cumulative IPC: 0.6162 (Simulation time: 00 hr 38 min 23 sec)
Heartbeat CPU 0 instructions: 163000752 cycles: 193634827 heartbeat IPC: 1.167 cumulative IPC: 0.6175 (Simulation time: 00 hr 38 min 28 sec)
Heartbeat CPU 0 instructions: 163500753 cycles: 194604167 heartbeat IPC: 0.5158 cumulative IPC: 0.617 (Simulation time: 00 hr 38 min 39 sec)
Heartbeat CPU 0 instructions: 164000757 cycles: 195760832 heartbeat IPC: 0.4323 cumulative IPC: 0.6158 (Simulation time: 00 hr 38 min 52 sec)
Heartbeat CPU 0 instructions: 164500757 cycles: 196642760 heartbeat IPC: 0.5669 cumulative IPC: 0.6156 (Simulation time: 00 hr 39 min 02 sec)
Heartbeat CPU 0 instructions: 165000758 cycles: 197063582 heartbeat IPC: 1.188 cumulative IPC: 0.6169 (Simulation time: 00 hr 39 min 06 sec)
Heartbeat CPU 0 instructions: 165500765 cycles: 197868826 heartbeat IPC: 0.6209 cumulative IPC: 0.6169 (Simulation time: 00 hr 39 min 15 sec)
Heartbeat CPU 0 instructions: 166000769 cycles: 199027834 heartbeat IPC: 0.4314 cumulative IPC: 0.6157 (Simulation time: 00 hr 39 min 28 sec)
Heartbeat CPU 0 instructions: 166500769 cycles: 200000070 heartbeat IPC: 0.5143 cumulative IPC: 0.6152 (Simulation time: 00 hr 39 min 39 sec)
Heartbeat CPU 0 instructions: 167000769 cycles: 200567911 heartbeat IPC: 0.8805 cumulative IPC: 0.616 (Simulation time: 00 hr 39 min 44 sec)
Heartbeat CPU 0 instructions: 167500770 cycles: 200894220 heartbeat IPC: 1.532 cumulative IPC: 0.6176 (Simulation time: 00 hr 39 min 48 sec)
Heartbeat CPU 0 instructions: 168000772 cycles: 201152727 heartbeat IPC: 1.934 cumulative IPC: 0.6194 (Simulation time: 00 hr 39 min 51 sec)
Heartbeat CPU 0 instructions: 168500775 cycles: 201416693 heartbeat IPC: 1.894 cumulative IPC: 0.6211 (Simulation time: 00 hr 39 min 54 sec)
Heartbeat CPU 0 instructions: 169000780 cycles: 202430406 heartbeat IPC: 0.4932 cumulative IPC: 0.6205 (Simulation time: 00 hr 40 min 06 sec)
Heartbeat CPU 0 instructions: 169500782 cycles: 203572908 heartbeat IPC: 0.4376 cumulative IPC: 0.6194 (Simulation time: 00 hr 40 min 19 sec)
Heartbeat CPU 0 instructions: 170000784 cycles: 204391750 heartbeat IPC: 0.6106 cumulative IPC: 0.6193 (Simulation time: 00 hr 40 min 27 sec)
Heartbeat CPU 0 instructions: 170500787 cycles: 204719321 heartbeat IPC: 1.526 cumulative IPC: 0.6209 (Simulation time: 00 hr 40 min 31 sec)
Heartbeat CPU 0 instructions: 171000789 cycles: 205645249 heartbeat IPC: 0.54 cumulative IPC: 0.6205 (Simulation time: 00 hr 40 min 41 sec)
Heartbeat CPU 0 instructions: 171500791 cycles: 206804026 heartbeat IPC: 0.4315 cumulative IPC: 0.6194 (Simulation time: 00 hr 40 min 55 sec)
Heartbeat CPU 0 instructions: 172000793 cycles: 207706119 heartbeat IPC: 0.5543 cumulative IPC: 0.6191 (Simulation time: 00 hr 41 min 04 sec)
Heartbeat CPU 0 instructions: 172500795 cycles: 208137290 heartbeat IPC: 1.16 cumulative IPC: 0.6203 (Simulation time: 00 hr 41 min 09 sec)
Heartbeat CPU 0 instructions: 173000797 cycles: 208396280 heartbeat IPC: 1.931 cumulative IPC: 0.622 (Simulation time: 00 hr 41 min 12 sec)
Heartbeat CPU 0 instructions: 173500797 cycles: 209392979 heartbeat IPC: 0.5017 cumulative IPC: 0.6214 (Simulation time: 00 hr 41 min 23 sec)
Heartbeat CPU 0 instructions: 174000799 cycles: 210548249 heartbeat IPC: 0.4328 cumulative IPC: 0.6203 (Simulation time: 00 hr 41 min 37 sec)
Heartbeat CPU 0 instructions: 174500802 cycles: 211301142 heartbeat IPC: 0.6641 cumulative IPC: 0.6204 (Simulation time: 00 hr 41 min 45 sec)
Heartbeat CPU 0 instructions: 175000802 cycles: 211594799 heartbeat IPC: 1.703 cumulative IPC: 0.622 (Simulation time: 00 hr 41 min 48 sec)
Heartbeat CPU 0 instructions: 175500807 cycles: 212055865 heartbeat IPC: 1.084 cumulative IPC: 0.6231 (Simulation time: 00 hr 41 min 53 sec)
Heartbeat CPU 0 instructions: 176000809 cycles: 213216244 heartbeat IPC: 0.4309 cumulative IPC: 0.622 (Simulation time: 00 hr 42 min 06 sec)
Heartbeat CPU 0 instructions: 176500809 cycles: 214361279 heartbeat IPC: 0.4367 cumulative IPC: 0.6209 (Simulation time: 00 hr 42 min 18 sec)
Heartbeat CPU 0 instructions: 177000810 cycles: 215023240 heartbeat IPC: 0.7553 cumulative IPC: 0.6214 (Simulation time: 00 hr 42 min 25 sec)
Heartbeat CPU 0 instructions: 177500813 cycles: 215368308 heartbeat IPC: 1.449 cumulative IPC: 0.6228 (Simulation time: 00 hr 42 min 29 sec)
Heartbeat CPU 0 instructions: 178000814 cycles: 215611954 heartbeat IPC: 2.052 cumulative IPC: 0.6245 (Simulation time: 00 hr 42 min 32 sec)
Heartbeat CPU 0 instructions: 178500818 cycles: 216645142 heartbeat IPC: 0.4839 cumulative IPC: 0.6238 (Simulation time: 00 hr 42 min 44 sec)
Heartbeat CPU 0 instructions: 179000822 cycles: 217801530 heartbeat IPC: 0.4324 cumulative IPC: 0.6227 (Simulation time: 00 hr 42 min 57 sec)
Heartbeat CPU 0 instructions: 179500823 cycles: 218583570 heartbeat IPC: 0.6394 cumulative IPC: 0.6228 (Simulation time: 00 hr 43 min 05 sec)
Heartbeat CPU 0 instructions: 180000826 cycles: 219029095 heartbeat IPC: 1.122 cumulative IPC: 0.6238 (Simulation time: 00 hr 43 min 09 sec)
Heartbeat CPU 0 instructions: 180500827 cycles: 219388653 heartbeat IPC: 1.391 cumulative IPC: 0.6251 (Simulation time: 00 hr 43 min 13 sec)
Heartbeat CPU 0 instructions: 181000829 cycles: 219810555 heartbeat IPC: 1.185 cumulative IPC: 0.6263 (Simulation time: 00 hr 43 min 17 sec)
Heartbeat CPU 0 instructions: 181500832 cycles: 220527652 heartbeat IPC: 0.6973 cumulative IPC: 0.6265 (Simulation time: 00 hr 43 min 25 sec)
Heartbeat CPU 0 instructions: 182000834 cycles: 221681872 heartbeat IPC: 0.4332 cumulative IPC: 0.6255 (Simulation time: 00 hr 43 min 37 sec)
Heartbeat CPU 0 instructions: 182500836 cycles: 222703915 heartbeat IPC: 0.4892 cumulative IPC: 0.6248 (Simulation time: 00 hr 43 min 48 sec)
Heartbeat CPU 0 instructions: 183000838 cycles: 223408857 heartbeat IPC: 0.7093 cumulative IPC: 0.6251 (Simulation time: 00 hr 43 min 54 sec)
Heartbeat CPU 0 instructions: 183500839 cycles: 224072386 heartbeat IPC: 0.7535 cumulative IPC: 0.6255 (Simulation time: 00 hr 44 min 00 sec)
Heartbeat CPU 0 instructions: 184000839 cycles: 224656502 heartbeat IPC: 0.856 cumulative IPC: 0.6261 (Simulation time: 00 hr 44 min 06 sec)
Heartbeat CPU 0 instructions: 184500844 cycles: 225756482 heartbeat IPC: 0.4546 cumulative IPC: 0.6252 (Simulation time: 00 hr 44 min 18 sec)
Heartbeat CPU 0 instructions: 185000846 cycles: 226921758 heartbeat IPC: 0.4291 cumulative IPC: 0.6242 (Simulation time: 00 hr 44 min 30 sec)
Heartbeat CPU 0 instructions: 185500852 cycles: 227513064 heartbeat IPC: 0.8456 cumulative IPC: 0.6248 (Simulation time: 00 hr 44 min 36 sec)
Heartbeat CPU 0 instructions: 186000852 cycles: 227779134 heartbeat IPC: 1.879 cumulative IPC: 0.6263 (Simulation time: 00 hr 44 min 39 sec)
Heartbeat CPU 0 instructions: 186500853 cycles: 228893726 heartbeat IPC: 0.4486 cumulative IPC: 0.6254 (Simulation time: 00 hr 44 min 51 sec)
Heartbeat CPU 0 instructions: 187000854 cycles: 230063885 heartbeat IPC: 0.4273 cumulative IPC: 0.6244 (Simulation time: 00 hr 45 min 04 sec)
Heartbeat CPU 0 instructions: 187500858 cycles: 230873716 heartbeat IPC: 0.6174 cumulative IPC: 0.6243 (Simulation time: 00 hr 45 min 12 sec)
Heartbeat CPU 0 instructions: 188000858 cycles: 231309508 heartbeat IPC: 1.147 cumulative IPC: 0.6254 (Simulation time: 00 hr 45 min 16 sec)
Heartbeat CPU 0 instructions: 188500862 cycles: 231594904 heartbeat IPC: 1.752 cumulative IPC: 0.6268 (Simulation time: 00 hr 45 min 19 sec)
Heartbeat CPU 0 instructions: 189000862 cycles: 232082986 heartbeat IPC: 1.024 cumulative IPC: 0.6277 (Simulation time: 00 hr 45 min 24 sec)
Heartbeat CPU 0 instructions: 189500863 cycles: 233229681 heartbeat IPC: 0.436 cumulative IPC: 0.6267 (Simulation time: 00 hr 45 min 37 sec)
Heartbeat CPU 0 instructions: 190000865 cycles: 234381256 heartbeat IPC: 0.4342 cumulative IPC: 0.6257 (Simulation time: 00 hr 45 min 49 sec)
Heartbeat CPU 0 instructions: 190500865 cycles: 234839381 heartbeat IPC: 1.091 cumulative IPC: 0.6267 (Simulation time: 00 hr 45 min 53 sec)
Heartbeat CPU 0 instructions: 191000870 cycles: 235151051 heartbeat IPC: 1.604 cumulative IPC: 0.628 (Simulation time: 00 hr 45 min 56 sec)
Heartbeat CPU 0 instructions: 191500872 cycles: 236114241 heartbeat IPC: 0.5191 cumulative IPC: 0.6276 (Simulation time: 00 hr 46 min 07 sec)
Heartbeat CPU 0 instructions: 192000874 cycles: 237258266 heartbeat IPC: 0.4371 cumulative IPC: 0.6266 (Simulation time: 00 hr 46 min 19 sec)
Heartbeat CPU 0 instructions: 192500879 cycles: 238173667 heartbeat IPC: 0.5462 cumulative IPC: 0.6263 (Simulation time: 00 hr 46 min 28 sec)
Heartbeat CPU 0 instructions: 193000879 cycles: 238617168 heartbeat IPC: 1.127 cumulative IPC: 0.6272 (Simulation time: 00 hr 46 min 33 sec)
Heartbeat CPU 0 instructions: 193500880 cycles: 238917145 heartbeat IPC: 1.667 cumulative IPC: 0.6286 (Simulation time: 00 hr 46 min 36 sec)
Heartbeat CPU 0 instructions: 194000881 cycles: 239516539 heartbeat IPC: 0.8342 cumulative IPC: 0.6292 (Simulation time: 00 hr 46 min 42 sec)
Heartbeat CPU 0 instructions: 194500886 cycles: 240698828 heartbeat IPC: 0.4229 cumulative IPC: 0.6281 (Simulation time: 00 hr 46 min 55 sec)
Heartbeat CPU 0 instructions: 195000887 cycles: 241829986 heartbeat IPC: 0.442 cumulative IPC: 0.6272 (Simulation time: 00 hr 47 min 07 sec)
Heartbeat CPU 0 instructions: 195500890 cycles: 242325251 heartbeat IPC: 1.01 cumulative IPC: 0.628 (Simulation time: 00 hr 47 min 12 sec)
Heartbeat CPU 0 instructions: 196000896 cycles: 242874722 heartbeat IPC: 0.91 cumulative IPC: 0.6287 (Simulation time: 00 hr 47 min 17 sec)
Heartbeat CPU 0 instructions: 196500897 cycles: 243818240 heartbeat IPC: 0.5299 cumulative IPC: 0.6283 (Simulation time: 00 hr 47 min 27 sec)
Heartbeat CPU 0 instructions: 197000901 cycles: 244983688 heartbeat IPC: 0.429 cumulative IPC: 0.6273 (Simulation time: 00 hr 47 min 40 sec)
Heartbeat CPU 0 instructions: 197500902 cycles: 245860621 heartbeat IPC: 0.5702 cumulative IPC: 0.6271 (Simulation time: 00 hr 47 min 49 sec)
Heartbeat CPU 0 instructions: 198000902 cycles: 246285918 heartbeat IPC: 1.176 cumulative IPC: 0.6281 (Simulation time: 00 hr 47 min 53 sec)
Heartbeat CPU 0 instructions: 198500909 cycles: 247125962 heartbeat IPC: 0.5952 cumulative IPC: 0.6279 (Simulation time: 00 hr 48 min 02 sec)
Heartbeat CPU 0 instructions: 199000914 cycles: 248289040 heartbeat IPC: 0.4299 cumulative IPC: 0.627 (Simulation time: 00 hr 48 min 14 sec)
Heartbeat CPU 0 instructions: 199500917 cycles: 249284490 heartbeat IPC: 0.5023 cumulative IPC: 0.6264 (Simulation time: 00 hr 48 min 24 sec)
Heartbeat CPU 0 instructions: 200000918 cycles: 249725625 heartbeat IPC: 1.133 cumulative IPC: 0.6274 (Simulation time: 00 hr 48 min 29 sec)
Heartbeat CPU 0 instructions: 200500922 cycles: 250088595 heartbeat IPC: 1.378 cumulative IPC: 0.6285 (Simulation time: 00 hr 48 min 33 sec)
Heartbeat CPU 0 instructions: 201000925 cycles: 250383762 heartbeat IPC: 1.694 cumulative IPC: 0.6298 (Simulation time: 00 hr 48 min 36 sec)
Heartbeat CPU 0 instructions: 201500925 cycles: 251071219 heartbeat IPC: 0.7273 cumulative IPC: 0.6301 (Simulation time: 00 hr 48 min 43 sec)
Heartbeat CPU 0 instructions: 202000929 cycles: 252219666 heartbeat IPC: 0.4354 cumulative IPC: 0.6292 (Simulation time: 00 hr 48 min 55 sec)
Heartbeat CPU 0 instructions: 202500930 cycles: 253267411 heartbeat IPC: 0.4772 cumulative IPC: 0.6285 (Simulation time: 00 hr 49 min 06 sec)
Heartbeat CPU 0 instructions: 203000932 cycles: 254099890 heartbeat IPC: 0.6006 cumulative IPC: 0.6284 (Simulation time: 00 hr 49 min 14 sec)
Heartbeat CPU 0 instructions: 203500933 cycles: 255252322 heartbeat IPC: 0.4339 cumulative IPC: 0.6275 (Simulation time: 00 hr 49 min 27 sec)
Heartbeat CPU 0 instructions: 204000933 cycles: 256296885 heartbeat IPC: 0.4787 cumulative IPC: 0.6269 (Simulation time: 00 hr 49 min 38 sec)
Heartbeat CPU 0 instructions: 204500933 cycles: 256733611 heartbeat IPC: 1.145 cumulative IPC: 0.6278 (Simulation time: 00 hr 49 min 42 sec)
Heartbeat CPU 0 instructions: 205000933 cycles: 257024865 heartbeat IPC: 1.717 cumulative IPC: 0.6291 (Simulation time: 00 hr 49 min 45 sec)
Heartbeat CPU 0 instructions: 205500938 cycles: 258051312 heartbeat IPC: 0.4871 cumulative IPC: 0.6285 (Simulation time: 00 hr 49 min 55 sec)
Heartbeat CPU 0 instructions: 206000940 cycles: 259196193 heartbeat IPC: 0.4367 cumulative IPC: 0.6276 (Simulation time: 00 hr 50 min 07 sec)
Heartbeat CPU 0 instructions: 206500941 cycles: 260048481 heartbeat IPC: 0.5867 cumulative IPC: 0.6275 (Simulation time: 00 hr 50 min 16 sec)
Heartbeat CPU 0 instructions: 207000941 cycles: 260952912 heartbeat IPC: 0.5528 cumulative IPC: 0.6272 (Simulation time: 00 hr 50 min 25 sec)
Heartbeat CPU 0 instructions: 207500943 cycles: 262102539 heartbeat IPC: 0.4349 cumulative IPC: 0.6263 (Simulation time: 00 hr 50 min 37 sec)
Heartbeat CPU 0 instructions: 208000944 cycles: 263045065 heartbeat IPC: 0.5305 cumulative IPC: 0.626 (Simulation time: 00 hr 50 min 47 sec)
Heartbeat CPU 0 instructions: 208500944 cycles: 263503088 heartbeat IPC: 1.092 cumulative IPC: 0.6268 (Simulation time: 00 hr 50 min 51 sec)
Heartbeat CPU 0 instructions: 209000944 cycles: 264013231 heartbeat IPC: 0.9801 cumulative IPC: 0.6275 (Simulation time: 00 hr 50 min 56 sec)
Heartbeat CPU 0 instructions: 209500947 cycles: 265157163 heartbeat IPC: 0.4371 cumulative IPC: 0.6267 (Simulation time: 00 hr 51 min 08 sec)
Heartbeat CPU 0 instructions: 210000951 cycles: 266310797 heartbeat IPC: 0.4334 cumulative IPC: 0.6258 (Simulation time: 00 hr 51 min 21 sec)
Heartbeat CPU 0 instructions: 210500952 cycles: 266676790 heartbeat IPC: 1.366 cumulative IPC: 0.6269 (Simulation time: 00 hr 51 min 24 sec)
Heartbeat CPU 0 instructions: 211000953 cycles: 267337636 heartbeat IPC: 0.7566 cumulative IPC: 0.6272 (Simulation time: 00 hr 51 min 30 sec)
Heartbeat CPU 0 instructions: 211500954 cycles: 268511673 heartbeat IPC: 0.4259 cumulative IPC: 0.6263 (Simulation time: 00 hr 51 min 43 sec)
Heartbeat CPU 0 instructions: 212000958 cycles: 269667069 heartbeat IPC: 0.4328 cumulative IPC: 0.6254 (Simulation time: 00 hr 51 min 55 sec)
Heartbeat CPU 0 instructions: 212500963 cycles: 270255938 heartbeat IPC: 0.8491 cumulative IPC: 0.6259 (Simulation time: 00 hr 52 min 00 sec)
Heartbeat CPU 0 instructions: 213000965 cycles: 271335494 heartbeat IPC: 0.4632 cumulative IPC: 0.6252 (Simulation time: 00 hr 52 min 11 sec)
Heartbeat CPU 0 instructions: 213500969 cycles: 272491432 heartbeat IPC: 0.4326 cumulative IPC: 0.6244 (Simulation time: 00 hr 52 min 24 sec)
Heartbeat CPU 0 instructions: 214000969 cycles: 273225612 heartbeat IPC: 0.681 cumulative IPC: 0.6246 (Simulation time: 00 hr 52 min 31 sec)
Heartbeat CPU 0 instructions: 214500975 cycles: 273669485 heartbeat IPC: 1.126 cumulative IPC: 0.6254 (Simulation time: 00 hr 52 min 34 sec)
Heartbeat CPU 0 instructions: 215000975 cycles: 274739656 heartbeat IPC: 0.4672 cumulative IPC: 0.6248 (Simulation time: 00 hr 52 min 46 sec)
Heartbeat CPU 0 instructions: 215500977 cycles: 275895928 heartbeat IPC: 0.4324 cumulative IPC: 0.6239 (Simulation time: 00 hr 52 min 57 sec)
Heartbeat CPU 0 instructions: 216000977 cycles: 276627339 heartbeat IPC: 0.6836 cumulative IPC: 0.6241 (Simulation time: 00 hr 53 min 04 sec)
Heartbeat CPU 0 instructions: 216500981 cycles: 277120171 heartbeat IPC: 1.015 cumulative IPC: 0.6248 (Simulation time: 00 hr 53 min 09 sec)
Heartbeat CPU 0 instructions: 217000981 cycles: 277463578 heartbeat IPC: 1.456 cumulative IPC: 0.6259 (Simulation time: 00 hr 53 min 12 sec)
Heartbeat CPU 0 instructions: 217500984 cycles: 278160139 heartbeat IPC: 0.7178 cumulative IPC: 0.6261 (Simulation time: 00 hr 53 min 19 sec)
Heartbeat CPU 0 instructions: 218000989 cycles: 279305732 heartbeat IPC: 0.4365 cumulative IPC: 0.6253 (Simulation time: 00 hr 53 min 30 sec)
Heartbeat CPU 0 instructions: 218500989 cycles: 280363458 heartbeat IPC: 0.4727 cumulative IPC: 0.6247 (Simulation time: 00 hr 53 min 41 sec)
Heartbeat CPU 0 instructions: 219000991 cycles: 280871201 heartbeat IPC: 0.9848 cumulative IPC: 0.6254 (Simulation time: 00 hr 53 min 45 sec)
Heartbeat CPU 0 instructions: 219500996 cycles: 281342641 heartbeat IPC: 1.061 cumulative IPC: 0.6261 (Simulation time: 00 hr 53 min 49 sec)
Heartbeat CPU 0 instructions: 220000998 cycles: 282470908 heartbeat IPC: 0.4432 cumulative IPC: 0.6254 (Simulation time: 00 hr 54 min 01 sec)
Heartbeat CPU 0 instructions: 220501000 cycles: 283608848 heartbeat IPC: 0.4394 cumulative IPC: 0.6246 (Simulation time: 00 hr 54 min 12 sec)
Heartbeat CPU 0 instructions: 221001001 cycles: 284235321 heartbeat IPC: 0.7981 cumulative IPC: 0.625 (Simulation time: 00 hr 54 min 17 sec)
Heartbeat CPU 0 instructions: 221501005 cycles: 284531858 heartbeat IPC: 1.686 cumulative IPC: 0.6262 (Simulation time: 00 hr 54 min 20 sec)
Heartbeat CPU 0 instructions: 222001005 cycles: 284908146 heartbeat IPC: 1.329 cumulative IPC: 0.6271 (Simulation time: 00 hr 54 min 24 sec)
Heartbeat CPU 0 instructions: 222501007 cycles: 285660752 heartbeat IPC: 0.6644 cumulative IPC: 0.6272 (Simulation time: 00 hr 54 min 31 sec)
Heartbeat CPU 0 instructions: 223001013 cycles: 286797689 heartbeat IPC: 0.4398 cumulative IPC: 0.6264 (Simulation time: 00 hr 54 min 43 sec)
Heartbeat CPU 0 instructions: 223501013 cycles: 287806450 heartbeat IPC: 0.4957 cumulative IPC: 0.626 (Simulation time: 00 hr 54 min 53 sec)
Heartbeat CPU 0 instructions: 224001015 cycles: 288042693 heartbeat IPC: 2.116 cumulative IPC: 0.6272 (Simulation time: 00 hr 54 min 55 sec)
Heartbeat CPU 0 instructions: 224501019 cycles: 288477701 heartbeat IPC: 1.149 cumulative IPC: 0.6281 (Simulation time: 00 hr 54 min 59 sec)
Heartbeat CPU 0 instructions: 225001020 cycles: 289514941 heartbeat IPC: 0.482 cumulative IPC: 0.6275 (Simulation time: 00 hr 55 min 09 sec)
Heartbeat CPU 0 instructions: 225501022 cycles: 290658103 heartbeat IPC: 0.4374 cumulative IPC: 0.6267 (Simulation time: 00 hr 55 min 21 sec)
Heartbeat CPU 0 instructions: 226001023 cycles: 291414738 heartbeat IPC: 0.6608 cumulative IPC: 0.6268 (Simulation time: 00 hr 55 min 28 sec)
Heartbeat CPU 0 instructions: 226501025 cycles: 291889070 heartbeat IPC: 1.054 cumulative IPC: 0.6276 (Simulation time: 00 hr 55 min 32 sec)
Heartbeat CPU 0 instructions: 227001025 cycles: 292137158 heartbeat IPC: 2.015 cumulative IPC: 0.6288 (Simulation time: 00 hr 55 min 34 sec)
Heartbeat CPU 0 instructions: 227501027 cycles: 292746343 heartbeat IPC: 0.8208 cumulative IPC: 0.6292 (Simulation time: 00 hr 55 min 40 sec)
Heartbeat CPU 0 instructions: 228001031 cycles: 293663111 heartbeat IPC: 0.5454 cumulative IPC: 0.6289 (Simulation time: 00 hr 55 min 49 sec)
Heartbeat CPU 0 instructions: 228501036 cycles: 294821086 heartbeat IPC: 0.4318 cumulative IPC: 0.6281 (Simulation time: 00 hr 56 min 01 sec)
Heartbeat CPU 0 instructions: 229001036 cycles: 295722299 heartbeat IPC: 0.5548 cumulative IPC: 0.6279 (Simulation time: 00 hr 56 min 09 sec)
Heartbeat CPU 0 instructions: 229501039 cycles: 296095257 heartbeat IPC: 1.341 cumulative IPC: 0.6288 (Simulation time: 00 hr 56 min 13 sec)
Heartbeat CPU 0 instructions: 230001043 cycles: 296862304 heartbeat IPC: 0.6519 cumulative IPC: 0.6289 (Simulation time: 00 hr 56 min 20 sec)
Heartbeat CPU 0 instructions: 230501047 cycles: 298007377 heartbeat IPC: 0.4367 cumulative IPC: 0.6281 (Simulation time: 00 hr 56 min 31 sec)
Heartbeat CPU 0 instructions: 231001047 cycles: 299033552 heartbeat IPC: 0.4872 cumulative IPC: 0.6276 (Simulation time: 00 hr 56 min 41 sec)
Heartbeat CPU 0 instructions: 231501049 cycles: 299476173 heartbeat IPC: 1.13 cumulative IPC: 0.6284 (Simulation time: 00 hr 56 min 44 sec)
Heartbeat CPU 0 instructions: 232001054 cycles: 300312566 heartbeat IPC: 0.5978 cumulative IPC: 0.6283 (Simulation time: 00 hr 56 min 52 sec)
Heartbeat CPU 0 instructions: 232501056 cycles: 301483368 heartbeat IPC: 0.4271 cumulative IPC: 0.6275 (Simulation time: 00 hr 57 min 04 sec)
Heartbeat CPU 0 instructions: 233001057 cycles: 302520242 heartbeat IPC: 0.4822 cumulative IPC: 0.627 (Simulation time: 00 hr 57 min 13 sec)
Heartbeat CPU 0 instructions: 233501058 cycles: 303002694 heartbeat IPC: 1.036 cumulative IPC: 0.6276 (Simulation time: 00 hr 57 min 18 sec)
Heartbeat CPU 0 instructions: 234001059 cycles: 304134781 heartbeat IPC: 0.4417 cumulative IPC: 0.6269 (Simulation time: 00 hr 57 min 29 sec)
Heartbeat CPU 0 instructions: 234501064 cycles: 305291668 heartbeat IPC: 0.4322 cumulative IPC: 0.6262 (Simulation time: 00 hr 57 min 40 sec)
Heartbeat CPU 0 instructions: 235001066 cycles: 306006043 heartbeat IPC: 0.6999 cumulative IPC: 0.6263 (Simulation time: 00 hr 57 min 46 sec)
Heartbeat CPU 0 instructions: 235501068 cycles: 306331156 heartbeat IPC: 1.538 cumulative IPC: 0.6273 (Simulation time: 00 hr 57 min 49 sec)
Heartbeat CPU 0 instructions: 236001069 cycles: 306737353 heartbeat IPC: 1.231 cumulative IPC: 0.6282 (Simulation time: 00 hr 57 min 53 sec)
Heartbeat CPU 0 instructions: 236501071 cycles: 307876608 heartbeat IPC: 0.4389 cumulative IPC: 0.6274 (Simulation time: 00 hr 58 min 04 sec)
Heartbeat CPU 0 instructions: 237001073 cycles: 309015470 heartbeat IPC: 0.439 cumulative IPC: 0.6267 (Simulation time: 00 hr 58 min 15 sec)
Heartbeat CPU 0 instructions: 237501074 cycles: 309759649 heartbeat IPC: 0.6719 cumulative IPC: 0.6268 (Simulation time: 00 hr 58 min 21 sec)
Heartbeat CPU 0 instructions: 238001078 cycles: 310309706 heartbeat IPC: 0.909 cumulative IPC: 0.6274 (Simulation time: 00 hr 58 min 26 sec)
Heartbeat CPU 0 instructions: 238501079 cycles: 311461962 heartbeat IPC: 0.4339 cumulative IPC: 0.6266 (Simulation time: 00 hr 58 min 37 sec)
Heartbeat CPU 0 instructions: 239001080 cycles: 312613450 heartbeat IPC: 0.4342 cumulative IPC: 0.6259 (Simulation time: 00 hr 58 min 49 sec)
Heartbeat CPU 0 instructions: 239501080 cycles: 313132878 heartbeat IPC: 0.9626 cumulative IPC: 0.6265 (Simulation time: 00 hr 58 min 53 sec)
Heartbeat CPU 0 instructions: 240001082 cycles: 314201542 heartbeat IPC: 0.4679 cumulative IPC: 0.6259 (Simulation time: 00 hr 59 min 03 sec)
Heartbeat CPU 0 instructions: 240501082 cycles: 315361981 heartbeat IPC: 0.4309 cumulative IPC: 0.6252 (Simulation time: 00 hr 59 min 15 sec)
Heartbeat CPU 0 instructions: 241001084 cycles: 316104388 heartbeat IPC: 0.6735 cumulative IPC: 0.6253 (Simulation time: 00 hr 59 min 21 sec)
Heartbeat CPU 0 instructions: 241501088 cycles: 317083573 heartbeat IPC: 0.5106 cumulative IPC: 0.6249 (Simulation time: 00 hr 59 min 31 sec)
Heartbeat CPU 0 instructions: 242001091 cycles: 318238889 heartbeat IPC: 0.4328 cumulative IPC: 0.6242 (Simulation time: 00 hr 59 min 42 sec)
Heartbeat CPU 0 instructions: 242501092 cycles: 319085760 heartbeat IPC: 0.5904 cumulative IPC: 0.6241 (Simulation time: 00 hr 59 min 50 sec)
Heartbeat CPU 0 instructions: 243001094 cycles: 319559400 heartbeat IPC: 1.056 cumulative IPC: 0.6248 (Simulation time: 00 hr 59 min 54 sec)
Heartbeat CPU 0 instructions: 243501097 cycles: 320310899 heartbeat IPC: 0.6653 cumulative IPC: 0.6249 (Simulation time: 01 hr 00 min 01 sec)
Heartbeat CPU 0 instructions: 244001099 cycles: 321469946 heartbeat IPC: 0.4314 cumulative IPC: 0.6241 (Simulation time: 01 hr 00 min 12 sec)
Heartbeat CPU 0 instructions: 244501099 cycles: 322475760 heartbeat IPC: 0.4971 cumulative IPC: 0.6237 (Simulation time: 01 hr 00 min 21 sec)
Heartbeat CPU 0 instructions: 245001102 cycles: 323007536 heartbeat IPC: 0.9403 cumulative IPC: 0.6243 (Simulation time: 01 hr 00 min 26 sec)
Heartbeat CPU 0 instructions: 245501105 cycles: 323702859 heartbeat IPC: 0.7191 cumulative IPC: 0.6245 (Simulation time: 01 hr 00 min 32 sec)
Heartbeat CPU 0 instructions: 246001107 cycles: 324858784 heartbeat IPC: 0.4326 cumulative IPC: 0.6238 (Simulation time: 01 hr 00 min 43 sec)
Heartbeat CPU 0 instructions: 246501108 cycles: 325928456 heartbeat IPC: 0.4674 cumulative IPC: 0.6232 (Simulation time: 01 hr 00 min 54 sec)
Heartbeat CPU 0 instructions: 247001110 cycles: 326580494 heartbeat IPC: 0.7668 cumulative IPC: 0.6235 (Simulation time: 01 hr 00 min 59 sec)
Heartbeat CPU 0 instructions: 247501112 cycles: 327179120 heartbeat IPC: 0.8352 cumulative IPC: 0.6239 (Simulation time: 01 hr 01 min 04 sec)
Heartbeat CPU 0 instructions: 248001115 cycles: 328328691 heartbeat IPC: 0.4349 cumulative IPC: 0.6232 (Simulation time: 01 hr 01 min 15 sec)
Heartbeat CPU 0 instructions: 248501115 cycles: 329484730 heartbeat IPC: 0.4325 cumulative IPC: 0.6226 (Simulation time: 01 hr 01 min 26 sec)
Heartbeat CPU 0 instructions: 249001116 cycles: 329924542 heartbeat IPC: 1.137 cumulative IPC: 0.6233 (Simulation time: 01 hr 01 min 30 sec)
Heartbeat CPU 0 instructions: 249501116 cycles: 330334487 heartbeat IPC: 1.22 cumulative IPC: 0.624 (Simulation time: 01 hr 01 min 33 sec)
Simulation finished CPU 0 instructions: 200000002 cycles: 320115274 cumulative IPC: 0.6248 (Simulation time: 01 hr 01 min 37 sec)
Simulation complete CPU 0 instructions: 200000002 cycles: 320115274 cumulative IPC: 0.6248 (Simulation time: 01 hr 01 min 37 sec)

ChampSim completed all CPUs

=== Simulation ===
CPU 0 runs /local-ssd/ben/dpc4-traces/SPEC17/623.xalancbmk_s-10B.champsimtrace.xz

Region of Interest Statistics

CPU 0 cumulative IPC: 0.6248 instructions: 200000002 cycles: 320115274
CPU 0 Branch Prediction Accuracy: 97.93% MPKI: 5.346 Average ROB Occupancy at Mispredict: 46.3
Branch type MPKI
BRANCH_DIRECT_JUMP: 0.09625
BRANCH_INDIRECT: 0.01832
BRANCH_CONDITIONAL: 4.715
BRANCH_DIRECT_CALL: 4.5e-05
BRANCH_INDIRECT_CALL: 0.1238
BRANCH_RETURN: 0.3921

cpu0->cpu0_STLB TOTAL        ACCESS:    1334514 HIT:     374937 MISS:     959577 MSHR_MERGE:          0
cpu0->cpu0_STLB LOAD         ACCESS:    1334514 HIT:     374937 MISS:     959577 MSHR_MERGE:          0
cpu0->cpu0_STLB RFO          ACCESS:          0 HIT:          0 MISS:          0 MSHR_MERGE:          0
cpu0->cpu0_STLB PREFETCH     ACCESS:          0 HIT:          0 MISS:          0 MSHR_MERGE:          0
cpu0->cpu0_STLB WRITE        ACCESS:          0 HIT:          0 MISS:          0 MSHR_MERGE:          0
cpu0->cpu0_STLB TRANSLATION  ACCESS:          0 HIT:          0 MISS:          0 MSHR_MERGE:          0
cpu0->cpu0_STLB PREFETCH REQUESTED:          0 ISSUED:          0 USEFUL:          0 USELESS:          0
cpu0->cpu0_STLB AVERAGE MISS LATENCY: 82.45 cycles
cpu0->cpu0_L2C TOTAL        ACCESS:   23182163 HIT:    8124651 MISS:   15057512 MSHR_MERGE:    4465713
cpu0->cpu0_L2C LOAD         ACCESS:    4540300 HIT:    1243521 MISS:    3296779 MSHR_MERGE:     338189
cpu0->cpu0_L2C RFO          ACCESS:      93594 HIT:      62473 MISS:      31121 MSHR_MERGE:        383
cpu0->cpu0_L2C PREFETCH     ACCESS:   18091200 HIT:    6585865 MISS:   11505335 MSHR_MERGE:    4127141
cpu0->cpu0_L2C WRITE        ACCESS:     215110 HIT:     214886 MISS:        224 MSHR_MERGE:          0
cpu0->cpu0_L2C TRANSLATION  ACCESS:     241959 HIT:      17906 MISS:     224053 MSHR_MERGE:          0
cpu0->cpu0_L2C PREFETCH REQUESTED:   16422633 ISSUED:   15078340 USEFUL:    1378253 USELESS:    4213239
cpu0->cpu0_L2C AVERAGE MISS LATENCY: 204.3 cycles
cpu0->cpu0_L1I TOTAL        ACCESS:   24647755 HIT:   24642917 MISS:       4838 MSHR_MERGE:       1067
cpu0->cpu0_L1I LOAD         ACCESS:   24647755 HIT:   24642917 MISS:       4838 MSHR_MERGE:       1067
cpu0->cpu0_L1I RFO          ACCESS:          0 HIT:          0 MISS:          0 MSHR_MERGE:          0
cpu0->cpu0_L1I PREFETCH     ACCESS:          0 HIT:          0 MISS:          0 MSHR_MERGE:          0
cpu0->cpu0_L1I WRITE        ACCESS:          0 HIT:          0 MISS:          0 MSHR_MERGE:          0
cpu0->cpu0_L1I TRANSLATION  ACCESS:          0 HIT:          0 MISS:          0 MSHR_MERGE:          0
cpu0->cpu0_L1I PREFETCH REQUESTED:          0 ISSUED:          0 USEFUL:          0 USELESS:          0
cpu0->cpu0_L1I AVERAGE MISS LATENCY: 156.4 cycles
cpu0->cpu0_L1D TOTAL        ACCESS:   61538358 HIT:   48396460 MISS:   13141898 MSHR_MERGE:    5256939
cpu0->cpu0_L1D LOAD         ACCESS:   41812469 HIT:   33008657 MISS:    8803812 MSHR_MERGE:    4267274
cpu0->cpu0_L1D RFO          ACCESS:          0 HIT:          0 MISS:          0 MSHR_MERGE:          0
cpu0->cpu0_L1D PREFETCH     ACCESS:    8063957 HIT:    4478956 MISS:    3585001 MSHR_MERGE:     572141
cpu0->cpu0_L1D WRITE        ACCESS:    9805185 HIT:    9336936 MISS:     468249 MSHR_MERGE:     374647
cpu0->cpu0_L1D TRANSLATION  ACCESS:    1856747 HIT:    1571911 MISS:     284836 MSHR_MERGE:      42877
cpu0->cpu0_L1D PREFETCH REQUESTED:    9706215 ISSUED:    8063951 USEFUL:     834427 USELESS:    2178279
cpu0->cpu0_L1D AVERAGE MISS LATENCY: 156.2 cycles
cpu0->cpu0_ITLB TOTAL        ACCESS:   22359328 HIT:   22334067 MISS:      25261 MSHR_MERGE:      11786
cpu0->cpu0_ITLB LOAD         ACCESS:   22359328 HIT:   22334067 MISS:      25261 MSHR_MERGE:      11786
cpu0->cpu0_ITLB RFO          ACCESS:          0 HIT:          0 MISS:          0 MSHR_MERGE:          0
cpu0->cpu0_ITLB PREFETCH     ACCESS:          0 HIT:          0 MISS:          0 MSHR_MERGE:          0
cpu0->cpu0_ITLB WRITE        ACCESS:          0 HIT:          0 MISS:          0 MSHR_MERGE:          0
cpu0->cpu0_ITLB TRANSLATION  ACCESS:          0 HIT:          0 MISS:          0 MSHR_MERGE:          0
cpu0->cpu0_ITLB PREFETCH REQUESTED:          0 ISSUED:          0 USEFUL:          0 USELESS:          0
cpu0->cpu0_ITLB AVERAGE MISS LATENCY: 74.29 cycles
cpu0->cpu0_DTLB TOTAL        ACCESS:   55754298 HIT:   52786271 MISS:    2968027 MSHR_MERGE:    1646988
cpu0->cpu0_DTLB LOAD         ACCESS:   55754298 HIT:   52786271 MISS:    2968027 MSHR_MERGE:    1646988
cpu0->cpu0_DTLB RFO          ACCESS:          0 HIT:          0 MISS:          0 MSHR_MERGE:          0
cpu0->cpu0_DTLB PREFETCH     ACCESS:          0 HIT:          0 MISS:          0 MSHR_MERGE:          0
cpu0->cpu0_DTLB WRITE        ACCESS:          0 HIT:          0 MISS:          0 MSHR_MERGE:          0
cpu0->cpu0_DTLB TRANSLATION  ACCESS:          0 HIT:          0 MISS:          0 MSHR_MERGE:          0
cpu0->cpu0_DTLB PREFETCH REQUESTED:          0 ISSUED:          0 USEFUL:          0 USELESS:          0
cpu0->cpu0_DTLB AVERAGE MISS LATENCY: 64.91 cycles
cpu0->LLC TOTAL        ACCESS:   19811427 HIT:    5285856 MISS:   14525571 MSHR_MERGE:    2829929
cpu0->LLC LOAD         ACCESS:    2958590 HIT:     767527 MISS:    2191063 MSHR_MERGE:      40038
cpu0->LLC RFO          ACCESS:      30738 HIT:      10281 MISS:      20457 MSHR_MERGE:         91
cpu0->LLC PREFETCH     ACCESS:   16525304 HIT:    4454885 MISS:   12070419 MSHR_MERGE:    2789800
cpu0->LLC WRITE        ACCESS:      72742 HIT:      40006 MISS:      32736 MSHR_MERGE:          0
cpu0->LLC TRANSLATION  ACCESS:     224053 HIT:      13157 MISS:     210896 MSHR_MERGE:          0
cpu0->LLC PREFETCH REQUESTED:    9179877 ISSUED:    9147110 USEFUL:     443464 USELESS:    4220869
cpu0->LLC AVERAGE MISS LATENCY: 246.9 cycles

DRAM Statistics

Channel 0 RQ ROW_BUFFER_HIT:     481225
  ROW_BUFFER_MISS:   11181349
  AVG DBUS CONGESTED CYCLE: 5.305
Channel 0 WQ ROW_BUFFER_HIT:      11364
  ROW_BUFFER_MISS:      33145
  FULL:          0
Channel 0 REFRESHES ISSUED:      26674
