[VMEM] WARNING: physical memory size is smaller than virtual memory size.

*** ChampSim Multicore Out-of-Order Simulator ***
Warmup Instructions: 50000000
Simulation Instructions: 200000000
Number of CPUs: 1
Page size: 4096
Core 0: /local-ssd/ben/dpc4-traces/ai-ml/rwkv_trace_1.champsimtrace.gz
Off-chip DRAM Size: 64 GiB Channels: 1 Width: 64-bit Data Rate: 4807 MT/s
Heartbeat CPU 0 instructions: 500006 cycles: 124184 heartbeat IPC: 4.026 cumulative IPC: 4.026 (Simulation time: 00 hr 00 min 02 sec)
Heartbeat CPU 0 instructions: 1000010 cycles: 224866 heartbeat IPC: 4.966 cumulative IPC: 4.447 (Simulation time: 00 hr 00 min 03 sec)
Heartbeat CPU 0 instructions: 1500017 cycles: 325558 heartbeat IPC: 4.966 cumulative IPC: 4.608 (Simulation time: 00 hr 00 min 05 sec)
Heartbeat CPU 0 instructions: 2000019 cycles: 427336 heartbeat IPC: 4.913 cumulative IPC: 4.68 (Simulation time: 00 hr 00 min 06 sec)
Heartbeat CPU 0 instructions: 2500026 cycles: 529649 heartbeat IPC: 4.887 cumulative IPC: 4.72 (Simulation time: 00 hr 00 min 07 sec)
Heartbeat CPU 0 instructions: 3000026 cycles: 639733 heartbeat IPC: 4.542 cumulative IPC: 4.689 (Simulation time: 00 hr 00 min 09 sec)
Heartbeat CPU 0 instructions: 3500026 cycles: 739733 heartbeat IPC: 5 cumulative IPC: 4.731 (Simulation time: 00 hr 00 min 10 sec)
Heartbeat CPU 0 instructions: 4000033 cycles: 841638 heartbeat IPC: 4.907 cumulative IPC: 4.753 (Simulation time: 00 hr 00 min 11 sec)
Heartbeat CPU 0 instructions: 4500036 cycles: 941636 heartbeat IPC: 5 cumulative IPC: 4.779 (Simulation time: 00 hr 00 min 12 sec)
Heartbeat CPU 0 instructions: 5000041 cycles: 1041643 heartbeat IPC: 5 cumulative IPC: 4.8 (Simulation time: 00 hr 00 min 14 sec)
Heartbeat CPU 0 instructions: 5500043 cycles: 1141641 heartbeat IPC: 5 cumulative IPC: 4.818 (Simulation time: 00 hr 00 min 15 sec)
Heartbeat CPU 0 instructions: 6000050 cycles: 1241621 heartbeat IPC: 5.001 cumulative IPC: 4.832 (Simulation time: 00 hr 00 min 17 sec)
Heartbeat CPU 0 instructions: 6500053 cycles: 1341735 heartbeat IPC: 4.994 cumulative IPC: 4.845 (Simulation time: 00 hr 00 min 18 sec)
Heartbeat CPU 0 instructions: 7000053 cycles: 1456503 heartbeat IPC: 4.357 cumulative IPC: 4.806 (Simulation time: 00 hr 00 min 19 sec)
Heartbeat CPU 0 instructions: 7500053 cycles: 1577092 heartbeat IPC: 4.146 cumulative IPC: 4.756 (Simulation time: 00 hr 00 min 21 sec)
Heartbeat CPU 0 instructions: 8000054 cycles: 1677106 heartbeat IPC: 4.999 cumulative IPC: 4.77 (Simulation time: 00 hr 00 min 22 sec)
Heartbeat CPU 0 instructions: 8500056 cycles: 1777110 heartbeat IPC: 5 cumulative IPC: 4.783 (Simulation time: 00 hr 00 min 24 sec)
Heartbeat CPU 0 instructions: 9000058 cycles: 1877103 heartbeat IPC: 5 cumulative IPC: 4.795 (Simulation time: 00 hr 00 min 25 sec)
Heartbeat CPU 0 instructions: 9500059 cycles: 1977089 heartbeat IPC: 5.001 cumulative IPC: 4.805 (Simulation time: 00 hr 00 min 27 sec)
Heartbeat CPU 0 instructions: 10000059 cycles: 2077090 heartbeat IPC: 5 cumulative IPC: 4.814 (Simulation time: 00 hr 00 min 28 sec)
Heartbeat CPU 0 instructions: 10500059 cycles: 2178218 heartbeat IPC: 4.944 cumulative IPC: 4.82 (Simulation time: 00 hr 00 min 29 sec)
Heartbeat CPU 0 instructions: 11000065 cycles: 2290060 heartbeat IPC: 4.471 cumulative IPC: 4.803 (Simulation time: 00 hr 00 min 31 sec)
Heartbeat CPU 0 instructions: 11500070 cycles: 2404640 heartbeat IPC: 4.364 cumulative IPC: 4.782 (Simulation time: 00 hr 00 min 32 sec)
Heartbeat CPU 0 instructions: 12000071 cycles: 2519144 heartbeat IPC: 4.367 cumulative IPC: 4.764 (Simulation time: 00 hr 00 min 34 sec)
Heartbeat CPU 0 instructions: 12500076 cycles: 2634651 heartbeat IPC: 4.329 cumulative IPC: 4.744 (Simulation time: 00 hr 00 min 36 sec)
Heartbeat CPU 0 instructions: 13000082 cycles: 2785152 heartbeat IPC: 3.322 cumulative IPC: 4.668 (Simulation time: 00 hr 00 min 38 sec)
Heartbeat CPU 0 instructions: 13500088 cycles: 3237042 heartbeat IPC: 1.106 cumulative IPC: 4.171 (Simulation time: 00 hr 00 min 44 sec)
Heartbeat CPU 0 instructions: 14000088 cycles: 3689310 heartbeat IPC: 1.106 cumulative IPC: 3.795 (Simulation time: 00 hr 00 min 50 sec)
Heartbeat CPU 0 instructions: 14500088 cycles: 4140826 heartbeat IPC: 1.107 cumulative IPC: 3.502 (Simulation time: 00 hr 00 min 55 sec)
Heartbeat CPU 0 instructions: 15000092 cycles: 4593142 heartbeat IPC: 1.105 cumulative IPC: 3.266 (Simulation time: 00 hr 01 min 01 sec)
Heartbeat CPU 0 instructions: 15500096 cycles: 5043705 heartbeat IPC: 1.11 cumulative IPC: 3.073 (Simulation time: 00 hr 01 min 07 sec)
Heartbeat CPU 0 instructions: 16000100 cycles: 5494539 heartbeat IPC: 1.109 cumulative IPC: 2.912 (Simulation time: 00 hr 01 min 13 sec)
Heartbeat CPU 0 instructions: 16500101 cycles: 5946255 heartbeat IPC: 1.107 cumulative IPC: 2.775 (Simulation time: 00 hr 01 min 19 sec)
Heartbeat CPU 0 instructions: 17000102 cycles: 6397878 heartbeat IPC: 1.107 cumulative IPC: 2.657 (Simulation time: 00 hr 01 min 24 sec)
Heartbeat CPU 0 instructions: 17500107 cycles: 6849380 heartbeat IPC: 1.107 cumulative IPC: 2.555 (Simulation time: 00 hr 01 min 30 sec)
Heartbeat CPU 0 instructions: 18000112 cycles: 7300169 heartbeat IPC: 1.109 cumulative IPC: 2.466 (Simulation time: 00 hr 01 min 36 sec)
Heartbeat CPU 0 instructions: 18500115 cycles: 7752304 heartbeat IPC: 1.106 cumulative IPC: 2.386 (Simulation time: 00 hr 01 min 42 sec)
Heartbeat CPU 0 instructions: 19000119 cycles: 8203000 heartbeat IPC: 1.109 cumulative IPC: 2.316 (Simulation time: 00 hr 01 min 48 sec)
Heartbeat CPU 0 instructions: 19500123 cycles: 8653758 heartbeat IPC: 1.109 cumulative IPC: 2.253 (Simulation time: 00 hr 01 min 54 sec)
Heartbeat CPU 0 instructions: 20000128 cycles: 9105311 heartbeat IPC: 1.107 cumulative IPC: 2.197 (Simulation time: 00 hr 01 min 59 sec)
Heartbeat CPU 0 instructions: 20500134 cycles: 9557656 heartbeat IPC: 1.105 cumulative IPC: 2.145 (Simulation time: 00 hr 02 min 05 sec)
Heartbeat CPU 0 instructions: 21000134 cycles: 10009088 heartbeat IPC: 1.108 cumulative IPC: 2.098 (Simulation time: 00 hr 02 min 11 sec)
Heartbeat CPU 0 instructions: 21500134 cycles: 10460495 heartbeat IPC: 1.108 cumulative IPC: 2.055 (Simulation time: 00 hr 02 min 17 sec)
Heartbeat CPU 0 instructions: 22000138 cycles: 10912858 heartbeat IPC: 1.105 cumulative IPC: 2.016 (Simulation time: 00 hr 02 min 23 sec)
Heartbeat CPU 0 instructions: 22500142 cycles: 11365540 heartbeat IPC: 1.105 cumulative IPC: 1.98 (Simulation time: 00 hr 02 min 29 sec)
Heartbeat CPU 0 instructions: 23000146 cycles: 11816742 heartbeat IPC: 1.108 cumulative IPC: 1.946 (Simulation time: 00 hr 02 min 35 sec)
Heartbeat CPU 0 instructions: 23500150 cycles: 12268088 heartbeat IPC: 1.108 cumulative IPC: 1.916 (Simulation time: 00 hr 02 min 40 sec)
Heartbeat CPU 0 instructions: 24000150 cycles: 12719279 heartbeat IPC: 1.108 cumulative IPC: 1.887 (Simulation time: 00 hr 02 min 46 sec)
Heartbeat CPU 0 instructions: 24500153 cycles: 13170142 heartbeat IPC: 1.109 cumulative IPC: 1.86 (Simulation time: 00 hr 02 min 52 sec)
Heartbeat CPU 0 instructions: 25000156 cycles: 13620979 heartbeat IPC: 1.109 cumulative IPC: 1.835 (Simulation time: 00 hr 02 min 58 sec)
Heartbeat CPU 0 instructions: 25500161 cycles: 14072594 heartbeat IPC: 1.107 cumulative IPC: 1.812 (Simulation time: 00 hr 03 min 04 sec)
Heartbeat CPU 0 instructions: 26000165 cycles: 14524154 heartbeat IPC: 1.107 cumulative IPC: 1.79 (Simulation time: 00 hr 03 min 10 sec)
Heartbeat CPU 0 instructions: 26500169 cycles: 14974991 heartbeat IPC: 1.109 cumulative IPC: 1.77 (Simulation time: 00 hr 03 min 16 sec)
Heartbeat CPU 0 instructions: 27000174 cycles: 15425719 heartbeat IPC: 1.109 cumulative IPC: 1.75 (Simulation time: 00 hr 03 min 22 sec)
Heartbeat CPU 0 instructions: 27500180 cycles: 15877222 heartbeat IPC: 1.107 cumulative IPC: 1.732 (Simulation time: 00 hr 03 min 27 sec)
Heartbeat CPU 0 instructions: 28000180 cycles: 16329064 heartbeat IPC: 1.107 cumulative IPC: 1.715 (Simulation time: 00 hr 03 min 33 sec)
Heartbeat CPU 0 instructions: 28500180 cycles: 16779775 heartbeat IPC: 1.109 cumulative IPC: 1.698 (Simulation time: 00 hr 03 min 39 sec)
Heartbeat CPU 0 instructions: 29000186 cycles: 17231098 heartbeat IPC: 1.108 cumulative IPC: 1.683 (Simulation time: 00 hr 03 min 45 sec)
Heartbeat CPU 0 instructions: 29500188 cycles: 17683750 heartbeat IPC: 1.105 cumulative IPC: 1.668 (Simulation time: 00 hr 03 min 51 sec)
Heartbeat CPU 0 instructions: 30000193 cycles: 18135708 heartbeat IPC: 1.106 cumulative IPC: 1.654 (Simulation time: 00 hr 03 min 57 sec)
Heartbeat CPU 0 instructions: 30500196 cycles: 18586489 heartbeat IPC: 1.109 cumulative IPC: 1.641 (Simulation time: 00 hr 04 min 03 sec)
Heartbeat CPU 0 instructions: 31000196 cycles: 19036472 heartbeat IPC: 1.111 cumulative IPC: 1.628 (Simulation time: 00 hr 04 min 08 sec)
Heartbeat CPU 0 instructions: 31500202 cycles: 19486682 heartbeat IPC: 1.111 cumulative IPC: 1.616 (Simulation time: 00 hr 04 min 14 sec)
Heartbeat CPU 0 instructions: 32000203 cycles: 19938249 heartbeat IPC: 1.107 cumulative IPC: 1.605 (Simulation time: 00 hr 04 min 20 sec)
Heartbeat CPU 0 instructions: 32500207 cycles: 20388252 heartbeat IPC: 1.111 cumulative IPC: 1.594 (Simulation time: 00 hr 04 min 26 sec)
Heartbeat CPU 0 instructions: 33000210 cycles: 20839105 heartbeat IPC: 1.109 cumulative IPC: 1.584 (Simulation time: 00 hr 04 min 32 sec)
Heartbeat CPU 0 instructions: 33500215 cycles: 21291001 heartbeat IPC: 1.106 cumulative IPC: 1.573 (Simulation time: 00 hr 04 min 38 sec)
Heartbeat CPU 0 instructions: 34000220 cycles: 21741943 heartbeat IPC: 1.109 cumulative IPC: 1.564 (Simulation time: 00 hr 04 min 44 sec)
Heartbeat CPU 0 instructions: 34500226 cycles: 22192946 heartbeat IPC: 1.109 cumulative IPC: 1.555 (Simulation time: 00 hr 04 min 49 sec)
Heartbeat CPU 0 instructions: 35000226 cycles: 22644057 heartbeat IPC: 1.108 cumulative IPC: 1.546 (Simulation time: 00 hr 04 min 55 sec)
Heartbeat CPU 0 instructions: 35500226 cycles: 23094993 heartbeat IPC: 1.109 cumulative IPC: 1.537 (Simulation time: 00 hr 05 min 01 sec)
Heartbeat CPU 0 instructions: 36000231 cycles: 23545671 heartbeat IPC: 1.109 cumulative IPC: 1.529 (Simulation time: 00 hr 05 min 07 sec)
Heartbeat CPU 0 instructions: 36500235 cycles: 23983513 heartbeat IPC: 1.142 cumulative IPC: 1.522 (Simulation time: 00 hr 05 min 12 sec)
Heartbeat CPU 0 instructions: 37000236 cycles: 24418721 heartbeat IPC: 1.149 cumulative IPC: 1.515 (Simulation time: 00 hr 05 min 17 sec)
Heartbeat CPU 0 instructions: 37500236 cycles: 24800910 heartbeat IPC: 1.308 cumulative IPC: 1.512 (Simulation time: 00 hr 05 min 21 sec)
Heartbeat CPU 0 instructions: 38000236 cycles: 25181066 heartbeat IPC: 1.315 cumulative IPC: 1.509 (Simulation time: 00 hr 05 min 25 sec)
Heartbeat CPU 0 instructions: 38500236 cycles: 25564706 heartbeat IPC: 1.303 cumulative IPC: 1.506 (Simulation time: 00 hr 05 min 29 sec)
Heartbeat CPU 0 instructions: 39000238 cycles: 25947122 heartbeat IPC: 1.307 cumulative IPC: 1.503 (Simulation time: 00 hr 05 min 33 sec)
Heartbeat CPU 0 instructions: 39500238 cycles: 26330951 heartbeat IPC: 1.303 cumulative IPC: 1.5 (Simulation time: 00 hr 05 min 37 sec)
Heartbeat CPU 0 instructions: 40000238 cycles: 26758530 heartbeat IPC: 1.169 cumulative IPC: 1.495 (Simulation time: 00 hr 05 min 42 sec)
Heartbeat CPU 0 instructions: 40500245 cycles: 27212228 heartbeat IPC: 1.102 cumulative IPC: 1.488 (Simulation time: 00 hr 05 min 47 sec)
Heartbeat CPU 0 instructions: 41000251 cycles: 27671089 heartbeat IPC: 1.09 cumulative IPC: 1.482 (Simulation time: 00 hr 05 min 52 sec)
Heartbeat CPU 0 instructions: 41500256 cycles: 28128785 heartbeat IPC: 1.092 cumulative IPC: 1.475 (Simulation time: 00 hr 05 min 57 sec)
Heartbeat CPU 0 instructions: 42000259 cycles: 28574368 heartbeat IPC: 1.122 cumulative IPC: 1.47 (Simulation time: 00 hr 06 min 02 sec)
Heartbeat CPU 0 instructions: 42500259 cycles: 29030078 heartbeat IPC: 1.097 cumulative IPC: 1.464 (Simulation time: 00 hr 06 min 07 sec)
Heartbeat CPU 0 instructions: 43000262 cycles: 29414309 heartbeat IPC: 1.301 cumulative IPC: 1.462 (Simulation time: 00 hr 06 min 11 sec)
Heartbeat CPU 0 instructions: 43500267 cycles: 29787989 heartbeat IPC: 1.338 cumulative IPC: 1.46 (Simulation time: 00 hr 06 min 15 sec)
Heartbeat CPU 0 instructions: 44000270 cycles: 30243321 heartbeat IPC: 1.098 cumulative IPC: 1.455 (Simulation time: 00 hr 06 min 20 sec)
Heartbeat CPU 0 instructions: 44500275 cycles: 30701692 heartbeat IPC: 1.091 cumulative IPC: 1.449 (Simulation time: 00 hr 06 min 25 sec)
Heartbeat CPU 0 instructions: 45000280 cycles: 31153660 heartbeat IPC: 1.106 cumulative IPC: 1.444 (Simulation time: 00 hr 06 min 30 sec)
Heartbeat CPU 0 instructions: 45500286 cycles: 31609479 heartbeat IPC: 1.097 cumulative IPC: 1.439 (Simulation time: 00 hr 06 min 35 sec)
Heartbeat CPU 0 instructions: 46000289 cycles: 32053566 heartbeat IPC: 1.126 cumulative IPC: 1.435 (Simulation time: 00 hr 06 min 40 sec)
Heartbeat CPU 0 instructions: 46500289 cycles: 32472927 heartbeat IPC: 1.192 cumulative IPC: 1.432 (Simulation time: 00 hr 06 min 45 sec)
Heartbeat CPU 0 instructions: 47000296 cycles: 32855910 heartbeat IPC: 1.306 cumulative IPC: 1.43 (Simulation time: 00 hr 06 min 49 sec)
Heartbeat CPU 0 instructions: 47500298 cycles: 33233232 heartbeat IPC: 1.325 cumulative IPC: 1.429 (Simulation time: 00 hr 06 min 53 sec)
Heartbeat CPU 0 instructions: 48000298 cycles: 33610988 heartbeat IPC: 1.324 cumulative IPC: 1.428 (Simulation time: 00 hr 06 min 57 sec)
Heartbeat CPU 0 instructions: 48500299 cycles: 33991215 heartbeat IPC: 1.315 cumulative IPC: 1.427 (Simulation time: 00 hr 07 min 02 sec)
Heartbeat CPU 0 instructions: 49000305 cycles: 34371413 heartbeat IPC: 1.315 cumulative IPC: 1.426 (Simulation time: 00 hr 07 min 06 sec)
Heartbeat CPU 0 instructions: 49500311 cycles: 34752166 heartbeat IPC: 1.313 cumulative IPC: 1.424 (Simulation time: 00 hr 07 min 10 sec)
Warmup halting CPU 0 at instruction 50000002 cycle 35133599 for remainder of phase
Warmup finished CPU 0 instructions: 50000002 cycles: 35133599 cumulative IPC: 1.423 (Simulation time: 00 hr 07 min 14 sec)
Warmup complete CPU 0 instructions: 50000002 cycles: 35133599 cumulative IPC: 1.423 (Simulation time: 00 hr 07 min 14 sec)
Heartbeat CPU 0 instructions: 50000318 cycles: 35136010 heartbeat IPC: 1.303 cumulative IPC: 0.1311 (Simulation time: 00 hr 07 min 14 sec)
Heartbeat CPU 0 instructions: 50500319 cycles: 40433208 heartbeat IPC: 0.09439 cumulative IPC: 0.09441 (Simulation time: 00 hr 08 min 25 sec)
Heartbeat CPU 0 instructions: 51000326 cycles: 46114200 heartbeat IPC: 0.08801 cumulative IPC: 0.0911 (Simulation time: 00 hr 09 min 40 sec)
Heartbeat CPU 0 instructions: 51500329 cycles: 51781635 heartbeat IPC: 0.08822 cumulative IPC: 0.09012 (Simulation time: 00 hr 10 min 54 sec)
Heartbeat CPU 0 instructions: 52000333 cycles: 57463349 heartbeat IPC: 0.088 cumulative IPC: 0.08958 (Simulation time: 00 hr 12 min 09 sec)
Heartbeat CPU 0 instructions: 52500333 cycles: 63146530 heartbeat IPC: 0.08798 cumulative IPC: 0.08926 (Simulation time: 00 hr 13 min 24 sec)
Heartbeat CPU 0 instructions: 53000339 cycles: 68811931 heartbeat IPC: 0.08826 cumulative IPC: 0.08909 (Simulation time: 00 hr 14 min 39 sec)
Heartbeat CPU 0 instructions: 53500346 cycles: 73164275 heartbeat IPC: 0.1149 cumulative IPC: 0.09204 (Simulation time: 00 hr 15 min 36 sec)
Heartbeat CPU 0 instructions: 54000348 cycles: 77623501 heartbeat IPC: 0.1121 cumulative IPC: 0.09415 (Simulation time: 00 hr 16 min 34 sec)
Heartbeat CPU 0 instructions: 54500355 cycles: 83303462 heartbeat IPC: 0.08803 cumulative IPC: 0.09343 (Simulation time: 00 hr 17 min 49 sec)
Heartbeat CPU 0 instructions: 55000360 cycles: 88977895 heartbeat IPC: 0.08812 cumulative IPC: 0.09287 (Simulation time: 00 hr 19 min 03 sec)
Heartbeat CPU 0 instructions: 55500363 cycles: 94643072 heartbeat IPC: 0.08826 cumulative IPC: 0.09243 (Simulation time: 00 hr 20 min 17 sec)
Heartbeat CPU 0 instructions: 56000364 cycles: 100314441 heartbeat IPC: 0.08816 cumulative IPC: 0.09206 (Simulation time: 00 hr 21 min 30 sec)
Heartbeat CPU 0 instructions: 56500366 cycles: 105975083 heartbeat IPC: 0.08833 cumulative IPC: 0.09176 (Simulation time: 00 hr 22 min 43 sec)
Heartbeat CPU 0 instructions: 57000369 cycles: 110968782 heartbeat IPC: 0.1001 cumulative IPC: 0.09231 (Simulation time: 00 hr 23 min 46 sec)
Heartbeat CPU 0 instructions: 57500372 cycles: 115300350 heartbeat IPC: 0.1154 cumulative IPC: 0.09356 (Simulation time: 00 hr 24 min 40 sec)
Heartbeat CPU 0 instructions: 58000372 cycles: 119585427 heartbeat IPC: 0.1167 cumulative IPC: 0.09473 (Simulation time: 00 hr 25 min 33 sec)
Heartbeat CPU 0 instructions: 58500376 cycles: 123927889 heartbeat IPC: 0.1151 cumulative IPC: 0.09573 (Simulation time: 00 hr 26 min 27 sec)
Heartbeat CPU 0 instructions: 59000376 cycles: 128245310 heartbeat IPC: 0.1158 cumulative IPC: 0.09666 (Simulation time: 00 hr 27 min 19 sec)
Heartbeat CPU 0 instructions: 59500379 cycles: 132550782 heartbeat IPC: 0.1161 cumulative IPC: 0.09752 (Simulation time: 00 hr 28 min 11 sec)
Heartbeat CPU 0 instructions: 60000380 cycles: 136872147 heartbeat IPC: 0.1157 cumulative IPC: 0.09829 (Simulation time: 00 hr 29 min 02 sec)
Heartbeat CPU 0 instructions: 60500380 cycles: 141186777 heartbeat IPC: 0.1159 cumulative IPC: 0.09901 (Simulation time: 00 hr 29 min 53 sec)
Heartbeat CPU 0 instructions: 61000385 cycles: 146588652 heartbeat IPC: 0.09256 cumulative IPC: 0.0987 (Simulation time: 00 hr 30 min 55 sec)
Heartbeat CPU 0 instructions: 61500388 cycles: 152284686 heartbeat IPC: 0.08778 cumulative IPC: 0.09817 (Simulation time: 00 hr 32 min 02 sec)
Heartbeat CPU 0 instructions: 62000393 cycles: 157976548 heartbeat IPC: 0.08785 cumulative IPC: 0.09769 (Simulation time: 00 hr 33 min 08 sec)
Heartbeat CPU 0 instructions: 62500398 cycles: 163642002 heartbeat IPC: 0.08826 cumulative IPC: 0.09727 (Simulation time: 00 hr 34 min 13 sec)
Heartbeat CPU 0 instructions: 63000400 cycles: 169312003 heartbeat IPC: 0.08818 cumulative IPC: 0.09689 (Simulation time: 00 hr 35 min 19 sec)
Heartbeat CPU 0 instructions: 63500402 cycles: 174937172 heartbeat IPC: 0.08889 cumulative IPC: 0.09657 (Simulation time: 00 hr 36 min 23 sec)
Heartbeat CPU 0 instructions: 64000406 cycles: 179266542 heartbeat IPC: 0.1155 cumulative IPC: 0.09714 (Simulation time: 00 hr 37 min 12 sec)
Heartbeat CPU 0 instructions: 64500407 cycles: 183786973 heartbeat IPC: 0.1106 cumulative IPC: 0.09755 (Simulation time: 00 hr 38 min 04 sec)
Heartbeat CPU 0 instructions: 65000414 cycles: 189467876 heartbeat IPC: 0.08802 cumulative IPC: 0.09719 (Simulation time: 00 hr 39 min 09 sec)
Heartbeat CPU 0 instructions: 65500414 cycles: 195105631 heartbeat IPC: 0.08869 cumulative IPC: 0.09689 (Simulation time: 00 hr 40 min 15 sec)
Heartbeat CPU 0 instructions: 66000415 cycles: 200769678 heartbeat IPC: 0.08828 cumulative IPC: 0.0966 (Simulation time: 00 hr 41 min 20 sec)
Heartbeat CPU 0 instructions: 66500418 cycles: 206473083 heartbeat IPC: 0.08767 cumulative IPC: 0.0963 (Simulation time: 00 hr 42 min 26 sec)
Heartbeat CPU 0 instructions: 67000424 cycles: 212158858 heartbeat IPC: 0.08794 cumulative IPC: 0.09603 (Simulation time: 00 hr 43 min 31 sec)
Heartbeat CPU 0 instructions: 67500425 cycles: 217054960 heartbeat IPC: 0.1021 cumulative IPC: 0.0962 (Simulation time: 00 hr 44 min 27 sec)
Heartbeat CPU 0 instructions: 68000428 cycles: 221382217 heartbeat IPC: 0.1155 cumulative IPC: 0.09665 (Simulation time: 00 hr 45 min 17 sec)
Heartbeat CPU 0 instructions: 68500432 cycles: 225696291 heartbeat IPC: 0.1159 cumulative IPC: 0.09708 (Simulation time: 00 hr 46 min 05 sec)
Heartbeat CPU 0 instructions: 69000438 cycles: 230011801 heartbeat IPC: 0.1159 cumulative IPC: 0.0975 (Simulation time: 00 hr 46 min 54 sec)
Heartbeat CPU 0 instructions: 69500445 cycles: 234310743 heartbeat IPC: 0.1163 cumulative IPC: 0.09791 (Simulation time: 00 hr 47 min 43 sec)
Heartbeat CPU 0 instructions: 70000451 cycles: 238633738 heartbeat IPC: 0.1157 cumulative IPC: 0.09828 (Simulation time: 00 hr 48 min 32 sec)
Heartbeat CPU 0 instructions: 70500452 cycles: 242914183 heartbeat IPC: 0.1168 cumulative IPC: 0.09866 (Simulation time: 00 hr 49 min 20 sec)
Heartbeat CPU 0 instructions: 71000455 cycles: 247229281 heartbeat IPC: 0.1159 cumulative IPC: 0.09901 (Simulation time: 00 hr 50 min 09 sec)
Heartbeat CPU 0 instructions: 71500461 cycles: 252706949 heartbeat IPC: 0.09128 cumulative IPC: 0.09882 (Simulation time: 00 hr 51 min 12 sec)
Heartbeat CPU 0 instructions: 72000466 cycles: 258386552 heartbeat IPC: 0.08804 cumulative IPC: 0.09855 (Simulation time: 00 hr 52 min 18 sec)
Heartbeat CPU 0 instructions: 72500468 cycles: 264051670 heartbeat IPC: 0.08826 cumulative IPC: 0.09829 (Simulation time: 00 hr 53 min 23 sec)
Heartbeat CPU 0 instructions: 73000474 cycles: 269726235 heartbeat IPC: 0.08811 cumulative IPC: 0.09804 (Simulation time: 00 hr 54 min 28 sec)
Heartbeat CPU 0 instructions: 73500478 cycles: 275392920 heartbeat IPC: 0.08824 cumulative IPC: 0.09781 (Simulation time: 00 hr 55 min 34 sec)
Heartbeat CPU 0 instructions: 74000478 cycles: 280910459 heartbeat IPC: 0.09062 cumulative IPC: 0.09765 (Simulation time: 00 hr 56 min 37 sec)
Heartbeat CPU 0 instructions: 74500485 cycles: 285215628 heartbeat IPC: 0.1161 cumulative IPC: 0.09797 (Simulation time: 00 hr 57 min 26 sec)
Heartbeat CPU 0 instructions: 75000489 cycles: 289875885 heartbeat IPC: 0.1073 cumulative IPC: 0.09814 (Simulation time: 00 hr 58 min 19 sec)
Heartbeat CPU 0 instructions: 75500496 cycles: 295551638 heartbeat IPC: 0.0881 cumulative IPC: 0.09792 (Simulation time: 00 hr 59 min 24 sec)
Heartbeat CPU 0 instructions: 76000502 cycles: 301218576 heartbeat IPC: 0.08823 cumulative IPC: 0.09772 (Simulation time: 01 hr 00 min 30 sec)
Heartbeat CPU 0 instructions: 76500502 cycles: 306874164 heartbeat IPC: 0.08841 cumulative IPC: 0.09752 (Simulation time: 01 hr 01 min 35 sec)
Heartbeat CPU 0 instructions: 77000509 cycles: 312549521 heartbeat IPC: 0.0881 cumulative IPC: 0.09733 (Simulation time: 01 hr 02 min 41 sec)
Heartbeat CPU 0 instructions: 77500514 cycles: 318227112 heartbeat IPC: 0.08807 cumulative IPC: 0.09714 (Simulation time: 01 hr 03 min 46 sec)
Heartbeat CPU 0 instructions: 78000516 cycles: 323019595 heartbeat IPC: 0.1043 cumulative IPC: 0.09726 (Simulation time: 01 hr 04 min 41 sec)
Heartbeat CPU 0 instructions: 78500523 cycles: 327346581 heartbeat IPC: 0.1156 cumulative IPC: 0.09753 (Simulation time: 01 hr 05 min 30 sec)
Heartbeat CPU 0 instructions: 79000529 cycles: 331646413 heartbeat IPC: 0.1163 cumulative IPC: 0.09781 (Simulation time: 01 hr 06 min 18 sec)
Heartbeat CPU 0 instructions: 79500536 cycles: 335971840 heartbeat IPC: 0.1156 cumulative IPC: 0.09806 (Simulation time: 01 hr 07 min 07 sec)
Heartbeat CPU 0 instructions: 80000539 cycles: 340275686 heartbeat IPC: 0.1162 cumulative IPC: 0.09832 (Simulation time: 01 hr 07 min 56 sec)
Heartbeat CPU 0 instructions: 80500540 cycles: 344570462 heartbeat IPC: 0.1164 cumulative IPC: 0.09857 (Simulation time: 01 hr 08 min 44 sec)
Heartbeat CPU 0 instructions: 81000547 cycles: 348857284 heartbeat IPC: 0.1166 cumulative IPC: 0.09881 (Simulation time: 01 hr 09 min 33 sec)
Heartbeat CPU 0 instructions: 81500553 cycles: 353163023 heartbeat IPC: 0.1161 cumulative IPC: 0.09905 (Simulation time: 01 hr 10 min 21 sec)
Heartbeat CPU 0 instructions: 82000557 cycles: 358732508 heartbeat IPC: 0.08978 cumulative IPC: 0.09889 (Simulation time: 01 hr 11 min 24 sec)
Heartbeat CPU 0 instructions: 82500562 cycles: 364419250 heartbeat IPC: 0.08792 cumulative IPC: 0.0987 (Simulation time: 01 hr 12 min 29 sec)
Heartbeat CPU 0 instructions: 83000567 cycles: 370078788 heartbeat IPC: 0.08835 cumulative IPC: 0.09853 (Simulation time: 01 hr 13 min 34 sec)
Heartbeat CPU 0 instructions: 83500571 cycles: 375778113 heartbeat IPC: 0.08773 cumulative IPC: 0.09834 (Simulation time: 01 hr 14 min 39 sec)
Heartbeat CPU 0 instructions: 84000577 cycles: 381476850 heartbeat IPC: 0.08774 cumulative IPC: 0.09817 (Simulation time: 01 hr 15 min 44 sec)
Heartbeat CPU 0 instructions: 84500577 cycles: 386890791 heartbeat IPC: 0.09235 cumulative IPC: 0.09808 (Simulation time: 01 hr 16 min 45 sec)
Heartbeat CPU 0 instructions: 85000579 cycles: 391217149 heartbeat IPC: 0.1156 cumulative IPC: 0.09829 (Simulation time: 01 hr 17 min 34 sec)
Heartbeat CPU 0 instructions: 85500582 cycles: 395940536 heartbeat IPC: 0.1059 cumulative IPC: 0.09839 (Simulation time: 01 hr 18 min 27 sec)
Heartbeat CPU 0 instructions: 86000584 cycles: 401637661 heartbeat IPC: 0.08776 cumulative IPC: 0.09823 (Simulation time: 01 hr 19 min 32 sec)
Heartbeat CPU 0 instructions: 86500586 cycles: 407300109 heartbeat IPC: 0.0883 cumulative IPC: 0.09808 (Simulation time: 01 hr 20 min 37 sec)
Heartbeat CPU 0 instructions: 87000592 cycles: 412997802 heartbeat IPC: 0.08776 cumulative IPC: 0.09792 (Simulation time: 01 hr 21 min 42 sec)
Heartbeat CPU 0 instructions: 87500593 cycles: 418690032 heartbeat IPC: 0.08784 cumulative IPC: 0.09777 (Simulation time: 01 hr 22 min 47 sec)
Heartbeat CPU 0 instructions: 88000599 cycles: 424375066 heartbeat IPC: 0.08795 cumulative IPC: 0.09763 (Simulation time: 01 hr 23 min 52 sec)
Heartbeat CPU 0 instructions: 88500602 cycles: 429106572 heartbeat IPC: 0.1057 cumulative IPC: 0.09772 (Simulation time: 01 hr 24 min 45 sec)
Heartbeat CPU 0 instructions: 89000609 cycles: 433405919 heartbeat IPC: 0.1163 cumulative IPC: 0.09792 (Simulation time: 01 hr 25 min 33 sec)
Heartbeat CPU 0 instructions: 89500616 cycles: 437724861 heartbeat IPC: 0.1158 cumulative IPC: 0.09812 (Simulation time: 01 hr 26 min 22 sec)
Heartbeat CPU 0 instructions: 90000622 cycles: 442047817 heartbeat IPC: 0.1157 cumulative IPC: 0.0983 (Simulation time: 01 hr 27 min 10 sec)
Heartbeat CPU 0 instructions: 90500622 cycles: 446343016 heartbeat IPC: 0.1164 cumulative IPC: 0.09849 (Simulation time: 01 hr 27 min 58 sec)
Heartbeat CPU 0 instructions: 91000626 cycles: 450650628 heartbeat IPC: 0.1161 cumulative IPC: 0.09867 (Simulation time: 01 hr 28 min 46 sec)
Heartbeat CPU 0 instructions: 91500627 cycles: 454939509 heartbeat IPC: 0.1166 cumulative IPC: 0.09886 (Simulation time: 01 hr 29 min 34 sec)
Heartbeat CPU 0 instructions: 92000628 cycles: 459245475 heartbeat IPC: 0.1161 cumulative IPC: 0.09903 (Simulation time: 01 hr 30 min 23 sec)
Heartbeat CPU 0 instructions: 92500629 cycles: 464909414 heartbeat IPC: 0.08828 cumulative IPC: 0.09889 (Simulation time: 01 hr 31 min 27 sec)
Heartbeat CPU 0 instructions: 93000636 cycles: 470573869 heartbeat IPC: 0.08827 cumulative IPC: 0.09875 (Simulation time: 01 hr 32 min 32 sec)
Heartbeat CPU 0 instructions: 93500642 cycles: 476264660 heartbeat IPC: 0.08786 cumulative IPC: 0.09861 (Simulation time: 01 hr 33 min 37 sec)
Heartbeat CPU 0 instructions: 94000649 cycles: 481956284 heartbeat IPC: 0.08785 cumulative IPC: 0.09847 (Simulation time: 01 hr 34 min 42 sec)
Heartbeat CPU 0 instructions: 94500651 cycles: 487661809 heartbeat IPC: 0.08763 cumulative IPC: 0.09834 (Simulation time: 01 hr 35 min 47 sec)
Heartbeat CPU 0 instructions: 95000652 cycles: 492978225 heartbeat IPC: 0.09405 cumulative IPC: 0.09829 (Simulation time: 01 hr 36 min 47 sec)
Heartbeat CPU 0 instructions: 95500659 cycles: 497273288 heartbeat IPC: 0.1164 cumulative IPC: 0.09846 (Simulation time: 01 hr 37 min 35 sec)
Heartbeat CPU 0 instructions: 96000662 cycles: 502099377 heartbeat IPC: 0.1036 cumulative IPC: 0.09851 (Simulation time: 01 hr 38 min 29 sec)
Heartbeat CPU 0 instructions: 96500662 cycles: 507801948 heartbeat IPC: 0.08768 cumulative IPC: 0.09838 (Simulation time: 01 hr 39 min 34 sec)
Heartbeat CPU 0 instructions: 97000664 cycles: 513451467 heartbeat IPC: 0.0885 cumulative IPC: 0.09826 (Simulation time: 01 hr 40 min 39 sec)
Heartbeat CPU 0 instructions: 97500670 cycles: 519103407 heartbeat IPC: 0.08847 cumulative IPC: 0.09815 (Simulation time: 01 hr 41 min 43 sec)
Heartbeat CPU 0 instructions: 98000673 cycles: 524797030 heartbeat IPC: 0.08782 cumulative IPC: 0.09803 (Simulation time: 01 hr 42 min 48 sec)
Heartbeat CPU 0 instructions: 98500679 cycles: 530480264 heartbeat IPC: 0.08798 cumulative IPC: 0.09791 (Simulation time: 01 hr 43 min 53 sec)
Heartbeat CPU 0 instructions: 99000679 cycles: 535095425 heartbeat IPC: 0.1083 cumulative IPC: 0.09801 (Simulation time: 01 hr 44 min 45 sec)
Heartbeat CPU 0 instructions: 99500679 cycles: 539428302 heartbeat IPC: 0.1154 cumulative IPC: 0.09816 (Simulation time: 01 hr 45 min 34 sec)
Heartbeat CPU 0 instructions: 100000680 cycles: 543728966 heartbeat IPC: 0.1163 cumulative IPC: 0.09831 (Simulation time: 01 hr 46 min 22 sec)
Heartbeat CPU 0 instructions: 100500680 cycles: 548046213 heartbeat IPC: 0.1158 cumulative IPC: 0.09846 (Simulation time: 01 hr 47 min 11 sec)
Heartbeat CPU 0 instructions: 101000683 cycles: 552366490 heartbeat IPC: 0.1157 cumulative IPC: 0.0986 (Simulation time: 01 hr 47 min 59 sec)
Heartbeat CPU 0 instructions: 101500687 cycles: 556673068 heartbeat IPC: 0.1161 cumulative IPC: 0.09875 (Simulation time: 01 hr 48 min 47 sec)
Heartbeat CPU 0 instructions: 102000688 cycles: 560968870 heartbeat IPC: 0.1164 cumulative IPC: 0.09889 (Simulation time: 01 hr 49 min 35 sec)
Heartbeat CPU 0 instructions: 102500693 cycles: 565348016 heartbeat IPC: 0.1142 cumulative IPC: 0.09902 (Simulation time: 01 hr 50 min 24 sec)
Heartbeat CPU 0 instructions: 103000699 cycles: 571054190 heartbeat IPC: 0.08763 cumulative IPC: 0.0989 (Simulation time: 01 hr 51 min 29 sec)
Heartbeat CPU 0 instructions: 103500699 cycles: 576717446 heartbeat IPC: 0.08829 cumulative IPC: 0.09879 (Simulation time: 01 hr 52 min 34 sec)
Heartbeat CPU 0 instructions: 104000699 cycles: 582417255 heartbeat IPC: 0.08772 cumulative IPC: 0.09867 (Simulation time: 01 hr 53 min 39 sec)
Heartbeat CPU 0 instructions: 104500704 cycles: 588093998 heartbeat IPC: 0.08808 cumulative IPC: 0.09856 (Simulation time: 01 hr 54 min 44 sec)
Heartbeat CPU 0 instructions: 105000705 cycles: 593785604 heartbeat IPC: 0.08785 cumulative IPC: 0.09845 (Simulation time: 01 hr 55 min 49 sec)
Heartbeat CPU 0 instructions: 105500706 cycles: 599049326 heartbeat IPC: 0.09499 cumulative IPC: 0.09842 (Simulation time: 01 hr 56 min 49 sec)
Heartbeat CPU 0 instructions: 106000713 cycles: 603370639 heartbeat IPC: 0.1157 cumulative IPC: 0.09855 (Simulation time: 01 hr 57 min 37 sec)
Heartbeat CPU 0 instructions: 106500718 cycles: 608308758 heartbeat IPC: 0.1013 cumulative IPC: 0.09857 (Simulation time: 01 hr 58 min 33 sec)
Heartbeat CPU 0 instructions: 107000718 cycles: 613977890 heartbeat IPC: 0.0882 cumulative IPC: 0.09847 (Simulation time: 01 hr 59 min 37 sec)
Heartbeat CPU 0 instructions: 107500719 cycles: 619640918 heartbeat IPC: 0.08829 cumulative IPC: 0.09837 (Simulation time: 02 hr 00 min 42 sec)
Heartbeat CPU 0 instructions: 108000720 cycles: 625332843 heartbeat IPC: 0.08784 cumulative IPC: 0.09827 (Simulation time: 02 hr 01 min 47 sec)
Heartbeat CPU 0 instructions: 108500722 cycles: 631032055 heartbeat IPC: 0.08773 cumulative IPC: 0.09817 (Simulation time: 02 hr 02 min 52 sec)
Heartbeat CPU 0 instructions: 109000726 cycles: 636690442 heartbeat IPC: 0.08837 cumulative IPC: 0.09808 (Simulation time: 02 hr 03 min 56 sec)
Heartbeat CPU 0 instructions: 109500728 cycles: 641241971 heartbeat IPC: 0.1099 cumulative IPC: 0.09817 (Simulation time: 02 hr 04 min 48 sec)
Heartbeat CPU 0 instructions: 110000730 cycles: 645565811 heartbeat IPC: 0.1156 cumulative IPC: 0.09829 (Simulation time: 02 hr 05 min 36 sec)
Heartbeat CPU 0 instructions: 110500736 cycles: 649855519 heartbeat IPC: 0.1166 cumulative IPC: 0.09842 (Simulation time: 02 hr 06 min 24 sec)
Heartbeat CPU 0 instructions: 111000739 cycles: 654187376 heartbeat IPC: 0.1154 cumulative IPC: 0.09854 (Simulation time: 02 hr 07 min 13 sec)
Heartbeat CPU 0 instructions: 111500743 cycles: 658504163 heartbeat IPC: 0.1158 cumulative IPC: 0.09866 (Simulation time: 02 hr 08 min 01 sec)
Heartbeat CPU 0 instructions: 112000745 cycles: 662795099 heartbeat IPC: 0.1165 cumulative IPC: 0.09878 (Simulation time: 02 hr 08 min 49 sec)
Heartbeat CPU 0 instructions: 112500747 cycles: 667085866 heartbeat IPC: 0.1165 cumulative IPC: 0.0989 (Simulation time: 02 hr 09 min 38 sec)
Heartbeat CPU 0 instructions: 113000752 cycles: 671570466 heartbeat IPC: 0.1115 cumulative IPC: 0.09899 (Simulation time: 02 hr 10 min 28 sec)
Heartbeat CPU 0 instructions: 113500753 cycles: 677274439 heartbeat IPC: 0.08766 cumulative IPC: 0.09889 (Simulation time: 02 hr 11 min 33 sec)
Heartbeat CPU 0 instructions: 114000759 cycles: 682930905 heartbeat IPC: 0.0884 cumulative IPC: 0.0988 (Simulation time: 02 hr 12 min 38 sec)
Heartbeat CPU 0 instructions: 114500765 cycles: 688624713 heartbeat IPC: 0.08782 cumulative IPC: 0.0987 (Simulation time: 02 hr 13 min 43 sec)
Heartbeat CPU 0 instructions: 115000767 cycles: 694305716 heartbeat IPC: 0.08801 cumulative IPC: 0.09861 (Simulation time: 02 hr 14 min 48 sec)
Heartbeat CPU 0 instructions: 115500773 cycles: 699988216 heartbeat IPC: 0.08799 cumulative IPC: 0.09852 (Simulation time: 02 hr 15 min 53 sec)
Heartbeat CPU 0 instructions: 116000778 cycles: 705105193 heartbeat IPC: 0.09771 cumulative IPC: 0.09851 (Simulation time: 02 hr 16 min 51 sec)
Heartbeat CPU 0 instructions: 116500785 cycles: 709416846 heartbeat IPC: 0.116 cumulative IPC: 0.09862 (Simulation time: 02 hr 17 min 39 sec)
Heartbeat CPU 0 instructions: 117000787 cycles: 714428406 heartbeat IPC: 0.09977 cumulative IPC: 0.09863 (Simulation time: 02 hr 18 min 36 sec)
Heartbeat CPU 0 instructions: 117500793 cycles: 720096279 heartbeat IPC: 0.08822 cumulative IPC: 0.09855 (Simulation time: 02 hr 19 min 41 sec)
Heartbeat CPU 0 instructions: 118000795 cycles: 725752824 heartbeat IPC: 0.08839 cumulative IPC: 0.09846 (Simulation time: 02 hr 20 min 46 sec)
Heartbeat CPU 0 instructions: 118500802 cycles: 731406649 heartbeat IPC: 0.08844 cumulative IPC: 0.09838 (Simulation time: 02 hr 21 min 51 sec)
Heartbeat CPU 0 instructions: 119000803 cycles: 737085280 heartbeat IPC: 0.08805 cumulative IPC: 0.0983 (Simulation time: 02 hr 22 min 56 sec)
Heartbeat CPU 0 instructions: 119500804 cycles: 742750737 heartbeat IPC: 0.08825 cumulative IPC: 0.09822 (Simulation time: 02 hr 24 min 00 sec)
Heartbeat CPU 0 instructions: 120000805 cycles: 747181102 heartbeat IPC: 0.1129 cumulative IPC: 0.09831 (Simulation time: 02 hr 24 min 50 sec)
Heartbeat CPU 0 instructions: 120500805 cycles: 751469321 heartbeat IPC: 0.1166 cumulative IPC: 0.09842 (Simulation time: 02 hr 25 min 38 sec)
Heartbeat CPU 0 instructions: 121000807 cycles: 755760219 heartbeat IPC: 0.1165 cumulative IPC: 0.09853 (Simulation time: 02 hr 26 min 26 sec)
Heartbeat CPU 0 instructions: 121500814 cycles: 760062413 heartbeat IPC: 0.1162 cumulative IPC: 0.09863 (Simulation time: 02 hr 27 min 15 sec)
Heartbeat CPU 0 instructions: 122000819 cycles: 764345107 heartbeat IPC: 0.1168 cumulative IPC: 0.09874 (Simulation time: 02 hr 28 min 03 sec)
Heartbeat CPU 0 instructions: 122500824 cycles: 768639522 heartbeat IPC: 0.1164 cumulative IPC: 0.09884 (Simulation time: 02 hr 28 min 50 sec)
Heartbeat CPU 0 instructions: 123000830 cycles: 772949351 heartbeat IPC: 0.116 cumulative IPC: 0.09894 (Simulation time: 02 hr 29 min 39 sec)
Heartbeat CPU 0 instructions: 123500831 cycles: 777528933 heartbeat IPC: 0.1092 cumulative IPC: 0.099 (Simulation time: 02 hr 30 min 30 sec)
Heartbeat CPU 0 instructions: 124000837 cycles: 783239418 heartbeat IPC: 0.08756 cumulative IPC: 0.09892 (Simulation time: 02 hr 31 min 36 sec)
Heartbeat CPU 0 instructions: 124500843 cycles: 788915786 heartbeat IPC: 0.08809 cumulative IPC: 0.09884 (Simulation time: 02 hr 32 min 41 sec)
Heartbeat CPU 0 instructions: 125000848 cycles: 794591320 heartbeat IPC: 0.0881 cumulative IPC: 0.09876 (Simulation time: 02 hr 33 min 45 sec)
Heartbeat CPU 0 instructions: 125500855 cycles: 800308723 heartbeat IPC: 0.08745 cumulative IPC: 0.09867 (Simulation time: 02 hr 34 min 51 sec)
Heartbeat CPU 0 instructions: 126000858 cycles: 805978771 heartbeat IPC: 0.08818 cumulative IPC: 0.09859 (Simulation time: 02 hr 35 min 56 sec)
Heartbeat CPU 0 instructions: 126500864 cycles: 811049287 heartbeat IPC: 0.09861 cumulative IPC: 0.09859 (Simulation time: 02 hr 36 min 53 sec)
Heartbeat CPU 0 instructions: 127000871 cycles: 815341625 heartbeat IPC: 0.1165 cumulative IPC: 0.09869 (Simulation time: 02 hr 37 min 41 sec)
Heartbeat CPU 0 instructions: 127500871 cycles: 820468159 heartbeat IPC: 0.09753 cumulative IPC: 0.09869 (Simulation time: 02 hr 38 min 39 sec)
Heartbeat CPU 0 instructions: 128000873 cycles: 826147373 heartbeat IPC: 0.08804 cumulative IPC: 0.09861 (Simulation time: 02 hr 39 min 44 sec)
Heartbeat CPU 0 instructions: 128500873 cycles: 831823374 heartbeat IPC: 0.08809 cumulative IPC: 0.09853 (Simulation time: 02 hr 40 min 49 sec)
Heartbeat CPU 0 instructions: 129000873 cycles: 837504900 heartbeat IPC: 0.088 cumulative IPC: 0.09846 (Simulation time: 02 hr 41 min 54 sec)
Heartbeat CPU 0 instructions: 129500878 cycles: 843165501 heartbeat IPC: 0.08833 cumulative IPC: 0.09839 (Simulation time: 02 hr 42 min 58 sec)
Heartbeat CPU 0 instructions: 130000885 cycles: 848866080 heartbeat IPC: 0.08771 cumulative IPC: 0.09831 (Simulation time: 02 hr 44 min 04 sec)
Heartbeat CPU 0 instructions: 130500888 cycles: 853204557 heartbeat IPC: 0.1152 cumulative IPC: 0.0984 (Simulation time: 02 hr 44 min 52 sec)
Heartbeat CPU 0 instructions: 131000890 cycles: 857524907 heartbeat IPC: 0.1157 cumulative IPC: 0.09849 (Simulation time: 02 hr 45 min 41 sec)
Heartbeat CPU 0 instructions: 131500895 cycles: 861803965 heartbeat IPC: 0.1168 cumulative IPC: 0.09859 (Simulation time: 02 hr 46 min 29 sec)
Heartbeat CPU 0 instructions: 132000895 cycles: 866116376 heartbeat IPC: 0.1159 cumulative IPC: 0.09868 (Simulation time: 02 hr 47 min 17 sec)
Heartbeat CPU 0 instructions: 132500898 cycles: 870432080 heartbeat IPC: 0.1159 cumulative IPC: 0.09877 (Simulation time: 02 hr 48 min 05 sec)
Heartbeat CPU 0 instructions: 133000899 cycles: 874734500 heartbeat IPC: 0.1162 cumulative IPC: 0.09886 (Simulation time: 02 hr 48 min 53 sec)
Heartbeat CPU 0 instructions: 133500905 cycles: 879052414 heartbeat IPC: 0.1158 cumulative IPC: 0.09894 (Simulation time: 02 hr 49 min 42 sec)
Heartbeat CPU 0 instructions: 134000910 cycles: 883740308 heartbeat IPC: 0.1067 cumulative IPC: 0.09899 (Simulation time: 02 hr 50 min 35 sec)
Heartbeat CPU 0 instructions: 134500917 cycles: 889438217 heartbeat IPC: 0.08775 cumulative IPC: 0.09891 (Simulation time: 02 hr 51 min 40 sec)
Heartbeat CPU 0 instructions: 135000919 cycles: 895081397 heartbeat IPC: 0.0886 cumulative IPC: 0.09884 (Simulation time: 02 hr 52 min 44 sec)
Heartbeat CPU 0 instructions: 135500919 cycles: 900721484 heartbeat IPC: 0.08865 cumulative IPC: 0.09878 (Simulation time: 02 hr 53 min 48 sec)
Heartbeat CPU 0 instructions: 136000926 cycles: 906421183 heartbeat IPC: 0.08773 cumulative IPC: 0.09871 (Simulation time: 02 hr 54 min 53 sec)
Heartbeat CPU 0 instructions: 136500930 cycles: 912096377 heartbeat IPC: 0.0881 cumulative IPC: 0.09864 (Simulation time: 02 hr 55 min 58 sec)
Heartbeat CPU 0 instructions: 137000937 cycles: 917073203 heartbeat IPC: 0.1005 cumulative IPC: 0.09865 (Simulation time: 02 hr 56 min 55 sec)
Heartbeat CPU 0 instructions: 137500940 cycles: 921388212 heartbeat IPC: 0.1159 cumulative IPC: 0.09873 (Simulation time: 02 hr 57 min 43 sec)
Heartbeat CPU 0 instructions: 138000942 cycles: 926608285 heartbeat IPC: 0.09578 cumulative IPC: 0.09871 (Simulation time: 02 hr 58 min 42 sec)
Heartbeat CPU 0 instructions: 138500943 cycles: 932272105 heartbeat IPC: 0.08828 cumulative IPC: 0.09865 (Simulation time: 02 hr 59 min 47 sec)
Heartbeat CPU 0 instructions: 139000944 cycles: 937952005 heartbeat IPC: 0.08803 cumulative IPC: 0.09858 (Simulation time: 03 hr 00 min 52 sec)
Heartbeat CPU 0 instructions: 139500946 cycles: 943619381 heartbeat IPC: 0.08822 cumulative IPC: 0.09852 (Simulation time: 03 hr 01 min 57 sec)
Heartbeat CPU 0 instructions: 140000952 cycles: 949294125 heartbeat IPC: 0.08811 cumulative IPC: 0.09845 (Simulation time: 03 hr 03 min 01 sec)
Heartbeat CPU 0 instructions: 140500958 cycles: 954966750 heartbeat IPC: 0.08814 cumulative IPC: 0.09839 (Simulation time: 03 hr 04 min 06 sec)
Heartbeat CPU 0 instructions: 141000962 cycles: 959223839 heartbeat IPC: 0.1175 cumulative IPC: 0.09848 (Simulation time: 03 hr 04 min 54 sec)
Heartbeat CPU 0 instructions: 141500962 cycles: 963547769 heartbeat IPC: 0.1156 cumulative IPC: 0.09856 (Simulation time: 03 hr 05 min 43 sec)
Heartbeat CPU 0 instructions: 142000967 cycles: 967852430 heartbeat IPC: 0.1162 cumulative IPC: 0.09864 (Simulation time: 03 hr 06 min 31 sec)
Heartbeat CPU 0 instructions: 142500973 cycles: 972167622 heartbeat IPC: 0.1159 cumulative IPC: 0.09872 (Simulation time: 03 hr 07 min 20 sec)
Heartbeat CPU 0 instructions: 143000980 cycles: 976474576 heartbeat IPC: 0.1161 cumulative IPC: 0.0988 (Simulation time: 03 hr 08 min 08 sec)
Heartbeat CPU 0 instructions: 143500986 cycles: 980779603 heartbeat IPC: 0.1161 cumulative IPC: 0.09888 (Simulation time: 03 hr 08 min 56 sec)
Heartbeat CPU 0 instructions: 144000989 cycles: 985086019 heartbeat IPC: 0.1161 cumulative IPC: 0.09895 (Simulation time: 03 hr 09 min 44 sec)
Heartbeat CPU 0 instructions: 144500991 cycles: 989843548 heartbeat IPC: 0.1051 cumulative IPC: 0.09898 (Simulation time: 03 hr 10 min 38 sec)
Heartbeat CPU 0 instructions: 145000993 cycles: 995561206 heartbeat IPC: 0.08745 cumulative IPC: 0.09892 (Simulation time: 03 hr 11 min 43 sec)
Heartbeat CPU 0 instructions: 145500993 cycles: 1001211266 heartbeat IPC: 0.08849 cumulative IPC: 0.09885 (Simulation time: 03 hr 12 min 48 sec)
Heartbeat CPU 0 instructions: 146000996 cycles: 1006911992 heartbeat IPC: 0.08771 cumulative IPC: 0.09879 (Simulation time: 03 hr 13 min 53 sec)
Heartbeat CPU 0 instructions: 146500998 cycles: 1012598201 heartbeat IPC: 0.08793 cumulative IPC: 0.09873 (Simulation time: 03 hr 14 min 58 sec)
Heartbeat CPU 0 instructions: 147001001 cycles: 1018264597 heartbeat IPC: 0.08824 cumulative IPC: 0.09867 (Simulation time: 03 hr 16 min 03 sec)
Heartbeat CPU 0 instructions: 147501003 cycles: 1023152172 heartbeat IPC: 0.1023 cumulative IPC: 0.09868 (Simulation time: 03 hr 16 min 58 sec)
Heartbeat CPU 0 instructions: 148001003 cycles: 1027447675 heartbeat IPC: 0.1164 cumulative IPC: 0.09876 (Simulation time: 03 hr 17 min 46 sec)
Heartbeat CPU 0 instructions: 148501005 cycles: 1032773764 heartbeat IPC: 0.09388 cumulative IPC: 0.09873 (Simulation time: 03 hr 18 min 47 sec)
Heartbeat CPU 0 instructions: 149001009 cycles: 1038460881 heartbeat IPC: 0.08792 cumulative IPC: 0.09867 (Simulation time: 03 hr 19 min 51 sec)
Heartbeat CPU 0 instructions: 149501011 cycles: 1044124837 heartbeat IPC: 0.08828 cumulative IPC: 0.09861 (Simulation time: 03 hr 20 min 56 sec)
Heartbeat CPU 0 instructions: 150001014 cycles: 1049807946 heartbeat IPC: 0.08798 cumulative IPC: 0.09855 (Simulation time: 03 hr 22 min 01 sec)
Heartbeat CPU 0 instructions: 150501014 cycles: 1055511837 heartbeat IPC: 0.08766 cumulative IPC: 0.09849 (Simulation time: 03 hr 23 min 06 sec)
Heartbeat CPU 0 instructions: 151001020 cycles: 1061186187 heartbeat IPC: 0.08812 cumulative IPC: 0.09844 (Simulation time: 03 hr 24 min 11 sec)
Heartbeat CPU 0 instructions: 151501022 cycles: 1065339546 heartbeat IPC: 0.1204 cumulative IPC: 0.09852 (Simulation time: 03 hr 24 min 57 sec)
Heartbeat CPU 0 instructions: 152001022 cycles: 1069649951 heartbeat IPC: 0.116 cumulative IPC: 0.0986 (Simulation time: 03 hr 25 min 45 sec)
Heartbeat CPU 0 instructions: 152501025 cycles: 1073982875 heartbeat IPC: 0.1154 cumulative IPC: 0.09867 (Simulation time: 03 hr 26 min 34 sec)
Heartbeat CPU 0 instructions: 153001030 cycles: 1078285663 heartbeat IPC: 0.1162 cumulative IPC: 0.09874 (Simulation time: 03 hr 27 min 22 sec)
Heartbeat CPU 0 instructions: 153501034 cycles: 1082584657 heartbeat IPC: 0.1163 cumulative IPC: 0.09881 (Simulation time: 03 hr 28 min 10 sec)
Heartbeat CPU 0 instructions: 154001036 cycles: 1086904005 heartbeat IPC: 0.1158 cumulative IPC: 0.09888 (Simulation time: 03 hr 28 min 58 sec)
Heartbeat CPU 0 instructions: 154501040 cycles: 1091214991 heartbeat IPC: 0.116 cumulative IPC: 0.09895 (Simulation time: 03 hr 29 min 47 sec)
Heartbeat CPU 0 instructions: 155001043 cycles: 1096079625 heartbeat IPC: 0.1028 cumulative IPC: 0.09897 (Simulation time: 03 hr 30 min 42 sec)
Heartbeat CPU 0 instructions: 155501045 cycles: 1101761264 heartbeat IPC: 0.088 cumulative IPC: 0.09891 (Simulation time: 03 hr 31 min 47 sec)
Heartbeat CPU 0 instructions: 156001046 cycles: 1107427057 heartbeat IPC: 0.08825 cumulative IPC: 0.09885 (Simulation time: 03 hr 32 min 51 sec)
Heartbeat CPU 0 instructions: 156501049 cycles: 1113084953 heartbeat IPC: 0.08837 cumulative IPC: 0.0988 (Simulation time: 03 hr 33 min 56 sec)
Heartbeat CPU 0 instructions: 157001053 cycles: 1118787359 heartbeat IPC: 0.08768 cumulative IPC: 0.09874 (Simulation time: 03 hr 35 min 01 sec)
Heartbeat CPU 0 instructions: 157501056 cycles: 1124463896 heartbeat IPC: 0.08808 cumulative IPC: 0.09869 (Simulation time: 03 hr 36 min 06 sec)
Heartbeat CPU 0 instructions: 158001063 cycles: 1129217650 heartbeat IPC: 0.1052 cumulative IPC: 0.09871 (Simulation time: 03 hr 36 min 59 sec)
Heartbeat CPU 0 instructions: 158501065 cycles: 1133515447 heartbeat IPC: 0.1163 cumulative IPC: 0.09878 (Simulation time: 03 hr 37 min 47 sec)
Heartbeat CPU 0 instructions: 159001070 cycles: 1138911031 heartbeat IPC: 0.09267 cumulative IPC: 0.09875 (Simulation time: 03 hr 38 min 49 sec)
Heartbeat CPU 0 instructions: 159501070 cycles: 1144593975 heartbeat IPC: 0.08798 cumulative IPC: 0.0987 (Simulation time: 03 hr 39 min 54 sec)
Heartbeat CPU 0 instructions: 160001077 cycles: 1150268966 heartbeat IPC: 0.08811 cumulative IPC: 0.09864 (Simulation time: 03 hr 40 min 59 sec)
Heartbeat CPU 0 instructions: 160501082 cycles: 1155911147 heartbeat IPC: 0.08862 cumulative IPC: 0.09859 (Simulation time: 03 hr 42 min 03 sec)
Heartbeat CPU 0 instructions: 161001083 cycles: 1161598273 heartbeat IPC: 0.08792 cumulative IPC: 0.09854 (Simulation time: 03 hr 43 min 08 sec)
Heartbeat CPU 0 instructions: 161501084 cycles: 1167259249 heartbeat IPC: 0.08832 cumulative IPC: 0.09849 (Simulation time: 03 hr 44 min 13 sec)
Heartbeat CPU 0 instructions: 162001085 cycles: 1171340363 heartbeat IPC: 0.1225 cumulative IPC: 0.09857 (Simulation time: 03 hr 44 min 59 sec)
Heartbeat CPU 0 instructions: 162501089 cycles: 1175630238 heartbeat IPC: 0.1166 cumulative IPC: 0.09864 (Simulation time: 03 hr 45 min 47 sec)
Heartbeat CPU 0 instructions: 163001093 cycles: 1179952801 heartbeat IPC: 0.1157 cumulative IPC: 0.09871 (Simulation time: 03 hr 46 min 36 sec)
Heartbeat CPU 0 instructions: 163501097 cycles: 1184238083 heartbeat IPC: 0.1167 cumulative IPC: 0.09877 (Simulation time: 03 hr 47 min 24 sec)
Heartbeat CPU 0 instructions: 164001099 cycles: 1188549290 heartbeat IPC: 0.116 cumulative IPC: 0.09884 (Simulation time: 03 hr 48 min 12 sec)
Heartbeat CPU 0 instructions: 164501103 cycles: 1192890478 heartbeat IPC: 0.1152 cumulative IPC: 0.0989 (Simulation time: 03 hr 49 min 01 sec)
Heartbeat CPU 0 instructions: 165001110 cycles: 1197200518 heartbeat IPC: 0.116 cumulative IPC: 0.09896 (Simulation time: 03 hr 49 min 49 sec)
Heartbeat CPU 0 instructions: 165501113 cycles: 1202161086 heartbeat IPC: 0.1008 cumulative IPC: 0.09897 (Simulation time: 03 hr 50 min 46 sec)
Heartbeat CPU 0 instructions: 166001120 cycles: 1207834187 heartbeat IPC: 0.08814 cumulative IPC: 0.09892 (Simulation time: 03 hr 51 min 51 sec)
Heartbeat CPU 0 instructions: 166501120 cycles: 1213529265 heartbeat IPC: 0.0878 cumulative IPC: 0.09886 (Simulation time: 03 hr 52 min 56 sec)
Heartbeat CPU 0 instructions: 167001121 cycles: 1219199622 heartbeat IPC: 0.08818 cumulative IPC: 0.09881 (Simulation time: 03 hr 54 min 01 sec)
Heartbeat CPU 0 instructions: 167501124 cycles: 1224898792 heartbeat IPC: 0.08773 cumulative IPC: 0.09876 (Simulation time: 03 hr 55 min 06 sec)
Heartbeat CPU 0 instructions: 168001131 cycles: 1230596121 heartbeat IPC: 0.08776 cumulative IPC: 0.09871 (Simulation time: 03 hr 56 min 11 sec)
Heartbeat CPU 0 instructions: 168501133 cycles: 1235272945 heartbeat IPC: 0.1069 cumulative IPC: 0.09874 (Simulation time: 03 hr 57 min 04 sec)
Heartbeat CPU 0 instructions: 169001134 cycles: 1239609425 heartbeat IPC: 0.1153 cumulative IPC: 0.0988 (Simulation time: 03 hr 57 min 52 sec)
Heartbeat CPU 0 instructions: 169501139 cycles: 1245084812 heartbeat IPC: 0.09132 cumulative IPC: 0.09877 (Simulation time: 03 hr 58 min 55 sec)
Heartbeat CPU 0 instructions: 170001140 cycles: 1250763287 heartbeat IPC: 0.08805 cumulative IPC: 0.09872 (Simulation time: 04 hr 00 min 00 sec)
Heartbeat CPU 0 instructions: 170501147 cycles: 1256419321 heartbeat IPC: 0.0884 cumulative IPC: 0.09867 (Simulation time: 04 hr 01 min 04 sec)
Heartbeat CPU 0 instructions: 171001147 cycles: 1262086755 heartbeat IPC: 0.08822 cumulative IPC: 0.09862 (Simulation time: 04 hr 02 min 09 sec)
Heartbeat CPU 0 instructions: 171501147 cycles: 1267758049 heartbeat IPC: 0.08816 cumulative IPC: 0.09857 (Simulation time: 04 hr 03 min 13 sec)
Heartbeat CPU 0 instructions: 172001147 cycles: 1273115958 heartbeat IPC: 0.09332 cumulative IPC: 0.09855 (Simulation time: 04 hr 04 min 14 sec)
Heartbeat CPU 0 instructions: 172501151 cycles: 1277449629 heartbeat IPC: 0.1154 cumulative IPC: 0.09861 (Simulation time: 04 hr 05 min 03 sec)
Heartbeat CPU 0 instructions: 173001154 cycles: 1281726684 heartbeat IPC: 0.1169 cumulative IPC: 0.09867 (Simulation time: 04 hr 05 min 50 sec)
Heartbeat CPU 0 instructions: 173501161 cycles: 1286037750 heartbeat IPC: 0.116 cumulative IPC: 0.09873 (Simulation time: 04 hr 06 min 39 sec)
Heartbeat CPU 0 instructions: 174001164 cycles: 1290350356 heartbeat IPC: 0.1159 cumulative IPC: 0.09879 (Simulation time: 04 hr 07 min 27 sec)
Heartbeat CPU 0 instructions: 174501171 cycles: 1294661210 heartbeat IPC: 0.116 cumulative IPC: 0.09885 (Simulation time: 04 hr 08 min 16 sec)
Heartbeat CPU 0 instructions: 175001178 cycles: 1298955768 heartbeat IPC: 0.1164 cumulative IPC: 0.09891 (Simulation time: 04 hr 09 min 04 sec)
Heartbeat CPU 0 instructions: 175501185 cycles: 1303279060 heartbeat IPC: 0.1157 cumulative IPC: 0.09896 (Simulation time: 04 hr 09 min 52 sec)
Heartbeat CPU 0 instructions: 176001186 cycles: 1308321779 heartbeat IPC: 0.09915 cumulative IPC: 0.09897 (Simulation time: 04 hr 10 min 50 sec)
Heartbeat CPU 0 instructions: 176501190 cycles: 1313981144 heartbeat IPC: 0.08835 cumulative IPC: 0.09892 (Simulation time: 04 hr 11 min 54 sec)
Heartbeat CPU 0 instructions: 177001193 cycles: 1319644894 heartbeat IPC: 0.08828 cumulative IPC: 0.09887 (Simulation time: 04 hr 12 min 59 sec)
Heartbeat CPU 0 instructions: 177501196 cycles: 1325303605 heartbeat IPC: 0.08836 cumulative IPC: 0.09883 (Simulation time: 04 hr 14 min 04 sec)
Heartbeat CPU 0 instructions: 178001196 cycles: 1330971265 heartbeat IPC: 0.08822 cumulative IPC: 0.09878 (Simulation time: 04 hr 15 min 09 sec)
Heartbeat CPU 0 instructions: 178501202 cycles: 1336635772 heartbeat IPC: 0.08827 cumulative IPC: 0.09873 (Simulation time: 04 hr 16 min 13 sec)
Heartbeat CPU 0 instructions: 179001205 cycles: 1341249925 heartbeat IPC: 0.1084 cumulative IPC: 0.09877 (Simulation time: 04 hr 17 min 05 sec)
Heartbeat CPU 0 instructions: 179501212 cycles: 1345531532 heartbeat IPC: 0.1168 cumulative IPC: 0.09883 (Simulation time: 04 hr 17 min 53 sec)
Heartbeat CPU 0 instructions: 180001219 cycles: 1351124198 heartbeat IPC: 0.0894 cumulative IPC: 0.09879 (Simulation time: 04 hr 18 min 57 sec)
Heartbeat CPU 0 instructions: 180501220 cycles: 1356790035 heartbeat IPC: 0.08825 cumulative IPC: 0.09874 (Simulation time: 04 hr 20 min 02 sec)
Heartbeat CPU 0 instructions: 181001220 cycles: 1362438577 heartbeat IPC: 0.08852 cumulative IPC: 0.0987 (Simulation time: 04 hr 21 min 06 sec)
Heartbeat CPU 0 instructions: 181501220 cycles: 1368119965 heartbeat IPC: 0.08801 cumulative IPC: 0.09865 (Simulation time: 04 hr 22 min 11 sec)
Heartbeat CPU 0 instructions: 182001225 cycles: 1373767277 heartbeat IPC: 0.08854 cumulative IPC: 0.09861 (Simulation time: 04 hr 23 min 16 sec)
Heartbeat CPU 0 instructions: 182501227 cycles: 1379001838 heartbeat IPC: 0.09552 cumulative IPC: 0.0986 (Simulation time: 04 hr 24 min 15 sec)
Heartbeat CPU 0 instructions: 183001230 cycles: 1383334857 heartbeat IPC: 0.1154 cumulative IPC: 0.09865 (Simulation time: 04 hr 25 min 04 sec)
Heartbeat CPU 0 instructions: 183501232 cycles: 1387629940 heartbeat IPC: 0.1164 cumulative IPC: 0.09871 (Simulation time: 04 hr 25 min 52 sec)
Heartbeat CPU 0 instructions: 184001237 cycles: 1391948352 heartbeat IPC: 0.1158 cumulative IPC: 0.09876 (Simulation time: 04 hr 26 min 40 sec)
Heartbeat CPU 0 instructions: 184501242 cycles: 1396233456 heartbeat IPC: 0.1167 cumulative IPC: 0.09882 (Simulation time: 04 hr 27 min 28 sec)
Heartbeat CPU 0 instructions: 185001249 cycles: 1400559543 heartbeat IPC: 0.1156 cumulative IPC: 0.09887 (Simulation time: 04 hr 28 min 17 sec)
Heartbeat CPU 0 instructions: 185501251 cycles: 1404844046 heartbeat IPC: 0.1167 cumulative IPC: 0.09893 (Simulation time: 04 hr 29 min 05 sec)
Heartbeat CPU 0 instructions: 186001254 cycles: 1409167831 heartbeat IPC: 0.1156 cumulative IPC: 0.09898 (Simulation time: 04 hr 29 min 53 sec)
Heartbeat CPU 0 instructions: 186501256 cycles: 1414313356 heartbeat IPC: 0.09717 cumulative IPC: 0.09897 (Simulation time: 04 hr 30 min 52 sec)
Heartbeat CPU 0 instructions: 187001260 cycles: 1420010667 heartbeat IPC: 0.08776 cumulative IPC: 0.09893 (Simulation time: 04 hr 31 min 57 sec)
Heartbeat CPU 0 instructions: 187501266 cycles: 1425671539 heartbeat IPC: 0.08833 cumulative IPC: 0.09888 (Simulation time: 04 hr 33 min 02 sec)
Heartbeat CPU 0 instructions: 188001267 cycles: 1431339564 heartbeat IPC: 0.08821 cumulative IPC: 0.09884 (Simulation time: 04 hr 34 min 07 sec)
Heartbeat CPU 0 instructions: 188501269 cycles: 1437043495 heartbeat IPC: 0.08766 cumulative IPC: 0.09879 (Simulation time: 04 hr 35 min 12 sec)
Heartbeat CPU 0 instructions: 189001270 cycles: 1442744337 heartbeat IPC: 0.08771 cumulative IPC: 0.09875 (Simulation time: 04 hr 36 min 17 sec)
Heartbeat CPU 0 instructions: 189501270 cycles: 1447266018 heartbeat IPC: 0.1106 cumulative IPC: 0.09879 (Simulation time: 04 hr 37 min 08 sec)
Heartbeat CPU 0 instructions: 190001275 cycles: 1451564058 heartbeat IPC: 0.1163 cumulative IPC: 0.09884 (Simulation time: 04 hr 37 min 56 sec)
Heartbeat CPU 0 instructions: 190501275 cycles: 1457235530 heartbeat IPC: 0.08816 cumulative IPC: 0.0988 (Simulation time: 04 hr 39 min 01 sec)
Heartbeat CPU 0 instructions: 191001275 cycles: 1462903031 heartbeat IPC: 0.08822 cumulative IPC: 0.09876 (Simulation time: 04 hr 40 min 05 sec)
Heartbeat CPU 0 instructions: 191501276 cycles: 1468597631 heartbeat IPC: 0.0878 cumulative IPC: 0.09871 (Simulation time: 04 hr 41 min 10 sec)
Heartbeat CPU 0 instructions: 192001281 cycles: 1474285653 heartbeat IPC: 0.0879 cumulative IPC: 0.09867 (Simulation time: 04 hr 42 min 15 sec)
Heartbeat CPU 0 instructions: 192501285 cycles: 1479950551 heartbeat IPC: 0.08826 cumulative IPC: 0.09863 (Simulation time: 04 hr 43 min 20 sec)
Heartbeat CPU 0 instructions: 193001288 cycles: 1485084671 heartbeat IPC: 0.09739 cumulative IPC: 0.09862 (Simulation time: 04 hr 44 min 18 sec)
Heartbeat CPU 0 instructions: 193501288 cycles: 1489425010 heartbeat IPC: 0.1152 cumulative IPC: 0.09867 (Simulation time: 04 hr 45 min 07 sec)
Heartbeat CPU 0 instructions: 194001289 cycles: 1493716432 heartbeat IPC: 0.1165 cumulative IPC: 0.09873 (Simulation time: 04 hr 45 min 55 sec)
Heartbeat CPU 0 instructions: 194501289 cycles: 1498035336 heartbeat IPC: 0.1158 cumulative IPC: 0.09878 (Simulation time: 04 hr 46 min 43 sec)
Heartbeat CPU 0 instructions: 195001296 cycles: 1502340052 heartbeat IPC: 0.1162 cumulative IPC: 0.09883 (Simulation time: 04 hr 47 min 32 sec)
Heartbeat CPU 0 instructions: 195501298 cycles: 1506668214 heartbeat IPC: 0.1155 cumulative IPC: 0.09888 (Simulation time: 04 hr 48 min 20 sec)
Heartbeat CPU 0 instructions: 196001298 cycles: 1510980413 heartbeat IPC: 0.116 cumulative IPC: 0.09893 (Simulation time: 04 hr 49 min 08 sec)
Heartbeat CPU 0 instructions: 196501300 cycles: 1515278209 heartbeat IPC: 0.1163 cumulative IPC: 0.09898 (Simulation time: 04 hr 49 min 57 sec)
Heartbeat CPU 0 instructions: 197001306 cycles: 1520502295 heartbeat IPC: 0.09571 cumulative IPC: 0.09897 (Simulation time: 04 hr 50 min 56 sec)
Heartbeat CPU 0 instructions: 197501308 cycles: 1526170908 heartbeat IPC: 0.08821 cumulative IPC: 0.09893 (Simulation time: 04 hr 52 min 01 sec)
Heartbeat CPU 0 instructions: 198001313 cycles: 1531821770 heartbeat IPC: 0.08848 cumulative IPC: 0.09889 (Simulation time: 04 hr 53 min 05 sec)
Heartbeat CPU 0 instructions: 198501319 cycles: 1537505825 heartbeat IPC: 0.08797 cumulative IPC: 0.09884 (Simulation time: 04 hr 54 min 10 sec)
Heartbeat CPU 0 instructions: 199001321 cycles: 1543187232 heartbeat IPC: 0.08801 cumulative IPC: 0.0988 (Simulation time: 04 hr 55 min 15 sec)
Heartbeat CPU 0 instructions: 199501324 cycles: 1548877058 heartbeat IPC: 0.08788 cumulative IPC: 0.09876 (Simulation time: 04 hr 56 min 20 sec)
Heartbeat CPU 0 instructions: 200001326 cycles: 1553273446 heartbeat IPC: 0.1137 cumulative IPC: 0.09881 (Simulation time: 04 hr 57 min 10 sec)
Heartbeat CPU 0 instructions: 200501328 cycles: 1557667391 heartbeat IPC: 0.1138 cumulative IPC: 0.09885 (Simulation time: 04 hr 57 min 59 sec)
Heartbeat CPU 0 instructions: 201001333 cycles: 1563342041 heartbeat IPC: 0.08811 cumulative IPC: 0.09881 (Simulation time: 04 hr 59 min 04 sec)
Heartbeat CPU 0 instructions: 201501339 cycles: 1569023945 heartbeat IPC: 0.088 cumulative IPC: 0.09877 (Simulation time: 05 hr 00 min 09 sec)
Heartbeat CPU 0 instructions: 202001346 cycles: 1574691156 heartbeat IPC: 0.08823 cumulative IPC: 0.09873 (Simulation time: 05 hr 01 min 14 sec)
Heartbeat CPU 0 instructions: 202501348 cycles: 1580364174 heartbeat IPC: 0.08814 cumulative IPC: 0.09869 (Simulation time: 05 hr 02 min 18 sec)
Heartbeat CPU 0 instructions: 203001350 cycles: 1586040141 heartbeat IPC: 0.08809 cumulative IPC: 0.09865 (Simulation time: 05 hr 03 min 23 sec)
Heartbeat CPU 0 instructions: 203501351 cycles: 1591056186 heartbeat IPC: 0.09968 cumulative IPC: 0.09866 (Simulation time: 05 hr 04 min 21 sec)
Heartbeat CPU 0 instructions: 204001353 cycles: 1595407692 heartbeat IPC: 0.1149 cumulative IPC: 0.0987 (Simulation time: 05 hr 05 min 10 sec)
Heartbeat CPU 0 instructions: 204501355 cycles: 1599697076 heartbeat IPC: 0.1166 cumulative IPC: 0.09875 (Simulation time: 05 hr 05 min 58 sec)
Heartbeat CPU 0 instructions: 205001362 cycles: 1604007659 heartbeat IPC: 0.116 cumulative IPC: 0.0988 (Simulation time: 05 hr 06 min 46 sec)
Heartbeat CPU 0 instructions: 205501369 cycles: 1608308635 heartbeat IPC: 0.1163 cumulative IPC: 0.09885 (Simulation time: 05 hr 07 min 34 sec)
Heartbeat CPU 0 instructions: 206001375 cycles: 1612614129 heartbeat IPC: 0.1161 cumulative IPC: 0.09889 (Simulation time: 05 hr 08 min 23 sec)
Heartbeat CPU 0 instructions: 206501380 cycles: 1616905529 heartbeat IPC: 0.1165 cumulative IPC: 0.09894 (Simulation time: 05 hr 09 min 11 sec)
Heartbeat CPU 0 instructions: 207001387 cycles: 1621226392 heartbeat IPC: 0.1157 cumulative IPC: 0.09899 (Simulation time: 05 hr 09 min 59 sec)
Heartbeat CPU 0 instructions: 207501387 cycles: 1626565270 heartbeat IPC: 0.09365 cumulative IPC: 0.09897 (Simulation time: 05 hr 11 min 00 sec)
Heartbeat CPU 0 instructions: 208001390 cycles: 1632265275 heartbeat IPC: 0.08772 cumulative IPC: 0.09893 (Simulation time: 05 hr 12 min 05 sec)
Heartbeat CPU 0 instructions: 208501392 cycles: 1637951641 heartbeat IPC: 0.08793 cumulative IPC: 0.09889 (Simulation time: 05 hr 13 min 10 sec)
Heartbeat CPU 0 instructions: 209001392 cycles: 1643635521 heartbeat IPC: 0.08797 cumulative IPC: 0.09885 (Simulation time: 05 hr 14 min 15 sec)
Heartbeat CPU 0 instructions: 209501394 cycles: 1649291550 heartbeat IPC: 0.0884 cumulative IPC: 0.09881 (Simulation time: 05 hr 15 min 19 sec)
Heartbeat CPU 0 instructions: 210001396 cycles: 1654986821 heartbeat IPC: 0.08779 cumulative IPC: 0.09878 (Simulation time: 05 hr 16 min 25 sec)
Heartbeat CPU 0 instructions: 210501396 cycles: 1659291514 heartbeat IPC: 0.1162 cumulative IPC: 0.09882 (Simulation time: 05 hr 17 min 13 sec)
Heartbeat CPU 0 instructions: 211001402 cycles: 1663779934 heartbeat IPC: 0.1114 cumulative IPC: 0.09886 (Simulation time: 05 hr 18 min 04 sec)
Heartbeat CPU 0 instructions: 211501407 cycles: 1669468045 heartbeat IPC: 0.0879 cumulative IPC: 0.09882 (Simulation time: 05 hr 19 min 09 sec)
Heartbeat CPU 0 instructions: 212001410 cycles: 1675140568 heartbeat IPC: 0.08814 cumulative IPC: 0.09878 (Simulation time: 05 hr 20 min 14 sec)
Heartbeat CPU 0 instructions: 212501416 cycles: 1680808864 heartbeat IPC: 0.08821 cumulative IPC: 0.09874 (Simulation time: 05 hr 21 min 18 sec)
Heartbeat CPU 0 instructions: 213001417 cycles: 1686512528 heartbeat IPC: 0.08766 cumulative IPC: 0.09871 (Simulation time: 05 hr 22 min 24 sec)
Heartbeat CPU 0 instructions: 213501424 cycles: 1692174206 heartbeat IPC: 0.08831 cumulative IPC: 0.09867 (Simulation time: 05 hr 23 min 28 sec)
Heartbeat CPU 0 instructions: 214001425 cycles: 1697133117 heartbeat IPC: 0.1008 cumulative IPC: 0.09868 (Simulation time: 05 hr 24 min 24 sec)
Heartbeat CPU 0 instructions: 214501431 cycles: 1701461566 heartbeat IPC: 0.1155 cumulative IPC: 0.09872 (Simulation time: 05 hr 25 min 13 sec)
Heartbeat CPU 0 instructions: 215001433 cycles: 1705774505 heartbeat IPC: 0.1159 cumulative IPC: 0.09877 (Simulation time: 05 hr 26 min 01 sec)
Heartbeat CPU 0 instructions: 215501440 cycles: 1710091223 heartbeat IPC: 0.1158 cumulative IPC: 0.09881 (Simulation time: 05 hr 26 min 50 sec)
Heartbeat CPU 0 instructions: 216001442 cycles: 1714397534 heartbeat IPC: 0.1161 cumulative IPC: 0.09885 (Simulation time: 05 hr 27 min 38 sec)
Heartbeat CPU 0 instructions: 216501442 cycles: 1718723643 heartbeat IPC: 0.1156 cumulative IPC: 0.0989 (Simulation time: 05 hr 28 min 27 sec)
Heartbeat CPU 0 instructions: 217001444 cycles: 1723010261 heartbeat IPC: 0.1166 cumulative IPC: 0.09894 (Simulation time: 05 hr 29 min 15 sec)
Heartbeat CPU 0 instructions: 217501447 cycles: 1727310428 heartbeat IPC: 0.1163 cumulative IPC: 0.09899 (Simulation time: 05 hr 30 min 03 sec)
Heartbeat CPU 0 instructions: 218001452 cycles: 1732739774 heartbeat IPC: 0.09209 cumulative IPC: 0.09896 (Simulation time: 05 hr 31 min 05 sec)
Heartbeat CPU 0 instructions: 218501459 cycles: 1738416097 heartbeat IPC: 0.08809 cumulative IPC: 0.09893 (Simulation time: 05 hr 32 min 09 sec)
Heartbeat CPU 0 instructions: 219001459 cycles: 1744090808 heartbeat IPC: 0.08811 cumulative IPC: 0.09889 (Simulation time: 05 hr 33 min 14 sec)
Heartbeat CPU 0 instructions: 219501464 cycles: 1749777098 heartbeat IPC: 0.08793 cumulative IPC: 0.09886 (Simulation time: 05 hr 34 min 19 sec)
Heartbeat CPU 0 instructions: 220001468 cycles: 1755455422 heartbeat IPC: 0.08805 cumulative IPC: 0.09882 (Simulation time: 05 hr 35 min 24 sec)
Heartbeat CPU 0 instructions: 220501474 cycles: 1761023194 heartbeat IPC: 0.0898 cumulative IPC: 0.09879 (Simulation time: 05 hr 36 min 27 sec)
Heartbeat CPU 0 instructions: 221001476 cycles: 1765341132 heartbeat IPC: 0.1158 cumulative IPC: 0.09883 (Simulation time: 05 hr 37 min 16 sec)
Heartbeat CPU 0 instructions: 221501483 cycles: 1769940399 heartbeat IPC: 0.1087 cumulative IPC: 0.09886 (Simulation time: 05 hr 38 min 08 sec)
Heartbeat CPU 0 instructions: 222001488 cycles: 1775605676 heartbeat IPC: 0.08826 cumulative IPC: 0.09882 (Simulation time: 05 hr 39 min 12 sec)
Heartbeat CPU 0 instructions: 222501491 cycles: 1781273186 heartbeat IPC: 0.08822 cumulative IPC: 0.09879 (Simulation time: 05 hr 40 min 17 sec)
Heartbeat CPU 0 instructions: 223001491 cycles: 1786943864 heartbeat IPC: 0.08817 cumulative IPC: 0.09876 (Simulation time: 05 hr 41 min 22 sec)
Heartbeat CPU 0 instructions: 223501491 cycles: 1792610875 heartbeat IPC: 0.08823 cumulative IPC: 0.09872 (Simulation time: 05 hr 42 min 26 sec)
Heartbeat CPU 0 instructions: 224001492 cycles: 1798280403 heartbeat IPC: 0.08819 cumulative IPC: 0.09869 (Simulation time: 05 hr 43 min 31 sec)
Heartbeat CPU 0 instructions: 224501494 cycles: 1803157700 heartbeat IPC: 0.1025 cumulative IPC: 0.0987 (Simulation time: 05 hr 44 min 27 sec)
Heartbeat CPU 0 instructions: 225001497 cycles: 1807487992 heartbeat IPC: 0.1155 cumulative IPC: 0.09874 (Simulation time: 05 hr 45 min 15 sec)
Heartbeat CPU 0 instructions: 225501501 cycles: 1811799860 heartbeat IPC: 0.116 cumulative IPC: 0.09878 (Simulation time: 05 hr 46 min 04 sec)
Heartbeat CPU 0 instructions: 226001501 cycles: 1816114473 heartbeat IPC: 0.1159 cumulative IPC: 0.09882 (Simulation time: 05 hr 46 min 52 sec)
Heartbeat CPU 0 instructions: 226501501 cycles: 1820425506 heartbeat IPC: 0.116 cumulative IPC: 0.09886 (Simulation time: 05 hr 47 min 41 sec)
Heartbeat CPU 0 instructions: 227001507 cycles: 1824734349 heartbeat IPC: 0.116 cumulative IPC: 0.09891 (Simulation time: 05 hr 48 min 29 sec)
Heartbeat CPU 0 instructions: 227501511 cycles: 1829038363 heartbeat IPC: 0.1162 cumulative IPC: 0.09895 (Simulation time: 05 hr 49 min 17 sec)
Heartbeat CPU 0 instructions: 228001514 cycles: 1833340298 heartbeat IPC: 0.1162 cumulative IPC: 0.09899 (Simulation time: 05 hr 50 min 06 sec)
Heartbeat CPU 0 instructions: 228501520 cycles: 1838865480 heartbeat IPC: 0.0905 cumulative IPC: 0.09896 (Simulation time: 05 hr 51 min 09 sec)
Heartbeat CPU 0 instructions: 229001526 cycles: 1844540949 heartbeat IPC: 0.0881 cumulative IPC: 0.09893 (Simulation time: 05 hr 52 min 14 sec)
Heartbeat CPU 0 instructions: 229501531 cycles: 1850223309 heartbeat IPC: 0.08799 cumulative IPC: 0.09889 (Simulation time: 05 hr 53 min 19 sec)
Heartbeat CPU 0 instructions: 230001538 cycles: 1855898476 heartbeat IPC: 0.0881 cumulative IPC: 0.09886 (Simulation time: 05 hr 54 min 24 sec)
Heartbeat CPU 0 instructions: 230501539 cycles: 1861579475 heartbeat IPC: 0.08801 cumulative IPC: 0.09883 (Simulation time: 05 hr 55 min 29 sec)
Heartbeat CPU 0 instructions: 231001546 cycles: 1867043551 heartbeat IPC: 0.09151 cumulative IPC: 0.0988 (Simulation time: 05 hr 56 min 31 sec)
Heartbeat CPU 0 instructions: 231501553 cycles: 1871368373 heartbeat IPC: 0.1156 cumulative IPC: 0.09884 (Simulation time: 05 hr 57 min 20 sec)
Heartbeat CPU 0 instructions: 232001554 cycles: 1876040089 heartbeat IPC: 0.107 cumulative IPC: 0.09887 (Simulation time: 05 hr 58 min 12 sec)
Heartbeat CPU 0 instructions: 232501560 cycles: 1881739343 heartbeat IPC: 0.08773 cumulative IPC: 0.09883 (Simulation time: 05 hr 59 min 17 sec)
Heartbeat CPU 0 instructions: 233001563 cycles: 1887429829 heartbeat IPC: 0.08787 cumulative IPC: 0.0988 (Simulation time: 06 hr 00 min 22 sec)
Heartbeat CPU 0 instructions: 233501563 cycles: 1893107923 heartbeat IPC: 0.08806 cumulative IPC: 0.09876 (Simulation time: 06 hr 01 min 27 sec)
Heartbeat CPU 0 instructions: 234001568 cycles: 1898784732 heartbeat IPC: 0.08808 cumulative IPC: 0.09873 (Simulation time: 06 hr 02 min 32 sec)
Heartbeat CPU 0 instructions: 234501569 cycles: 1904440826 heartbeat IPC: 0.0884 cumulative IPC: 0.0987 (Simulation time: 06 hr 03 min 37 sec)
Heartbeat CPU 0 instructions: 235001574 cycles: 1909188093 heartbeat IPC: 0.1053 cumulative IPC: 0.09872 (Simulation time: 06 hr 04 min 30 sec)
Heartbeat CPU 0 instructions: 235501581 cycles: 1913527188 heartbeat IPC: 0.1152 cumulative IPC: 0.09876 (Simulation time: 06 hr 05 min 19 sec)
Heartbeat CPU 0 instructions: 236001584 cycles: 1917823990 heartbeat IPC: 0.1164 cumulative IPC: 0.0988 (Simulation time: 06 hr 06 min 07 sec)
Heartbeat CPU 0 instructions: 236501590 cycles: 1922117406 heartbeat IPC: 0.1165 cumulative IPC: 0.09884 (Simulation time: 06 hr 06 min 55 sec)
Heartbeat CPU 0 instructions: 237001593 cycles: 1926415759 heartbeat IPC: 0.1163 cumulative IPC: 0.09888 (Simulation time: 06 hr 07 min 43 sec)
Heartbeat CPU 0 instructions: 237501593 cycles: 1930728134 heartbeat IPC: 0.1159 cumulative IPC: 0.09891 (Simulation time: 06 hr 08 min 32 sec)
Heartbeat CPU 0 instructions: 238001595 cycles: 1935053344 heartbeat IPC: 0.1156 cumulative IPC: 0.09895 (Simulation time: 06 hr 09 min 21 sec)
Heartbeat CPU 0 instructions: 238501595 cycles: 1939330433 heartbeat IPC: 0.1169 cumulative IPC: 0.09899 (Simulation time: 06 hr 10 min 08 sec)
Heartbeat CPU 0 instructions: 239001601 cycles: 1944945622 heartbeat IPC: 0.08905 cumulative IPC: 0.09896 (Simulation time: 06 hr 11 min 12 sec)
Heartbeat CPU 0 instructions: 239501601 cycles: 1950631542 heartbeat IPC: 0.08794 cumulative IPC: 0.09893 (Simulation time: 06 hr 12 min 18 sec)
Heartbeat CPU 0 instructions: 240001601 cycles: 1956289317 heartbeat IPC: 0.08837 cumulative IPC: 0.0989 (Simulation time: 06 hr 13 min 22 sec)
Heartbeat CPU 0 instructions: 240501607 cycles: 1961952880 heartbeat IPC: 0.08828 cumulative IPC: 0.09887 (Simulation time: 06 hr 14 min 27 sec)
Heartbeat CPU 0 instructions: 241001612 cycles: 1967641215 heartbeat IPC: 0.0879 cumulative IPC: 0.09884 (Simulation time: 06 hr 15 min 32 sec)
Heartbeat CPU 0 instructions: 241501613 cycles: 1973021694 heartbeat IPC: 0.09293 cumulative IPC: 0.09882 (Simulation time: 06 hr 16 min 34 sec)
Heartbeat CPU 0 instructions: 242001619 cycles: 1977322319 heartbeat IPC: 0.1163 cumulative IPC: 0.09886 (Simulation time: 06 hr 17 min 22 sec)
Heartbeat CPU 0 instructions: 242501620 cycles: 1982104983 heartbeat IPC: 0.1045 cumulative IPC: 0.09887 (Simulation time: 06 hr 18 min 16 sec)
Heartbeat CPU 0 instructions: 243001621 cycles: 1987765895 heartbeat IPC: 0.08833 cumulative IPC: 0.09884 (Simulation time: 06 hr 19 min 21 sec)
Heartbeat CPU 0 instructions: 243501624 cycles: 1993427320 heartbeat IPC: 0.08832 cumulative IPC: 0.09881 (Simulation time: 06 hr 20 min 26 sec)
Heartbeat CPU 0 instructions: 244001628 cycles: 1999118377 heartbeat IPC: 0.08786 cumulative IPC: 0.09878 (Simulation time: 06 hr 21 min 31 sec)
Heartbeat CPU 0 instructions: 244501633 cycles: 2004791464 heartbeat IPC: 0.08814 cumulative IPC: 0.09875 (Simulation time: 06 hr 22 min 36 sec)
Heartbeat CPU 0 instructions: 245001633 cycles: 2010443468 heartbeat IPC: 0.08846 cumulative IPC: 0.09872 (Simulation time: 06 hr 23 min 40 sec)
Heartbeat CPU 0 instructions: 245501638 cycles: 2015139012 heartbeat IPC: 0.1065 cumulative IPC: 0.09874 (Simulation time: 06 hr 24 min 34 sec)
Heartbeat CPU 0 instructions: 246001641 cycles: 2019449118 heartbeat IPC: 0.116 cumulative IPC: 0.09878 (Simulation time: 06 hr 25 min 22 sec)
Heartbeat CPU 0 instructions: 246501642 cycles: 2023756527 heartbeat IPC: 0.1161 cumulative IPC: 0.09881 (Simulation time: 06 hr 26 min 10 sec)
Heartbeat CPU 0 instructions: 247001644 cycles: 2028063145 heartbeat IPC: 0.1161 cumulative IPC: 0.09885 (Simulation time: 06 hr 26 min 59 sec)
Heartbeat CPU 0 instructions: 247501650 cycles: 2032380935 heartbeat IPC: 0.1158 cumulative IPC: 0.09889 (Simulation time: 06 hr 27 min 47 sec)
Heartbeat CPU 0 instructions: 248001654 cycles: 2036677109 heartbeat IPC: 0.1164 cumulative IPC: 0.09892 (Simulation time: 06 hr 28 min 35 sec)
Heartbeat CPU 0 instructions: 248501658 cycles: 2040996116 heartbeat IPC: 0.1158 cumulative IPC: 0.09896 (Simulation time: 06 hr 29 min 24 sec)
Heartbeat CPU 0 instructions: 249001659 cycles: 2045329187 heartbeat IPC: 0.1154 cumulative IPC: 0.099 (Simulation time: 06 hr 30 min 12 sec)
Heartbeat CPU 0 instructions: 249501659 cycles: 2051043146 heartbeat IPC: 0.08751 cumulative IPC: 0.09896 (Simulation time: 06 hr 31 min 18 sec)
Simulation finished CPU 0 instructions: 200000002 cycles: 2021538714 cumulative IPC: 0.09893 (Simulation time: 06 hr 32 min 22 sec)
Simulation complete CPU 0 instructions: 200000002 cycles: 2021538714 cumulative IPC: 0.09893 (Simulation time: 06 hr 32 min 22 sec)

ChampSim completed all CPUs

=== Simulation ===
CPU 0 runs /local-ssd/ben/dpc4-traces/ai-ml/rwkv_trace_1.champsimtrace.gz

Region of Interest Statistics

CPU 0 cumulative IPC: 0.09893 instructions: 200000002 cycles: 2021538714
CPU 0 Branch Prediction Accuracy: 96.97% MPKI: 0.9107 Average ROB Occupancy at Mispredict: 351.5
Branch type MPKI
BRANCH_DIRECT_JUMP: 0
BRANCH_INDIRECT: 0
BRANCH_CONDITIONAL: 0.9072
BRANCH_DIRECT_CALL: 0
BRANCH_INDIRECT_CALL: 3.5e-05
BRANCH_RETURN: 0.00346

cpu0->cpu0_STLB TOTAL        ACCESS:    1023959 HIT:        437 MISS:    1023522 MSHR_MERGE:          0
cpu0->cpu0_STLB LOAD         ACCESS:    1023959 HIT:        437 MISS:    1023522 MSHR_MERGE:          0
cpu0->cpu0_STLB RFO          ACCESS:          0 HIT:          0 MISS:          0 MSHR_MERGE:          0
cpu0->cpu0_STLB PREFETCH     ACCESS:          0 HIT:          0 MISS:          0 MSHR_MERGE:          0
cpu0->cpu0_STLB WRITE        ACCESS:          0 HIT:          0 MISS:          0 MSHR_MERGE:          0
cpu0->cpu0_STLB TRANSLATION  ACCESS:          0 HIT:          0 MISS:          0 MSHR_MERGE:          0
cpu0->cpu0_STLB PREFETCH REQUESTED:          0 ISSUED:          0 USEFUL:          0 USELESS:          0
cpu0->cpu0_STLB AVERAGE MISS LATENCY: 307.7 cycles
cpu0->cpu0_L2C TOTAL        ACCESS:   98113962 HIT:   32748016 MISS:   65365946 MSHR_MERGE:          0
cpu0->cpu0_L2C LOAD         ACCESS:   32512657 HIT:        430 MISS:   32512227 MSHR_MERGE:          0
cpu0->cpu0_L2C RFO          ACCESS:   32601009 HIT:        101 MISS:   32600908 MSHR_MERGE:          0
cpu0->cpu0_L2C PREFETCH     ACCESS:     239090 HIT:     117933 MISS:     121157 MSHR_MERGE:          0
cpu0->cpu0_L2C WRITE        ACCESS:   32629177 HIT:   32629177 MISS:          0 MSHR_MERGE:          0
cpu0->cpu0_L2C TRANSLATION  ACCESS:     132029 HIT:        375 MISS:     131654 MSHR_MERGE:          0
cpu0->cpu0_L2C PREFETCH REQUESTED:          0 ISSUED:          0 USEFUL:          0 USELESS:          0
cpu0->cpu0_L2C AVERAGE MISS LATENCY: 479.5 cycles
cpu0->cpu0_L1I TOTAL        ACCESS:   38625508 HIT:   38625508 MISS:          0 MSHR_MERGE:          0
cpu0->cpu0_L1I LOAD         ACCESS:   38625508 HIT:   38625508 MISS:          0 MSHR_MERGE:          0
cpu0->cpu0_L1I RFO          ACCESS:          0 HIT:          0 MISS:          0 MSHR_MERGE:          0
cpu0->cpu0_L1I PREFETCH     ACCESS:          0 HIT:          0 MISS:          0 MSHR_MERGE:          0
cpu0->cpu0_L1I WRITE        ACCESS:          0 HIT:          0 MISS:          0 MSHR_MERGE:          0
cpu0->cpu0_L1I TRANSLATION  ACCESS:          0 HIT:          0 MISS:          0 MSHR_MERGE:          0
cpu0->cpu0_L1I PREFETCH REQUESTED:          0 ISSUED:          0 USEFUL:          0 USELESS:          0
cpu0->cpu0_L1I AVERAGE MISS LATENCY: - cycles
cpu0->cpu0_L1D TOTAL        ACCESS:  102506837 HIT:    4231212 MISS:   98275625 MSHR_MERGE:   32790842
cpu0->cpu0_L1D LOAD         ACCESS:   33682907 HIT:    1139922 MISS:   32542985 MSHR_MERGE:      30330
cpu0->cpu0_L1D RFO          ACCESS:          0 HIT:          0 MISS:          0 MSHR_MERGE:          0
cpu0->cpu0_L1D PREFETCH     ACCESS:    1542359 HIT:    1222435 MISS:     319924 MSHR_MERGE:      80834
cpu0->cpu0_L1D WRITE        ACCESS:   65404177 HIT:     205803 MISS:   65198374 MSHR_MERGE:   32597365
cpu0->cpu0_L1D TRANSLATION  ACCESS:    1877394 HIT:    1663052 MISS:     214342 MSHR_MERGE:      82313
cpu0->cpu0_L1D PREFETCH REQUESTED: 1826051228 ISSUED:    1542359 USEFUL:     107370 USELESS:     131716
cpu0->cpu0_L1D AVERAGE MISS LATENCY: 489 cycles
cpu0->cpu0_ITLB TOTAL        ACCESS:   31411854 HIT:   31411854 MISS:          0 MSHR_MERGE:          0
cpu0->cpu0_ITLB LOAD         ACCESS:   31411854 HIT:   31411854 MISS:          0 MSHR_MERGE:          0
cpu0->cpu0_ITLB RFO          ACCESS:          0 HIT:          0 MISS:          0 MSHR_MERGE:          0
cpu0->cpu0_ITLB PREFETCH     ACCESS:          0 HIT:          0 MISS:          0 MSHR_MERGE:          0
cpu0->cpu0_ITLB WRITE        ACCESS:          0 HIT:          0 MISS:          0 MSHR_MERGE:          0
cpu0->cpu0_ITLB TRANSLATION  ACCESS:          0 HIT:          0 MISS:          0 MSHR_MERGE:          0
cpu0->cpu0_ITLB PREFETCH REQUESTED:          0 ISSUED:          0 USEFUL:          0 USELESS:          0
cpu0->cpu0_ITLB AVERAGE MISS LATENCY: - cycles
cpu0->cpu0_DTLB TOTAL        ACCESS:  100284017 HIT:   95094250 MISS:    5189767 MSHR_MERGE:    4165808
cpu0->cpu0_DTLB LOAD         ACCESS:  100284017 HIT:   95094250 MISS:    5189767 MSHR_MERGE:    4165808
cpu0->cpu0_DTLB RFO          ACCESS:          0 HIT:          0 MISS:          0 MSHR_MERGE:          0
cpu0->cpu0_DTLB PREFETCH     ACCESS:          0 HIT:          0 MISS:          0 MSHR_MERGE:          0
cpu0->cpu0_DTLB WRITE        ACCESS:          0 HIT:          0 MISS:          0 MSHR_MERGE:          0
cpu0->cpu0_DTLB TRANSLATION  ACCESS:          0 HIT:          0 MISS:          0 MSHR_MERGE:          0
cpu0->cpu0_DTLB PREFETCH REQUESTED:          0 ISSUED:          0 USEFUL:          0 USELESS:          0
cpu0->cpu0_DTLB AVERAGE MISS LATENCY: 313.6 cycles
cpu0->LLC TOTAL        ACCESS:   97995925 HIT:   12660145 MISS:   85335780 MSHR_MERGE:          0
cpu0->LLC LOAD         ACCESS:   32512227 HIT:          0 MISS:   32512227 MSHR_MERGE:          0
cpu0->LLC RFO          ACCESS:   32600907 HIT:          0 MISS:   32600907 MSHR_MERGE:          0
cpu0->LLC PREFETCH     ACCESS:     121157 HIT:          0 MISS:     121157 MSHR_MERGE:          0
cpu0->LLC WRITE        ACCESS:   32629980 HIT:   12660067 MISS:   19969913 MSHR_MERGE:          0
cpu0->LLC TRANSLATION  ACCESS:     131654 HIT:         78 MISS:     131576 MSHR_MERGE:          0
cpu0->LLC PREFETCH REQUESTED:          0 ISSUED:          0 USEFUL:          0 USELESS:          0
cpu0->LLC AVERAGE MISS LATENCY: 353.5 cycles

DRAM Statistics

Channel 0 RQ ROW_BUFFER_HIT:    2569476
  ROW_BUFFER_MISS:   62796379
  AVG DBUS CONGESTED CYCLE: 13.18
Channel 0 WQ ROW_BUFFER_HIT:    3646872
  ROW_BUFFER_MISS:   28982181
  FULL:     213336
Channel 0 REFRESHES ISSUED:     168451
