[VMEM] WARNING: physical memory size is smaller than virtual memory size.

*** ChampSim Multicore Out-of-Order Simulator ***
Warmup Instructions: 50000000
Simulation Instructions: 200000000
Number of CPUs: 1
Page size: 4096
Core 0: /local-ssd/ben/dpc4-traces/ai-ml/whisper_trace_2.champsimtrace.gz
Off-chip DRAM Size: 64 GiB Channels: 1 Width: 64-bit Data Rate: 4807 MT/s
Heartbeat CPU 0 instructions: 500003 cycles: 223206 heartbeat IPC: 2.24 cumulative IPC: 2.24 (Simulation time: 00 hr 00 min 04 sec)
Heartbeat CPU 0 instructions: 1000006 cycles: 442464 heartbeat IPC: 2.28 cumulative IPC: 2.26 (Simulation time: 00 hr 00 min 07 sec)
Heartbeat CPU 0 instructions: 1500009 cycles: 647148 heartbeat IPC: 2.443 cumulative IPC: 2.318 (Simulation time: 00 hr 00 min 10 sec)
Heartbeat CPU 0 instructions: 2000012 cycles: 870070 heartbeat IPC: 2.243 cumulative IPC: 2.299 (Simulation time: 00 hr 00 min 14 sec)
Heartbeat CPU 0 instructions: 2500012 cycles: 1092293 heartbeat IPC: 2.25 cumulative IPC: 2.289 (Simulation time: 00 hr 00 min 18 sec)
Heartbeat CPU 0 instructions: 3000019 cycles: 1316280 heartbeat IPC: 2.232 cumulative IPC: 2.279 (Simulation time: 00 hr 00 min 21 sec)
Heartbeat CPU 0 instructions: 3500021 cycles: 1521704 heartbeat IPC: 2.434 cumulative IPC: 2.3 (Simulation time: 00 hr 00 min 25 sec)
Heartbeat CPU 0 instructions: 4000025 cycles: 1727286 heartbeat IPC: 2.432 cumulative IPC: 2.316 (Simulation time: 00 hr 00 min 28 sec)
Heartbeat CPU 0 instructions: 4500027 cycles: 1932633 heartbeat IPC: 2.435 cumulative IPC: 2.328 (Simulation time: 00 hr 00 min 32 sec)
Heartbeat CPU 0 instructions: 5000032 cycles: 2142771 heartbeat IPC: 2.379 cumulative IPC: 2.333 (Simulation time: 00 hr 00 min 35 sec)
Heartbeat CPU 0 instructions: 5500035 cycles: 2345873 heartbeat IPC: 2.462 cumulative IPC: 2.345 (Simulation time: 00 hr 00 min 38 sec)
Heartbeat CPU 0 instructions: 6000038 cycles: 2548383 heartbeat IPC: 2.469 cumulative IPC: 2.354 (Simulation time: 00 hr 00 min 42 sec)
Heartbeat CPU 0 instructions: 6500039 cycles: 2755522 heartbeat IPC: 2.414 cumulative IPC: 2.359 (Simulation time: 00 hr 00 min 45 sec)
Heartbeat CPU 0 instructions: 7000042 cycles: 2979045 heartbeat IPC: 2.237 cumulative IPC: 2.35 (Simulation time: 00 hr 00 min 49 sec)
Heartbeat CPU 0 instructions: 7500048 cycles: 3184447 heartbeat IPC: 2.434 cumulative IPC: 2.355 (Simulation time: 00 hr 00 min 52 sec)
Heartbeat CPU 0 instructions: 8000053 cycles: 3390723 heartbeat IPC: 2.424 cumulative IPC: 2.359 (Simulation time: 00 hr 00 min 56 sec)
Heartbeat CPU 0 instructions: 8500058 cycles: 3559075 heartbeat IPC: 2.97 cumulative IPC: 2.388 (Simulation time: 00 hr 00 min 59 sec)
Heartbeat CPU 0 instructions: 9000059 cycles: 3781621 heartbeat IPC: 2.247 cumulative IPC: 2.38 (Simulation time: 00 hr 01 min 02 sec)
Heartbeat CPU 0 instructions: 9500065 cycles: 3982018 heartbeat IPC: 2.495 cumulative IPC: 2.386 (Simulation time: 00 hr 01 min 06 sec)
Heartbeat CPU 0 instructions: 10000065 cycles: 4191916 heartbeat IPC: 2.382 cumulative IPC: 2.386 (Simulation time: 00 hr 01 min 09 sec)
Heartbeat CPU 0 instructions: 10500072 cycles: 4411307 heartbeat IPC: 2.279 cumulative IPC: 2.38 (Simulation time: 00 hr 01 min 13 sec)
Heartbeat CPU 0 instructions: 11000073 cycles: 4616245 heartbeat IPC: 2.44 cumulative IPC: 2.383 (Simulation time: 00 hr 01 min 16 sec)
Heartbeat CPU 0 instructions: 11500075 cycles: 4839190 heartbeat IPC: 2.243 cumulative IPC: 2.376 (Simulation time: 00 hr 01 min 20 sec)
Heartbeat CPU 0 instructions: 12000081 cycles: 5000895 heartbeat IPC: 3.092 cumulative IPC: 2.4 (Simulation time: 00 hr 01 min 23 sec)
Heartbeat CPU 0 instructions: 12500082 cycles: 5206815 heartbeat IPC: 2.428 cumulative IPC: 2.401 (Simulation time: 00 hr 01 min 26 sec)
Heartbeat CPU 0 instructions: 13000084 cycles: 5430702 heartbeat IPC: 2.233 cumulative IPC: 2.394 (Simulation time: 00 hr 01 min 30 sec)
Heartbeat CPU 0 instructions: 13500091 cycles: 5630717 heartbeat IPC: 2.5 cumulative IPC: 2.398 (Simulation time: 00 hr 01 min 33 sec)
Heartbeat CPU 0 instructions: 14000094 cycles: 5828874 heartbeat IPC: 2.523 cumulative IPC: 2.402 (Simulation time: 00 hr 01 min 36 sec)
Heartbeat CPU 0 instructions: 14500099 cycles: 6034616 heartbeat IPC: 2.43 cumulative IPC: 2.403 (Simulation time: 00 hr 01 min 40 sec)
Heartbeat CPU 0 instructions: 15000105 cycles: 6238755 heartbeat IPC: 2.449 cumulative IPC: 2.404 (Simulation time: 00 hr 01 min 43 sec)
Heartbeat CPU 0 instructions: 15500105 cycles: 6446178 heartbeat IPC: 2.411 cumulative IPC: 2.405 (Simulation time: 00 hr 01 min 46 sec)
Heartbeat CPU 0 instructions: 16000106 cycles: 6652146 heartbeat IPC: 2.428 cumulative IPC: 2.405 (Simulation time: 00 hr 01 min 50 sec)
Heartbeat CPU 0 instructions: 16500112 cycles: 6872441 heartbeat IPC: 2.27 cumulative IPC: 2.401 (Simulation time: 00 hr 01 min 54 sec)
Heartbeat CPU 0 instructions: 17000115 cycles: 7080874 heartbeat IPC: 2.399 cumulative IPC: 2.401 (Simulation time: 00 hr 01 min 57 sec)
Heartbeat CPU 0 instructions: 17500118 cycles: 7303134 heartbeat IPC: 2.25 cumulative IPC: 2.396 (Simulation time: 00 hr 02 min 01 sec)
Heartbeat CPU 0 instructions: 18000119 cycles: 7502875 heartbeat IPC: 2.503 cumulative IPC: 2.399 (Simulation time: 00 hr 02 min 04 sec)
Heartbeat CPU 0 instructions: 18500126 cycles: 7726237 heartbeat IPC: 2.239 cumulative IPC: 2.394 (Simulation time: 00 hr 02 min 08 sec)
Heartbeat CPU 0 instructions: 19000128 cycles: 7948434 heartbeat IPC: 2.25 cumulative IPC: 2.39 (Simulation time: 00 hr 02 min 11 sec)
Heartbeat CPU 0 instructions: 19500128 cycles: 8137069 heartbeat IPC: 2.651 cumulative IPC: 2.396 (Simulation time: 00 hr 02 min 14 sec)
Heartbeat CPU 0 instructions: 20000129 cycles: 8340207 heartbeat IPC: 2.461 cumulative IPC: 2.398 (Simulation time: 00 hr 02 min 18 sec)
Heartbeat CPU 0 instructions: 20500129 cycles: 8530291 heartbeat IPC: 2.63 cumulative IPC: 2.403 (Simulation time: 00 hr 02 min 21 sec)
Heartbeat CPU 0 instructions: 21000130 cycles: 8741685 heartbeat IPC: 2.365 cumulative IPC: 2.402 (Simulation time: 00 hr 02 min 24 sec)
Heartbeat CPU 0 instructions: 21500134 cycles: 8937429 heartbeat IPC: 2.554 cumulative IPC: 2.406 (Simulation time: 00 hr 02 min 28 sec)
Heartbeat CPU 0 instructions: 22000134 cycles: 9134177 heartbeat IPC: 2.541 cumulative IPC: 2.409 (Simulation time: 00 hr 02 min 31 sec)
Heartbeat CPU 0 instructions: 22500139 cycles: 9357428 heartbeat IPC: 2.24 cumulative IPC: 2.405 (Simulation time: 00 hr 02 min 35 sec)
Heartbeat CPU 0 instructions: 23000144 cycles: 9580331 heartbeat IPC: 2.243 cumulative IPC: 2.401 (Simulation time: 00 hr 02 min 38 sec)
Heartbeat CPU 0 instructions: 23500150 cycles: 9800236 heartbeat IPC: 2.274 cumulative IPC: 2.398 (Simulation time: 00 hr 02 min 42 sec)
Heartbeat CPU 0 instructions: 24000154 cycles: 10002248 heartbeat IPC: 2.475 cumulative IPC: 2.399 (Simulation time: 00 hr 02 min 45 sec)
Heartbeat CPU 0 instructions: 24500161 cycles: 10190304 heartbeat IPC: 2.659 cumulative IPC: 2.404 (Simulation time: 00 hr 02 min 49 sec)
Heartbeat CPU 0 instructions: 25000168 cycles: 10395770 heartbeat IPC: 2.434 cumulative IPC: 2.405 (Simulation time: 00 hr 02 min 52 sec)
Heartbeat CPU 0 instructions: 25500168 cycles: 10618327 heartbeat IPC: 2.247 cumulative IPC: 2.402 (Simulation time: 00 hr 02 min 56 sec)
Heartbeat CPU 0 instructions: 26000171 cycles: 10827028 heartbeat IPC: 2.396 cumulative IPC: 2.401 (Simulation time: 00 hr 02 min 59 sec)
Heartbeat CPU 0 instructions: 26500175 cycles: 11041997 heartbeat IPC: 2.326 cumulative IPC: 2.4 (Simulation time: 00 hr 03 min 03 sec)
Heartbeat CPU 0 instructions: 27000176 cycles: 11246603 heartbeat IPC: 2.444 cumulative IPC: 2.401 (Simulation time: 00 hr 03 min 06 sec)
Heartbeat CPU 0 instructions: 27500176 cycles: 11434973 heartbeat IPC: 2.654 cumulative IPC: 2.405 (Simulation time: 00 hr 03 min 09 sec)
Heartbeat CPU 0 instructions: 28000179 cycles: 11633201 heartbeat IPC: 2.522 cumulative IPC: 2.407 (Simulation time: 00 hr 03 min 12 sec)
Heartbeat CPU 0 instructions: 28500179 cycles: 11837169 heartbeat IPC: 2.451 cumulative IPC: 2.408 (Simulation time: 00 hr 03 min 16 sec)
Heartbeat CPU 0 instructions: 29000183 cycles: 12060221 heartbeat IPC: 2.242 cumulative IPC: 2.405 (Simulation time: 00 hr 03 min 20 sec)
Heartbeat CPU 0 instructions: 29500186 cycles: 12278005 heartbeat IPC: 2.296 cumulative IPC: 2.403 (Simulation time: 00 hr 03 min 23 sec)
Heartbeat CPU 0 instructions: 30000188 cycles: 12493782 heartbeat IPC: 2.317 cumulative IPC: 2.401 (Simulation time: 00 hr 03 min 27 sec)
Heartbeat CPU 0 instructions: 30500193 cycles: 12699710 heartbeat IPC: 2.428 cumulative IPC: 2.402 (Simulation time: 00 hr 03 min 30 sec)
Heartbeat CPU 0 instructions: 31000195 cycles: 12887655 heartbeat IPC: 2.66 cumulative IPC: 2.405 (Simulation time: 00 hr 03 min 33 sec)
Heartbeat CPU 0 instructions: 31500201 cycles: 13096059 heartbeat IPC: 2.399 cumulative IPC: 2.405 (Simulation time: 00 hr 03 min 37 sec)
Heartbeat CPU 0 instructions: 32000202 cycles: 13220266 heartbeat IPC: 4.026 cumulative IPC: 2.421 (Simulation time: 00 hr 03 min 39 sec)
Heartbeat CPU 0 instructions: 32500202 cycles: 13343970 heartbeat IPC: 4.042 cumulative IPC: 2.436 (Simulation time: 00 hr 03 min 41 sec)
Heartbeat CPU 0 instructions: 33000206 cycles: 13488953 heartbeat IPC: 3.449 cumulative IPC: 2.446 (Simulation time: 00 hr 03 min 44 sec)
Heartbeat CPU 0 instructions: 33500208 cycles: 13666368 heartbeat IPC: 2.818 cumulative IPC: 2.451 (Simulation time: 00 hr 03 min 47 sec)
Heartbeat CPU 0 instructions: 34000214 cycles: 13863310 heartbeat IPC: 2.539 cumulative IPC: 2.453 (Simulation time: 00 hr 03 min 50 sec)
Heartbeat CPU 0 instructions: 34500218 cycles: 13987592 heartbeat IPC: 4.023 cumulative IPC: 2.466 (Simulation time: 00 hr 03 min 52 sec)
Heartbeat CPU 0 instructions: 35000221 cycles: 14111832 heartbeat IPC: 4.024 cumulative IPC: 2.48 (Simulation time: 00 hr 03 min 55 sec)
Heartbeat CPU 0 instructions: 35500222 cycles: 14236015 heartbeat IPC: 4.026 cumulative IPC: 2.494 (Simulation time: 00 hr 03 min 57 sec)
Heartbeat CPU 0 instructions: 36000227 cycles: 14360286 heartbeat IPC: 4.024 cumulative IPC: 2.507 (Simulation time: 00 hr 03 min 59 sec)
Heartbeat CPU 0 instructions: 36500230 cycles: 14484343 heartbeat IPC: 4.03 cumulative IPC: 2.52 (Simulation time: 00 hr 04 min 01 sec)
Heartbeat CPU 0 instructions: 37000232 cycles: 14608656 heartbeat IPC: 4.022 cumulative IPC: 2.533 (Simulation time: 00 hr 04 min 04 sec)
Heartbeat CPU 0 instructions: 37500234 cycles: 14732943 heartbeat IPC: 4.023 cumulative IPC: 2.545 (Simulation time: 00 hr 04 min 06 sec)
Heartbeat CPU 0 instructions: 38000234 cycles: 14951819 heartbeat IPC: 2.284 cumulative IPC: 2.542 (Simulation time: 00 hr 04 min 09 sec)
Heartbeat CPU 0 instructions: 38500234 cycles: 15171786 heartbeat IPC: 2.273 cumulative IPC: 2.538 (Simulation time: 00 hr 04 min 13 sec)
Heartbeat CPU 0 instructions: 39000240 cycles: 15391139 heartbeat IPC: 2.279 cumulative IPC: 2.534 (Simulation time: 00 hr 04 min 17 sec)
Heartbeat CPU 0 instructions: 39500243 cycles: 15610886 heartbeat IPC: 2.275 cumulative IPC: 2.53 (Simulation time: 00 hr 04 min 20 sec)
Heartbeat CPU 0 instructions: 40000243 cycles: 15827767 heartbeat IPC: 2.305 cumulative IPC: 2.527 (Simulation time: 00 hr 04 min 24 sec)
Heartbeat CPU 0 instructions: 40500250 cycles: 16046945 heartbeat IPC: 2.281 cumulative IPC: 2.524 (Simulation time: 00 hr 04 min 27 sec)
Heartbeat CPU 0 instructions: 41000253 cycles: 16265547 heartbeat IPC: 2.287 cumulative IPC: 2.521 (Simulation time: 00 hr 04 min 31 sec)
Heartbeat CPU 0 instructions: 41500259 cycles: 16389598 heartbeat IPC: 4.031 cumulative IPC: 2.532 (Simulation time: 00 hr 04 min 33 sec)
Heartbeat CPU 0 instructions: 42000265 cycles: 16513873 heartbeat IPC: 4.023 cumulative IPC: 2.543 (Simulation time: 00 hr 04 min 36 sec)
Heartbeat CPU 0 instructions: 42500265 cycles: 16699156 heartbeat IPC: 2.699 cumulative IPC: 2.545 (Simulation time: 00 hr 04 min 39 sec)
Heartbeat CPU 0 instructions: 43000271 cycles: 16917826 heartbeat IPC: 2.287 cumulative IPC: 2.542 (Simulation time: 00 hr 04 min 42 sec)
Heartbeat CPU 0 instructions: 43500278 cycles: 17137715 heartbeat IPC: 2.274 cumulative IPC: 2.538 (Simulation time: 00 hr 04 min 46 sec)
Heartbeat CPU 0 instructions: 44000282 cycles: 17356839 heartbeat IPC: 2.282 cumulative IPC: 2.535 (Simulation time: 00 hr 04 min 50 sec)
Heartbeat CPU 0 instructions: 44500288 cycles: 17526472 heartbeat IPC: 2.948 cumulative IPC: 2.539 (Simulation time: 00 hr 04 min 52 sec)
Heartbeat CPU 0 instructions: 45000290 cycles: 17650588 heartbeat IPC: 4.029 cumulative IPC: 2.55 (Simulation time: 00 hr 04 min 55 sec)
Heartbeat CPU 0 instructions: 45500295 cycles: 17774739 heartbeat IPC: 4.027 cumulative IPC: 2.56 (Simulation time: 00 hr 04 min 57 sec)
Heartbeat CPU 0 instructions: 46000295 cycles: 17960209 heartbeat IPC: 2.696 cumulative IPC: 2.561 (Simulation time: 00 hr 05 min 00 sec)
Heartbeat CPU 0 instructions: 46500301 cycles: 18179690 heartbeat IPC: 2.278 cumulative IPC: 2.558 (Simulation time: 00 hr 05 min 04 sec)
Heartbeat CPU 0 instructions: 47000304 cycles: 18318896 heartbeat IPC: 3.592 cumulative IPC: 2.566 (Simulation time: 00 hr 05 min 06 sec)
Heartbeat CPU 0 instructions: 47500307 cycles: 18443023 heartbeat IPC: 4.028 cumulative IPC: 2.576 (Simulation time: 00 hr 05 min 08 sec)
Heartbeat CPU 0 instructions: 48000308 cycles: 18566820 heartbeat IPC: 4.039 cumulative IPC: 2.585 (Simulation time: 00 hr 05 min 11 sec)
Heartbeat CPU 0 instructions: 48500311 cycles: 18691044 heartbeat IPC: 4.025 cumulative IPC: 2.595 (Simulation time: 00 hr 05 min 13 sec)
Heartbeat CPU 0 instructions: 49000317 cycles: 18815022 heartbeat IPC: 4.033 cumulative IPC: 2.604 (Simulation time: 00 hr 05 min 15 sec)
Heartbeat CPU 0 instructions: 49500320 cycles: 18939160 heartbeat IPC: 4.028 cumulative IPC: 2.614 (Simulation time: 00 hr 05 min 17 sec)
Warmup halting CPU 0 at instruction 50000001 cycle 19063237 for remainder of phase
Warmup finished CPU 0 instructions: 50000001 cycles: 19063237 cumulative IPC: 2.623 (Simulation time: 00 hr 05 min 20 sec)
Warmup complete CPU 0 instructions: 50000001 cycles: 19063237 cumulative IPC: 2.623 (Simulation time: 00 hr 05 min 20 sec)
Heartbeat CPU 0 instructions: 50000320 cycles: 19063392 heartbeat IPC: 4.025 cumulative IPC: 2.058 (Simulation time: 00 hr 05 min 20 sec)
Heartbeat CPU 0 instructions: 50500321 cycles: 19246978 heartbeat IPC: 2.724 cumulative IPC: 2.723 (Simulation time: 00 hr 05 min 22 sec)
Heartbeat CPU 0 instructions: 51000328 cycles: 19430280 heartbeat IPC: 2.728 cumulative IPC: 2.725 (Simulation time: 00 hr 05 min 25 sec)
Heartbeat CPU 0 instructions: 51500333 cycles: 19614525 heartbeat IPC: 2.714 cumulative IPC: 2.722 (Simulation time: 00 hr 05 min 27 sec)
Heartbeat CPU 0 instructions: 52000333 cycles: 19798506 heartbeat IPC: 2.718 cumulative IPC: 2.721 (Simulation time: 00 hr 05 min 29 sec)
Heartbeat CPU 0 instructions: 52500336 cycles: 19987624 heartbeat IPC: 2.644 cumulative IPC: 2.705 (Simulation time: 00 hr 05 min 32 sec)
Heartbeat CPU 0 instructions: 53000339 cycles: 20170946 heartbeat IPC: 2.727 cumulative IPC: 2.709 (Simulation time: 00 hr 05 min 34 sec)
Heartbeat CPU 0 instructions: 53500345 cycles: 20352264 heartbeat IPC: 2.758 cumulative IPC: 2.715 (Simulation time: 00 hr 05 min 37 sec)
Heartbeat CPU 0 instructions: 54000351 cycles: 20528996 heartbeat IPC: 2.829 cumulative IPC: 2.729 (Simulation time: 00 hr 05 min 39 sec)
Heartbeat CPU 0 instructions: 54500354 cycles: 20709309 heartbeat IPC: 2.773 cumulative IPC: 2.734 (Simulation time: 00 hr 05 min 41 sec)
Heartbeat CPU 0 instructions: 55000355 cycles: 20887629 heartbeat IPC: 2.804 cumulative IPC: 2.741 (Simulation time: 00 hr 05 min 44 sec)
Heartbeat CPU 0 instructions: 55500360 cycles: 21063365 heartbeat IPC: 2.845 cumulative IPC: 2.75 (Simulation time: 00 hr 05 min 46 sec)
Heartbeat CPU 0 instructions: 56000361 cycles: 21237195 heartbeat IPC: 2.876 cumulative IPC: 2.76 (Simulation time: 00 hr 05 min 48 sec)
Heartbeat CPU 0 instructions: 56500364 cycles: 21416222 heartbeat IPC: 2.793 cumulative IPC: 2.763 (Simulation time: 00 hr 05 min 51 sec)
Heartbeat CPU 0 instructions: 57000364 cycles: 21588528 heartbeat IPC: 2.902 cumulative IPC: 2.772 (Simulation time: 00 hr 05 min 53 sec)
Heartbeat CPU 0 instructions: 57500364 cycles: 21763910 heartbeat IPC: 2.851 cumulative IPC: 2.777 (Simulation time: 00 hr 05 min 56 sec)
Heartbeat CPU 0 instructions: 58000367 cycles: 21948028 heartbeat IPC: 2.716 cumulative IPC: 2.773 (Simulation time: 00 hr 05 min 58 sec)
Heartbeat CPU 0 instructions: 58500374 cycles: 22120951 heartbeat IPC: 2.892 cumulative IPC: 2.78 (Simulation time: 00 hr 06 min 00 sec)
Heartbeat CPU 0 instructions: 59000381 cycles: 22292057 heartbeat IPC: 2.922 cumulative IPC: 2.788 (Simulation time: 00 hr 06 min 03 sec)
Heartbeat CPU 0 instructions: 59500385 cycles: 22462644 heartbeat IPC: 2.931 cumulative IPC: 2.795 (Simulation time: 00 hr 06 min 05 sec)
Heartbeat CPU 0 instructions: 60000392 cycles: 22636725 heartbeat IPC: 2.872 cumulative IPC: 2.798 (Simulation time: 00 hr 06 min 07 sec)
Heartbeat CPU 0 instructions: 60500395 cycles: 22804802 heartbeat IPC: 2.975 cumulative IPC: 2.806 (Simulation time: 00 hr 06 min 09 sec)
Heartbeat CPU 0 instructions: 61000402 cycles: 22973772 heartbeat IPC: 2.959 cumulative IPC: 2.813 (Simulation time: 00 hr 06 min 12 sec)
Heartbeat CPU 0 instructions: 61500409 cycles: 23142462 heartbeat IPC: 2.964 cumulative IPC: 2.819 (Simulation time: 00 hr 06 min 14 sec)
Heartbeat CPU 0 instructions: 62000410 cycles: 23312127 heartbeat IPC: 2.947 cumulative IPC: 2.824 (Simulation time: 00 hr 06 min 16 sec)
Heartbeat CPU 0 instructions: 62500417 cycles: 23489730 heartbeat IPC: 2.815 cumulative IPC: 2.824 (Simulation time: 00 hr 06 min 19 sec)
Heartbeat CPU 0 instructions: 63000418 cycles: 23674379 heartbeat IPC: 2.708 cumulative IPC: 2.819 (Simulation time: 00 hr 06 min 21 sec)
Heartbeat CPU 0 instructions: 63500418 cycles: 23864242 heartbeat IPC: 2.633 cumulative IPC: 2.812 (Simulation time: 00 hr 06 min 24 sec)
Heartbeat CPU 0 instructions: 64000420 cycles: 24048799 heartbeat IPC: 2.709 cumulative IPC: 2.808 (Simulation time: 00 hr 06 min 26 sec)
Heartbeat CPU 0 instructions: 64500421 cycles: 24232791 heartbeat IPC: 2.718 cumulative IPC: 2.805 (Simulation time: 00 hr 06 min 28 sec)
Heartbeat CPU 0 instructions: 65000426 cycles: 24416944 heartbeat IPC: 2.715 cumulative IPC: 2.802 (Simulation time: 00 hr 06 min 31 sec)
Heartbeat CPU 0 instructions: 65500429 cycles: 24600485 heartbeat IPC: 2.724 cumulative IPC: 2.799 (Simulation time: 00 hr 06 min 33 sec)
Heartbeat CPU 0 instructions: 66000432 cycles: 24785182 heartbeat IPC: 2.707 cumulative IPC: 2.796 (Simulation time: 00 hr 06 min 36 sec)
Heartbeat CPU 0 instructions: 66500434 cycles: 24968252 heartbeat IPC: 2.731 cumulative IPC: 2.794 (Simulation time: 00 hr 06 min 38 sec)
Heartbeat CPU 0 instructions: 67000439 cycles: 25152187 heartbeat IPC: 2.718 cumulative IPC: 2.792 (Simulation time: 00 hr 06 min 41 sec)
Heartbeat CPU 0 instructions: 67500444 cycles: 25343570 heartbeat IPC: 2.613 cumulative IPC: 2.787 (Simulation time: 00 hr 06 min 43 sec)
Heartbeat CPU 0 instructions: 68000445 cycles: 25526645 heartbeat IPC: 2.731 cumulative IPC: 2.785 (Simulation time: 00 hr 06 min 46 sec)
Heartbeat CPU 0 instructions: 68500448 cycles: 25710361 heartbeat IPC: 2.722 cumulative IPC: 2.783 (Simulation time: 00 hr 06 min 48 sec)
Heartbeat CPU 0 instructions: 69000450 cycles: 25894501 heartbeat IPC: 2.715 cumulative IPC: 2.781 (Simulation time: 00 hr 06 min 50 sec)
Heartbeat CPU 0 instructions: 69500454 cycles: 26078701 heartbeat IPC: 2.714 cumulative IPC: 2.78 (Simulation time: 00 hr 06 min 53 sec)
Heartbeat CPU 0 instructions: 70000455 cycles: 26262390 heartbeat IPC: 2.722 cumulative IPC: 2.778 (Simulation time: 00 hr 06 min 55 sec)
Heartbeat CPU 0 instructions: 70500458 cycles: 26446008 heartbeat IPC: 2.723 cumulative IPC: 2.777 (Simulation time: 00 hr 06 min 58 sec)
Heartbeat CPU 0 instructions: 71000463 cycles: 26646033 heartbeat IPC: 2.5 cumulative IPC: 2.769 (Simulation time: 00 hr 07 min 00 sec)
Heartbeat CPU 0 instructions: 71500464 cycles: 26829611 heartbeat IPC: 2.724 cumulative IPC: 2.768 (Simulation time: 00 hr 07 min 03 sec)
Heartbeat CPU 0 instructions: 72000467 cycles: 27013414 heartbeat IPC: 2.72 cumulative IPC: 2.767 (Simulation time: 00 hr 07 min 05 sec)
Heartbeat CPU 0 instructions: 72500474 cycles: 27196919 heartbeat IPC: 2.725 cumulative IPC: 2.766 (Simulation time: 00 hr 07 min 08 sec)
Heartbeat CPU 0 instructions: 73000481 cycles: 27380330 heartbeat IPC: 2.726 cumulative IPC: 2.765 (Simulation time: 00 hr 07 min 10 sec)
Heartbeat CPU 0 instructions: 73500484 cycles: 27560651 heartbeat IPC: 2.773 cumulative IPC: 2.766 (Simulation time: 00 hr 07 min 12 sec)
Heartbeat CPU 0 instructions: 74000485 cycles: 27743005 heartbeat IPC: 2.742 cumulative IPC: 2.765 (Simulation time: 00 hr 07 min 15 sec)
Heartbeat CPU 0 instructions: 74500485 cycles: 27932897 heartbeat IPC: 2.633 cumulative IPC: 2.762 (Simulation time: 00 hr 07 min 17 sec)
Heartbeat CPU 0 instructions: 75000486 cycles: 28118000 heartbeat IPC: 2.701 cumulative IPC: 2.761 (Simulation time: 00 hr 07 min 20 sec)
Heartbeat CPU 0 instructions: 75500489 cycles: 28302196 heartbeat IPC: 2.715 cumulative IPC: 2.76 (Simulation time: 00 hr 07 min 22 sec)
Heartbeat CPU 0 instructions: 76000492 cycles: 28485908 heartbeat IPC: 2.722 cumulative IPC: 2.759 (Simulation time: 00 hr 07 min 25 sec)
Heartbeat CPU 0 instructions: 76500493 cycles: 28669647 heartbeat IPC: 2.721 cumulative IPC: 2.759 (Simulation time: 00 hr 07 min 27 sec)
Heartbeat CPU 0 instructions: 77000498 cycles: 28853258 heartbeat IPC: 2.723 cumulative IPC: 2.758 (Simulation time: 00 hr 07 min 29 sec)
Heartbeat CPU 0 instructions: 77500501 cycles: 29037875 heartbeat IPC: 2.708 cumulative IPC: 2.757 (Simulation time: 00 hr 07 min 32 sec)
Heartbeat CPU 0 instructions: 78000506 cycles: 29223267 heartbeat IPC: 2.697 cumulative IPC: 2.756 (Simulation time: 00 hr 07 min 34 sec)
Heartbeat CPU 0 instructions: 78500511 cycles: 29413653 heartbeat IPC: 2.626 cumulative IPC: 2.754 (Simulation time: 00 hr 07 min 37 sec)
Heartbeat CPU 0 instructions: 79000514 cycles: 29596961 heartbeat IPC: 2.728 cumulative IPC: 2.753 (Simulation time: 00 hr 07 min 39 sec)
Heartbeat CPU 0 instructions: 79500519 cycles: 29780978 heartbeat IPC: 2.717 cumulative IPC: 2.752 (Simulation time: 00 hr 07 min 42 sec)
Heartbeat CPU 0 instructions: 80000520 cycles: 29964274 heartbeat IPC: 2.728 cumulative IPC: 2.752 (Simulation time: 00 hr 07 min 44 sec)
Heartbeat CPU 0 instructions: 80500523 cycles: 30147729 heartbeat IPC: 2.725 cumulative IPC: 2.752 (Simulation time: 00 hr 07 min 46 sec)
Heartbeat CPU 0 instructions: 81000524 cycles: 30332658 heartbeat IPC: 2.704 cumulative IPC: 2.751 (Simulation time: 00 hr 07 min 49 sec)
Heartbeat CPU 0 instructions: 81500531 cycles: 30515983 heartbeat IPC: 2.727 cumulative IPC: 2.75 (Simulation time: 00 hr 07 min 51 sec)
Heartbeat CPU 0 instructions: 82000532 cycles: 30707402 heartbeat IPC: 2.612 cumulative IPC: 2.748 (Simulation time: 00 hr 07 min 54 sec)
Heartbeat CPU 0 instructions: 82500536 cycles: 30891572 heartbeat IPC: 2.715 cumulative IPC: 2.748 (Simulation time: 00 hr 07 min 56 sec)
Heartbeat CPU 0 instructions: 83000543 cycles: 31075640 heartbeat IPC: 2.716 cumulative IPC: 2.747 (Simulation time: 00 hr 07 min 59 sec)
Heartbeat CPU 0 instructions: 83500548 cycles: 31259748 heartbeat IPC: 2.716 cumulative IPC: 2.747 (Simulation time: 00 hr 08 min 01 sec)
Heartbeat CPU 0 instructions: 84000553 cycles: 31443138 heartbeat IPC: 2.726 cumulative IPC: 2.746 (Simulation time: 00 hr 08 min 04 sec)
Heartbeat CPU 0 instructions: 84500554 cycles: 31624318 heartbeat IPC: 2.76 cumulative IPC: 2.747 (Simulation time: 00 hr 08 min 06 sec)
Heartbeat CPU 0 instructions: 85000557 cycles: 31805767 heartbeat IPC: 2.756 cumulative IPC: 2.747 (Simulation time: 00 hr 08 min 08 sec)
Heartbeat CPU 0 instructions: 85500560 cycles: 31989564 heartbeat IPC: 2.72 cumulative IPC: 2.746 (Simulation time: 00 hr 08 min 11 sec)
Heartbeat CPU 0 instructions: 86000561 cycles: 32169327 heartbeat IPC: 2.781 cumulative IPC: 2.747 (Simulation time: 00 hr 08 min 13 sec)
Heartbeat CPU 0 instructions: 86500564 cycles: 32345511 heartbeat IPC: 2.838 cumulative IPC: 2.748 (Simulation time: 00 hr 08 min 16 sec)
Heartbeat CPU 0 instructions: 87000569 cycles: 32519781 heartbeat IPC: 2.869 cumulative IPC: 2.75 (Simulation time: 00 hr 08 min 18 sec)
Heartbeat CPU 0 instructions: 87500570 cycles: 32692433 heartbeat IPC: 2.896 cumulative IPC: 2.751 (Simulation time: 00 hr 08 min 20 sec)
Heartbeat CPU 0 instructions: 88000571 cycles: 32867722 heartbeat IPC: 2.852 cumulative IPC: 2.753 (Simulation time: 00 hr 08 min 23 sec)
Heartbeat CPU 0 instructions: 88500576 cycles: 33041122 heartbeat IPC: 2.884 cumulative IPC: 2.754 (Simulation time: 00 hr 08 min 25 sec)
Heartbeat CPU 0 instructions: 89000580 cycles: 33224447 heartbeat IPC: 2.727 cumulative IPC: 2.754 (Simulation time: 00 hr 08 min 27 sec)
Heartbeat CPU 0 instructions: 89500583 cycles: 33406353 heartbeat IPC: 2.749 cumulative IPC: 2.754 (Simulation time: 00 hr 08 min 30 sec)
Heartbeat CPU 0 instructions: 90000588 cycles: 33577806 heartbeat IPC: 2.916 cumulative IPC: 2.756 (Simulation time: 00 hr 08 min 32 sec)
Heartbeat CPU 0 instructions: 90500589 cycles: 33749282 heartbeat IPC: 2.916 cumulative IPC: 2.758 (Simulation time: 00 hr 08 min 34 sec)
Heartbeat CPU 0 instructions: 91000594 cycles: 33919587 heartbeat IPC: 2.936 cumulative IPC: 2.76 (Simulation time: 00 hr 08 min 37 sec)
Heartbeat CPU 0 instructions: 91500600 cycles: 34090605 heartbeat IPC: 2.924 cumulative IPC: 2.762 (Simulation time: 00 hr 08 min 39 sec)
Heartbeat CPU 0 instructions: 92000604 cycles: 34259577 heartbeat IPC: 2.959 cumulative IPC: 2.764 (Simulation time: 00 hr 08 min 41 sec)
Heartbeat CPU 0 instructions: 92500606 cycles: 34429960 heartbeat IPC: 2.935 cumulative IPC: 2.766 (Simulation time: 00 hr 08 min 43 sec)
Heartbeat CPU 0 instructions: 93000609 cycles: 34603877 heartbeat IPC: 2.875 cumulative IPC: 2.767 (Simulation time: 00 hr 08 min 46 sec)
Heartbeat CPU 0 instructions: 93500615 cycles: 34778938 heartbeat IPC: 2.856 cumulative IPC: 2.768 (Simulation time: 00 hr 08 min 48 sec)
Heartbeat CPU 0 instructions: 94000615 cycles: 34964086 heartbeat IPC: 2.701 cumulative IPC: 2.767 (Simulation time: 00 hr 08 min 51 sec)
Heartbeat CPU 0 instructions: 94500617 cycles: 35147346 heartbeat IPC: 2.728 cumulative IPC: 2.767 (Simulation time: 00 hr 08 min 53 sec)
Heartbeat CPU 0 instructions: 95000620 cycles: 35331247 heartbeat IPC: 2.719 cumulative IPC: 2.766 (Simulation time: 00 hr 08 min 55 sec)
Heartbeat CPU 0 instructions: 95500627 cycles: 35515210 heartbeat IPC: 2.718 cumulative IPC: 2.766 (Simulation time: 00 hr 08 min 58 sec)
Heartbeat CPU 0 instructions: 96000634 cycles: 35699010 heartbeat IPC: 2.72 cumulative IPC: 2.765 (Simulation time: 00 hr 09 min 00 sec)
Heartbeat CPU 0 instructions: 96500634 cycles: 35889620 heartbeat IPC: 2.623 cumulative IPC: 2.764 (Simulation time: 00 hr 09 min 03 sec)
Heartbeat CPU 0 instructions: 97000640 cycles: 36072717 heartbeat IPC: 2.731 cumulative IPC: 2.763 (Simulation time: 00 hr 09 min 05 sec)
Heartbeat CPU 0 instructions: 97500644 cycles: 36255840 heartbeat IPC: 2.73 cumulative IPC: 2.763 (Simulation time: 00 hr 09 min 08 sec)
Heartbeat CPU 0 instructions: 98000647 cycles: 36440060 heartbeat IPC: 2.714 cumulative IPC: 2.762 (Simulation time: 00 hr 09 min 10 sec)
Heartbeat CPU 0 instructions: 98500652 cycles: 36623158 heartbeat IPC: 2.731 cumulative IPC: 2.762 (Simulation time: 00 hr 09 min 12 sec)
Heartbeat CPU 0 instructions: 99000653 cycles: 36807163 heartbeat IPC: 2.717 cumulative IPC: 2.762 (Simulation time: 00 hr 09 min 15 sec)
Heartbeat CPU 0 instructions: 99500653 cycles: 36989508 heartbeat IPC: 2.742 cumulative IPC: 2.761 (Simulation time: 00 hr 09 min 17 sec)
Heartbeat CPU 0 instructions: 100000659 cycles: 37174872 heartbeat IPC: 2.697 cumulative IPC: 2.761 (Simulation time: 00 hr 09 min 20 sec)
Heartbeat CPU 0 instructions: 100500659 cycles: 37366500 heartbeat IPC: 2.609 cumulative IPC: 2.759 (Simulation time: 00 hr 09 min 22 sec)
Heartbeat CPU 0 instructions: 101000663 cycles: 37549817 heartbeat IPC: 2.728 cumulative IPC: 2.759 (Simulation time: 00 hr 09 min 25 sec)
Heartbeat CPU 0 instructions: 101500666 cycles: 37735967 heartbeat IPC: 2.686 cumulative IPC: 2.758 (Simulation time: 00 hr 09 min 27 sec)
Heartbeat CPU 0 instructions: 102000668 cycles: 37927030 heartbeat IPC: 2.617 cumulative IPC: 2.757 (Simulation time: 00 hr 09 min 30 sec)
Heartbeat CPU 0 instructions: 102500668 cycles: 38113240 heartbeat IPC: 2.685 cumulative IPC: 2.756 (Simulation time: 00 hr 09 min 32 sec)
Heartbeat CPU 0 instructions: 103000673 cycles: 38296474 heartbeat IPC: 2.729 cumulative IPC: 2.756 (Simulation time: 00 hr 09 min 34 sec)
Heartbeat CPU 0 instructions: 103500676 cycles: 38480670 heartbeat IPC: 2.715 cumulative IPC: 2.755 (Simulation time: 00 hr 09 min 37 sec)
Heartbeat CPU 0 instructions: 104000676 cycles: 38674382 heartbeat IPC: 2.581 cumulative IPC: 2.754 (Simulation time: 00 hr 09 min 39 sec)
Heartbeat CPU 0 instructions: 104500677 cycles: 38857425 heartbeat IPC: 2.732 cumulative IPC: 2.753 (Simulation time: 00 hr 09 min 42 sec)
Heartbeat CPU 0 instructions: 105000677 cycles: 39041839 heartbeat IPC: 2.711 cumulative IPC: 2.753 (Simulation time: 00 hr 09 min 44 sec)
Heartbeat CPU 0 instructions: 105500681 cycles: 39227235 heartbeat IPC: 2.697 cumulative IPC: 2.752 (Simulation time: 00 hr 09 min 47 sec)
Heartbeat CPU 0 instructions: 106000684 cycles: 39411441 heartbeat IPC: 2.714 cumulative IPC: 2.752 (Simulation time: 00 hr 09 min 49 sec)
Heartbeat CPU 0 instructions: 106500687 cycles: 39595810 heartbeat IPC: 2.712 cumulative IPC: 2.752 (Simulation time: 00 hr 09 min 52 sec)
Heartbeat CPU 0 instructions: 107000689 cycles: 39780537 heartbeat IPC: 2.707 cumulative IPC: 2.751 (Simulation time: 00 hr 09 min 54 sec)
Heartbeat CPU 0 instructions: 107500695 cycles: 39970524 heartbeat IPC: 2.632 cumulative IPC: 2.75 (Simulation time: 00 hr 09 min 56 sec)
Heartbeat CPU 0 instructions: 108000700 cycles: 40155057 heartbeat IPC: 2.71 cumulative IPC: 2.75 (Simulation time: 00 hr 09 min 59 sec)
Heartbeat CPU 0 instructions: 108500707 cycles: 40338929 heartbeat IPC: 2.719 cumulative IPC: 2.75 (Simulation time: 00 hr 10 min 01 sec)
Heartbeat CPU 0 instructions: 109000708 cycles: 40522854 heartbeat IPC: 2.719 cumulative IPC: 2.749 (Simulation time: 00 hr 10 min 04 sec)
Heartbeat CPU 0 instructions: 109500710 cycles: 40707453 heartbeat IPC: 2.709 cumulative IPC: 2.749 (Simulation time: 00 hr 10 min 06 sec)
Heartbeat CPU 0 instructions: 110000714 cycles: 40891024 heartbeat IPC: 2.724 cumulative IPC: 2.749 (Simulation time: 00 hr 10 min 09 sec)
Heartbeat CPU 0 instructions: 110500714 cycles: 41075288 heartbeat IPC: 2.713 cumulative IPC: 2.749 (Simulation time: 00 hr 10 min 11 sec)
Heartbeat CPU 0 instructions: 111000715 cycles: 41260140 heartbeat IPC: 2.705 cumulative IPC: 2.748 (Simulation time: 00 hr 10 min 14 sec)
Heartbeat CPU 0 instructions: 111500716 cycles: 41449315 heartbeat IPC: 2.643 cumulative IPC: 2.747 (Simulation time: 00 hr 10 min 16 sec)
Heartbeat CPU 0 instructions: 112000719 cycles: 41633991 heartbeat IPC: 2.707 cumulative IPC: 2.747 (Simulation time: 00 hr 10 min 18 sec)
Heartbeat CPU 0 instructions: 112500722 cycles: 41816745 heartbeat IPC: 2.736 cumulative IPC: 2.747 (Simulation time: 00 hr 10 min 21 sec)
Heartbeat CPU 0 instructions: 113000722 cycles: 42001355 heartbeat IPC: 2.708 cumulative IPC: 2.747 (Simulation time: 00 hr 10 min 23 sec)
Heartbeat CPU 0 instructions: 113500728 cycles: 42184571 heartbeat IPC: 2.729 cumulative IPC: 2.746 (Simulation time: 00 hr 10 min 26 sec)
Heartbeat CPU 0 instructions: 114000731 cycles: 42368386 heartbeat IPC: 2.72 cumulative IPC: 2.746 (Simulation time: 00 hr 10 min 28 sec)
Heartbeat CPU 0 instructions: 114500732 cycles: 42552638 heartbeat IPC: 2.714 cumulative IPC: 2.746 (Simulation time: 00 hr 10 min 31 sec)
Heartbeat CPU 0 instructions: 115000737 cycles: 42744083 heartbeat IPC: 2.612 cumulative IPC: 2.745 (Simulation time: 00 hr 10 min 33 sec)
Heartbeat CPU 0 instructions: 115500738 cycles: 42923628 heartbeat IPC: 2.785 cumulative IPC: 2.745 (Simulation time: 00 hr 10 min 35 sec)
Heartbeat CPU 0 instructions: 116000739 cycles: 43105503 heartbeat IPC: 2.749 cumulative IPC: 2.745 (Simulation time: 00 hr 10 min 38 sec)
Heartbeat CPU 0 instructions: 116500741 cycles: 43283457 heartbeat IPC: 2.81 cumulative IPC: 2.746 (Simulation time: 00 hr 10 min 40 sec)
Heartbeat CPU 0 instructions: 117000744 cycles: 43463067 heartbeat IPC: 2.784 cumulative IPC: 2.746 (Simulation time: 00 hr 10 min 43 sec)
Heartbeat CPU 0 instructions: 117500748 cycles: 43638120 heartbeat IPC: 2.856 cumulative IPC: 2.747 (Simulation time: 00 hr 10 min 45 sec)
Heartbeat CPU 0 instructions: 118000751 cycles: 43814086 heartbeat IPC: 2.841 cumulative IPC: 2.747 (Simulation time: 00 hr 10 min 47 sec)
Heartbeat CPU 0 instructions: 118500751 cycles: 43993200 heartbeat IPC: 2.792 cumulative IPC: 2.748 (Simulation time: 00 hr 10 min 50 sec)
Heartbeat CPU 0 instructions: 119000755 cycles: 44166560 heartbeat IPC: 2.884 cumulative IPC: 2.749 (Simulation time: 00 hr 10 min 52 sec)
Heartbeat CPU 0 instructions: 119500760 cycles: 44340997 heartbeat IPC: 2.866 cumulative IPC: 2.749 (Simulation time: 00 hr 10 min 54 sec)
Heartbeat CPU 0 instructions: 120000764 cycles: 44522133 heartbeat IPC: 2.76 cumulative IPC: 2.75 (Simulation time: 00 hr 10 min 57 sec)
Heartbeat CPU 0 instructions: 120500767 cycles: 44699589 heartbeat IPC: 2.818 cumulative IPC: 2.75 (Simulation time: 00 hr 10 min 59 sec)
Heartbeat CPU 0 instructions: 121000767 cycles: 44870510 heartbeat IPC: 2.925 cumulative IPC: 2.751 (Simulation time: 00 hr 11 min 01 sec)
Heartbeat CPU 0 instructions: 121500771 cycles: 45040677 heartbeat IPC: 2.938 cumulative IPC: 2.752 (Simulation time: 00 hr 11 min 04 sec)
Heartbeat CPU 0 instructions: 122000773 cycles: 45212580 heartbeat IPC: 2.909 cumulative IPC: 2.753 (Simulation time: 00 hr 11 min 06 sec)
Heartbeat CPU 0 instructions: 122500773 cycles: 45385381 heartbeat IPC: 2.894 cumulative IPC: 2.754 (Simulation time: 00 hr 11 min 08 sec)
Heartbeat CPU 0 instructions: 123000774 cycles: 45555198 heartbeat IPC: 2.944 cumulative IPC: 2.756 (Simulation time: 00 hr 11 min 11 sec)
Heartbeat CPU 0 instructions: 123500775 cycles: 45725476 heartbeat IPC: 2.936 cumulative IPC: 2.757 (Simulation time: 00 hr 11 min 13 sec)
Heartbeat CPU 0 instructions: 124000777 cycles: 45894949 heartbeat IPC: 2.95 cumulative IPC: 2.758 (Simulation time: 00 hr 11 min 15 sec)
Heartbeat CPU 0 instructions: 124500777 cycles: 46063615 heartbeat IPC: 2.964 cumulative IPC: 2.759 (Simulation time: 00 hr 11 min 17 sec)
Heartbeat CPU 0 instructions: 125000782 cycles: 46247048 heartbeat IPC: 2.726 cumulative IPC: 2.759 (Simulation time: 00 hr 11 min 20 sec)
Heartbeat CPU 0 instructions: 125500785 cycles: 46429357 heartbeat IPC: 2.743 cumulative IPC: 2.759 (Simulation time: 00 hr 11 min 22 sec)
Heartbeat CPU 0 instructions: 126000785 cycles: 46620372 heartbeat IPC: 2.618 cumulative IPC: 2.758 (Simulation time: 00 hr 11 min 25 sec)
Heartbeat CPU 0 instructions: 126500786 cycles: 46803332 heartbeat IPC: 2.733 cumulative IPC: 2.758 (Simulation time: 00 hr 11 min 27 sec)
Heartbeat CPU 0 instructions: 127000787 cycles: 46986921 heartbeat IPC: 2.723 cumulative IPC: 2.758 (Simulation time: 00 hr 11 min 30 sec)
Heartbeat CPU 0 instructions: 127500790 cycles: 47169030 heartbeat IPC: 2.746 cumulative IPC: 2.757 (Simulation time: 00 hr 11 min 32 sec)
Heartbeat CPU 0 instructions: 128000795 cycles: 47353294 heartbeat IPC: 2.714 cumulative IPC: 2.757 (Simulation time: 00 hr 11 min 35 sec)
Heartbeat CPU 0 instructions: 128500798 cycles: 47535780 heartbeat IPC: 2.74 cumulative IPC: 2.757 (Simulation time: 00 hr 11 min 37 sec)
Heartbeat CPU 0 instructions: 129000799 cycles: 47719019 heartbeat IPC: 2.729 cumulative IPC: 2.757 (Simulation time: 00 hr 11 min 39 sec)
Heartbeat CPU 0 instructions: 129500801 cycles: 47908664 heartbeat IPC: 2.637 cumulative IPC: 2.756 (Simulation time: 00 hr 11 min 42 sec)
Heartbeat CPU 0 instructions: 130000803 cycles: 48088052 heartbeat IPC: 2.787 cumulative IPC: 2.756 (Simulation time: 00 hr 11 min 44 sec)
Heartbeat CPU 0 instructions: 130500805 cycles: 48272066 heartbeat IPC: 2.717 cumulative IPC: 2.756 (Simulation time: 00 hr 11 min 47 sec)
Heartbeat CPU 0 instructions: 131000808 cycles: 48455479 heartbeat IPC: 2.726 cumulative IPC: 2.756 (Simulation time: 00 hr 11 min 49 sec)
Heartbeat CPU 0 instructions: 131500814 cycles: 48640093 heartbeat IPC: 2.708 cumulative IPC: 2.756 (Simulation time: 00 hr 11 min 52 sec)
Heartbeat CPU 0 instructions: 132000815 cycles: 48823076 heartbeat IPC: 2.732 cumulative IPC: 2.755 (Simulation time: 00 hr 11 min 54 sec)
Heartbeat CPU 0 instructions: 132500818 cycles: 49007350 heartbeat IPC: 2.713 cumulative IPC: 2.755 (Simulation time: 00 hr 11 min 56 sec)
Heartbeat CPU 0 instructions: 133000821 cycles: 49200073 heartbeat IPC: 2.594 cumulative IPC: 2.754 (Simulation time: 00 hr 11 min 59 sec)
Heartbeat CPU 0 instructions: 133500825 cycles: 49391304 heartbeat IPC: 2.615 cumulative IPC: 2.753 (Simulation time: 00 hr 12 min 01 sec)
Heartbeat CPU 0 instructions: 134000825 cycles: 49574107 heartbeat IPC: 2.735 cumulative IPC: 2.753 (Simulation time: 00 hr 12 min 04 sec)
Heartbeat CPU 0 instructions: 134500831 cycles: 49758177 heartbeat IPC: 2.716 cumulative IPC: 2.753 (Simulation time: 00 hr 12 min 06 sec)
Heartbeat CPU 0 instructions: 135000834 cycles: 49942201 heartbeat IPC: 2.717 cumulative IPC: 2.753 (Simulation time: 00 hr 12 min 09 sec)
Heartbeat CPU 0 instructions: 135500835 cycles: 50128473 heartbeat IPC: 2.684 cumulative IPC: 2.752 (Simulation time: 00 hr 12 min 11 sec)
Heartbeat CPU 0 instructions: 136000838 cycles: 50313096 heartbeat IPC: 2.708 cumulative IPC: 2.752 (Simulation time: 00 hr 12 min 14 sec)
Heartbeat CPU 0 instructions: 136500843 cycles: 50497366 heartbeat IPC: 2.713 cumulative IPC: 2.752 (Simulation time: 00 hr 12 min 16 sec)
Heartbeat CPU 0 instructions: 137000844 cycles: 50689399 heartbeat IPC: 2.604 cumulative IPC: 2.751 (Simulation time: 00 hr 12 min 18 sec)
Heartbeat CPU 0 instructions: 137500846 cycles: 50873677 heartbeat IPC: 2.713 cumulative IPC: 2.751 (Simulation time: 00 hr 12 min 21 sec)
Heartbeat CPU 0 instructions: 138000846 cycles: 51057580 heartbeat IPC: 2.719 cumulative IPC: 2.751 (Simulation time: 00 hr 12 min 23 sec)
Heartbeat CPU 0 instructions: 138500850 cycles: 51241058 heartbeat IPC: 2.725 cumulative IPC: 2.75 (Simulation time: 00 hr 12 min 26 sec)
Heartbeat CPU 0 instructions: 139000853 cycles: 51425427 heartbeat IPC: 2.712 cumulative IPC: 2.75 (Simulation time: 00 hr 12 min 28 sec)
Heartbeat CPU 0 instructions: 139500859 cycles: 51608199 heartbeat IPC: 2.736 cumulative IPC: 2.75 (Simulation time: 00 hr 12 min 31 sec)
Heartbeat CPU 0 instructions: 140000859 cycles: 51791733 heartbeat IPC: 2.724 cumulative IPC: 2.75 (Simulation time: 00 hr 12 min 33 sec)
Heartbeat CPU 0 instructions: 140500865 cycles: 51983740 heartbeat IPC: 2.604 cumulative IPC: 2.749 (Simulation time: 00 hr 12 min 35 sec)
Heartbeat CPU 0 instructions: 141000869 cycles: 52168557 heartbeat IPC: 2.705 cumulative IPC: 2.749 (Simulation time: 00 hr 12 min 38 sec)
Heartbeat CPU 0 instructions: 141500870 cycles: 52351751 heartbeat IPC: 2.729 cumulative IPC: 2.749 (Simulation time: 00 hr 12 min 40 sec)
Heartbeat CPU 0 instructions: 142000873 cycles: 52535208 heartbeat IPC: 2.725 cumulative IPC: 2.749 (Simulation time: 00 hr 12 min 43 sec)
Heartbeat CPU 0 instructions: 142500875 cycles: 52718177 heartbeat IPC: 2.733 cumulative IPC: 2.749 (Simulation time: 00 hr 12 min 45 sec)
Heartbeat CPU 0 instructions: 143000881 cycles: 52902962 heartbeat IPC: 2.706 cumulative IPC: 2.748 (Simulation time: 00 hr 12 min 48 sec)
Heartbeat CPU 0 instructions: 143500888 cycles: 53086865 heartbeat IPC: 2.719 cumulative IPC: 2.748 (Simulation time: 00 hr 12 min 50 sec)
Heartbeat CPU 0 instructions: 144000891 cycles: 53274191 heartbeat IPC: 2.669 cumulative IPC: 2.748 (Simulation time: 00 hr 12 min 52 sec)
Heartbeat CPU 0 instructions: 144500894 cycles: 53462453 heartbeat IPC: 2.656 cumulative IPC: 2.747 (Simulation time: 00 hr 12 min 55 sec)
Heartbeat CPU 0 instructions: 145000897 cycles: 53646924 heartbeat IPC: 2.71 cumulative IPC: 2.747 (Simulation time: 00 hr 12 min 57 sec)
Heartbeat CPU 0 instructions: 145500902 cycles: 53830375 heartbeat IPC: 2.726 cumulative IPC: 2.747 (Simulation time: 00 hr 13 min 00 sec)
Heartbeat CPU 0 instructions: 146000903 cycles: 54013566 heartbeat IPC: 2.729 cumulative IPC: 2.747 (Simulation time: 00 hr 13 min 02 sec)
Heartbeat CPU 0 instructions: 146500903 cycles: 54197251 heartbeat IPC: 2.722 cumulative IPC: 2.747 (Simulation time: 00 hr 13 min 05 sec)
Heartbeat CPU 0 instructions: 147000907 cycles: 54378347 heartbeat IPC: 2.761 cumulative IPC: 2.747 (Simulation time: 00 hr 13 min 07 sec)
Heartbeat CPU 0 instructions: 147500909 cycles: 54559731 heartbeat IPC: 2.757 cumulative IPC: 2.747 (Simulation time: 00 hr 13 min 09 sec)
Heartbeat CPU 0 instructions: 148000916 cycles: 54743958 heartbeat IPC: 2.714 cumulative IPC: 2.747 (Simulation time: 00 hr 13 min 12 sec)
Heartbeat CPU 0 instructions: 148500921 cycles: 54922970 heartbeat IPC: 2.793 cumulative IPC: 2.747 (Simulation time: 00 hr 13 min 14 sec)
Heartbeat CPU 0 instructions: 149000928 cycles: 55096798 heartbeat IPC: 2.876 cumulative IPC: 2.747 (Simulation time: 00 hr 13 min 17 sec)
Heartbeat CPU 0 instructions: 149500933 cycles: 55270170 heartbeat IPC: 2.884 cumulative IPC: 2.748 (Simulation time: 00 hr 13 min 19 sec)
Heartbeat CPU 0 instructions: 150000934 cycles: 55444015 heartbeat IPC: 2.876 cumulative IPC: 2.749 (Simulation time: 00 hr 13 min 21 sec)
Heartbeat CPU 0 instructions: 150500939 cycles: 55616866 heartbeat IPC: 2.893 cumulative IPC: 2.749 (Simulation time: 00 hr 13 min 24 sec)
Heartbeat CPU 0 instructions: 151000943 cycles: 55796465 heartbeat IPC: 2.784 cumulative IPC: 2.75 (Simulation time: 00 hr 13 min 26 sec)
Heartbeat CPU 0 instructions: 151500943 cycles: 55986774 heartbeat IPC: 2.627 cumulative IPC: 2.749 (Simulation time: 00 hr 13 min 28 sec)
Heartbeat CPU 0 instructions: 152000943 cycles: 56158800 heartbeat IPC: 2.907 cumulative IPC: 2.75 (Simulation time: 00 hr 13 min 31 sec)
Heartbeat CPU 0 instructions: 152500947 cycles: 56330404 heartbeat IPC: 2.914 cumulative IPC: 2.75 (Simulation time: 00 hr 13 min 33 sec)
Heartbeat CPU 0 instructions: 153000950 cycles: 56499708 heartbeat IPC: 2.953 cumulative IPC: 2.751 (Simulation time: 00 hr 13 min 35 sec)
Heartbeat CPU 0 instructions: 153500953 cycles: 56670810 heartbeat IPC: 2.922 cumulative IPC: 2.752 (Simulation time: 00 hr 13 min 38 sec)
Heartbeat CPU 0 instructions: 154000956 cycles: 56840413 heartbeat IPC: 2.948 cumulative IPC: 2.753 (Simulation time: 00 hr 13 min 40 sec)
Heartbeat CPU 0 instructions: 154500957 cycles: 57010714 heartbeat IPC: 2.936 cumulative IPC: 2.754 (Simulation time: 00 hr 13 min 42 sec)
Heartbeat CPU 0 instructions: 155000963 cycles: 57181665 heartbeat IPC: 2.925 cumulative IPC: 2.755 (Simulation time: 00 hr 13 min 44 sec)
Heartbeat CPU 0 instructions: 155500966 cycles: 57354424 heartbeat IPC: 2.894 cumulative IPC: 2.755 (Simulation time: 00 hr 13 min 47 sec)
Heartbeat CPU 0 instructions: 156000967 cycles: 57534822 heartbeat IPC: 2.772 cumulative IPC: 2.755 (Simulation time: 00 hr 13 min 49 sec)
Heartbeat CPU 0 instructions: 156500972 cycles: 57718187 heartbeat IPC: 2.727 cumulative IPC: 2.755 (Simulation time: 00 hr 13 min 52 sec)
Heartbeat CPU 0 instructions: 157000975 cycles: 57903803 heartbeat IPC: 2.694 cumulative IPC: 2.755 (Simulation time: 00 hr 13 min 54 sec)
Heartbeat CPU 0 instructions: 157500976 cycles: 58086220 heartbeat IPC: 2.741 cumulative IPC: 2.755 (Simulation time: 00 hr 13 min 56 sec)
Heartbeat CPU 0 instructions: 158000979 cycles: 58268432 heartbeat IPC: 2.744 cumulative IPC: 2.755 (Simulation time: 00 hr 13 min 59 sec)
Heartbeat CPU 0 instructions: 158500980 cycles: 58451446 heartbeat IPC: 2.732 cumulative IPC: 2.755 (Simulation time: 00 hr 14 min 01 sec)
Heartbeat CPU 0 instructions: 159000984 cycles: 58642041 heartbeat IPC: 2.623 cumulative IPC: 2.754 (Simulation time: 00 hr 14 min 04 sec)
Heartbeat CPU 0 instructions: 159500990 cycles: 58824803 heartbeat IPC: 2.736 cumulative IPC: 2.754 (Simulation time: 00 hr 14 min 06 sec)
Heartbeat CPU 0 instructions: 160000995 cycles: 59007804 heartbeat IPC: 2.732 cumulative IPC: 2.754 (Simulation time: 00 hr 14 min 09 sec)
Heartbeat CPU 0 instructions: 160501002 cycles: 59192720 heartbeat IPC: 2.704 cumulative IPC: 2.754 (Simulation time: 00 hr 14 min 11 sec)
Heartbeat CPU 0 instructions: 161001005 cycles: 59374796 heartbeat IPC: 2.746 cumulative IPC: 2.754 (Simulation time: 00 hr 14 min 13 sec)
Heartbeat CPU 0 instructions: 161501006 cycles: 59555793 heartbeat IPC: 2.762 cumulative IPC: 2.754 (Simulation time: 00 hr 14 min 16 sec)
Heartbeat CPU 0 instructions: 162001009 cycles: 59737359 heartbeat IPC: 2.754 cumulative IPC: 2.754 (Simulation time: 00 hr 14 min 18 sec)
Heartbeat CPU 0 instructions: 162501013 cycles: 59928474 heartbeat IPC: 2.616 cumulative IPC: 2.753 (Simulation time: 00 hr 14 min 21 sec)
Heartbeat CPU 0 instructions: 163001016 cycles: 60110784 heartbeat IPC: 2.743 cumulative IPC: 2.753 (Simulation time: 00 hr 14 min 23 sec)
Heartbeat CPU 0 instructions: 163501019 cycles: 60294518 heartbeat IPC: 2.721 cumulative IPC: 2.753 (Simulation time: 00 hr 14 min 26 sec)
Heartbeat CPU 0 instructions: 164001024 cycles: 60478597 heartbeat IPC: 2.716 cumulative IPC: 2.753 (Simulation time: 00 hr 14 min 28 sec)
Heartbeat CPU 0 instructions: 164501024 cycles: 60670112 heartbeat IPC: 2.611 cumulative IPC: 2.752 (Simulation time: 00 hr 14 min 30 sec)
Heartbeat CPU 0 instructions: 165001025 cycles: 60849492 heartbeat IPC: 2.787 cumulative IPC: 2.752 (Simulation time: 00 hr 14 min 33 sec)
Heartbeat CPU 0 instructions: 165501029 cycles: 61032002 heartbeat IPC: 2.74 cumulative IPC: 2.752 (Simulation time: 00 hr 14 min 35 sec)
Heartbeat CPU 0 instructions: 166001032 cycles: 61218308 heartbeat IPC: 2.684 cumulative IPC: 2.752 (Simulation time: 00 hr 14 min 38 sec)
Heartbeat CPU 0 instructions: 166501035 cycles: 61407868 heartbeat IPC: 2.638 cumulative IPC: 2.751 (Simulation time: 00 hr 14 min 40 sec)
Heartbeat CPU 0 instructions: 167001038 cycles: 61591038 heartbeat IPC: 2.73 cumulative IPC: 2.751 (Simulation time: 00 hr 14 min 43 sec)
Heartbeat CPU 0 instructions: 167501043 cycles: 61774499 heartbeat IPC: 2.725 cumulative IPC: 2.751 (Simulation time: 00 hr 14 min 45 sec)
Heartbeat CPU 0 instructions: 168001050 cycles: 61958503 heartbeat IPC: 2.717 cumulative IPC: 2.751 (Simulation time: 00 hr 14 min 47 sec)
Heartbeat CPU 0 instructions: 168501053 cycles: 62143043 heartbeat IPC: 2.709 cumulative IPC: 2.751 (Simulation time: 00 hr 14 min 50 sec)
Heartbeat CPU 0 instructions: 169001060 cycles: 62326658 heartbeat IPC: 2.723 cumulative IPC: 2.751 (Simulation time: 00 hr 14 min 52 sec)
Heartbeat CPU 0 instructions: 169501067 cycles: 62510003 heartbeat IPC: 2.727 cumulative IPC: 2.751 (Simulation time: 00 hr 14 min 55 sec)
Heartbeat CPU 0 instructions: 170001068 cycles: 62701378 heartbeat IPC: 2.613 cumulative IPC: 2.75 (Simulation time: 00 hr 14 min 57 sec)
Heartbeat CPU 0 instructions: 170501071 cycles: 62885707 heartbeat IPC: 2.713 cumulative IPC: 2.75 (Simulation time: 00 hr 15 min 00 sec)
Heartbeat CPU 0 instructions: 171001071 cycles: 63070518 heartbeat IPC: 2.705 cumulative IPC: 2.75 (Simulation time: 00 hr 15 min 02 sec)
Heartbeat CPU 0 instructions: 171501074 cycles: 63254110 heartbeat IPC: 2.723 cumulative IPC: 2.749 (Simulation time: 00 hr 15 min 05 sec)
Heartbeat CPU 0 instructions: 172001077 cycles: 63438669 heartbeat IPC: 2.709 cumulative IPC: 2.749 (Simulation time: 00 hr 15 min 07 sec)
Heartbeat CPU 0 instructions: 172501081 cycles: 63621933 heartbeat IPC: 2.728 cumulative IPC: 2.749 (Simulation time: 00 hr 15 min 09 sec)
Heartbeat CPU 0 instructions: 173001081 cycles: 63805935 heartbeat IPC: 2.717 cumulative IPC: 2.749 (Simulation time: 00 hr 15 min 12 sec)
Heartbeat CPU 0 instructions: 173501088 cycles: 63997301 heartbeat IPC: 2.613 cumulative IPC: 2.748 (Simulation time: 00 hr 15 min 14 sec)
Heartbeat CPU 0 instructions: 174001092 cycles: 64181402 heartbeat IPC: 2.716 cumulative IPC: 2.748 (Simulation time: 00 hr 15 min 17 sec)
Heartbeat CPU 0 instructions: 174501095 cycles: 64365556 heartbeat IPC: 2.715 cumulative IPC: 2.748 (Simulation time: 00 hr 15 min 19 sec)
Heartbeat CPU 0 instructions: 175001098 cycles: 64549065 heartbeat IPC: 2.725 cumulative IPC: 2.748 (Simulation time: 00 hr 15 min 22 sec)
Heartbeat CPU 0 instructions: 175501102 cycles: 64732413 heartbeat IPC: 2.727 cumulative IPC: 2.748 (Simulation time: 00 hr 15 min 24 sec)
Heartbeat CPU 0 instructions: 176001103 cycles: 64917084 heartbeat IPC: 2.708 cumulative IPC: 2.748 (Simulation time: 00 hr 15 min 26 sec)
Heartbeat CPU 0 instructions: 176501106 cycles: 65099822 heartbeat IPC: 2.736 cumulative IPC: 2.748 (Simulation time: 00 hr 15 min 29 sec)
Heartbeat CPU 0 instructions: 177001112 cycles: 65287357 heartbeat IPC: 2.666 cumulative IPC: 2.748 (Simulation time: 00 hr 15 min 31 sec)
Heartbeat CPU 0 instructions: 177501115 cycles: 65473049 heartbeat IPC: 2.693 cumulative IPC: 2.747 (Simulation time: 00 hr 15 min 34 sec)
Heartbeat CPU 0 instructions: 178001115 cycles: 65654109 heartbeat IPC: 2.762 cumulative IPC: 2.747 (Simulation time: 00 hr 15 min 36 sec)
Heartbeat CPU 0 instructions: 178501116 cycles: 65833050 heartbeat IPC: 2.794 cumulative IPC: 2.748 (Simulation time: 00 hr 15 min 38 sec)
Heartbeat CPU 0 instructions: 179001122 cycles: 66012654 heartbeat IPC: 2.784 cumulative IPC: 2.748 (Simulation time: 00 hr 15 min 41 sec)
Heartbeat CPU 0 instructions: 179501127 cycles: 66189805 heartbeat IPC: 2.822 cumulative IPC: 2.748 (Simulation time: 00 hr 15 min 43 sec)
Heartbeat CPU 0 instructions: 180001128 cycles: 66366867 heartbeat IPC: 2.824 cumulative IPC: 2.748 (Simulation time: 00 hr 15 min 46 sec)
Heartbeat CPU 0 instructions: 180501134 cycles: 66540245 heartbeat IPC: 2.884 cumulative IPC: 2.749 (Simulation time: 00 hr 15 min 48 sec)
Heartbeat CPU 0 instructions: 181001136 cycles: 66720214 heartbeat IPC: 2.778 cumulative IPC: 2.749 (Simulation time: 00 hr 15 min 50 sec)
Heartbeat CPU 0 instructions: 181501137 cycles: 66893928 heartbeat IPC: 2.878 cumulative IPC: 2.749 (Simulation time: 00 hr 15 min 53 sec)
Heartbeat CPU 0 instructions: 182001137 cycles: 67072003 heartbeat IPC: 2.808 cumulative IPC: 2.75 (Simulation time: 00 hr 15 min 55 sec)
Heartbeat CPU 0 instructions: 182501143 cycles: 67257877 heartbeat IPC: 2.69 cumulative IPC: 2.749 (Simulation time: 00 hr 15 min 57 sec)
Heartbeat CPU 0 instructions: 183001143 cycles: 67432746 heartbeat IPC: 2.859 cumulative IPC: 2.75 (Simulation time: 00 hr 16 min 00 sec)
Heartbeat CPU 0 instructions: 183501147 cycles: 67603702 heartbeat IPC: 2.925 cumulative IPC: 2.75 (Simulation time: 00 hr 16 min 02 sec)
Heartbeat CPU 0 instructions: 184001150 cycles: 67773526 heartbeat IPC: 2.944 cumulative IPC: 2.751 (Simulation time: 00 hr 16 min 04 sec)
Heartbeat CPU 0 instructions: 184501156 cycles: 67947758 heartbeat IPC: 2.87 cumulative IPC: 2.751 (Simulation time: 00 hr 16 min 07 sec)
Heartbeat CPU 0 instructions: 185001159 cycles: 68118781 heartbeat IPC: 2.924 cumulative IPC: 2.752 (Simulation time: 00 hr 16 min 09 sec)
Heartbeat CPU 0 instructions: 185501160 cycles: 68287400 heartbeat IPC: 2.965 cumulative IPC: 2.753 (Simulation time: 00 hr 16 min 11 sec)
Heartbeat CPU 0 instructions: 186001160 cycles: 68457696 heartbeat IPC: 2.936 cumulative IPC: 2.753 (Simulation time: 00 hr 16 min 14 sec)
Heartbeat CPU 0 instructions: 186501161 cycles: 68627625 heartbeat IPC: 2.942 cumulative IPC: 2.754 (Simulation time: 00 hr 16 min 16 sec)
Heartbeat CPU 0 instructions: 187001167 cycles: 68801904 heartbeat IPC: 2.869 cumulative IPC: 2.754 (Simulation time: 00 hr 16 min 18 sec)
Heartbeat CPU 0 instructions: 187501172 cycles: 68988944 heartbeat IPC: 2.673 cumulative IPC: 2.754 (Simulation time: 00 hr 16 min 21 sec)
Heartbeat CPU 0 instructions: 188001172 cycles: 69175950 heartbeat IPC: 2.674 cumulative IPC: 2.754 (Simulation time: 00 hr 16 min 23 sec)
Heartbeat CPU 0 instructions: 188501178 cycles: 69363577 heartbeat IPC: 2.665 cumulative IPC: 2.753 (Simulation time: 00 hr 16 min 26 sec)
Heartbeat CPU 0 instructions: 189001184 cycles: 69547003 heartbeat IPC: 2.726 cumulative IPC: 2.753 (Simulation time: 00 hr 16 min 28 sec)
Heartbeat CPU 0 instructions: 189501184 cycles: 69731439 heartbeat IPC: 2.711 cumulative IPC: 2.753 (Simulation time: 00 hr 16 min 30 sec)
Heartbeat CPU 0 instructions: 190001190 cycles: 69915184 heartbeat IPC: 2.721 cumulative IPC: 2.753 (Simulation time: 00 hr 16 min 33 sec)
Heartbeat CPU 0 instructions: 190501192 cycles: 70097772 heartbeat IPC: 2.738 cumulative IPC: 2.753 (Simulation time: 00 hr 16 min 35 sec)
Heartbeat CPU 0 instructions: 191001197 cycles: 70280123 heartbeat IPC: 2.742 cumulative IPC: 2.753 (Simulation time: 00 hr 16 min 38 sec)
Heartbeat CPU 0 instructions: 191501200 cycles: 70463028 heartbeat IPC: 2.734 cumulative IPC: 2.753 (Simulation time: 00 hr 16 min 40 sec)
Heartbeat CPU 0 instructions: 192001201 cycles: 70653702 heartbeat IPC: 2.622 cumulative IPC: 2.752 (Simulation time: 00 hr 16 min 42 sec)
Heartbeat CPU 0 instructions: 192501207 cycles: 70836265 heartbeat IPC: 2.739 cumulative IPC: 2.752 (Simulation time: 00 hr 16 min 45 sec)
Heartbeat CPU 0 instructions: 193001212 cycles: 71020219 heartbeat IPC: 2.718 cumulative IPC: 2.752 (Simulation time: 00 hr 16 min 47 sec)
Heartbeat CPU 0 instructions: 193501212 cycles: 71204219 heartbeat IPC: 2.717 cumulative IPC: 2.752 (Simulation time: 00 hr 16 min 50 sec)
Heartbeat CPU 0 instructions: 194001219 cycles: 71388195 heartbeat IPC: 2.718 cumulative IPC: 2.752 (Simulation time: 00 hr 16 min 52 sec)
Heartbeat CPU 0 instructions: 194501222 cycles: 71571786 heartbeat IPC: 2.723 cumulative IPC: 2.752 (Simulation time: 00 hr 16 min 55 sec)
Heartbeat CPU 0 instructions: 195001224 cycles: 71757019 heartbeat IPC: 2.699 cumulative IPC: 2.752 (Simulation time: 00 hr 16 min 57 sec)
Heartbeat CPU 0 instructions: 195501227 cycles: 71954275 heartbeat IPC: 2.535 cumulative IPC: 2.751 (Simulation time: 00 hr 17 min 00 sec)
Heartbeat CPU 0 instructions: 196001234 cycles: 72137801 heartbeat IPC: 2.724 cumulative IPC: 2.751 (Simulation time: 00 hr 17 min 02 sec)
Heartbeat CPU 0 instructions: 196501237 cycles: 72321024 heartbeat IPC: 2.729 cumulative IPC: 2.751 (Simulation time: 00 hr 17 min 04 sec)
Heartbeat CPU 0 instructions: 197001239 cycles: 72505205 heartbeat IPC: 2.715 cumulative IPC: 2.751 (Simulation time: 00 hr 17 min 07 sec)
Heartbeat CPU 0 instructions: 197501241 cycles: 72689846 heartbeat IPC: 2.708 cumulative IPC: 2.751 (Simulation time: 00 hr 17 min 09 sec)
Heartbeat CPU 0 instructions: 198001244 cycles: 72873209 heartbeat IPC: 2.727 cumulative IPC: 2.75 (Simulation time: 00 hr 17 min 12 sec)
Heartbeat CPU 0 instructions: 198501246 cycles: 73057264 heartbeat IPC: 2.717 cumulative IPC: 2.75 (Simulation time: 00 hr 17 min 14 sec)
Heartbeat CPU 0 instructions: 199001253 cycles: 73244935 heartbeat IPC: 2.664 cumulative IPC: 2.75 (Simulation time: 00 hr 17 min 17 sec)
Heartbeat CPU 0 instructions: 199501253 cycles: 73432275 heartbeat IPC: 2.669 cumulative IPC: 2.75 (Simulation time: 00 hr 17 min 19 sec)
Heartbeat CPU 0 instructions: 200001254 cycles: 73615746 heartbeat IPC: 2.725 cumulative IPC: 2.75 (Simulation time: 00 hr 17 min 21 sec)
Heartbeat CPU 0 instructions: 200501255 cycles: 73800019 heartbeat IPC: 2.713 cumulative IPC: 2.75 (Simulation time: 00 hr 17 min 24 sec)
Heartbeat CPU 0 instructions: 201001255 cycles: 73983819 heartbeat IPC: 2.72 cumulative IPC: 2.749 (Simulation time: 00 hr 17 min 26 sec)
Heartbeat CPU 0 instructions: 201501260 cycles: 74168557 heartbeat IPC: 2.707 cumulative IPC: 2.749 (Simulation time: 00 hr 17 min 29 sec)
Heartbeat CPU 0 instructions: 202001264 cycles: 74352156 heartbeat IPC: 2.723 cumulative IPC: 2.749 (Simulation time: 00 hr 17 min 31 sec)
Heartbeat CPU 0 instructions: 202501267 cycles: 74536133 heartbeat IPC: 2.718 cumulative IPC: 2.749 (Simulation time: 00 hr 17 min 34 sec)
Heartbeat CPU 0 instructions: 203001267 cycles: 74727699 heartbeat IPC: 2.61 cumulative IPC: 2.749 (Simulation time: 00 hr 17 min 36 sec)
Heartbeat CPU 0 instructions: 203501274 cycles: 74910504 heartbeat IPC: 2.735 cumulative IPC: 2.749 (Simulation time: 00 hr 17 min 38 sec)
Heartbeat CPU 0 instructions: 204001279 cycles: 75095385 heartbeat IPC: 2.704 cumulative IPC: 2.748 (Simulation time: 00 hr 17 min 41 sec)
Heartbeat CPU 0 instructions: 204501282 cycles: 75278186 heartbeat IPC: 2.735 cumulative IPC: 2.748 (Simulation time: 00 hr 17 min 43 sec)
Heartbeat CPU 0 instructions: 205001285 cycles: 75463075 heartbeat IPC: 2.704 cumulative IPC: 2.748 (Simulation time: 00 hr 17 min 46 sec)
Heartbeat CPU 0 instructions: 205501290 cycles: 75646700 heartbeat IPC: 2.723 cumulative IPC: 2.748 (Simulation time: 00 hr 17 min 48 sec)
Heartbeat CPU 0 instructions: 206001297 cycles: 75830397 heartbeat IPC: 2.722 cumulative IPC: 2.748 (Simulation time: 00 hr 17 min 50 sec)
Heartbeat CPU 0 instructions: 206501297 cycles: 76021884 heartbeat IPC: 2.611 cumulative IPC: 2.748 (Simulation time: 00 hr 17 min 53 sec)
Heartbeat CPU 0 instructions: 207001300 cycles: 76205634 heartbeat IPC: 2.721 cumulative IPC: 2.748 (Simulation time: 00 hr 17 min 55 sec)
Heartbeat CPU 0 instructions: 207501300 cycles: 76389040 heartbeat IPC: 2.726 cumulative IPC: 2.747 (Simulation time: 00 hr 17 min 58 sec)
Heartbeat CPU 0 instructions: 208001307 cycles: 76572490 heartbeat IPC: 2.726 cumulative IPC: 2.747 (Simulation time: 00 hr 18 min 00 sec)
Heartbeat CPU 0 instructions: 208501310 cycles: 76756212 heartbeat IPC: 2.722 cumulative IPC: 2.747 (Simulation time: 00 hr 18 min 03 sec)
Heartbeat CPU 0 instructions: 209001316 cycles: 76937387 heartbeat IPC: 2.76 cumulative IPC: 2.747 (Simulation time: 00 hr 18 min 05 sec)
Heartbeat CPU 0 instructions: 209501316 cycles: 77118414 heartbeat IPC: 2.762 cumulative IPC: 2.747 (Simulation time: 00 hr 18 min 07 sec)
Heartbeat CPU 0 instructions: 210001322 cycles: 77299447 heartbeat IPC: 2.762 cumulative IPC: 2.747 (Simulation time: 00 hr 18 min 10 sec)
Heartbeat CPU 0 instructions: 210501327 cycles: 77482048 heartbeat IPC: 2.738 cumulative IPC: 2.747 (Simulation time: 00 hr 18 min 12 sec)
Heartbeat CPU 0 instructions: 211001327 cycles: 77657861 heartbeat IPC: 2.844 cumulative IPC: 2.748 (Simulation time: 00 hr 18 min 14 sec)
Heartbeat CPU 0 instructions: 211501329 cycles: 77833007 heartbeat IPC: 2.855 cumulative IPC: 2.748 (Simulation time: 00 hr 18 min 17 sec)
Heartbeat CPU 0 instructions: 212001332 cycles: 78009268 heartbeat IPC: 2.837 cumulative IPC: 2.748 (Simulation time: 00 hr 18 min 19 sec)
Heartbeat CPU 0 instructions: 212501337 cycles: 78182969 heartbeat IPC: 2.879 cumulative IPC: 2.749 (Simulation time: 00 hr 18 min 21 sec)
Heartbeat CPU 0 instructions: 213001340 cycles: 78356894 heartbeat IPC: 2.875 cumulative IPC: 2.749 (Simulation time: 00 hr 18 min 24 sec)
Heartbeat CPU 0 instructions: 213501341 cycles: 78540082 heartbeat IPC: 2.729 cumulative IPC: 2.749 (Simulation time: 00 hr 18 min 26 sec)
Heartbeat CPU 0 instructions: 214001342 cycles: 78722618 heartbeat IPC: 2.739 cumulative IPC: 2.749 (Simulation time: 00 hr 18 min 28 sec)
Heartbeat CPU 0 instructions: 214501348 cycles: 78894748 heartbeat IPC: 2.905 cumulative IPC: 2.749 (Simulation time: 00 hr 18 min 31 sec)
Heartbeat CPU 0 instructions: 215001351 cycles: 79065550 heartbeat IPC: 2.927 cumulative IPC: 2.75 (Simulation time: 00 hr 18 min 33 sec)
Heartbeat CPU 0 instructions: 215501357 cycles: 79235613 heartbeat IPC: 2.94 cumulative IPC: 2.75 (Simulation time: 00 hr 18 min 35 sec)
Heartbeat CPU 0 instructions: 216001360 cycles: 79406036 heartbeat IPC: 2.934 cumulative IPC: 2.751 (Simulation time: 00 hr 18 min 38 sec)
Heartbeat CPU 0 instructions: 216501361 cycles: 79575973 heartbeat IPC: 2.942 cumulative IPC: 2.752 (Simulation time: 00 hr 18 min 40 sec)
Heartbeat CPU 0 instructions: 217001361 cycles: 79745236 heartbeat IPC: 2.954 cumulative IPC: 2.752 (Simulation time: 00 hr 18 min 42 sec)
Heartbeat CPU 0 instructions: 217501364 cycles: 79919588 heartbeat IPC: 2.868 cumulative IPC: 2.752 (Simulation time: 00 hr 18 min 44 sec)
Heartbeat CPU 0 instructions: 218001369 cycles: 80090706 heartbeat IPC: 2.922 cumulative IPC: 2.753 (Simulation time: 00 hr 18 min 47 sec)
Heartbeat CPU 0 instructions: 218501372 cycles: 80276556 heartbeat IPC: 2.69 cumulative IPC: 2.753 (Simulation time: 00 hr 18 min 49 sec)
Heartbeat CPU 0 instructions: 219001377 cycles: 80459321 heartbeat IPC: 2.736 cumulative IPC: 2.753 (Simulation time: 00 hr 18 min 51 sec)
Heartbeat CPU 0 instructions: 219501384 cycles: 80643904 heartbeat IPC: 2.709 cumulative IPC: 2.753 (Simulation time: 00 hr 18 min 54 sec)
Heartbeat CPU 0 instructions: 220001387 cycles: 80827367 heartbeat IPC: 2.725 cumulative IPC: 2.752 (Simulation time: 00 hr 18 min 56 sec)
Heartbeat CPU 0 instructions: 220501388 cycles: 81010963 heartbeat IPC: 2.723 cumulative IPC: 2.752 (Simulation time: 00 hr 18 min 59 sec)
Heartbeat CPU 0 instructions: 221001388 cycles: 81196550 heartbeat IPC: 2.694 cumulative IPC: 2.752 (Simulation time: 00 hr 19 min 01 sec)
Heartbeat CPU 0 instructions: 221501392 cycles: 81383415 heartbeat IPC: 2.676 cumulative IPC: 2.752 (Simulation time: 00 hr 19 min 04 sec)
Heartbeat CPU 0 instructions: 222001395 cycles: 81568018 heartbeat IPC: 2.709 cumulative IPC: 2.752 (Simulation time: 00 hr 19 min 06 sec)
Heartbeat CPU 0 instructions: 222501401 cycles: 81750555 heartbeat IPC: 2.739 cumulative IPC: 2.752 (Simulation time: 00 hr 19 min 08 sec)
Heartbeat CPU 0 instructions: 223001403 cycles: 81934050 heartbeat IPC: 2.725 cumulative IPC: 2.752 (Simulation time: 00 hr 19 min 11 sec)
Heartbeat CPU 0 instructions: 223501410 cycles: 82117950 heartbeat IPC: 2.719 cumulative IPC: 2.752 (Simulation time: 00 hr 19 min 13 sec)
Heartbeat CPU 0 instructions: 224001413 cycles: 82302129 heartbeat IPC: 2.715 cumulative IPC: 2.751 (Simulation time: 00 hr 19 min 15 sec)
Heartbeat CPU 0 instructions: 224501417 cycles: 82485793 heartbeat IPC: 2.722 cumulative IPC: 2.751 (Simulation time: 00 hr 19 min 18 sec)
Heartbeat CPU 0 instructions: 225001418 cycles: 82676884 heartbeat IPC: 2.617 cumulative IPC: 2.751 (Simulation time: 00 hr 19 min 20 sec)
Heartbeat CPU 0 instructions: 225501425 cycles: 82860422 heartbeat IPC: 2.724 cumulative IPC: 2.751 (Simulation time: 00 hr 19 min 23 sec)
Heartbeat CPU 0 instructions: 226001430 cycles: 83039648 heartbeat IPC: 2.79 cumulative IPC: 2.751 (Simulation time: 00 hr 19 min 25 sec)
Heartbeat CPU 0 instructions: 226501435 cycles: 83231523 heartbeat IPC: 2.606 cumulative IPC: 2.751 (Simulation time: 00 hr 19 min 28 sec)
Heartbeat CPU 0 instructions: 227001436 cycles: 83415433 heartbeat IPC: 2.719 cumulative IPC: 2.751 (Simulation time: 00 hr 19 min 30 sec)
Heartbeat CPU 0 instructions: 227501439 cycles: 83600195 heartbeat IPC: 2.706 cumulative IPC: 2.75 (Simulation time: 00 hr 19 min 32 sec)
Heartbeat CPU 0 instructions: 228001445 cycles: 83782996 heartbeat IPC: 2.735 cumulative IPC: 2.75 (Simulation time: 00 hr 19 min 35 sec)
Heartbeat CPU 0 instructions: 228501446 cycles: 83974459 heartbeat IPC: 2.611 cumulative IPC: 2.75 (Simulation time: 00 hr 19 min 37 sec)
Heartbeat CPU 0 instructions: 229001450 cycles: 84158997 heartbeat IPC: 2.709 cumulative IPC: 2.75 (Simulation time: 00 hr 19 min 40 sec)
Heartbeat CPU 0 instructions: 229501453 cycles: 84343202 heartbeat IPC: 2.714 cumulative IPC: 2.75 (Simulation time: 00 hr 19 min 42 sec)
Heartbeat CPU 0 instructions: 230001456 cycles: 84527977 heartbeat IPC: 2.706 cumulative IPC: 2.75 (Simulation time: 00 hr 19 min 44 sec)
Heartbeat CPU 0 instructions: 230501456 cycles: 84712970 heartbeat IPC: 2.703 cumulative IPC: 2.749 (Simulation time: 00 hr 19 min 47 sec)
Heartbeat CPU 0 instructions: 231001456 cycles: 84897188 heartbeat IPC: 2.714 cumulative IPC: 2.749 (Simulation time: 00 hr 19 min 49 sec)
Heartbeat CPU 0 instructions: 231501463 cycles: 85082624 heartbeat IPC: 2.696 cumulative IPC: 2.749 (Simulation time: 00 hr 19 min 51 sec)
Heartbeat CPU 0 instructions: 232001465 cycles: 85270551 heartbeat IPC: 2.661 cumulative IPC: 2.749 (Simulation time: 00 hr 19 min 54 sec)
Heartbeat CPU 0 instructions: 232501466 cycles: 85456949 heartbeat IPC: 2.682 cumulative IPC: 2.749 (Simulation time: 00 hr 19 min 56 sec)
Heartbeat CPU 0 instructions: 233001469 cycles: 85641815 heartbeat IPC: 2.705 cumulative IPC: 2.749 (Simulation time: 00 hr 19 min 59 sec)
Heartbeat CPU 0 instructions: 233501469 cycles: 85824639 heartbeat IPC: 2.735 cumulative IPC: 2.749 (Simulation time: 00 hr 20 min 01 sec)
Heartbeat CPU 0 instructions: 234001475 cycles: 86009299 heartbeat IPC: 2.708 cumulative IPC: 2.749 (Simulation time: 00 hr 20 min 03 sec)
Heartbeat CPU 0 instructions: 234501476 cycles: 86192904 heartbeat IPC: 2.723 cumulative IPC: 2.748 (Simulation time: 00 hr 20 min 06 sec)
Heartbeat CPU 0 instructions: 235001479 cycles: 86377184 heartbeat IPC: 2.713 cumulative IPC: 2.748 (Simulation time: 00 hr 20 min 08 sec)
Heartbeat CPU 0 instructions: 235501484 cycles: 86560498 heartbeat IPC: 2.728 cumulative IPC: 2.748 (Simulation time: 00 hr 20 min 11 sec)
Heartbeat CPU 0 instructions: 236001486 cycles: 86750834 heartbeat IPC: 2.627 cumulative IPC: 2.748 (Simulation time: 00 hr 20 min 13 sec)
Heartbeat CPU 0 instructions: 236501489 cycles: 86935353 heartbeat IPC: 2.71 cumulative IPC: 2.748 (Simulation time: 00 hr 20 min 15 sec)
Heartbeat CPU 0 instructions: 237001495 cycles: 87120077 heartbeat IPC: 2.707 cumulative IPC: 2.748 (Simulation time: 00 hr 20 min 18 sec)
Heartbeat CPU 0 instructions: 237501498 cycles: 87303659 heartbeat IPC: 2.724 cumulative IPC: 2.748 (Simulation time: 00 hr 20 min 20 sec)
Heartbeat CPU 0 instructions: 238001501 cycles: 87486954 heartbeat IPC: 2.728 cumulative IPC: 2.748 (Simulation time: 00 hr 20 min 23 sec)
Heartbeat CPU 0 instructions: 238501508 cycles: 87672211 heartbeat IPC: 2.699 cumulative IPC: 2.747 (Simulation time: 00 hr 20 min 25 sec)
Heartbeat CPU 0 instructions: 239001513 cycles: 87854988 heartbeat IPC: 2.736 cumulative IPC: 2.747 (Simulation time: 00 hr 20 min 27 sec)
Heartbeat CPU 0 instructions: 239501513 cycles: 88045473 heartbeat IPC: 2.625 cumulative IPC: 2.747 (Simulation time: 00 hr 20 min 30 sec)
Heartbeat CPU 0 instructions: 240001516 cycles: 88226693 heartbeat IPC: 2.759 cumulative IPC: 2.747 (Simulation time: 00 hr 20 min 32 sec)
Heartbeat CPU 0 instructions: 240501521 cycles: 88408722 heartbeat IPC: 2.747 cumulative IPC: 2.747 (Simulation time: 00 hr 20 min 34 sec)
Heartbeat CPU 0 instructions: 241001522 cycles: 88586527 heartbeat IPC: 2.812 cumulative IPC: 2.747 (Simulation time: 00 hr 20 min 37 sec)
Heartbeat CPU 0 instructions: 241501523 cycles: 88766836 heartbeat IPC: 2.773 cumulative IPC: 2.747 (Simulation time: 00 hr 20 min 39 sec)
Heartbeat CPU 0 instructions: 242001526 cycles: 88942595 heartbeat IPC: 2.845 cumulative IPC: 2.748 (Simulation time: 00 hr 20 min 41 sec)
Heartbeat CPU 0 instructions: 242501529 cycles: 89118826 heartbeat IPC: 2.837 cumulative IPC: 2.748 (Simulation time: 00 hr 20 min 44 sec)
Heartbeat CPU 0 instructions: 243001530 cycles: 89295421 heartbeat IPC: 2.831 cumulative IPC: 2.748 (Simulation time: 00 hr 20 min 46 sec)
Heartbeat CPU 0 instructions: 243501533 cycles: 89472716 heartbeat IPC: 2.82 cumulative IPC: 2.748 (Simulation time: 00 hr 20 min 48 sec)
Heartbeat CPU 0 instructions: 244001540 cycles: 89647533 heartbeat IPC: 2.86 cumulative IPC: 2.749 (Simulation time: 00 hr 20 min 51 sec)
Heartbeat CPU 0 instructions: 244501542 cycles: 89828427 heartbeat IPC: 2.764 cumulative IPC: 2.749 (Simulation time: 00 hr 20 min 53 sec)
Heartbeat CPU 0 instructions: 245001548 cycles: 90011209 heartbeat IPC: 2.736 cumulative IPC: 2.749 (Simulation time: 00 hr 20 min 55 sec)
Heartbeat CPU 0 instructions: 245501551 cycles: 90183442 heartbeat IPC: 2.903 cumulative IPC: 2.749 (Simulation time: 00 hr 20 min 58 sec)
Heartbeat CPU 0 instructions: 246001555 cycles: 90354461 heartbeat IPC: 2.924 cumulative IPC: 2.749 (Simulation time: 00 hr 21 min 00 sec)
Heartbeat CPU 0 instructions: 246501555 cycles: 90523455 heartbeat IPC: 2.959 cumulative IPC: 2.75 (Simulation time: 00 hr 21 min 02 sec)
Heartbeat CPU 0 instructions: 247001555 cycles: 90698034 heartbeat IPC: 2.864 cumulative IPC: 2.75 (Simulation time: 00 hr 21 min 04 sec)
Heartbeat CPU 0 instructions: 247501556 cycles: 90868262 heartbeat IPC: 2.937 cumulative IPC: 2.751 (Simulation time: 00 hr 21 min 07 sec)
Heartbeat CPU 0 instructions: 248001563 cycles: 91038913 heartbeat IPC: 2.93 cumulative IPC: 2.751 (Simulation time: 00 hr 21 min 09 sec)
Heartbeat CPU 0 instructions: 248501564 cycles: 91207355 heartbeat IPC: 2.968 cumulative IPC: 2.751 (Simulation time: 00 hr 21 min 11 sec)
Heartbeat CPU 0 instructions: 249001569 cycles: 91377883 heartbeat IPC: 2.932 cumulative IPC: 2.752 (Simulation time: 00 hr 21 min 13 sec)
Heartbeat CPU 0 instructions: 249501570 cycles: 91558082 heartbeat IPC: 2.775 cumulative IPC: 2.752 (Simulation time: 00 hr 21 min 16 sec)
Simulation finished CPU 0 instructions: 200000002 cycles: 72679526 cumulative IPC: 2.752 (Simulation time: 00 hr 21 min 18 sec)
Simulation complete CPU 0 instructions: 200000002 cycles: 72679526 cumulative IPC: 2.752 (Simulation time: 00 hr 21 min 18 sec)

ChampSim completed all CPUs

=== Simulation ===
CPU 0 runs /local-ssd/ben/dpc4-traces/ai-ml/whisper_trace_2.champsimtrace.gz

Region of Interest Statistics

CPU 0 cumulative IPC: 2.752 instructions: 200000002 cycles: 72679526
CPU 0 Branch Prediction Accuracy: 96.01% MPKI: 2.804 Average ROB Occupancy at Mispredict: 254.9
Branch type MPKI
BRANCH_DIRECT_JUMP: 0
BRANCH_INDIRECT: 0
BRANCH_CONDITIONAL: 2.804
BRANCH_DIRECT_CALL: 0
BRANCH_INDIRECT_CALL: 0
BRANCH_RETURN: 0

cpu0->cpu0_STLB TOTAL        ACCESS:      33907 HIT:      12691 MISS:      21216 MSHR_MERGE:          0
cpu0->cpu0_STLB LOAD         ACCESS:      33907 HIT:      12691 MISS:      21216 MSHR_MERGE:          0
cpu0->cpu0_STLB RFO          ACCESS:          0 HIT:          0 MISS:          0 MSHR_MERGE:          0
cpu0->cpu0_STLB PREFETCH     ACCESS:          0 HIT:          0 MISS:          0 MSHR_MERGE:          0
cpu0->cpu0_STLB WRITE        ACCESS:          0 HIT:          0 MISS:          0 MSHR_MERGE:          0
cpu0->cpu0_STLB TRANSLATION  ACCESS:          0 HIT:          0 MISS:          0 MSHR_MERGE:          0
cpu0->cpu0_STLB PREFETCH REQUESTED:          0 ISSUED:          0 USEFUL:          0 USELESS:          0
cpu0->cpu0_STLB AVERAGE MISS LATENCY: 55.71 cycles
cpu0->cpu0_L2C TOTAL        ACCESS:    8149152 HIT:    6794647 MISS:    1354505 MSHR_MERGE:          0
cpu0->cpu0_L2C LOAD         ACCESS:    4722706 HIT:    3884031 MISS:     838675 MSHR_MERGE:          0
cpu0->cpu0_L2C RFO          ACCESS:      45354 HIT:      12481 MISS:      32873 MSHR_MERGE:          0
cpu0->cpu0_L2C PREFETCH     ACCESS:    3306062 HIT:    2826084 MISS:     479978 MSHR_MERGE:          0
cpu0->cpu0_L2C WRITE        ACCESS:      70447 HIT:      70447 MISS:          0 MSHR_MERGE:          0
cpu0->cpu0_L2C TRANSLATION  ACCESS:       4583 HIT:       1604 MISS:       2979 MSHR_MERGE:          0
cpu0->cpu0_L2C PREFETCH REQUESTED:          0 ISSUED:          0 USEFUL:          0 USELESS:          0
cpu0->cpu0_L2C AVERAGE MISS LATENCY: 183.7 cycles
cpu0->cpu0_L1I TOTAL        ACCESS:   21303806 HIT:   21303806 MISS:          0 MSHR_MERGE:          0
cpu0->cpu0_L1I LOAD         ACCESS:   21303806 HIT:   21303806 MISS:          0 MSHR_MERGE:          0
cpu0->cpu0_L1I RFO          ACCESS:          0 HIT:          0 MISS:          0 MSHR_MERGE:          0
cpu0->cpu0_L1I PREFETCH     ACCESS:          0 HIT:          0 MISS:          0 MSHR_MERGE:          0
cpu0->cpu0_L1I WRITE        ACCESS:          0 HIT:          0 MISS:          0 MSHR_MERGE:          0
cpu0->cpu0_L1I TRANSLATION  ACCESS:          0 HIT:          0 MISS:          0 MSHR_MERGE:          0
cpu0->cpu0_L1I PREFETCH REQUESTED:          0 ISSUED:          0 USEFUL:          0 USELESS:          0
cpu0->cpu0_L1I AVERAGE MISS LATENCY: - cycles
cpu0->cpu0_L1D TOTAL        ACCESS:   67608584 HIT:   58652958 MISS:    8955626 MSHR_MERGE:     876752
cpu0->cpu0_L1D LOAD         ACCESS:   50809741 HIT:   45643726 MISS:    5166015 MSHR_MERGE:     443201
cpu0->cpu0_L1D RFO          ACCESS:          0 HIT:          0 MISS:          0 MSHR_MERGE:          0
cpu0->cpu0_L1D PREFETCH     ACCESS:   14284792 HIT:   10578344 MISS:    3706448 MSHR_MERGE:     400386
cpu0->cpu0_L1D WRITE        ACCESS:    2471618 HIT:    2393038 MISS:      78580 MSHR_MERGE:      33165
cpu0->cpu0_L1D TRANSLATION  ACCESS:      42433 HIT:      37850 MISS:       4583 MSHR_MERGE:          0
cpu0->cpu0_L1D PREFETCH REQUESTED:   65928182 ISSUED:   14284793 USEFUL:    2935218 USELESS:     370798
cpu0->cpu0_L1D AVERAGE MISS LATENCY: 42.35 cycles
cpu0->cpu0_ITLB TOTAL        ACCESS:   15458559 HIT:   15458559 MISS:          0 MSHR_MERGE:          0
cpu0->cpu0_ITLB LOAD         ACCESS:   15458559 HIT:   15458559 MISS:          0 MSHR_MERGE:          0
cpu0->cpu0_ITLB RFO          ACCESS:          0 HIT:          0 MISS:          0 MSHR_MERGE:          0
cpu0->cpu0_ITLB PREFETCH     ACCESS:          0 HIT:          0 MISS:          0 MSHR_MERGE:          0
cpu0->cpu0_ITLB WRITE        ACCESS:          0 HIT:          0 MISS:          0 MSHR_MERGE:          0
cpu0->cpu0_ITLB TRANSLATION  ACCESS:          0 HIT:          0 MISS:          0 MSHR_MERGE:          0
cpu0->cpu0_ITLB PREFETCH REQUESTED:          0 ISSUED:          0 USEFUL:          0 USELESS:          0
cpu0->cpu0_ITLB AVERAGE MISS LATENCY: - cycles
cpu0->cpu0_DTLB TOTAL        ACCESS:   56588741 HIT:   56440217 MISS:     148524 MSHR_MERGE:     114617
cpu0->cpu0_DTLB LOAD         ACCESS:   56588741 HIT:   56440217 MISS:     148524 MSHR_MERGE:     114617
cpu0->cpu0_DTLB RFO          ACCESS:          0 HIT:          0 MISS:          0 MSHR_MERGE:          0
cpu0->cpu0_DTLB PREFETCH     ACCESS:          0 HIT:          0 MISS:          0 MSHR_MERGE:          0
cpu0->cpu0_DTLB WRITE        ACCESS:          0 HIT:          0 MISS:          0 MSHR_MERGE:          0
cpu0->cpu0_DTLB TRANSLATION  ACCESS:          0 HIT:          0 MISS:          0 MSHR_MERGE:          0
cpu0->cpu0_DTLB PREFETCH REQUESTED:          0 ISSUED:          0 USEFUL:          0 USELESS:          0
cpu0->cpu0_DTLB AVERAGE MISS LATENCY: 40.48 cycles
cpu0->LLC TOTAL        ACCESS:    1387416 HIT:     240476 MISS:    1146940 MSHR_MERGE:          0
cpu0->LLC LOAD         ACCESS:     838675 HIT:     117393 MISS:     721282 MSHR_MERGE:          0
cpu0->LLC RFO          ACCESS:      32873 HIT:          0 MISS:      32873 MSHR_MERGE:          0
cpu0->LLC PREFETCH     ACCESS:     479978 HIT:     118025 MISS:     361953 MSHR_MERGE:          0
cpu0->LLC WRITE        ACCESS:      32911 HIT:       4720 MISS:      28191 MSHR_MERGE:          0
cpu0->LLC TRANSLATION  ACCESS:       2979 HIT:        338 MISS:       2641 MSHR_MERGE:          0
cpu0->LLC PREFETCH REQUESTED:          0 ISSUED:          0 USEFUL:          0 USELESS:          0
cpu0->LLC AVERAGE MISS LATENCY: 179.8 cycles

DRAM Statistics

Channel 0 RQ ROW_BUFFER_HIT:     393029
  ROW_BUFFER_MISS:     725720
  AVG DBUS CONGESTED CYCLE: 6.501
Channel 0 WQ ROW_BUFFER_HIT:      14386
  ROW_BUFFER_MISS:      16648
  FULL:          0
Channel 0 REFRESHES ISSUED:       6056
