[VMEM] WARNING: physical memory size is smaller than virtual memory size.

*** ChampSim Multicore Out-of-Order Simulator ***
Warmup Instructions: 50000000
Simulation Instructions: 200000000
Number of CPUs: 1
Page size: 4096
Core 0: /local-ssd/ben/dpc4-traces/Graph/Ligra/ligra_Components.com-lj.ungraph.gcc_6.3.0_O3.drop_15750M.length_250M.champsimtrace.xz
Off-chip DRAM Size: 64 GiB Channels: 1 Width: 64-bit Data Rate: 4807 MT/s
Heartbeat CPU 0 instructions: 500005 cycles: 216346 heartbeat IPC: 2.311 cumulative IPC: 2.311 (Simulation time: 00 hr 00 min 02 sec)
Heartbeat CPU 0 instructions: 1000010 cycles: 430268 heartbeat IPC: 2.337 cumulative IPC: 2.324 (Simulation time: 00 hr 00 min 04 sec)
Heartbeat CPU 0 instructions: 1500012 cycles: 641980 heartbeat IPC: 2.362 cumulative IPC: 2.337 (Simulation time: 00 hr 00 min 06 sec)
Heartbeat CPU 0 instructions: 2000014 cycles: 841148 heartbeat IPC: 2.51 cumulative IPC: 2.378 (Simulation time: 00 hr 00 min 08 sec)
Heartbeat CPU 0 instructions: 2500016 cycles: 1052518 heartbeat IPC: 2.366 cumulative IPC: 2.375 (Simulation time: 00 hr 00 min 10 sec)
Heartbeat CPU 0 instructions: 3000022 cycles: 1270092 heartbeat IPC: 2.298 cumulative IPC: 2.362 (Simulation time: 00 hr 00 min 12 sec)
Heartbeat CPU 0 instructions: 3500022 cycles: 1483438 heartbeat IPC: 2.344 cumulative IPC: 2.359 (Simulation time: 00 hr 00 min 14 sec)
Heartbeat CPU 0 instructions: 4000025 cycles: 1697788 heartbeat IPC: 2.333 cumulative IPC: 2.356 (Simulation time: 00 hr 00 min 16 sec)
Heartbeat CPU 0 instructions: 4500030 cycles: 1909968 heartbeat IPC: 2.357 cumulative IPC: 2.356 (Simulation time: 00 hr 00 min 18 sec)
Heartbeat CPU 0 instructions: 5000030 cycles: 2124558 heartbeat IPC: 2.33 cumulative IPC: 2.353 (Simulation time: 00 hr 00 min 20 sec)
Heartbeat CPU 0 instructions: 5500035 cycles: 2339476 heartbeat IPC: 2.326 cumulative IPC: 2.351 (Simulation time: 00 hr 00 min 22 sec)
Heartbeat CPU 0 instructions: 6000038 cycles: 2554840 heartbeat IPC: 2.322 cumulative IPC: 2.348 (Simulation time: 00 hr 00 min 24 sec)
Heartbeat CPU 0 instructions: 6500039 cycles: 2768922 heartbeat IPC: 2.336 cumulative IPC: 2.347 (Simulation time: 00 hr 00 min 26 sec)
Heartbeat CPU 0 instructions: 7000043 cycles: 2986742 heartbeat IPC: 2.295 cumulative IPC: 2.344 (Simulation time: 00 hr 00 min 28 sec)
Heartbeat CPU 0 instructions: 7500047 cycles: 3200412 heartbeat IPC: 2.34 cumulative IPC: 2.343 (Simulation time: 00 hr 00 min 30 sec)
Heartbeat CPU 0 instructions: 8000053 cycles: 3413122 heartbeat IPC: 2.351 cumulative IPC: 2.344 (Simulation time: 00 hr 00 min 33 sec)
Heartbeat CPU 0 instructions: 8500054 cycles: 3625659 heartbeat IPC: 2.353 cumulative IPC: 2.344 (Simulation time: 00 hr 00 min 35 sec)
Heartbeat CPU 0 instructions: 9000060 cycles: 3839374 heartbeat IPC: 2.34 cumulative IPC: 2.344 (Simulation time: 00 hr 00 min 37 sec)
Heartbeat CPU 0 instructions: 9500063 cycles: 4059122 heartbeat IPC: 2.275 cumulative IPC: 2.34 (Simulation time: 00 hr 00 min 39 sec)
Heartbeat CPU 0 instructions: 10000063 cycles: 4268566 heartbeat IPC: 2.387 cumulative IPC: 2.343 (Simulation time: 00 hr 00 min 41 sec)
Heartbeat CPU 0 instructions: 10500070 cycles: 4480847 heartbeat IPC: 2.355 cumulative IPC: 2.343 (Simulation time: 00 hr 00 min 43 sec)
Heartbeat CPU 0 instructions: 11000076 cycles: 4694182 heartbeat IPC: 2.344 cumulative IPC: 2.343 (Simulation time: 00 hr 00 min 45 sec)
Heartbeat CPU 0 instructions: 11500081 cycles: 4907730 heartbeat IPC: 2.341 cumulative IPC: 2.343 (Simulation time: 00 hr 00 min 47 sec)
Heartbeat CPU 0 instructions: 12000086 cycles: 5118018 heartbeat IPC: 2.378 cumulative IPC: 2.345 (Simulation time: 00 hr 00 min 49 sec)
Heartbeat CPU 0 instructions: 12500091 cycles: 5330802 heartbeat IPC: 2.35 cumulative IPC: 2.345 (Simulation time: 00 hr 00 min 51 sec)
Heartbeat CPU 0 instructions: 13000097 cycles: 5544612 heartbeat IPC: 2.339 cumulative IPC: 2.345 (Simulation time: 00 hr 00 min 53 sec)
Heartbeat CPU 0 instructions: 13500103 cycles: 5757574 heartbeat IPC: 2.348 cumulative IPC: 2.345 (Simulation time: 00 hr 00 min 55 sec)
Heartbeat CPU 0 instructions: 14000104 cycles: 5971519 heartbeat IPC: 2.337 cumulative IPC: 2.344 (Simulation time: 00 hr 00 min 58 sec)
Heartbeat CPU 0 instructions: 14500108 cycles: 6184526 heartbeat IPC: 2.347 cumulative IPC: 2.345 (Simulation time: 00 hr 01 min 00 sec)
Heartbeat CPU 0 instructions: 15000108 cycles: 6398467 heartbeat IPC: 2.337 cumulative IPC: 2.344 (Simulation time: 00 hr 01 min 02 sec)
Heartbeat CPU 0 instructions: 15500108 cycles: 6611108 heartbeat IPC: 2.351 cumulative IPC: 2.345 (Simulation time: 00 hr 01 min 04 sec)
Heartbeat CPU 0 instructions: 16000110 cycles: 6823755 heartbeat IPC: 2.351 cumulative IPC: 2.345 (Simulation time: 00 hr 01 min 06 sec)
Heartbeat CPU 0 instructions: 16500112 cycles: 7034975 heartbeat IPC: 2.367 cumulative IPC: 2.345 (Simulation time: 00 hr 01 min 08 sec)
Heartbeat CPU 0 instructions: 17000113 cycles: 7246400 heartbeat IPC: 2.365 cumulative IPC: 2.346 (Simulation time: 00 hr 01 min 10 sec)
Heartbeat CPU 0 instructions: 17500116 cycles: 7455574 heartbeat IPC: 2.39 cumulative IPC: 2.347 (Simulation time: 00 hr 01 min 12 sec)
Heartbeat CPU 0 instructions: 18000121 cycles: 7667583 heartbeat IPC: 2.358 cumulative IPC: 2.348 (Simulation time: 00 hr 01 min 14 sec)
Heartbeat CPU 0 instructions: 18500125 cycles: 7877538 heartbeat IPC: 2.381 cumulative IPC: 2.348 (Simulation time: 00 hr 01 min 16 sec)
Heartbeat CPU 0 instructions: 19000130 cycles: 8088065 heartbeat IPC: 2.375 cumulative IPC: 2.349 (Simulation time: 00 hr 01 min 19 sec)
Heartbeat CPU 0 instructions: 19500135 cycles: 8300764 heartbeat IPC: 2.351 cumulative IPC: 2.349 (Simulation time: 00 hr 01 min 21 sec)
Heartbeat CPU 0 instructions: 20000136 cycles: 8512609 heartbeat IPC: 2.36 cumulative IPC: 2.349 (Simulation time: 00 hr 01 min 23 sec)
Heartbeat CPU 0 instructions: 20500136 cycles: 8722794 heartbeat IPC: 2.379 cumulative IPC: 2.35 (Simulation time: 00 hr 01 min 25 sec)
Heartbeat CPU 0 instructions: 21000137 cycles: 8933605 heartbeat IPC: 2.372 cumulative IPC: 2.351 (Simulation time: 00 hr 01 min 27 sec)
Heartbeat CPU 0 instructions: 21500137 cycles: 9143314 heartbeat IPC: 2.384 cumulative IPC: 2.351 (Simulation time: 00 hr 01 min 29 sec)
Heartbeat CPU 0 instructions: 22000137 cycles: 9351450 heartbeat IPC: 2.402 cumulative IPC: 2.353 (Simulation time: 00 hr 01 min 31 sec)
Heartbeat CPU 0 instructions: 22500144 cycles: 9560863 heartbeat IPC: 2.388 cumulative IPC: 2.353 (Simulation time: 00 hr 01 min 33 sec)
Heartbeat CPU 0 instructions: 23000146 cycles: 9769102 heartbeat IPC: 2.401 cumulative IPC: 2.354 (Simulation time: 00 hr 01 min 35 sec)
Heartbeat CPU 0 instructions: 23500149 cycles: 9992152 heartbeat IPC: 2.242 cumulative IPC: 2.352 (Simulation time: 00 hr 01 min 38 sec)
Heartbeat CPU 0 instructions: 24000149 cycles: 10206901 heartbeat IPC: 2.328 cumulative IPC: 2.351 (Simulation time: 00 hr 01 min 40 sec)
Heartbeat CPU 0 instructions: 24500150 cycles: 10417225 heartbeat IPC: 2.377 cumulative IPC: 2.352 (Simulation time: 00 hr 01 min 42 sec)
Heartbeat CPU 0 instructions: 25000151 cycles: 10627248 heartbeat IPC: 2.381 cumulative IPC: 2.352 (Simulation time: 00 hr 01 min 44 sec)
Heartbeat CPU 0 instructions: 25500154 cycles: 10832378 heartbeat IPC: 2.437 cumulative IPC: 2.354 (Simulation time: 00 hr 01 min 46 sec)
Heartbeat CPU 0 instructions: 26000158 cycles: 11041976 heartbeat IPC: 2.386 cumulative IPC: 2.355 (Simulation time: 00 hr 01 min 48 sec)
Heartbeat CPU 0 instructions: 26500163 cycles: 11248650 heartbeat IPC: 2.419 cumulative IPC: 2.356 (Simulation time: 00 hr 01 min 50 sec)
Heartbeat CPU 0 instructions: 27000163 cycles: 11451674 heartbeat IPC: 2.463 cumulative IPC: 2.358 (Simulation time: 00 hr 01 min 52 sec)
Heartbeat CPU 0 instructions: 27500168 cycles: 11655838 heartbeat IPC: 2.449 cumulative IPC: 2.359 (Simulation time: 00 hr 01 min 54 sec)
Heartbeat CPU 0 instructions: 28000169 cycles: 11861993 heartbeat IPC: 2.425 cumulative IPC: 2.36 (Simulation time: 00 hr 01 min 56 sec)
Heartbeat CPU 0 instructions: 28500172 cycles: 12069542 heartbeat IPC: 2.409 cumulative IPC: 2.361 (Simulation time: 00 hr 01 min 58 sec)
Heartbeat CPU 0 instructions: 29000177 cycles: 12276570 heartbeat IPC: 2.415 cumulative IPC: 2.362 (Simulation time: 00 hr 02 min 01 sec)
Heartbeat CPU 0 instructions: 29500180 cycles: 12473270 heartbeat IPC: 2.542 cumulative IPC: 2.365 (Simulation time: 00 hr 02 min 03 sec)
Heartbeat CPU 0 instructions: 30000184 cycles: 12642319 heartbeat IPC: 2.958 cumulative IPC: 2.373 (Simulation time: 00 hr 02 min 05 sec)
Heartbeat CPU 0 instructions: 30500186 cycles: 12796284 heartbeat IPC: 3.248 cumulative IPC: 2.384 (Simulation time: 00 hr 02 min 06 sec)
Heartbeat CPU 0 instructions: 31000192 cycles: 13007410 heartbeat IPC: 2.368 cumulative IPC: 2.383 (Simulation time: 00 hr 02 min 09 sec)
Heartbeat CPU 0 instructions: 31500192 cycles: 13220922 heartbeat IPC: 2.342 cumulative IPC: 2.383 (Simulation time: 00 hr 02 min 11 sec)
Heartbeat CPU 0 instructions: 32000198 cycles: 13427882 heartbeat IPC: 2.416 cumulative IPC: 2.383 (Simulation time: 00 hr 02 min 13 sec)
Heartbeat CPU 0 instructions: 32500199 cycles: 13631025 heartbeat IPC: 2.461 cumulative IPC: 2.384 (Simulation time: 00 hr 02 min 15 sec)
Heartbeat CPU 0 instructions: 33000200 cycles: 13835864 heartbeat IPC: 2.441 cumulative IPC: 2.385 (Simulation time: 00 hr 02 min 17 sec)
Heartbeat CPU 0 instructions: 33500205 cycles: 14044254 heartbeat IPC: 2.399 cumulative IPC: 2.385 (Simulation time: 00 hr 02 min 19 sec)
Heartbeat CPU 0 instructions: 34000210 cycles: 14255650 heartbeat IPC: 2.365 cumulative IPC: 2.385 (Simulation time: 00 hr 02 min 21 sec)
Heartbeat CPU 0 instructions: 34500210 cycles: 14462407 heartbeat IPC: 2.418 cumulative IPC: 2.386 (Simulation time: 00 hr 02 min 23 sec)
Heartbeat CPU 0 instructions: 35000215 cycles: 14674610 heartbeat IPC: 2.356 cumulative IPC: 2.385 (Simulation time: 00 hr 02 min 25 sec)
Heartbeat CPU 0 instructions: 35500215 cycles: 14886815 heartbeat IPC: 2.356 cumulative IPC: 2.385 (Simulation time: 00 hr 02 min 28 sec)
Heartbeat CPU 0 instructions: 36000222 cycles: 15089189 heartbeat IPC: 2.471 cumulative IPC: 2.386 (Simulation time: 00 hr 02 min 30 sec)
Heartbeat CPU 0 instructions: 36500223 cycles: 15293754 heartbeat IPC: 2.444 cumulative IPC: 2.387 (Simulation time: 00 hr 02 min 32 sec)
Heartbeat CPU 0 instructions: 37000223 cycles: 15482450 heartbeat IPC: 2.65 cumulative IPC: 2.39 (Simulation time: 00 hr 02 min 34 sec)
Heartbeat CPU 0 instructions: 37500227 cycles: 15679573 heartbeat IPC: 2.537 cumulative IPC: 2.392 (Simulation time: 00 hr 02 min 36 sec)
Heartbeat CPU 0 instructions: 38000228 cycles: 15889144 heartbeat IPC: 2.386 cumulative IPC: 2.392 (Simulation time: 00 hr 02 min 38 sec)
Heartbeat CPU 0 instructions: 38500228 cycles: 16095043 heartbeat IPC: 2.428 cumulative IPC: 2.392 (Simulation time: 00 hr 02 min 40 sec)
Heartbeat CPU 0 instructions: 39000234 cycles: 16294314 heartbeat IPC: 2.509 cumulative IPC: 2.393 (Simulation time: 00 hr 02 min 42 sec)
Heartbeat CPU 0 instructions: 39500238 cycles: 16499432 heartbeat IPC: 2.438 cumulative IPC: 2.394 (Simulation time: 00 hr 02 min 44 sec)
Heartbeat CPU 0 instructions: 40000245 cycles: 16706253 heartbeat IPC: 2.418 cumulative IPC: 2.394 (Simulation time: 00 hr 02 min 46 sec)
Heartbeat CPU 0 instructions: 40500249 cycles: 16917782 heartbeat IPC: 2.364 cumulative IPC: 2.394 (Simulation time: 00 hr 02 min 48 sec)
Heartbeat CPU 0 instructions: 41000252 cycles: 17125264 heartbeat IPC: 2.41 cumulative IPC: 2.394 (Simulation time: 00 hr 02 min 51 sec)
Heartbeat CPU 0 instructions: 41500252 cycles: 17338158 heartbeat IPC: 2.349 cumulative IPC: 2.394 (Simulation time: 00 hr 02 min 53 sec)
Heartbeat CPU 0 instructions: 42000252 cycles: 17546078 heartbeat IPC: 2.405 cumulative IPC: 2.394 (Simulation time: 00 hr 02 min 55 sec)
Heartbeat CPU 0 instructions: 42500256 cycles: 17752628 heartbeat IPC: 2.421 cumulative IPC: 2.394 (Simulation time: 00 hr 02 min 57 sec)
Heartbeat CPU 0 instructions: 43000263 cycles: 17957007 heartbeat IPC: 2.446 cumulative IPC: 2.395 (Simulation time: 00 hr 02 min 59 sec)
Heartbeat CPU 0 instructions: 43500267 cycles: 18159432 heartbeat IPC: 2.47 cumulative IPC: 2.395 (Simulation time: 00 hr 03 min 01 sec)
Heartbeat CPU 0 instructions: 44000269 cycles: 18361933 heartbeat IPC: 2.469 cumulative IPC: 2.396 (Simulation time: 00 hr 03 min 03 sec)
Heartbeat CPU 0 instructions: 44500269 cycles: 18567919 heartbeat IPC: 2.427 cumulative IPC: 2.397 (Simulation time: 00 hr 03 min 05 sec)
Heartbeat CPU 0 instructions: 45000274 cycles: 18771179 heartbeat IPC: 2.46 cumulative IPC: 2.397 (Simulation time: 00 hr 03 min 07 sec)
Heartbeat CPU 0 instructions: 45500274 cycles: 18969887 heartbeat IPC: 2.516 cumulative IPC: 2.399 (Simulation time: 00 hr 03 min 09 sec)
Heartbeat CPU 0 instructions: 46000275 cycles: 19169508 heartbeat IPC: 2.505 cumulative IPC: 2.4 (Simulation time: 00 hr 03 min 11 sec)
Heartbeat CPU 0 instructions: 46500275 cycles: 19370826 heartbeat IPC: 2.484 cumulative IPC: 2.401 (Simulation time: 00 hr 03 min 14 sec)
Heartbeat CPU 0 instructions: 47000276 cycles: 19569592 heartbeat IPC: 2.516 cumulative IPC: 2.402 (Simulation time: 00 hr 03 min 16 sec)
Heartbeat CPU 0 instructions: 47500280 cycles: 19776011 heartbeat IPC: 2.422 cumulative IPC: 2.402 (Simulation time: 00 hr 03 min 18 sec)
Heartbeat CPU 0 instructions: 48000281 cycles: 19975796 heartbeat IPC: 2.503 cumulative IPC: 2.403 (Simulation time: 00 hr 03 min 20 sec)
Heartbeat CPU 0 instructions: 48500282 cycles: 20176591 heartbeat IPC: 2.49 cumulative IPC: 2.404 (Simulation time: 00 hr 03 min 22 sec)
Heartbeat CPU 0 instructions: 49000286 cycles: 20379473 heartbeat IPC: 2.465 cumulative IPC: 2.404 (Simulation time: 00 hr 03 min 24 sec)
Heartbeat CPU 0 instructions: 49500287 cycles: 20579037 heartbeat IPC: 2.505 cumulative IPC: 2.405 (Simulation time: 00 hr 03 min 26 sec)
Warmup halting CPU 0 at instruction 50000001 cycle 20781416 for remainder of phase
Warmup finished CPU 0 instructions: 50000001 cycles: 20781416 cumulative IPC: 2.406 (Simulation time: 00 hr 03 min 28 sec)
Warmup complete CPU 0 instructions: 50000001 cycles: 20781416 cumulative IPC: 2.406 (Simulation time: 00 hr 03 min 28 sec)
Heartbeat CPU 0 instructions: 50000289 cycles: 20781697 heartbeat IPC: 2.467 cumulative IPC: 1.025 (Simulation time: 00 hr 03 min 28 sec)
Heartbeat CPU 0 instructions: 50500290 cycles: 21180680 heartbeat IPC: 1.253 cumulative IPC: 1.253 (Simulation time: 00 hr 03 min 32 sec)
Heartbeat CPU 0 instructions: 51000295 cycles: 21579166 heartbeat IPC: 1.255 cumulative IPC: 1.254 (Simulation time: 00 hr 03 min 37 sec)
Heartbeat CPU 0 instructions: 51500302 cycles: 21969402 heartbeat IPC: 1.281 cumulative IPC: 1.263 (Simulation time: 00 hr 03 min 41 sec)
Heartbeat CPU 0 instructions: 52000307 cycles: 22347948 heartbeat IPC: 1.321 cumulative IPC: 1.277 (Simulation time: 00 hr 03 min 45 sec)
Heartbeat CPU 0 instructions: 52500308 cycles: 22746095 heartbeat IPC: 1.256 cumulative IPC: 1.273 (Simulation time: 00 hr 03 min 49 sec)
Heartbeat CPU 0 instructions: 53000308 cycles: 23121101 heartbeat IPC: 1.333 cumulative IPC: 1.282 (Simulation time: 00 hr 03 min 53 sec)
Heartbeat CPU 0 instructions: 53500312 cycles: 23516953 heartbeat IPC: 1.263 cumulative IPC: 1.28 (Simulation time: 00 hr 03 min 57 sec)
Heartbeat CPU 0 instructions: 54000312 cycles: 23898622 heartbeat IPC: 1.31 cumulative IPC: 1.283 (Simulation time: 00 hr 04 min 01 sec)
Heartbeat CPU 0 instructions: 54500313 cycles: 24292713 heartbeat IPC: 1.269 cumulative IPC: 1.282 (Simulation time: 00 hr 04 min 06 sec)
Heartbeat CPU 0 instructions: 55000317 cycles: 24687356 heartbeat IPC: 1.267 cumulative IPC: 1.28 (Simulation time: 00 hr 04 min 10 sec)
Heartbeat CPU 0 instructions: 55500319 cycles: 25073134 heartbeat IPC: 1.296 cumulative IPC: 1.282 (Simulation time: 00 hr 04 min 14 sec)
Heartbeat CPU 0 instructions: 56000324 cycles: 25456552 heartbeat IPC: 1.304 cumulative IPC: 1.283 (Simulation time: 00 hr 04 min 18 sec)
Heartbeat CPU 0 instructions: 56500324 cycles: 25848743 heartbeat IPC: 1.275 cumulative IPC: 1.283 (Simulation time: 00 hr 04 min 22 sec)
Heartbeat CPU 0 instructions: 57000328 cycles: 26227206 heartbeat IPC: 1.321 cumulative IPC: 1.285 (Simulation time: 00 hr 04 min 26 sec)
Heartbeat CPU 0 instructions: 57500328 cycles: 26628844 heartbeat IPC: 1.245 cumulative IPC: 1.283 (Simulation time: 00 hr 04 min 31 sec)
Heartbeat CPU 0 instructions: 58000328 cycles: 27005508 heartbeat IPC: 1.327 cumulative IPC: 1.285 (Simulation time: 00 hr 04 min 35 sec)
Heartbeat CPU 0 instructions: 58500328 cycles: 27403764 heartbeat IPC: 1.255 cumulative IPC: 1.284 (Simulation time: 00 hr 04 min 39 sec)
Heartbeat CPU 0 instructions: 59000334 cycles: 27792443 heartbeat IPC: 1.286 cumulative IPC: 1.284 (Simulation time: 00 hr 04 min 43 sec)
Heartbeat CPU 0 instructions: 59500337 cycles: 28191711 heartbeat IPC: 1.252 cumulative IPC: 1.282 (Simulation time: 00 hr 04 min 47 sec)
Heartbeat CPU 0 instructions: 60000344 cycles: 28592407 heartbeat IPC: 1.248 cumulative IPC: 1.28 (Simulation time: 00 hr 04 min 52 sec)
Heartbeat CPU 0 instructions: 60500348 cycles: 28975159 heartbeat IPC: 1.306 cumulative IPC: 1.282 (Simulation time: 00 hr 04 min 56 sec)
Heartbeat CPU 0 instructions: 61000348 cycles: 29368642 heartbeat IPC: 1.271 cumulative IPC: 1.281 (Simulation time: 00 hr 05 min 00 sec)
Heartbeat CPU 0 instructions: 61500351 cycles: 29764586 heartbeat IPC: 1.263 cumulative IPC: 1.28 (Simulation time: 00 hr 05 min 04 sec)
Heartbeat CPU 0 instructions: 62000351 cycles: 30150797 heartbeat IPC: 1.295 cumulative IPC: 1.281 (Simulation time: 00 hr 05 min 08 sec)
Heartbeat CPU 0 instructions: 62500352 cycles: 30547458 heartbeat IPC: 1.261 cumulative IPC: 1.28 (Simulation time: 00 hr 05 min 13 sec)
Heartbeat CPU 0 instructions: 63000352 cycles: 30921015 heartbeat IPC: 1.338 cumulative IPC: 1.282 (Simulation time: 00 hr 05 min 17 sec)
Heartbeat CPU 0 instructions: 63500352 cycles: 31307426 heartbeat IPC: 1.294 cumulative IPC: 1.283 (Simulation time: 00 hr 05 min 21 sec)
Heartbeat CPU 0 instructions: 64000356 cycles: 31701892 heartbeat IPC: 1.268 cumulative IPC: 1.282 (Simulation time: 00 hr 05 min 25 sec)
Heartbeat CPU 0 instructions: 64500356 cycles: 32093421 heartbeat IPC: 1.277 cumulative IPC: 1.282 (Simulation time: 00 hr 05 min 29 sec)
Heartbeat CPU 0 instructions: 65000361 cycles: 32489603 heartbeat IPC: 1.262 cumulative IPC: 1.281 (Simulation time: 00 hr 05 min 34 sec)
Heartbeat CPU 0 instructions: 65500364 cycles: 32879062 heartbeat IPC: 1.284 cumulative IPC: 1.281 (Simulation time: 00 hr 05 min 38 sec)
Heartbeat CPU 0 instructions: 66000371 cycles: 33263656 heartbeat IPC: 1.3 cumulative IPC: 1.282 (Simulation time: 00 hr 05 min 42 sec)
Heartbeat CPU 0 instructions: 66500374 cycles: 33650327 heartbeat IPC: 1.293 cumulative IPC: 1.282 (Simulation time: 00 hr 05 min 46 sec)
Heartbeat CPU 0 instructions: 67000380 cycles: 34038432 heartbeat IPC: 1.288 cumulative IPC: 1.282 (Simulation time: 00 hr 05 min 50 sec)
Heartbeat CPU 0 instructions: 67500380 cycles: 34430390 heartbeat IPC: 1.276 cumulative IPC: 1.282 (Simulation time: 00 hr 05 min 54 sec)
Heartbeat CPU 0 instructions: 68000380 cycles: 34828841 heartbeat IPC: 1.255 cumulative IPC: 1.281 (Simulation time: 00 hr 05 min 59 sec)
Heartbeat CPU 0 instructions: 68500386 cycles: 35218074 heartbeat IPC: 1.285 cumulative IPC: 1.281 (Simulation time: 00 hr 06 min 03 sec)
Heartbeat CPU 0 instructions: 69000386 cycles: 35622556 heartbeat IPC: 1.236 cumulative IPC: 1.28 (Simulation time: 00 hr 06 min 07 sec)
Heartbeat CPU 0 instructions: 69500388 cycles: 36015533 heartbeat IPC: 1.272 cumulative IPC: 1.28 (Simulation time: 00 hr 06 min 11 sec)
Heartbeat CPU 0 instructions: 70000390 cycles: 36459820 heartbeat IPC: 1.125 cumulative IPC: 1.276 (Simulation time: 00 hr 06 min 15 sec)
Heartbeat CPU 0 instructions: 70500392 cycles: 36852561 heartbeat IPC: 1.273 cumulative IPC: 1.276 (Simulation time: 00 hr 06 min 20 sec)
Heartbeat CPU 0 instructions: 71000395 cycles: 37247962 heartbeat IPC: 1.265 cumulative IPC: 1.275 (Simulation time: 00 hr 06 min 24 sec)
Heartbeat CPU 0 instructions: 71500395 cycles: 37635720 heartbeat IPC: 1.289 cumulative IPC: 1.276 (Simulation time: 00 hr 06 min 28 sec)
Heartbeat CPU 0 instructions: 72000400 cycles: 38017892 heartbeat IPC: 1.308 cumulative IPC: 1.276 (Simulation time: 00 hr 06 min 32 sec)
Heartbeat CPU 0 instructions: 72500401 cycles: 38391984 heartbeat IPC: 1.337 cumulative IPC: 1.278 (Simulation time: 00 hr 06 min 36 sec)
Heartbeat CPU 0 instructions: 73000401 cycles: 38773529 heartbeat IPC: 1.31 cumulative IPC: 1.278 (Simulation time: 00 hr 06 min 40 sec)
Heartbeat CPU 0 instructions: 73500403 cycles: 39176387 heartbeat IPC: 1.241 cumulative IPC: 1.278 (Simulation time: 00 hr 06 min 44 sec)
Heartbeat CPU 0 instructions: 74000403 cycles: 39574214 heartbeat IPC: 1.257 cumulative IPC: 1.277 (Simulation time: 00 hr 06 min 48 sec)
Heartbeat CPU 0 instructions: 74500403 cycles: 39962167 heartbeat IPC: 1.289 cumulative IPC: 1.277 (Simulation time: 00 hr 06 min 52 sec)
Heartbeat CPU 0 instructions: 75000408 cycles: 40343222 heartbeat IPC: 1.312 cumulative IPC: 1.278 (Simulation time: 00 hr 06 min 56 sec)
Heartbeat CPU 0 instructions: 75500408 cycles: 40727270 heartbeat IPC: 1.302 cumulative IPC: 1.278 (Simulation time: 00 hr 07 min 00 sec)
Heartbeat CPU 0 instructions: 76000408 cycles: 41126369 heartbeat IPC: 1.253 cumulative IPC: 1.278 (Simulation time: 00 hr 07 min 04 sec)
Heartbeat CPU 0 instructions: 76500414 cycles: 41527646 heartbeat IPC: 1.246 cumulative IPC: 1.277 (Simulation time: 00 hr 07 min 09 sec)
Heartbeat CPU 0 instructions: 77000418 cycles: 41908104 heartbeat IPC: 1.314 cumulative IPC: 1.278 (Simulation time: 00 hr 07 min 13 sec)
Heartbeat CPU 0 instructions: 77500419 cycles: 42298375 heartbeat IPC: 1.281 cumulative IPC: 1.278 (Simulation time: 00 hr 07 min 17 sec)
Heartbeat CPU 0 instructions: 78000420 cycles: 42683656 heartbeat IPC: 1.298 cumulative IPC: 1.278 (Simulation time: 00 hr 07 min 21 sec)
Heartbeat CPU 0 instructions: 78500423 cycles: 43061606 heartbeat IPC: 1.323 cumulative IPC: 1.279 (Simulation time: 00 hr 07 min 25 sec)
Heartbeat CPU 0 instructions: 79000427 cycles: 43453652 heartbeat IPC: 1.275 cumulative IPC: 1.279 (Simulation time: 00 hr 07 min 29 sec)
Heartbeat CPU 0 instructions: 79500428 cycles: 43838949 heartbeat IPC: 1.298 cumulative IPC: 1.279 (Simulation time: 00 hr 07 min 33 sec)
Heartbeat CPU 0 instructions: 80000432 cycles: 44231545 heartbeat IPC: 1.274 cumulative IPC: 1.279 (Simulation time: 00 hr 07 min 37 sec)
Heartbeat CPU 0 instructions: 80500432 cycles: 44618228 heartbeat IPC: 1.293 cumulative IPC: 1.28 (Simulation time: 00 hr 07 min 41 sec)
Heartbeat CPU 0 instructions: 81000432 cycles: 45011589 heartbeat IPC: 1.271 cumulative IPC: 1.279 (Simulation time: 00 hr 07 min 45 sec)
Heartbeat CPU 0 instructions: 81500432 cycles: 45413071 heartbeat IPC: 1.245 cumulative IPC: 1.279 (Simulation time: 00 hr 07 min 49 sec)
Heartbeat CPU 0 instructions: 82000436 cycles: 45799023 heartbeat IPC: 1.296 cumulative IPC: 1.279 (Simulation time: 00 hr 07 min 53 sec)
Heartbeat CPU 0 instructions: 82500439 cycles: 46178860 heartbeat IPC: 1.316 cumulative IPC: 1.28 (Simulation time: 00 hr 07 min 57 sec)
Heartbeat CPU 0 instructions: 83000440 cycles: 46565319 heartbeat IPC: 1.294 cumulative IPC: 1.28 (Simulation time: 00 hr 08 min 01 sec)
Heartbeat CPU 0 instructions: 83500444 cycles: 46954385 heartbeat IPC: 1.285 cumulative IPC: 1.28 (Simulation time: 00 hr 08 min 05 sec)
Heartbeat CPU 0 instructions: 84000444 cycles: 47339221 heartbeat IPC: 1.299 cumulative IPC: 1.28 (Simulation time: 00 hr 08 min 09 sec)
Heartbeat CPU 0 instructions: 84500448 cycles: 47726484 heartbeat IPC: 1.291 cumulative IPC: 1.28 (Simulation time: 00 hr 08 min 13 sec)
Heartbeat CPU 0 instructions: 85000448 cycles: 48121563 heartbeat IPC: 1.266 cumulative IPC: 1.28 (Simulation time: 00 hr 08 min 17 sec)
Heartbeat CPU 0 instructions: 85500448 cycles: 48514959 heartbeat IPC: 1.271 cumulative IPC: 1.28 (Simulation time: 00 hr 08 min 21 sec)
Heartbeat CPU 0 instructions: 86000451 cycles: 48909854 heartbeat IPC: 1.266 cumulative IPC: 1.28 (Simulation time: 00 hr 08 min 25 sec)
Heartbeat CPU 0 instructions: 86500452 cycles: 49309317 heartbeat IPC: 1.252 cumulative IPC: 1.279 (Simulation time: 00 hr 08 min 29 sec)
Heartbeat CPU 0 instructions: 87000456 cycles: 49705386 heartbeat IPC: 1.262 cumulative IPC: 1.279 (Simulation time: 00 hr 08 min 34 sec)
Heartbeat CPU 0 instructions: 87500457 cycles: 50096388 heartbeat IPC: 1.279 cumulative IPC: 1.279 (Simulation time: 00 hr 08 min 38 sec)
Heartbeat CPU 0 instructions: 88000457 cycles: 50483794 heartbeat IPC: 1.291 cumulative IPC: 1.279 (Simulation time: 00 hr 08 min 41 sec)
Heartbeat CPU 0 instructions: 88500459 cycles: 50925345 heartbeat IPC: 1.132 cumulative IPC: 1.277 (Simulation time: 00 hr 08 min 46 sec)
Heartbeat CPU 0 instructions: 89000459 cycles: 51309238 heartbeat IPC: 1.302 cumulative IPC: 1.278 (Simulation time: 00 hr 08 min 50 sec)
Heartbeat CPU 0 instructions: 89500464 cycles: 51705263 heartbeat IPC: 1.263 cumulative IPC: 1.277 (Simulation time: 00 hr 08 min 54 sec)
Heartbeat CPU 0 instructions: 90000465 cycles: 52100480 heartbeat IPC: 1.265 cumulative IPC: 1.277 (Simulation time: 00 hr 08 min 58 sec)
Heartbeat CPU 0 instructions: 90500467 cycles: 52485420 heartbeat IPC: 1.299 cumulative IPC: 1.277 (Simulation time: 00 hr 09 min 02 sec)
Heartbeat CPU 0 instructions: 91000470 cycles: 52881410 heartbeat IPC: 1.263 cumulative IPC: 1.277 (Simulation time: 00 hr 09 min 06 sec)
Heartbeat CPU 0 instructions: 91500472 cycles: 53280646 heartbeat IPC: 1.252 cumulative IPC: 1.277 (Simulation time: 00 hr 09 min 10 sec)
Heartbeat CPU 0 instructions: 92000473 cycles: 53674090 heartbeat IPC: 1.271 cumulative IPC: 1.277 (Simulation time: 00 hr 09 min 14 sec)
Heartbeat CPU 0 instructions: 92500473 cycles: 54122849 heartbeat IPC: 1.114 cumulative IPC: 1.275 (Simulation time: 00 hr 09 min 18 sec)
Heartbeat CPU 0 instructions: 93000476 cycles: 54503417 heartbeat IPC: 1.314 cumulative IPC: 1.275 (Simulation time: 00 hr 09 min 22 sec)
Heartbeat CPU 0 instructions: 93500481 cycles: 54914948 heartbeat IPC: 1.215 cumulative IPC: 1.274 (Simulation time: 00 hr 09 min 26 sec)
Heartbeat CPU 0 instructions: 94000485 cycles: 55305981 heartbeat IPC: 1.279 cumulative IPC: 1.274 (Simulation time: 00 hr 09 min 30 sec)
Heartbeat CPU 0 instructions: 94500488 cycles: 55670953 heartbeat IPC: 1.37 cumulative IPC: 1.275 (Simulation time: 00 hr 09 min 33 sec)
Heartbeat CPU 0 instructions: 95000489 cycles: 56085767 heartbeat IPC: 1.205 cumulative IPC: 1.275 (Simulation time: 00 hr 09 min 37 sec)
Heartbeat CPU 0 instructions: 95500489 cycles: 56489666 heartbeat IPC: 1.238 cumulative IPC: 1.274 (Simulation time: 00 hr 09 min 41 sec)
Heartbeat CPU 0 instructions: 96000489 cycles: 56960828 heartbeat IPC: 1.061 cumulative IPC: 1.271 (Simulation time: 00 hr 09 min 46 sec)
Heartbeat CPU 0 instructions: 96500494 cycles: 57385364 heartbeat IPC: 1.178 cumulative IPC: 1.27 (Simulation time: 00 hr 09 min 50 sec)
Heartbeat CPU 0 instructions: 97000494 cycles: 57798436 heartbeat IPC: 1.21 cumulative IPC: 1.27 (Simulation time: 00 hr 09 min 54 sec)
Heartbeat CPU 0 instructions: 97500496 cycles: 58157652 heartbeat IPC: 1.392 cumulative IPC: 1.271 (Simulation time: 00 hr 09 min 58 sec)
Heartbeat CPU 0 instructions: 98000501 cycles: 58544444 heartbeat IPC: 1.293 cumulative IPC: 1.271 (Simulation time: 00 hr 10 min 02 sec)
Heartbeat CPU 0 instructions: 98500507 cycles: 58947324 heartbeat IPC: 1.241 cumulative IPC: 1.271 (Simulation time: 00 hr 10 min 06 sec)
Heartbeat CPU 0 instructions: 99000512 cycles: 59353656 heartbeat IPC: 1.231 cumulative IPC: 1.27 (Simulation time: 00 hr 10 min 10 sec)
Heartbeat CPU 0 instructions: 99500515 cycles: 59766835 heartbeat IPC: 1.21 cumulative IPC: 1.27 (Simulation time: 00 hr 10 min 14 sec)
Heartbeat CPU 0 instructions: 100000516 cycles: 60176303 heartbeat IPC: 1.221 cumulative IPC: 1.269 (Simulation time: 00 hr 10 min 18 sec)
Heartbeat CPU 0 instructions: 100500520 cycles: 60584043 heartbeat IPC: 1.226 cumulative IPC: 1.269 (Simulation time: 00 hr 10 min 23 sec)
Heartbeat CPU 0 instructions: 101000520 cycles: 60986834 heartbeat IPC: 1.241 cumulative IPC: 1.268 (Simulation time: 00 hr 10 min 27 sec)
Heartbeat CPU 0 instructions: 101500520 cycles: 61409573 heartbeat IPC: 1.183 cumulative IPC: 1.268 (Simulation time: 00 hr 10 min 31 sec)
Heartbeat CPU 0 instructions: 102000524 cycles: 61809599 heartbeat IPC: 1.25 cumulative IPC: 1.267 (Simulation time: 00 hr 10 min 35 sec)
Heartbeat CPU 0 instructions: 102500525 cycles: 62233529 heartbeat IPC: 1.179 cumulative IPC: 1.267 (Simulation time: 00 hr 10 min 39 sec)
Heartbeat CPU 0 instructions: 103000525 cycles: 62640829 heartbeat IPC: 1.228 cumulative IPC: 1.266 (Simulation time: 00 hr 10 min 43 sec)
Heartbeat CPU 0 instructions: 103500528 cycles: 63041637 heartbeat IPC: 1.247 cumulative IPC: 1.266 (Simulation time: 00 hr 10 min 47 sec)
Heartbeat CPU 0 instructions: 104000529 cycles: 63486731 heartbeat IPC: 1.123 cumulative IPC: 1.264 (Simulation time: 00 hr 10 min 51 sec)
Heartbeat CPU 0 instructions: 104500532 cycles: 63898929 heartbeat IPC: 1.213 cumulative IPC: 1.264 (Simulation time: 00 hr 10 min 55 sec)
Heartbeat CPU 0 instructions: 105000538 cycles: 64303301 heartbeat IPC: 1.237 cumulative IPC: 1.264 (Simulation time: 00 hr 10 min 59 sec)
Heartbeat CPU 0 instructions: 105500544 cycles: 64710736 heartbeat IPC: 1.227 cumulative IPC: 1.263 (Simulation time: 00 hr 11 min 03 sec)
Heartbeat CPU 0 instructions: 106000547 cycles: 65117683 heartbeat IPC: 1.229 cumulative IPC: 1.263 (Simulation time: 00 hr 11 min 07 sec)
Heartbeat CPU 0 instructions: 106500552 cycles: 65530221 heartbeat IPC: 1.212 cumulative IPC: 1.263 (Simulation time: 00 hr 11 min 11 sec)
Heartbeat CPU 0 instructions: 107000552 cycles: 65948767 heartbeat IPC: 1.195 cumulative IPC: 1.262 (Simulation time: 00 hr 11 min 15 sec)
Heartbeat CPU 0 instructions: 107500556 cycles: 66365984 heartbeat IPC: 1.198 cumulative IPC: 1.261 (Simulation time: 00 hr 11 min 19 sec)
Heartbeat CPU 0 instructions: 108000556 cycles: 66793463 heartbeat IPC: 1.17 cumulative IPC: 1.261 (Simulation time: 00 hr 11 min 23 sec)
Heartbeat CPU 0 instructions: 108500556 cycles: 67207123 heartbeat IPC: 1.209 cumulative IPC: 1.26 (Simulation time: 00 hr 11 min 27 sec)
Heartbeat CPU 0 instructions: 109000560 cycles: 67593832 heartbeat IPC: 1.293 cumulative IPC: 1.26 (Simulation time: 00 hr 11 min 31 sec)
Heartbeat CPU 0 instructions: 109500563 cycles: 67980039 heartbeat IPC: 1.295 cumulative IPC: 1.261 (Simulation time: 00 hr 11 min 35 sec)
Heartbeat CPU 0 instructions: 110000569 cycles: 68383137 heartbeat IPC: 1.24 cumulative IPC: 1.26 (Simulation time: 00 hr 11 min 39 sec)
Heartbeat CPU 0 instructions: 110500569 cycles: 68816141 heartbeat IPC: 1.155 cumulative IPC: 1.26 (Simulation time: 00 hr 11 min 43 sec)
Heartbeat CPU 0 instructions: 111000575 cycles: 69237988 heartbeat IPC: 1.185 cumulative IPC: 1.259 (Simulation time: 00 hr 11 min 48 sec)
Heartbeat CPU 0 instructions: 111500576 cycles: 69666168 heartbeat IPC: 1.168 cumulative IPC: 1.258 (Simulation time: 00 hr 11 min 52 sec)
Heartbeat CPU 0 instructions: 112000579 cycles: 70078029 heartbeat IPC: 1.214 cumulative IPC: 1.258 (Simulation time: 00 hr 11 min 56 sec)
Heartbeat CPU 0 instructions: 112500584 cycles: 70462720 heartbeat IPC: 1.3 cumulative IPC: 1.258 (Simulation time: 00 hr 12 min 00 sec)
Heartbeat CPU 0 instructions: 113000584 cycles: 70884417 heartbeat IPC: 1.186 cumulative IPC: 1.257 (Simulation time: 00 hr 12 min 04 sec)
Heartbeat CPU 0 instructions: 113500590 cycles: 71298485 heartbeat IPC: 1.208 cumulative IPC: 1.257 (Simulation time: 00 hr 12 min 08 sec)
Heartbeat CPU 0 instructions: 114000596 cycles: 71739425 heartbeat IPC: 1.134 cumulative IPC: 1.256 (Simulation time: 00 hr 12 min 12 sec)
Heartbeat CPU 0 instructions: 114500601 cycles: 72181693 heartbeat IPC: 1.131 cumulative IPC: 1.255 (Simulation time: 00 hr 12 min 17 sec)
Heartbeat CPU 0 instructions: 115000603 cycles: 72587340 heartbeat IPC: 1.233 cumulative IPC: 1.255 (Simulation time: 00 hr 12 min 21 sec)
Heartbeat CPU 0 instructions: 115500609 cycles: 73003414 heartbeat IPC: 1.202 cumulative IPC: 1.254 (Simulation time: 00 hr 12 min 25 sec)
Heartbeat CPU 0 instructions: 116000613 cycles: 73406447 heartbeat IPC: 1.241 cumulative IPC: 1.254 (Simulation time: 00 hr 12 min 29 sec)
Heartbeat CPU 0 instructions: 116500614 cycles: 73836862 heartbeat IPC: 1.162 cumulative IPC: 1.253 (Simulation time: 00 hr 12 min 33 sec)
Heartbeat CPU 0 instructions: 117000616 cycles: 74228024 heartbeat IPC: 1.278 cumulative IPC: 1.254 (Simulation time: 00 hr 12 min 37 sec)
Heartbeat CPU 0 instructions: 117500619 cycles: 74637987 heartbeat IPC: 1.22 cumulative IPC: 1.253 (Simulation time: 00 hr 12 min 41 sec)
Heartbeat CPU 0 instructions: 118000622 cycles: 75058418 heartbeat IPC: 1.189 cumulative IPC: 1.253 (Simulation time: 00 hr 12 min 45 sec)
Heartbeat CPU 0 instructions: 118500622 cycles: 75495085 heartbeat IPC: 1.145 cumulative IPC: 1.252 (Simulation time: 00 hr 12 min 49 sec)
Heartbeat CPU 0 instructions: 119000625 cycles: 75929145 heartbeat IPC: 1.152 cumulative IPC: 1.251 (Simulation time: 00 hr 12 min 53 sec)
Heartbeat CPU 0 instructions: 119500629 cycles: 76359832 heartbeat IPC: 1.161 cumulative IPC: 1.25 (Simulation time: 00 hr 12 min 57 sec)
Heartbeat CPU 0 instructions: 120000629 cycles: 76791835 heartbeat IPC: 1.157 cumulative IPC: 1.25 (Simulation time: 00 hr 13 min 01 sec)
Heartbeat CPU 0 instructions: 120500631 cycles: 77224106 heartbeat IPC: 1.157 cumulative IPC: 1.249 (Simulation time: 00 hr 13 min 06 sec)
Heartbeat CPU 0 instructions: 121000637 cycles: 77658227 heartbeat IPC: 1.152 cumulative IPC: 1.248 (Simulation time: 00 hr 13 min 10 sec)
Heartbeat CPU 0 instructions: 121500642 cycles: 78010288 heartbeat IPC: 1.42 cumulative IPC: 1.249 (Simulation time: 00 hr 13 min 13 sec)
Heartbeat CPU 0 instructions: 122000645 cycles: 78393938 heartbeat IPC: 1.303 cumulative IPC: 1.25 (Simulation time: 00 hr 13 min 17 sec)
Heartbeat CPU 0 instructions: 122500648 cycles: 78772536 heartbeat IPC: 1.321 cumulative IPC: 1.25 (Simulation time: 00 hr 13 min 21 sec)
Heartbeat CPU 0 instructions: 123000648 cycles: 79227104 heartbeat IPC: 1.1 cumulative IPC: 1.249 (Simulation time: 00 hr 13 min 26 sec)
Heartbeat CPU 0 instructions: 123500652 cycles: 79690744 heartbeat IPC: 1.078 cumulative IPC: 1.248 (Simulation time: 00 hr 13 min 30 sec)
Heartbeat CPU 0 instructions: 124000659 cycles: 80146493 heartbeat IPC: 1.097 cumulative IPC: 1.247 (Simulation time: 00 hr 13 min 34 sec)
Heartbeat CPU 0 instructions: 124500663 cycles: 80586509 heartbeat IPC: 1.136 cumulative IPC: 1.246 (Simulation time: 00 hr 13 min 39 sec)
Heartbeat CPU 0 instructions: 125000667 cycles: 81029169 heartbeat IPC: 1.13 cumulative IPC: 1.245 (Simulation time: 00 hr 13 min 43 sec)
Heartbeat CPU 0 instructions: 125500673 cycles: 81478622 heartbeat IPC: 1.112 cumulative IPC: 1.244 (Simulation time: 00 hr 13 min 47 sec)
Heartbeat CPU 0 instructions: 126000678 cycles: 81913640 heartbeat IPC: 1.149 cumulative IPC: 1.243 (Simulation time: 00 hr 13 min 51 sec)
Heartbeat CPU 0 instructions: 126500680 cycles: 82365635 heartbeat IPC: 1.106 cumulative IPC: 1.242 (Simulation time: 00 hr 13 min 55 sec)
Heartbeat CPU 0 instructions: 127000681 cycles: 82819834 heartbeat IPC: 1.101 cumulative IPC: 1.241 (Simulation time: 00 hr 13 min 59 sec)
Heartbeat CPU 0 instructions: 127500683 cycles: 83249462 heartbeat IPC: 1.164 cumulative IPC: 1.241 (Simulation time: 00 hr 14 min 03 sec)
Heartbeat CPU 0 instructions: 128000687 cycles: 83680696 heartbeat IPC: 1.159 cumulative IPC: 1.24 (Simulation time: 00 hr 14 min 07 sec)
Heartbeat CPU 0 instructions: 128500694 cycles: 84133180 heartbeat IPC: 1.105 cumulative IPC: 1.239 (Simulation time: 00 hr 14 min 11 sec)
Heartbeat CPU 0 instructions: 129000698 cycles: 84572553 heartbeat IPC: 1.138 cumulative IPC: 1.238 (Simulation time: 00 hr 14 min 15 sec)
Heartbeat CPU 0 instructions: 129500698 cycles: 84989295 heartbeat IPC: 1.2 cumulative IPC: 1.238 (Simulation time: 00 hr 14 min 19 sec)
Heartbeat CPU 0 instructions: 130000705 cycles: 85442815 heartbeat IPC: 1.103 cumulative IPC: 1.237 (Simulation time: 00 hr 14 min 23 sec)
Heartbeat CPU 0 instructions: 130500712 cycles: 85875901 heartbeat IPC: 1.155 cumulative IPC: 1.237 (Simulation time: 00 hr 14 min 28 sec)
Heartbeat CPU 0 instructions: 131000714 cycles: 86302878 heartbeat IPC: 1.171 cumulative IPC: 1.236 (Simulation time: 00 hr 14 min 32 sec)
Heartbeat CPU 0 instructions: 131500716 cycles: 86697648 heartbeat IPC: 1.267 cumulative IPC: 1.236 (Simulation time: 00 hr 14 min 36 sec)
Heartbeat CPU 0 instructions: 132000717 cycles: 87117749 heartbeat IPC: 1.19 cumulative IPC: 1.236 (Simulation time: 00 hr 14 min 40 sec)
Heartbeat CPU 0 instructions: 132500717 cycles: 87590761 heartbeat IPC: 1.057 cumulative IPC: 1.235 (Simulation time: 00 hr 14 min 44 sec)
Heartbeat CPU 0 instructions: 133000721 cycles: 88045799 heartbeat IPC: 1.099 cumulative IPC: 1.234 (Simulation time: 00 hr 14 min 48 sec)
Heartbeat CPU 0 instructions: 133500726 cycles: 88541180 heartbeat IPC: 1.009 cumulative IPC: 1.232 (Simulation time: 00 hr 14 min 53 sec)
Heartbeat CPU 0 instructions: 134000732 cycles: 88979144 heartbeat IPC: 1.142 cumulative IPC: 1.232 (Simulation time: 00 hr 14 min 57 sec)
Heartbeat CPU 0 instructions: 134500739 cycles: 89437576 heartbeat IPC: 1.091 cumulative IPC: 1.231 (Simulation time: 00 hr 15 min 01 sec)
Heartbeat CPU 0 instructions: 135000742 cycles: 89829446 heartbeat IPC: 1.276 cumulative IPC: 1.231 (Simulation time: 00 hr 15 min 05 sec)
Heartbeat CPU 0 instructions: 135500744 cycles: 90296810 heartbeat IPC: 1.07 cumulative IPC: 1.23 (Simulation time: 00 hr 15 min 09 sec)
Heartbeat CPU 0 instructions: 136000744 cycles: 90772748 heartbeat IPC: 1.051 cumulative IPC: 1.229 (Simulation time: 00 hr 15 min 14 sec)
Heartbeat CPU 0 instructions: 136500746 cycles: 91273213 heartbeat IPC: 0.9991 cumulative IPC: 1.227 (Simulation time: 00 hr 15 min 18 sec)
Heartbeat CPU 0 instructions: 137000746 cycles: 91756595 heartbeat IPC: 1.034 cumulative IPC: 1.226 (Simulation time: 00 hr 15 min 22 sec)
Heartbeat CPU 0 instructions: 137500750 cycles: 92220589 heartbeat IPC: 1.078 cumulative IPC: 1.225 (Simulation time: 00 hr 15 min 27 sec)
Heartbeat CPU 0 instructions: 138000752 cycles: 92697497 heartbeat IPC: 1.048 cumulative IPC: 1.224 (Simulation time: 00 hr 15 min 31 sec)
Heartbeat CPU 0 instructions: 138500757 cycles: 93168056 heartbeat IPC: 1.063 cumulative IPC: 1.223 (Simulation time: 00 hr 15 min 35 sec)
Heartbeat CPU 0 instructions: 139000758 cycles: 93640400 heartbeat IPC: 1.059 cumulative IPC: 1.222 (Simulation time: 00 hr 15 min 39 sec)
Heartbeat CPU 0 instructions: 139500758 cycles: 94020697 heartbeat IPC: 1.315 cumulative IPC: 1.222 (Simulation time: 00 hr 15 min 43 sec)
Heartbeat CPU 0 instructions: 140000761 cycles: 94354161 heartbeat IPC: 1.499 cumulative IPC: 1.223 (Simulation time: 00 hr 15 min 47 sec)
Heartbeat CPU 0 instructions: 140500765 cycles: 94852919 heartbeat IPC: 1.002 cumulative IPC: 1.222 (Simulation time: 00 hr 15 min 51 sec)
Heartbeat CPU 0 instructions: 141000767 cycles: 95241749 heartbeat IPC: 1.286 cumulative IPC: 1.222 (Simulation time: 00 hr 15 min 55 sec)
Heartbeat CPU 0 instructions: 141500767 cycles: 95744115 heartbeat IPC: 0.9953 cumulative IPC: 1.221 (Simulation time: 00 hr 15 min 59 sec)
Heartbeat CPU 0 instructions: 142000768 cycles: 96195835 heartbeat IPC: 1.107 cumulative IPC: 1.22 (Simulation time: 00 hr 16 min 04 sec)
Heartbeat CPU 0 instructions: 142500768 cycles: 96690319 heartbeat IPC: 1.011 cumulative IPC: 1.219 (Simulation time: 00 hr 16 min 08 sec)
Heartbeat CPU 0 instructions: 143000768 cycles: 97210144 heartbeat IPC: 0.9619 cumulative IPC: 1.217 (Simulation time: 00 hr 16 min 13 sec)
Heartbeat CPU 0 instructions: 143500772 cycles: 97718494 heartbeat IPC: 0.9836 cumulative IPC: 1.215 (Simulation time: 00 hr 16 min 17 sec)
Heartbeat CPU 0 instructions: 144000774 cycles: 98216453 heartbeat IPC: 1.004 cumulative IPC: 1.214 (Simulation time: 00 hr 16 min 22 sec)
Heartbeat CPU 0 instructions: 144500774 cycles: 98726735 heartbeat IPC: 0.9799 cumulative IPC: 1.212 (Simulation time: 00 hr 16 min 26 sec)
Heartbeat CPU 0 instructions: 145000775 cycles: 99191199 heartbeat IPC: 1.077 cumulative IPC: 1.212 (Simulation time: 00 hr 16 min 30 sec)
Heartbeat CPU 0 instructions: 145500777 cycles: 99662011 heartbeat IPC: 1.062 cumulative IPC: 1.211 (Simulation time: 00 hr 16 min 34 sec)
Heartbeat CPU 0 instructions: 146000778 cycles: 100158398 heartbeat IPC: 1.007 cumulative IPC: 1.209 (Simulation time: 00 hr 16 min 38 sec)
Heartbeat CPU 0 instructions: 146500780 cycles: 100636611 heartbeat IPC: 1.046 cumulative IPC: 1.208 (Simulation time: 00 hr 16 min 43 sec)
Heartbeat CPU 0 instructions: 147000780 cycles: 101088722 heartbeat IPC: 1.106 cumulative IPC: 1.208 (Simulation time: 00 hr 16 min 47 sec)
Heartbeat CPU 0 instructions: 147500784 cycles: 101584689 heartbeat IPC: 1.008 cumulative IPC: 1.207 (Simulation time: 00 hr 16 min 51 sec)
Heartbeat CPU 0 instructions: 148000787 cycles: 102063414 heartbeat IPC: 1.044 cumulative IPC: 1.206 (Simulation time: 00 hr 16 min 55 sec)
Heartbeat CPU 0 instructions: 148500792 cycles: 102574785 heartbeat IPC: 0.9778 cumulative IPC: 1.204 (Simulation time: 00 hr 16 min 59 sec)
Heartbeat CPU 0 instructions: 149000792 cycles: 103043227 heartbeat IPC: 1.067 cumulative IPC: 1.203 (Simulation time: 00 hr 17 min 03 sec)
Heartbeat CPU 0 instructions: 149500793 cycles: 103515776 heartbeat IPC: 1.058 cumulative IPC: 1.203 (Simulation time: 00 hr 17 min 07 sec)
Heartbeat CPU 0 instructions: 150000793 cycles: 104034188 heartbeat IPC: 0.9645 cumulative IPC: 1.201 (Simulation time: 00 hr 17 min 12 sec)
Heartbeat CPU 0 instructions: 150500796 cycles: 104553974 heartbeat IPC: 0.9619 cumulative IPC: 1.2 (Simulation time: 00 hr 17 min 16 sec)
Heartbeat CPU 0 instructions: 151000796 cycles: 105064942 heartbeat IPC: 0.9785 cumulative IPC: 1.198 (Simulation time: 00 hr 17 min 21 sec)
Heartbeat CPU 0 instructions: 151500801 cycles: 105529283 heartbeat IPC: 1.077 cumulative IPC: 1.198 (Simulation time: 00 hr 17 min 25 sec)
Heartbeat CPU 0 instructions: 152000802 cycles: 106037203 heartbeat IPC: 0.9844 cumulative IPC: 1.196 (Simulation time: 00 hr 17 min 29 sec)
Heartbeat CPU 0 instructions: 152500803 cycles: 106552602 heartbeat IPC: 0.9701 cumulative IPC: 1.195 (Simulation time: 00 hr 17 min 33 sec)
Heartbeat CPU 0 instructions: 153000807 cycles: 107051976 heartbeat IPC: 1.001 cumulative IPC: 1.194 (Simulation time: 00 hr 17 min 37 sec)
Heartbeat CPU 0 instructions: 153500807 cycles: 107563230 heartbeat IPC: 0.978 cumulative IPC: 1.193 (Simulation time: 00 hr 17 min 42 sec)
Heartbeat CPU 0 instructions: 154000812 cycles: 108057866 heartbeat IPC: 1.011 cumulative IPC: 1.192 (Simulation time: 00 hr 17 min 46 sec)
Heartbeat CPU 0 instructions: 154500814 cycles: 108531606 heartbeat IPC: 1.055 cumulative IPC: 1.191 (Simulation time: 00 hr 17 min 50 sec)
Heartbeat CPU 0 instructions: 155000818 cycles: 108975452 heartbeat IPC: 1.127 cumulative IPC: 1.191 (Simulation time: 00 hr 17 min 54 sec)
Heartbeat CPU 0 instructions: 155500818 cycles: 109418921 heartbeat IPC: 1.127 cumulative IPC: 1.19 (Simulation time: 00 hr 17 min 58 sec)
Heartbeat CPU 0 instructions: 156000820 cycles: 109954561 heartbeat IPC: 0.9335 cumulative IPC: 1.189 (Simulation time: 00 hr 18 min 03 sec)
Heartbeat CPU 0 instructions: 156500821 cycles: 110453993 heartbeat IPC: 1.001 cumulative IPC: 1.188 (Simulation time: 00 hr 18 min 07 sec)
Heartbeat CPU 0 instructions: 157000822 cycles: 111015417 heartbeat IPC: 0.8906 cumulative IPC: 1.186 (Simulation time: 00 hr 18 min 12 sec)
Heartbeat CPU 0 instructions: 157500822 cycles: 111562089 heartbeat IPC: 0.9146 cumulative IPC: 1.184 (Simulation time: 00 hr 18 min 17 sec)
Heartbeat CPU 0 instructions: 158000824 cycles: 112065746 heartbeat IPC: 0.9927 cumulative IPC: 1.183 (Simulation time: 00 hr 18 min 21 sec)
Heartbeat CPU 0 instructions: 158500825 cycles: 112545250 heartbeat IPC: 1.043 cumulative IPC: 1.182 (Simulation time: 00 hr 18 min 25 sec)
Heartbeat CPU 0 instructions: 159000825 cycles: 113061395 heartbeat IPC: 0.9687 cumulative IPC: 1.181 (Simulation time: 00 hr 18 min 29 sec)
Heartbeat CPU 0 instructions: 159500825 cycles: 113630331 heartbeat IPC: 0.8788 cumulative IPC: 1.179 (Simulation time: 00 hr 18 min 34 sec)
Heartbeat CPU 0 instructions: 160000827 cycles: 114096579 heartbeat IPC: 1.072 cumulative IPC: 1.179 (Simulation time: 00 hr 18 min 38 sec)
Heartbeat CPU 0 instructions: 160500827 cycles: 114638674 heartbeat IPC: 0.9223 cumulative IPC: 1.177 (Simulation time: 00 hr 18 min 43 sec)
Heartbeat CPU 0 instructions: 161000830 cycles: 115178181 heartbeat IPC: 0.9268 cumulative IPC: 1.176 (Simulation time: 00 hr 18 min 47 sec)
Heartbeat CPU 0 instructions: 161500835 cycles: 115729924 heartbeat IPC: 0.9062 cumulative IPC: 1.174 (Simulation time: 00 hr 18 min 52 sec)
Heartbeat CPU 0 instructions: 162000836 cycles: 116278430 heartbeat IPC: 0.9116 cumulative IPC: 1.173 (Simulation time: 00 hr 18 min 57 sec)
Heartbeat CPU 0 instructions: 162500838 cycles: 116784245 heartbeat IPC: 0.9885 cumulative IPC: 1.172 (Simulation time: 00 hr 19 min 01 sec)
Heartbeat CPU 0 instructions: 163000840 cycles: 117336241 heartbeat IPC: 0.9058 cumulative IPC: 1.17 (Simulation time: 00 hr 19 min 05 sec)
Heartbeat CPU 0 instructions: 163500841 cycles: 117917629 heartbeat IPC: 0.86 cumulative IPC: 1.168 (Simulation time: 00 hr 19 min 10 sec)
Heartbeat CPU 0 instructions: 164000844 cycles: 118511042 heartbeat IPC: 0.8426 cumulative IPC: 1.166 (Simulation time: 00 hr 19 min 15 sec)
Heartbeat CPU 0 instructions: 164500844 cycles: 119109409 heartbeat IPC: 0.8356 cumulative IPC: 1.164 (Simulation time: 00 hr 19 min 20 sec)
Heartbeat CPU 0 instructions: 165000846 cycles: 119682424 heartbeat IPC: 0.8726 cumulative IPC: 1.163 (Simulation time: 00 hr 19 min 24 sec)
Heartbeat CPU 0 instructions: 165500848 cycles: 120233900 heartbeat IPC: 0.9067 cumulative IPC: 1.161 (Simulation time: 00 hr 19 min 29 sec)
Heartbeat CPU 0 instructions: 166000850 cycles: 120814208 heartbeat IPC: 0.8616 cumulative IPC: 1.16 (Simulation time: 00 hr 19 min 34 sec)
Heartbeat CPU 0 instructions: 166500851 cycles: 121437644 heartbeat IPC: 0.802 cumulative IPC: 1.157 (Simulation time: 00 hr 19 min 39 sec)
Heartbeat CPU 0 instructions: 167000852 cycles: 122054673 heartbeat IPC: 0.8103 cumulative IPC: 1.155 (Simulation time: 00 hr 19 min 44 sec)
Heartbeat CPU 0 instructions: 167500854 cycles: 122668495 heartbeat IPC: 0.8146 cumulative IPC: 1.153 (Simulation time: 00 hr 19 min 49 sec)
Heartbeat CPU 0 instructions: 168000854 cycles: 123221332 heartbeat IPC: 0.9044 cumulative IPC: 1.152 (Simulation time: 00 hr 19 min 53 sec)
Heartbeat CPU 0 instructions: 168500859 cycles: 123816076 heartbeat IPC: 0.8407 cumulative IPC: 1.15 (Simulation time: 00 hr 19 min 58 sec)
Heartbeat CPU 0 instructions: 169000859 cycles: 124407256 heartbeat IPC: 0.8458 cumulative IPC: 1.148 (Simulation time: 00 hr 20 min 03 sec)
Heartbeat CPU 0 instructions: 169500861 cycles: 124990036 heartbeat IPC: 0.858 cumulative IPC: 1.147 (Simulation time: 00 hr 20 min 08 sec)
Heartbeat CPU 0 instructions: 170000866 cycles: 125247372 heartbeat IPC: 1.943 cumulative IPC: 1.149 (Simulation time: 00 hr 20 min 11 sec)
Heartbeat CPU 0 instructions: 170500871 cycles: 125504224 heartbeat IPC: 1.947 cumulative IPC: 1.151 (Simulation time: 00 hr 20 min 14 sec)
Heartbeat CPU 0 instructions: 171000872 cycles: 125742587 heartbeat IPC: 2.098 cumulative IPC: 1.153 (Simulation time: 00 hr 20 min 17 sec)
Heartbeat CPU 0 instructions: 171500877 cycles: 125985485 heartbeat IPC: 2.058 cumulative IPC: 1.155 (Simulation time: 00 hr 20 min 20 sec)
Heartbeat CPU 0 instructions: 172000883 cycles: 126252087 heartbeat IPC: 1.875 cumulative IPC: 1.157 (Simulation time: 00 hr 20 min 23 sec)
Heartbeat CPU 0 instructions: 172500887 cycles: 126526008 heartbeat IPC: 1.825 cumulative IPC: 1.158 (Simulation time: 00 hr 20 min 26 sec)
Heartbeat CPU 0 instructions: 173000889 cycles: 126784206 heartbeat IPC: 1.937 cumulative IPC: 1.16 (Simulation time: 00 hr 20 min 29 sec)
Heartbeat CPU 0 instructions: 173500893 cycles: 127042514 heartbeat IPC: 1.936 cumulative IPC: 1.162 (Simulation time: 00 hr 20 min 33 sec)
Heartbeat CPU 0 instructions: 174000897 cycles: 127311150 heartbeat IPC: 1.861 cumulative IPC: 1.164 (Simulation time: 00 hr 20 min 36 sec)
Heartbeat CPU 0 instructions: 174500902 cycles: 127581473 heartbeat IPC: 1.85 cumulative IPC: 1.166 (Simulation time: 00 hr 20 min 39 sec)
Heartbeat CPU 0 instructions: 175000906 cycles: 127843001 heartbeat IPC: 1.912 cumulative IPC: 1.168 (Simulation time: 00 hr 20 min 42 sec)
Heartbeat CPU 0 instructions: 175500913 cycles: 128111664 heartbeat IPC: 1.861 cumulative IPC: 1.169 (Simulation time: 00 hr 20 min 46 sec)
Heartbeat CPU 0 instructions: 176000914 cycles: 128396099 heartbeat IPC: 1.758 cumulative IPC: 1.171 (Simulation time: 00 hr 20 min 49 sec)
Heartbeat CPU 0 instructions: 176500915 cycles: 128679165 heartbeat IPC: 1.766 cumulative IPC: 1.172 (Simulation time: 00 hr 20 min 52 sec)
Heartbeat CPU 0 instructions: 177000915 cycles: 128953503 heartbeat IPC: 1.823 cumulative IPC: 1.174 (Simulation time: 00 hr 20 min 56 sec)
Heartbeat CPU 0 instructions: 177500922 cycles: 129224724 heartbeat IPC: 1.844 cumulative IPC: 1.176 (Simulation time: 00 hr 20 min 59 sec)
Heartbeat CPU 0 instructions: 178000924 cycles: 129526591 heartbeat IPC: 1.656 cumulative IPC: 1.177 (Simulation time: 00 hr 21 min 03 sec)
Heartbeat CPU 0 instructions: 178500928 cycles: 129831945 heartbeat IPC: 1.637 cumulative IPC: 1.178 (Simulation time: 00 hr 21 min 06 sec)
Heartbeat CPU 0 instructions: 179000932 cycles: 130104478 heartbeat IPC: 1.835 cumulative IPC: 1.18 (Simulation time: 00 hr 21 min 10 sec)
Heartbeat CPU 0 instructions: 179500934 cycles: 130376407 heartbeat IPC: 1.839 cumulative IPC: 1.182 (Simulation time: 00 hr 21 min 13 sec)
Heartbeat CPU 0 instructions: 180000939 cycles: 130684481 heartbeat IPC: 1.623 cumulative IPC: 1.183 (Simulation time: 00 hr 21 min 17 sec)
Heartbeat CPU 0 instructions: 180500944 cycles: 130984302 heartbeat IPC: 1.668 cumulative IPC: 1.184 (Simulation time: 00 hr 21 min 21 sec)
Heartbeat CPU 0 instructions: 181000947 cycles: 131271289 heartbeat IPC: 1.742 cumulative IPC: 1.186 (Simulation time: 00 hr 21 min 24 sec)
Heartbeat CPU 0 instructions: 181500950 cycles: 131543003 heartbeat IPC: 1.84 cumulative IPC: 1.187 (Simulation time: 00 hr 21 min 27 sec)
Heartbeat CPU 0 instructions: 182000955 cycles: 131839579 heartbeat IPC: 1.686 cumulative IPC: 1.189 (Simulation time: 00 hr 21 min 31 sec)
Heartbeat CPU 0 instructions: 182500958 cycles: 132135951 heartbeat IPC: 1.687 cumulative IPC: 1.19 (Simulation time: 00 hr 21 min 35 sec)
Heartbeat CPU 0 instructions: 183000958 cycles: 132405687 heartbeat IPC: 1.854 cumulative IPC: 1.192 (Simulation time: 00 hr 21 min 38 sec)
Heartbeat CPU 0 instructions: 183500959 cycles: 132667276 heartbeat IPC: 1.911 cumulative IPC: 1.193 (Simulation time: 00 hr 21 min 41 sec)
Heartbeat CPU 0 instructions: 184000965 cycles: 132956655 heartbeat IPC: 1.728 cumulative IPC: 1.195 (Simulation time: 00 hr 21 min 45 sec)
Heartbeat CPU 0 instructions: 184500967 cycles: 133247526 heartbeat IPC: 1.719 cumulative IPC: 1.196 (Simulation time: 00 hr 21 min 48 sec)
Heartbeat CPU 0 instructions: 185000967 cycles: 133528348 heartbeat IPC: 1.78 cumulative IPC: 1.197 (Simulation time: 00 hr 21 min 52 sec)
Heartbeat CPU 0 instructions: 185500968 cycles: 133813532 heartbeat IPC: 1.753 cumulative IPC: 1.199 (Simulation time: 00 hr 21 min 55 sec)
Heartbeat CPU 0 instructions: 186000974 cycles: 134102171 heartbeat IPC: 1.732 cumulative IPC: 1.2 (Simulation time: 00 hr 21 min 59 sec)
Heartbeat CPU 0 instructions: 186500979 cycles: 134395104 heartbeat IPC: 1.707 cumulative IPC: 1.201 (Simulation time: 00 hr 22 min 02 sec)
Heartbeat CPU 0 instructions: 187000984 cycles: 134670080 heartbeat IPC: 1.818 cumulative IPC: 1.203 (Simulation time: 00 hr 22 min 06 sec)
Heartbeat CPU 0 instructions: 187500985 cycles: 134943635 heartbeat IPC: 1.828 cumulative IPC: 1.204 (Simulation time: 00 hr 22 min 09 sec)
Heartbeat CPU 0 instructions: 188000992 cycles: 135243482 heartbeat IPC: 1.668 cumulative IPC: 1.206 (Simulation time: 00 hr 22 min 13 sec)
Heartbeat CPU 0 instructions: 188500995 cycles: 135539712 heartbeat IPC: 1.688 cumulative IPC: 1.207 (Simulation time: 00 hr 22 min 16 sec)
Heartbeat CPU 0 instructions: 189001001 cycles: 135818034 heartbeat IPC: 1.797 cumulative IPC: 1.208 (Simulation time: 00 hr 22 min 19 sec)
Heartbeat CPU 0 instructions: 189501002 cycles: 136090505 heartbeat IPC: 1.835 cumulative IPC: 1.21 (Simulation time: 00 hr 22 min 23 sec)
Heartbeat CPU 0 instructions: 190001006 cycles: 136383226 heartbeat IPC: 1.708 cumulative IPC: 1.211 (Simulation time: 00 hr 22 min 26 sec)
Heartbeat CPU 0 instructions: 190501010 cycles: 136675677 heartbeat IPC: 1.71 cumulative IPC: 1.212 (Simulation time: 00 hr 22 min 30 sec)
Heartbeat CPU 0 instructions: 191001010 cycles: 136967879 heartbeat IPC: 1.711 cumulative IPC: 1.214 (Simulation time: 00 hr 22 min 33 sec)
Heartbeat CPU 0 instructions: 191501011 cycles: 137239576 heartbeat IPC: 1.84 cumulative IPC: 1.215 (Simulation time: 00 hr 22 min 37 sec)
Heartbeat CPU 0 instructions: 192001016 cycles: 137543603 heartbeat IPC: 1.645 cumulative IPC: 1.216 (Simulation time: 00 hr 22 min 40 sec)
Heartbeat CPU 0 instructions: 192501017 cycles: 137844323 heartbeat IPC: 1.663 cumulative IPC: 1.217 (Simulation time: 00 hr 22 min 44 sec)
Heartbeat CPU 0 instructions: 193001019 cycles: 138125396 heartbeat IPC: 1.779 cumulative IPC: 1.219 (Simulation time: 00 hr 22 min 47 sec)
Heartbeat CPU 0 instructions: 193501020 cycles: 138396792 heartbeat IPC: 1.842 cumulative IPC: 1.22 (Simulation time: 00 hr 22 min 51 sec)
Heartbeat CPU 0 instructions: 194001025 cycles: 138685960 heartbeat IPC: 1.729 cumulative IPC: 1.221 (Simulation time: 00 hr 22 min 54 sec)
Heartbeat CPU 0 instructions: 194501028 cycles: 138977363 heartbeat IPC: 1.716 cumulative IPC: 1.223 (Simulation time: 00 hr 22 min 58 sec)
Heartbeat CPU 0 instructions: 195001030 cycles: 139271608 heartbeat IPC: 1.699 cumulative IPC: 1.224 (Simulation time: 00 hr 23 min 01 sec)
Heartbeat CPU 0 instructions: 195501037 cycles: 139543941 heartbeat IPC: 1.836 cumulative IPC: 1.225 (Simulation time: 00 hr 23 min 05 sec)
Heartbeat CPU 0 instructions: 196001039 cycles: 139847864 heartbeat IPC: 1.645 cumulative IPC: 1.226 (Simulation time: 00 hr 23 min 08 sec)
Heartbeat CPU 0 instructions: 196501040 cycles: 140149556 heartbeat IPC: 1.657 cumulative IPC: 1.227 (Simulation time: 00 hr 23 min 12 sec)
Heartbeat CPU 0 instructions: 197001043 cycles: 140434946 heartbeat IPC: 1.752 cumulative IPC: 1.229 (Simulation time: 00 hr 23 min 15 sec)
Heartbeat CPU 0 instructions: 197501046 cycles: 140701685 heartbeat IPC: 1.875 cumulative IPC: 1.23 (Simulation time: 00 hr 23 min 19 sec)
Heartbeat CPU 0 instructions: 198001051 cycles: 140982737 heartbeat IPC: 1.779 cumulative IPC: 1.231 (Simulation time: 00 hr 23 min 22 sec)
Heartbeat CPU 0 instructions: 198501056 cycles: 141275829 heartbeat IPC: 1.706 cumulative IPC: 1.232 (Simulation time: 00 hr 23 min 25 sec)
Heartbeat CPU 0 instructions: 199001062 cycles: 141569455 heartbeat IPC: 1.703 cumulative IPC: 1.234 (Simulation time: 00 hr 23 min 29 sec)
Heartbeat CPU 0 instructions: 199501063 cycles: 141854938 heartbeat IPC: 1.751 cumulative IPC: 1.235 (Simulation time: 00 hr 23 min 32 sec)
Heartbeat CPU 0 instructions: 200001070 cycles: 142154648 heartbeat IPC: 1.668 cumulative IPC: 1.236 (Simulation time: 00 hr 23 min 36 sec)
Heartbeat CPU 0 instructions: 200501071 cycles: 142455936 heartbeat IPC: 1.66 cumulative IPC: 1.237 (Simulation time: 00 hr 23 min 40 sec)
Heartbeat CPU 0 instructions: 201001071 cycles: 142743526 heartbeat IPC: 1.739 cumulative IPC: 1.238 (Simulation time: 00 hr 23 min 43 sec)
Heartbeat CPU 0 instructions: 201501072 cycles: 143018978 heartbeat IPC: 1.815 cumulative IPC: 1.239 (Simulation time: 00 hr 23 min 46 sec)
Heartbeat CPU 0 instructions: 202001076 cycles: 143315242 heartbeat IPC: 1.688 cumulative IPC: 1.24 (Simulation time: 00 hr 23 min 50 sec)
Heartbeat CPU 0 instructions: 202501080 cycles: 143607547 heartbeat IPC: 1.711 cumulative IPC: 1.242 (Simulation time: 00 hr 23 min 53 sec)
Heartbeat CPU 0 instructions: 203001080 cycles: 143909664 heartbeat IPC: 1.655 cumulative IPC: 1.243 (Simulation time: 00 hr 23 min 57 sec)
Heartbeat CPU 0 instructions: 203501081 cycles: 144177033 heartbeat IPC: 1.87 cumulative IPC: 1.244 (Simulation time: 00 hr 24 min 00 sec)
Heartbeat CPU 0 instructions: 204001086 cycles: 144462127 heartbeat IPC: 1.754 cumulative IPC: 1.245 (Simulation time: 00 hr 24 min 04 sec)
Heartbeat CPU 0 instructions: 204501091 cycles: 144767094 heartbeat IPC: 1.64 cumulative IPC: 1.246 (Simulation time: 00 hr 24 min 07 sec)
Heartbeat CPU 0 instructions: 205001097 cycles: 145062063 heartbeat IPC: 1.695 cumulative IPC: 1.247 (Simulation time: 00 hr 24 min 11 sec)
Heartbeat CPU 0 instructions: 205501098 cycles: 145337218 heartbeat IPC: 1.817 cumulative IPC: 1.248 (Simulation time: 00 hr 24 min 14 sec)
Heartbeat CPU 0 instructions: 206001105 cycles: 145625988 heartbeat IPC: 1.732 cumulative IPC: 1.25 (Simulation time: 00 hr 24 min 17 sec)
Heartbeat CPU 0 instructions: 206501106 cycles: 145932006 heartbeat IPC: 1.634 cumulative IPC: 1.251 (Simulation time: 00 hr 24 min 21 sec)
Heartbeat CPU 0 instructions: 207001107 cycles: 146231331 heartbeat IPC: 1.67 cumulative IPC: 1.252 (Simulation time: 00 hr 24 min 25 sec)
Heartbeat CPU 0 instructions: 207501107 cycles: 146515266 heartbeat IPC: 1.761 cumulative IPC: 1.253 (Simulation time: 00 hr 24 min 28 sec)
Heartbeat CPU 0 instructions: 208001110 cycles: 146804876 heartbeat IPC: 1.726 cumulative IPC: 1.254 (Simulation time: 00 hr 24 min 31 sec)
Heartbeat CPU 0 instructions: 208501115 cycles: 147101292 heartbeat IPC: 1.687 cumulative IPC: 1.255 (Simulation time: 00 hr 24 min 35 sec)
Heartbeat CPU 0 instructions: 209001118 cycles: 147401037 heartbeat IPC: 1.668 cumulative IPC: 1.256 (Simulation time: 00 hr 24 min 39 sec)
Heartbeat CPU 0 instructions: 209501122 cycles: 147683596 heartbeat IPC: 1.77 cumulative IPC: 1.257 (Simulation time: 00 hr 24 min 42 sec)
Heartbeat CPU 0 instructions: 210001127 cycles: 147960716 heartbeat IPC: 1.804 cumulative IPC: 1.258 (Simulation time: 00 hr 24 min 45 sec)
Heartbeat CPU 0 instructions: 210501132 cycles: 148267988 heartbeat IPC: 1.627 cumulative IPC: 1.259 (Simulation time: 00 hr 24 min 49 sec)
Heartbeat CPU 0 instructions: 211001136 cycles: 148553073 heartbeat IPC: 1.754 cumulative IPC: 1.26 (Simulation time: 00 hr 24 min 52 sec)
Heartbeat CPU 0 instructions: 211501141 cycles: 148838402 heartbeat IPC: 1.752 cumulative IPC: 1.261 (Simulation time: 00 hr 24 min 56 sec)
Heartbeat CPU 0 instructions: 212001143 cycles: 149119721 heartbeat IPC: 1.777 cumulative IPC: 1.262 (Simulation time: 00 hr 24 min 59 sec)
Heartbeat CPU 0 instructions: 212501144 cycles: 149426025 heartbeat IPC: 1.632 cumulative IPC: 1.263 (Simulation time: 00 hr 25 min 03 sec)
Heartbeat CPU 0 instructions: 213001151 cycles: 149728855 heartbeat IPC: 1.651 cumulative IPC: 1.264 (Simulation time: 00 hr 25 min 06 sec)
Heartbeat CPU 0 instructions: 213501158 cycles: 150001229 heartbeat IPC: 1.836 cumulative IPC: 1.265 (Simulation time: 00 hr 25 min 09 sec)
Heartbeat CPU 0 instructions: 214001165 cycles: 150291257 heartbeat IPC: 1.724 cumulative IPC: 1.266 (Simulation time: 00 hr 25 min 13 sec)
Heartbeat CPU 0 instructions: 214501171 cycles: 150595675 heartbeat IPC: 1.642 cumulative IPC: 1.267 (Simulation time: 00 hr 25 min 17 sec)
Heartbeat CPU 0 instructions: 215001175 cycles: 150895954 heartbeat IPC: 1.665 cumulative IPC: 1.268 (Simulation time: 00 hr 25 min 20 sec)
Heartbeat CPU 0 instructions: 215501175 cycles: 151179807 heartbeat IPC: 1.761 cumulative IPC: 1.269 (Simulation time: 00 hr 25 min 23 sec)
Heartbeat CPU 0 instructions: 216001180 cycles: 151465297 heartbeat IPC: 1.751 cumulative IPC: 1.27 (Simulation time: 00 hr 25 min 27 sec)
Heartbeat CPU 0 instructions: 216501180 cycles: 151764915 heartbeat IPC: 1.669 cumulative IPC: 1.271 (Simulation time: 00 hr 25 min 30 sec)
Heartbeat CPU 0 instructions: 217001181 cycles: 152074005 heartbeat IPC: 1.618 cumulative IPC: 1.272 (Simulation time: 00 hr 25 min 34 sec)
Heartbeat CPU 0 instructions: 217501188 cycles: 152351630 heartbeat IPC: 1.801 cumulative IPC: 1.273 (Simulation time: 00 hr 25 min 37 sec)
Heartbeat CPU 0 instructions: 218001191 cycles: 152634715 heartbeat IPC: 1.766 cumulative IPC: 1.274 (Simulation time: 00 hr 25 min 41 sec)
Heartbeat CPU 0 instructions: 218501196 cycles: 152943757 heartbeat IPC: 1.618 cumulative IPC: 1.275 (Simulation time: 00 hr 25 min 44 sec)
Heartbeat CPU 0 instructions: 219001200 cycles: 153252625 heartbeat IPC: 1.619 cumulative IPC: 1.276 (Simulation time: 00 hr 25 min 48 sec)
Heartbeat CPU 0 instructions: 219501201 cycles: 153535553 heartbeat IPC: 1.767 cumulative IPC: 1.277 (Simulation time: 00 hr 25 min 51 sec)
Heartbeat CPU 0 instructions: 220001203 cycles: 153808614 heartbeat IPC: 1.831 cumulative IPC: 1.278 (Simulation time: 00 hr 25 min 55 sec)
Heartbeat CPU 0 instructions: 220501204 cycles: 154111443 heartbeat IPC: 1.651 cumulative IPC: 1.279 (Simulation time: 00 hr 25 min 58 sec)
Heartbeat CPU 0 instructions: 221001204 cycles: 154413357 heartbeat IPC: 1.656 cumulative IPC: 1.28 (Simulation time: 00 hr 26 min 02 sec)
Heartbeat CPU 0 instructions: 221501210 cycles: 154689668 heartbeat IPC: 1.81 cumulative IPC: 1.281 (Simulation time: 00 hr 26 min 05 sec)
Heartbeat CPU 0 instructions: 222001210 cycles: 154960225 heartbeat IPC: 1.848 cumulative IPC: 1.282 (Simulation time: 00 hr 26 min 08 sec)
Heartbeat CPU 0 instructions: 222501216 cycles: 155258059 heartbeat IPC: 1.679 cumulative IPC: 1.283 (Simulation time: 00 hr 26 min 12 sec)
Heartbeat CPU 0 instructions: 223001222 cycles: 155562012 heartbeat IPC: 1.645 cumulative IPC: 1.284 (Simulation time: 00 hr 26 min 15 sec)
Heartbeat CPU 0 instructions: 223501227 cycles: 155837165 heartbeat IPC: 1.817 cumulative IPC: 1.285 (Simulation time: 00 hr 26 min 19 sec)
Heartbeat CPU 0 instructions: 224001228 cycles: 156110981 heartbeat IPC: 1.826 cumulative IPC: 1.286 (Simulation time: 00 hr 26 min 22 sec)
Heartbeat CPU 0 instructions: 224501233 cycles: 156415164 heartbeat IPC: 1.644 cumulative IPC: 1.287 (Simulation time: 00 hr 26 min 26 sec)
Heartbeat CPU 0 instructions: 225001234 cycles: 156724717 heartbeat IPC: 1.615 cumulative IPC: 1.287 (Simulation time: 00 hr 26 min 29 sec)
Heartbeat CPU 0 instructions: 225501236 cycles: 157009645 heartbeat IPC: 1.755 cumulative IPC: 1.288 (Simulation time: 00 hr 26 min 33 sec)
Heartbeat CPU 0 instructions: 226001237 cycles: 157286237 heartbeat IPC: 1.808 cumulative IPC: 1.289 (Simulation time: 00 hr 26 min 36 sec)
Heartbeat CPU 0 instructions: 226501241 cycles: 157587659 heartbeat IPC: 1.659 cumulative IPC: 1.29 (Simulation time: 00 hr 26 min 39 sec)
Heartbeat CPU 0 instructions: 227001246 cycles: 157888629 heartbeat IPC: 1.661 cumulative IPC: 1.291 (Simulation time: 00 hr 26 min 43 sec)
Heartbeat CPU 0 instructions: 227501253 cycles: 158174243 heartbeat IPC: 1.751 cumulative IPC: 1.292 (Simulation time: 00 hr 26 min 46 sec)
Heartbeat CPU 0 instructions: 228001254 cycles: 158447466 heartbeat IPC: 1.83 cumulative IPC: 1.293 (Simulation time: 00 hr 26 min 49 sec)
Heartbeat CPU 0 instructions: 228501261 cycles: 158741447 heartbeat IPC: 1.701 cumulative IPC: 1.294 (Simulation time: 00 hr 26 min 53 sec)
Heartbeat CPU 0 instructions: 229001262 cycles: 159036002 heartbeat IPC: 1.697 cumulative IPC: 1.295 (Simulation time: 00 hr 26 min 56 sec)
Heartbeat CPU 0 instructions: 229501262 cycles: 159321396 heartbeat IPC: 1.752 cumulative IPC: 1.296 (Simulation time: 00 hr 27 min 00 sec)
Heartbeat CPU 0 instructions: 230001263 cycles: 159594693 heartbeat IPC: 1.83 cumulative IPC: 1.297 (Simulation time: 00 hr 27 min 03 sec)
Heartbeat CPU 0 instructions: 230501266 cycles: 159891860 heartbeat IPC: 1.683 cumulative IPC: 1.298 (Simulation time: 00 hr 27 min 06 sec)
Heartbeat CPU 0 instructions: 231001273 cycles: 160194638 heartbeat IPC: 1.651 cumulative IPC: 1.298 (Simulation time: 00 hr 27 min 10 sec)
Heartbeat CPU 0 instructions: 231501279 cycles: 160484685 heartbeat IPC: 1.724 cumulative IPC: 1.299 (Simulation time: 00 hr 27 min 13 sec)
Heartbeat CPU 0 instructions: 232001280 cycles: 160755137 heartbeat IPC: 1.849 cumulative IPC: 1.3 (Simulation time: 00 hr 27 min 17 sec)
Heartbeat CPU 0 instructions: 232501284 cycles: 161047531 heartbeat IPC: 1.71 cumulative IPC: 1.301 (Simulation time: 00 hr 27 min 20 sec)
Heartbeat CPU 0 instructions: 233001287 cycles: 161348880 heartbeat IPC: 1.659 cumulative IPC: 1.302 (Simulation time: 00 hr 27 min 23 sec)
Heartbeat CPU 0 instructions: 233501288 cycles: 161632750 heartbeat IPC: 1.761 cumulative IPC: 1.303 (Simulation time: 00 hr 27 min 27 sec)
Heartbeat CPU 0 instructions: 234001289 cycles: 161901536 heartbeat IPC: 1.86 cumulative IPC: 1.304 (Simulation time: 00 hr 27 min 30 sec)
Heartbeat CPU 0 instructions: 234501296 cycles: 162200992 heartbeat IPC: 1.67 cumulative IPC: 1.305 (Simulation time: 00 hr 27 min 33 sec)
Heartbeat CPU 0 instructions: 235001300 cycles: 162501135 heartbeat IPC: 1.666 cumulative IPC: 1.305 (Simulation time: 00 hr 27 min 37 sec)
Heartbeat CPU 0 instructions: 235501305 cycles: 162780376 heartbeat IPC: 1.791 cumulative IPC: 1.306 (Simulation time: 00 hr 27 min 40 sec)
Heartbeat CPU 0 instructions: 236001306 cycles: 163046318 heartbeat IPC: 1.88 cumulative IPC: 1.307 (Simulation time: 00 hr 27 min 43 sec)
Heartbeat CPU 0 instructions: 236501308 cycles: 163339835 heartbeat IPC: 1.703 cumulative IPC: 1.308 (Simulation time: 00 hr 27 min 47 sec)
Heartbeat CPU 0 instructions: 237001311 cycles: 163636133 heartbeat IPC: 1.688 cumulative IPC: 1.309 (Simulation time: 00 hr 27 min 50 sec)
Heartbeat CPU 0 instructions: 237501314 cycles: 163928294 heartbeat IPC: 1.711 cumulative IPC: 1.31 (Simulation time: 00 hr 27 min 53 sec)
Heartbeat CPU 0 instructions: 238001315 cycles: 164204798 heartbeat IPC: 1.808 cumulative IPC: 1.311 (Simulation time: 00 hr 27 min 57 sec)
Heartbeat CPU 0 instructions: 238501317 cycles: 164502790 heartbeat IPC: 1.678 cumulative IPC: 1.312 (Simulation time: 00 hr 28 min 00 sec)
Heartbeat CPU 0 instructions: 239001322 cycles: 164805324 heartbeat IPC: 1.653 cumulative IPC: 1.312 (Simulation time: 00 hr 28 min 04 sec)
Heartbeat CPU 0 instructions: 239501323 cycles: 165098581 heartbeat IPC: 1.705 cumulative IPC: 1.313 (Simulation time: 00 hr 28 min 07 sec)
Heartbeat CPU 0 instructions: 240001324 cycles: 165380971 heartbeat IPC: 1.771 cumulative IPC: 1.314 (Simulation time: 00 hr 28 min 10 sec)
Heartbeat CPU 0 instructions: 240501331 cycles: 165674603 heartbeat IPC: 1.703 cumulative IPC: 1.315 (Simulation time: 00 hr 28 min 14 sec)
Heartbeat CPU 0 instructions: 241001338 cycles: 165980511 heartbeat IPC: 1.635 cumulative IPC: 1.315 (Simulation time: 00 hr 28 min 17 sec)
Heartbeat CPU 0 instructions: 241501340 cycles: 166274989 heartbeat IPC: 1.698 cumulative IPC: 1.316 (Simulation time: 00 hr 28 min 21 sec)
Heartbeat CPU 0 instructions: 242001340 cycles: 166555723 heartbeat IPC: 1.781 cumulative IPC: 1.317 (Simulation time: 00 hr 28 min 24 sec)
Heartbeat CPU 0 instructions: 242501343 cycles: 166849564 heartbeat IPC: 1.702 cumulative IPC: 1.318 (Simulation time: 00 hr 28 min 27 sec)
Heartbeat CPU 0 instructions: 243001349 cycles: 167155788 heartbeat IPC: 1.633 cumulative IPC: 1.319 (Simulation time: 00 hr 28 min 31 sec)
Heartbeat CPU 0 instructions: 243501349 cycles: 167451798 heartbeat IPC: 1.689 cumulative IPC: 1.319 (Simulation time: 00 hr 28 min 34 sec)
Heartbeat CPU 0 instructions: 244001350 cycles: 167727320 heartbeat IPC: 1.815 cumulative IPC: 1.32 (Simulation time: 00 hr 28 min 37 sec)
Heartbeat CPU 0 instructions: 244501357 cycles: 168029345 heartbeat IPC: 1.656 cumulative IPC: 1.321 (Simulation time: 00 hr 28 min 41 sec)
Heartbeat CPU 0 instructions: 245001357 cycles: 168327689 heartbeat IPC: 1.676 cumulative IPC: 1.322 (Simulation time: 00 hr 28 min 44 sec)
Heartbeat CPU 0 instructions: 245501357 cycles: 168618763 heartbeat IPC: 1.718 cumulative IPC: 1.322 (Simulation time: 00 hr 28 min 47 sec)
Heartbeat CPU 0 instructions: 246001363 cycles: 168892651 heartbeat IPC: 1.826 cumulative IPC: 1.323 (Simulation time: 00 hr 28 min 51 sec)
Heartbeat CPU 0 instructions: 246501366 cycles: 169181156 heartbeat IPC: 1.733 cumulative IPC: 1.324 (Simulation time: 00 hr 28 min 54 sec)
Heartbeat CPU 0 instructions: 247001367 cycles: 169467130 heartbeat IPC: 1.748 cumulative IPC: 1.325 (Simulation time: 00 hr 28 min 57 sec)
Heartbeat CPU 0 instructions: 247501367 cycles: 169758326 heartbeat IPC: 1.717 cumulative IPC: 1.326 (Simulation time: 00 hr 29 min 01 sec)
Heartbeat CPU 0 instructions: 248001367 cycles: 170026992 heartbeat IPC: 1.861 cumulative IPC: 1.327 (Simulation time: 00 hr 29 min 04 sec)
Heartbeat CPU 0 instructions: 248501367 cycles: 170308836 heartbeat IPC: 1.774 cumulative IPC: 1.328 (Simulation time: 00 hr 29 min 07 sec)
Heartbeat CPU 0 instructions: 249001368 cycles: 170602103 heartbeat IPC: 1.705 cumulative IPC: 1.328 (Simulation time: 00 hr 29 min 10 sec)
Heartbeat CPU 0 instructions: 249501368 cycles: 170896803 heartbeat IPC: 1.697 cumulative IPC: 1.329 (Simulation time: 00 hr 29 min 13 sec)
*** Reached end of trace: (0, "/local-ssd/ben/dpc4-traces/Graph/Ligra/ligra_Components.com-lj.ungraph.gcc_6.3.0_O3.drop_15750M.length_250M.champsimtrace.xz")
Simulation finished CPU 0 instructions: 200000000 cycles: 150380842 cumulative IPC: 1.33 (Simulation time: 00 hr 29 min 16 sec)
Simulation complete CPU 0 instructions: 200000000 cycles: 150380842 cumulative IPC: 1.33 (Simulation time: 00 hr 29 min 16 sec)

ChampSim completed all CPUs

=== Simulation ===
CPU 0 runs /local-ssd/ben/dpc4-traces/Graph/Ligra/ligra_Components.com-lj.ungraph.gcc_6.3.0_O3.drop_15750M.length_250M.champsimtrace.xz

Region of Interest Statistics

CPU 0 cumulative IPC: 1.33 instructions: 200000000 cycles: 150380842
CPU 0 Branch Prediction Accuracy: 89.85% MPKI: 11.89 Average ROB Occupancy at Mispredict: 30.21
Branch type MPKI
BRANCH_DIRECT_JUMP: 0.000125
BRANCH_INDIRECT: 1e-05
BRANCH_CONDITIONAL: 11.89
BRANCH_DIRECT_CALL: 9.5e-05
BRANCH_INDIRECT_CALL: 1e-05
BRANCH_RETURN: 9e-05

cpu0->cpu0_STLB TOTAL        ACCESS:      66723 HIT:       1332 MISS:      65391 MSHR_MERGE:          0
cpu0->cpu0_STLB LOAD         ACCESS:      66723 HIT:       1332 MISS:      65391 MSHR_MERGE:          0
cpu0->cpu0_STLB RFO          ACCESS:          0 HIT:          0 MISS:          0 MSHR_MERGE:          0
cpu0->cpu0_STLB PREFETCH     ACCESS:          0 HIT:          0 MISS:          0 MSHR_MERGE:          0
cpu0->cpu0_STLB WRITE        ACCESS:          0 HIT:          0 MISS:          0 MSHR_MERGE:          0
cpu0->cpu0_STLB TRANSLATION  ACCESS:          0 HIT:          0 MISS:          0 MSHR_MERGE:          0
cpu0->cpu0_STLB PREFETCH REQUESTED:          0 ISSUED:          0 USEFUL:          0 USELESS:          0
cpu0->cpu0_STLB AVERAGE MISS LATENCY: 267 cycles
cpu0->cpu0_L2C TOTAL        ACCESS:    6568931 HIT:    2379752 MISS:    4189179 MSHR_MERGE:          0
cpu0->cpu0_L2C LOAD         ACCESS:     679244 HIT:     424620 MISS:     254624 MSHR_MERGE:          0
cpu0->cpu0_L2C RFO          ACCESS:    1840070 HIT:      99423 MISS:    1740647 MSHR_MERGE:          0
cpu0->cpu0_L2C PREFETCH     ACCESS:    2192950 HIT:       7387 MISS:    2185563 MSHR_MERGE:          0
cpu0->cpu0_L2C WRITE        ACCESS:    1844081 HIT:    1844081 MISS:          0 MSHR_MERGE:          0
cpu0->cpu0_L2C TRANSLATION  ACCESS:      12586 HIT:       4241 MISS:       8345 MSHR_MERGE:          0
cpu0->cpu0_L2C PREFETCH REQUESTED:          0 ISSUED:          0 USEFUL:          0 USELESS:          0
cpu0->cpu0_L2C AVERAGE MISS LATENCY: 377.4 cycles
cpu0->cpu0_L1I TOTAL        ACCESS:   10226295 HIT:   10226137 MISS:        158 MSHR_MERGE:         12
cpu0->cpu0_L1I LOAD         ACCESS:   10226295 HIT:   10226137 MISS:        158 MSHR_MERGE:         12
cpu0->cpu0_L1I RFO          ACCESS:          0 HIT:          0 MISS:          0 MSHR_MERGE:          0
cpu0->cpu0_L1I PREFETCH     ACCESS:          0 HIT:          0 MISS:          0 MSHR_MERGE:          0
cpu0->cpu0_L1I WRITE        ACCESS:          0 HIT:          0 MISS:          0 MSHR_MERGE:          0
cpu0->cpu0_L1I TRANSLATION  ACCESS:          0 HIT:          0 MISS:          0 MSHR_MERGE:          0
cpu0->cpu0_L1I PREFETCH REQUESTED:          0 ISSUED:          0 USEFUL:          0 USELESS:          0
cpu0->cpu0_L1I AVERAGE MISS LATENCY: 251 cycles
cpu0->cpu0_L1D TOTAL        ACCESS:   67821867 HIT:   27309382 MISS:   40512485 MSHR_MERGE:   35787731
cpu0->cpu0_L1D LOAD         ACCESS:   20303364 HIT:   18236100 MISS:    2067264 MSHR_MERGE:    1388164
cpu0->cpu0_L1D RFO          ACCESS:          0 HIT:          0 MISS:          0 MSHR_MERGE:          0
cpu0->cpu0_L1D PREFETCH     ACCESS:   13573331 HIT:    1503131 MISS:   12070200 MSHR_MERGE:    9877249
cpu0->cpu0_L1D WRITE        ACCESS:   33815067 HIT:    7453320 MISS:   26361747 MSHR_MERGE:   24521630
cpu0->cpu0_L1D TRANSLATION  ACCESS:     130105 HIT:     116831 MISS:      13274 MSHR_MERGE:        688
cpu0->cpu0_L1D PREFETCH REQUESTED:   23509453 ISSUED:   13573328 USEFUL:    2122845 USELESS:      70117
cpu0->cpu0_L1D AVERAGE MISS LATENCY: 307.2 cycles
cpu0->cpu0_ITLB TOTAL        ACCESS:   10226268 HIT:   10226237 MISS:         31 MSHR_MERGE:         11
cpu0->cpu0_ITLB LOAD         ACCESS:   10226268 HIT:   10226237 MISS:         31 MSHR_MERGE:         11
cpu0->cpu0_ITLB RFO          ACCESS:          0 HIT:          0 MISS:          0 MSHR_MERGE:          0
cpu0->cpu0_ITLB PREFETCH     ACCESS:          0 HIT:          0 MISS:          0 MSHR_MERGE:          0
cpu0->cpu0_ITLB WRITE        ACCESS:          0 HIT:          0 MISS:          0 MSHR_MERGE:          0
cpu0->cpu0_ITLB TRANSLATION  ACCESS:          0 HIT:          0 MISS:          0 MSHR_MERGE:          0
cpu0->cpu0_ITLB PREFETCH REQUESTED:          0 ISSUED:          0 USEFUL:          0 USELESS:          0
cpu0->cpu0_ITLB AVERAGE MISS LATENCY: 407.6 cycles
cpu0->cpu0_DTLB TOTAL        ACCESS:   61322071 HIT:   60515646 MISS:     806425 MSHR_MERGE:     739721
cpu0->cpu0_DTLB LOAD         ACCESS:   61322071 HIT:   60515646 MISS:     806425 MSHR_MERGE:     739721
cpu0->cpu0_DTLB RFO          ACCESS:          0 HIT:          0 MISS:          0 MSHR_MERGE:          0
cpu0->cpu0_DTLB PREFETCH     ACCESS:          0 HIT:          0 MISS:          0 MSHR_MERGE:          0
cpu0->cpu0_DTLB WRITE        ACCESS:          0 HIT:          0 MISS:          0 MSHR_MERGE:          0
cpu0->cpu0_DTLB TRANSLATION  ACCESS:          0 HIT:          0 MISS:          0 MSHR_MERGE:          0
cpu0->cpu0_DTLB PREFETCH REQUESTED:          0 ISSUED:          0 USEFUL:          0 USELESS:          0
cpu0->cpu0_DTLB AVERAGE MISS LATENCY: 267.6 cycles
cpu0->LLC TOTAL        ACCESS:    5945434 HIT:     777270 MISS:    5168164 MSHR_MERGE:          0
cpu0->LLC LOAD         ACCESS:     254624 HIT:          0 MISS:     254624 MSHR_MERGE:          0
cpu0->LLC RFO          ACCESS:    1740647 HIT:          0 MISS:    1740647 MSHR_MERGE:          0
cpu0->LLC PREFETCH     ACCESS:    2185563 HIT:          0 MISS:    2185563 MSHR_MERGE:          0
cpu0->LLC WRITE        ACCESS:    1756255 HIT:     777261 MISS:     978994 MSHR_MERGE:          0
cpu0->LLC TRANSLATION  ACCESS:       8345 HIT:          9 MISS:       8336 MSHR_MERGE:          0
cpu0->LLC PREFETCH REQUESTED:          0 ISSUED:          0 USEFUL:          0 USELESS:          0
cpu0->LLC AVERAGE MISS LATENCY: 243.6 cycles

DRAM Statistics

Channel 0 RQ ROW_BUFFER_HIT:     273648
  ROW_BUFFER_MISS:    3915523
  AVG DBUS CONGESTED CYCLE: 14.13
Channel 0 WQ ROW_BUFFER_HIT:     218328
  ROW_BUFFER_MISS:    1538094
  FULL:      32468
Channel 0 REFRESHES ISSUED:      12531
