[VMEM] WARNING: physical memory size is smaller than virtual memory size.

*** ChampSim Multicore Out-of-Order Simulator ***
Warmup Instructions: 50000000
Simulation Instructions: 200000000
Number of CPUs: 1
Page size: 4096
Core 0: /local-ssd/ben/dpc4-traces/gtraces_v2/charlie_0003.champsim.gz
Off-chip DRAM Size: 64 GiB Channels: 1 Width: 64-bit Data Rate: 4807 MT/s
[BTB] WARNING: target of return is a lower address than the corresponding call. This is usually a problem with your trace.
Heartbeat CPU 0 instructions: 500002 cycles: 253398 heartbeat IPC: 1.973 cumulative IPC: 1.973 (Simulation time: 00 hr 00 min 03 sec)
Heartbeat CPU 0 instructions: 1000006 cycles: 514065 heartbeat IPC: 1.918 cumulative IPC: 1.945 (Simulation time: 00 hr 00 min 07 sec)
[BTB] WARNING: target of return is a lower address than the corresponding call. This is usually a problem with your trace.
Heartbeat CPU 0 instructions: 1500013 cycles: 696736 heartbeat IPC: 2.737 cumulative IPC: 2.153 (Simulation time: 00 hr 00 min 10 sec)
[BTB] WARNING: target of return is a lower address than the corresponding call. This is usually a problem with your trace.
Heartbeat CPU 0 instructions: 2000015 cycles: 840510 heartbeat IPC: 3.478 cumulative IPC: 2.38 (Simulation time: 00 hr 00 min 12 sec)
[BTB] WARNING: target of return is a lower address than the corresponding call. This is usually a problem with your trace.
Heartbeat CPU 0 instructions: 2500017 cycles: 989630 heartbeat IPC: 3.353 cumulative IPC: 2.526 (Simulation time: 00 hr 00 min 14 sec)
[BTB] WARNING: target of return is a lower address than the corresponding call. This is usually a problem with your trace.
Heartbeat CPU 0 instructions: 3000021 cycles: 1102039 heartbeat IPC: 4.448 cumulative IPC: 2.722 (Simulation time: 00 hr 00 min 16 sec)
[BTB] WARNING: target of return is a lower address than the corresponding call. This is usually a problem with your trace.
[BTB] WARNING: target of return is a lower address than the corresponding call. This is usually a problem with your trace.
[BTB] WARNING: target of return is a lower address than the corresponding call. This is usually a problem with your trace.
[BTB] WARNING: target of return is a lower address than the corresponding call. This is usually a problem with your trace.
[BTB] WARNING: target of return is a lower address than the corresponding call. This is usually a problem with your trace.
Heartbeat CPU 0 instructions: 3500027 cycles: 1219005 heartbeat IPC: 4.275 cumulative IPC: 2.871 (Simulation time: 00 hr 00 min 17 sec)
Heartbeat CPU 0 instructions: 4000027 cycles: 1323070 heartbeat IPC: 4.805 cumulative IPC: 3.023 (Simulation time: 00 hr 00 min 19 sec)
Heartbeat CPU 0 instructions: 4500027 cycles: 1457244 heartbeat IPC: 3.727 cumulative IPC: 3.088 (Simulation time: 00 hr 00 min 21 sec)
Heartbeat CPU 0 instructions: 5000028 cycles: 1656959 heartbeat IPC: 2.504 cumulative IPC: 3.018 (Simulation time: 00 hr 00 min 24 sec)
Heartbeat CPU 0 instructions: 5500034 cycles: 1797101 heartbeat IPC: 3.568 cumulative IPC: 3.061 (Simulation time: 00 hr 00 min 26 sec)
Heartbeat CPU 0 instructions: 6000035 cycles: 1903099 heartbeat IPC: 4.717 cumulative IPC: 3.153 (Simulation time: 00 hr 00 min 27 sec)
Heartbeat CPU 0 instructions: 6500038 cycles: 2007407 heartbeat IPC: 4.794 cumulative IPC: 3.238 (Simulation time: 00 hr 00 min 29 sec)
Heartbeat CPU 0 instructions: 7000045 cycles: 2113059 heartbeat IPC: 4.733 cumulative IPC: 3.313 (Simulation time: 00 hr 00 min 30 sec)
Heartbeat CPU 0 instructions: 7500045 cycles: 2217976 heartbeat IPC: 4.766 cumulative IPC: 3.381 (Simulation time: 00 hr 00 min 32 sec)
Heartbeat CPU 0 instructions: 8000052 cycles: 2322857 heartbeat IPC: 4.767 cumulative IPC: 3.444 (Simulation time: 00 hr 00 min 33 sec)
Heartbeat CPU 0 instructions: 8500055 cycles: 2427087 heartbeat IPC: 4.797 cumulative IPC: 3.502 (Simulation time: 00 hr 00 min 35 sec)
Heartbeat CPU 0 instructions: 9000058 cycles: 2530767 heartbeat IPC: 4.823 cumulative IPC: 3.556 (Simulation time: 00 hr 00 min 36 sec)
Heartbeat CPU 0 instructions: 9500060 cycles: 2635005 heartbeat IPC: 4.797 cumulative IPC: 3.605 (Simulation time: 00 hr 00 min 38 sec)
Heartbeat CPU 0 instructions: 10000067 cycles: 2739164 heartbeat IPC: 4.8 cumulative IPC: 3.651 (Simulation time: 00 hr 00 min 39 sec)
Heartbeat CPU 0 instructions: 10500070 cycles: 2844184 heartbeat IPC: 4.761 cumulative IPC: 3.692 (Simulation time: 00 hr 00 min 40 sec)
Heartbeat CPU 0 instructions: 11000075 cycles: 2947888 heartbeat IPC: 4.821 cumulative IPC: 3.732 (Simulation time: 00 hr 00 min 42 sec)
Heartbeat CPU 0 instructions: 11500075 cycles: 3051856 heartbeat IPC: 4.809 cumulative IPC: 3.768 (Simulation time: 00 hr 00 min 43 sec)
Heartbeat CPU 0 instructions: 12000081 cycles: 3155517 heartbeat IPC: 4.823 cumulative IPC: 3.803 (Simulation time: 00 hr 00 min 45 sec)
Heartbeat CPU 0 instructions: 12500083 cycles: 3259919 heartbeat IPC: 4.789 cumulative IPC: 3.834 (Simulation time: 00 hr 00 min 46 sec)
Heartbeat CPU 0 instructions: 13000086 cycles: 3364432 heartbeat IPC: 4.784 cumulative IPC: 3.864 (Simulation time: 00 hr 00 min 47 sec)
Heartbeat CPU 0 instructions: 13500086 cycles: 3467902 heartbeat IPC: 4.832 cumulative IPC: 3.893 (Simulation time: 00 hr 00 min 49 sec)
Heartbeat CPU 0 instructions: 14000087 cycles: 3571560 heartbeat IPC: 4.824 cumulative IPC: 3.92 (Simulation time: 00 hr 00 min 50 sec)
Heartbeat CPU 0 instructions: 14500094 cycles: 3674549 heartbeat IPC: 4.855 cumulative IPC: 3.946 (Simulation time: 00 hr 00 min 52 sec)
Heartbeat CPU 0 instructions: 15000096 cycles: 3821472 heartbeat IPC: 3.403 cumulative IPC: 3.925 (Simulation time: 00 hr 00 min 54 sec)
Heartbeat CPU 0 instructions: 15500096 cycles: 3927853 heartbeat IPC: 4.7 cumulative IPC: 3.946 (Simulation time: 00 hr 00 min 55 sec)
Heartbeat CPU 0 instructions: 16000103 cycles: 4039637 heartbeat IPC: 4.473 cumulative IPC: 3.961 (Simulation time: 00 hr 00 min 57 sec)
Heartbeat CPU 0 instructions: 16500105 cycles: 4143758 heartbeat IPC: 4.802 cumulative IPC: 3.982 (Simulation time: 00 hr 00 min 58 sec)
Heartbeat CPU 0 instructions: 17000108 cycles: 4247269 heartbeat IPC: 4.83 cumulative IPC: 4.003 (Simulation time: 00 hr 01 min 00 sec)
Heartbeat CPU 0 instructions: 17500115 cycles: 4350819 heartbeat IPC: 4.829 cumulative IPC: 4.022 (Simulation time: 00 hr 01 min 01 sec)
Heartbeat CPU 0 instructions: 18000117 cycles: 4457398 heartbeat IPC: 4.691 cumulative IPC: 4.038 (Simulation time: 00 hr 01 min 03 sec)
Heartbeat CPU 0 instructions: 18500122 cycles: 4560725 heartbeat IPC: 4.839 cumulative IPC: 4.056 (Simulation time: 00 hr 01 min 04 sec)
Heartbeat CPU 0 instructions: 19000123 cycles: 4662523 heartbeat IPC: 4.912 cumulative IPC: 4.075 (Simulation time: 00 hr 01 min 06 sec)
Heartbeat CPU 0 instructions: 19500124 cycles: 4767552 heartbeat IPC: 4.761 cumulative IPC: 4.09 (Simulation time: 00 hr 01 min 07 sec)
Heartbeat CPU 0 instructions: 20000131 cycles: 4870939 heartbeat IPC: 4.836 cumulative IPC: 4.106 (Simulation time: 00 hr 01 min 09 sec)
Heartbeat CPU 0 instructions: 20500137 cycles: 4976601 heartbeat IPC: 4.732 cumulative IPC: 4.119 (Simulation time: 00 hr 01 min 11 sec)
Heartbeat CPU 0 instructions: 21000139 cycles: 5080300 heartbeat IPC: 4.822 cumulative IPC: 4.134 (Simulation time: 00 hr 01 min 12 sec)
Heartbeat CPU 0 instructions: 21500145 cycles: 5184277 heartbeat IPC: 4.809 cumulative IPC: 4.147 (Simulation time: 00 hr 01 min 14 sec)
Heartbeat CPU 0 instructions: 22000151 cycles: 5290738 heartbeat IPC: 4.697 cumulative IPC: 4.158 (Simulation time: 00 hr 01 min 15 sec)
Heartbeat CPU 0 instructions: 22500151 cycles: 5392803 heartbeat IPC: 4.899 cumulative IPC: 4.172 (Simulation time: 00 hr 01 min 17 sec)
Heartbeat CPU 0 instructions: 23000154 cycles: 5494660 heartbeat IPC: 4.909 cumulative IPC: 4.186 (Simulation time: 00 hr 01 min 18 sec)
Heartbeat CPU 0 instructions: 23500156 cycles: 5598712 heartbeat IPC: 4.805 cumulative IPC: 4.197 (Simulation time: 00 hr 01 min 20 sec)
Heartbeat CPU 0 instructions: 24000157 cycles: 5701111 heartbeat IPC: 4.883 cumulative IPC: 4.21 (Simulation time: 00 hr 01 min 21 sec)
Heartbeat CPU 0 instructions: 24500164 cycles: 5804494 heartbeat IPC: 4.836 cumulative IPC: 4.221 (Simulation time: 00 hr 01 min 23 sec)
Heartbeat CPU 0 instructions: 25000171 cycles: 5907310 heartbeat IPC: 4.863 cumulative IPC: 4.232 (Simulation time: 00 hr 01 min 24 sec)
Heartbeat CPU 0 instructions: 25500175 cycles: 6009099 heartbeat IPC: 4.912 cumulative IPC: 4.244 (Simulation time: 00 hr 01 min 26 sec)
Heartbeat CPU 0 instructions: 26000181 cycles: 6115912 heartbeat IPC: 4.681 cumulative IPC: 4.251 (Simulation time: 00 hr 01 min 27 sec)
Heartbeat CPU 0 instructions: 26500181 cycles: 6224243 heartbeat IPC: 4.615 cumulative IPC: 4.258 (Simulation time: 00 hr 01 min 29 sec)
Heartbeat CPU 0 instructions: 27000187 cycles: 6329902 heartbeat IPC: 4.732 cumulative IPC: 4.265 (Simulation time: 00 hr 01 min 31 sec)
Heartbeat CPU 0 instructions: 27500189 cycles: 6439029 heartbeat IPC: 4.582 cumulative IPC: 4.271 (Simulation time: 00 hr 01 min 32 sec)
Heartbeat CPU 0 instructions: 28000189 cycles: 6548292 heartbeat IPC: 4.576 cumulative IPC: 4.276 (Simulation time: 00 hr 01 min 34 sec)
Heartbeat CPU 0 instructions: 28500196 cycles: 6654411 heartbeat IPC: 4.712 cumulative IPC: 4.283 (Simulation time: 00 hr 01 min 35 sec)
Heartbeat CPU 0 instructions: 29000199 cycles: 6758357 heartbeat IPC: 4.81 cumulative IPC: 4.291 (Simulation time: 00 hr 01 min 37 sec)
Heartbeat CPU 0 instructions: 29500205 cycles: 7013840 heartbeat IPC: 1.957 cumulative IPC: 4.206 (Simulation time: 00 hr 01 min 40 sec)
Heartbeat CPU 0 instructions: 30000207 cycles: 7121854 heartbeat IPC: 4.629 cumulative IPC: 4.212 (Simulation time: 00 hr 01 min 42 sec)
Heartbeat CPU 0 instructions: 30500208 cycles: 7225332 heartbeat IPC: 4.832 cumulative IPC: 4.221 (Simulation time: 00 hr 01 min 43 sec)
Heartbeat CPU 0 instructions: 31000214 cycles: 7327078 heartbeat IPC: 4.914 cumulative IPC: 4.231 (Simulation time: 00 hr 01 min 45 sec)
Heartbeat CPU 0 instructions: 31500215 cycles: 7428080 heartbeat IPC: 4.95 cumulative IPC: 4.241 (Simulation time: 00 hr 01 min 46 sec)
Heartbeat CPU 0 instructions: 32000216 cycles: 7528081 heartbeat IPC: 5 cumulative IPC: 4.251 (Simulation time: 00 hr 01 min 47 sec)
Heartbeat CPU 0 instructions: 32500223 cycles: 7628181 heartbeat IPC: 4.995 cumulative IPC: 4.261 (Simulation time: 00 hr 01 min 49 sec)
Heartbeat CPU 0 instructions: 33000230 cycles: 7728276 heartbeat IPC: 4.995 cumulative IPC: 4.27 (Simulation time: 00 hr 01 min 50 sec)
Heartbeat CPU 0 instructions: 33500233 cycles: 7828276 heartbeat IPC: 5 cumulative IPC: 4.279 (Simulation time: 00 hr 01 min 51 sec)
Heartbeat CPU 0 instructions: 34000233 cycles: 7928377 heartbeat IPC: 4.995 cumulative IPC: 4.288 (Simulation time: 00 hr 01 min 53 sec)
Heartbeat CPU 0 instructions: 34500235 cycles: 8028474 heartbeat IPC: 4.995 cumulative IPC: 4.297 (Simulation time: 00 hr 01 min 54 sec)
Heartbeat CPU 0 instructions: 35000238 cycles: 8128571 heartbeat IPC: 4.995 cumulative IPC: 4.306 (Simulation time: 00 hr 01 min 55 sec)
Heartbeat CPU 0 instructions: 35500240 cycles: 8228668 heartbeat IPC: 4.995 cumulative IPC: 4.314 (Simulation time: 00 hr 01 min 57 sec)
Heartbeat CPU 0 instructions: 36000242 cycles: 8328668 heartbeat IPC: 5 cumulative IPC: 4.322 (Simulation time: 00 hr 01 min 58 sec)
Heartbeat CPU 0 instructions: 36500246 cycles: 8428670 heartbeat IPC: 5 cumulative IPC: 4.33 (Simulation time: 00 hr 01 min 59 sec)
Heartbeat CPU 0 instructions: 37000252 cycles: 8528777 heartbeat IPC: 4.995 cumulative IPC: 4.338 (Simulation time: 00 hr 02 min 01 sec)
Heartbeat CPU 0 instructions: 37500257 cycles: 8628779 heartbeat IPC: 5 cumulative IPC: 4.346 (Simulation time: 00 hr 02 min 02 sec)
Heartbeat CPU 0 instructions: 38000263 cycles: 8728780 heartbeat IPC: 5 cumulative IPC: 4.353 (Simulation time: 00 hr 02 min 03 sec)
Heartbeat CPU 0 instructions: 38500267 cycles: 8828782 heartbeat IPC: 5 cumulative IPC: 4.361 (Simulation time: 00 hr 02 min 05 sec)
Heartbeat CPU 0 instructions: 39000273 cycles: 8928782 heartbeat IPC: 5 cumulative IPC: 4.368 (Simulation time: 00 hr 02 min 06 sec)
Heartbeat CPU 0 instructions: 39500274 cycles: 9030034 heartbeat IPC: 4.938 cumulative IPC: 4.374 (Simulation time: 00 hr 02 min 07 sec)
Heartbeat CPU 0 instructions: 40000277 cycles: 9146654 heartbeat IPC: 4.287 cumulative IPC: 4.373 (Simulation time: 00 hr 02 min 09 sec)
Heartbeat CPU 0 instructions: 40500284 cycles: 9248372 heartbeat IPC: 4.916 cumulative IPC: 4.379 (Simulation time: 00 hr 02 min 10 sec)
Heartbeat CPU 0 instructions: 41000288 cycles: 9351255 heartbeat IPC: 4.86 cumulative IPC: 4.384 (Simulation time: 00 hr 02 min 12 sec)
Heartbeat CPU 0 instructions: 41500292 cycles: 9451792 heartbeat IPC: 4.973 cumulative IPC: 4.391 (Simulation time: 00 hr 02 min 13 sec)
Heartbeat CPU 0 instructions: 42000295 cycles: 9555067 heartbeat IPC: 4.841 cumulative IPC: 4.396 (Simulation time: 00 hr 02 min 15 sec)
Heartbeat CPU 0 instructions: 42500299 cycles: 9657448 heartbeat IPC: 4.884 cumulative IPC: 4.401 (Simulation time: 00 hr 02 min 16 sec)
Heartbeat CPU 0 instructions: 43000301 cycles: 9759702 heartbeat IPC: 4.89 cumulative IPC: 4.406 (Simulation time: 00 hr 02 min 17 sec)
Heartbeat CPU 0 instructions: 43500305 cycles: 9861327 heartbeat IPC: 4.92 cumulative IPC: 4.411 (Simulation time: 00 hr 02 min 19 sec)
Heartbeat CPU 0 instructions: 44000309 cycles: 9963119 heartbeat IPC: 4.912 cumulative IPC: 4.416 (Simulation time: 00 hr 02 min 20 sec)
Heartbeat CPU 0 instructions: 44500309 cycles: 10065208 heartbeat IPC: 4.898 cumulative IPC: 4.421 (Simulation time: 00 hr 02 min 21 sec)
Heartbeat CPU 0 instructions: 45000313 cycles: 10166586 heartbeat IPC: 4.932 cumulative IPC: 4.426 (Simulation time: 00 hr 02 min 23 sec)
Heartbeat CPU 0 instructions: 45500314 cycles: 10267204 heartbeat IPC: 4.969 cumulative IPC: 4.432 (Simulation time: 00 hr 02 min 24 sec)
Heartbeat CPU 0 instructions: 46000319 cycles: 10367844 heartbeat IPC: 4.968 cumulative IPC: 4.437 (Simulation time: 00 hr 02 min 25 sec)
Heartbeat CPU 0 instructions: 46500319 cycles: 10468133 heartbeat IPC: 4.986 cumulative IPC: 4.442 (Simulation time: 00 hr 02 min 27 sec)
Heartbeat CPU 0 instructions: 47000319 cycles: 10568946 heartbeat IPC: 4.96 cumulative IPC: 4.447 (Simulation time: 00 hr 02 min 28 sec)
Heartbeat CPU 0 instructions: 47500321 cycles: 10670440 heartbeat IPC: 4.926 cumulative IPC: 4.452 (Simulation time: 00 hr 02 min 29 sec)
Heartbeat CPU 0 instructions: 48000323 cycles: 10771499 heartbeat IPC: 4.948 cumulative IPC: 4.456 (Simulation time: 00 hr 02 min 31 sec)
Heartbeat CPU 0 instructions: 48500323 cycles: 10871762 heartbeat IPC: 4.987 cumulative IPC: 4.461 (Simulation time: 00 hr 02 min 32 sec)
Heartbeat CPU 0 instructions: 49000325 cycles: 10972508 heartbeat IPC: 4.963 cumulative IPC: 4.466 (Simulation time: 00 hr 02 min 34 sec)
Heartbeat CPU 0 instructions: 49500326 cycles: 11074448 heartbeat IPC: 4.905 cumulative IPC: 4.47 (Simulation time: 00 hr 02 min 35 sec)
Warmup halting CPU 0 at instruction 50000004 cycle 11188784 for remainder of phase
Warmup finished CPU 0 instructions: 50000004 cycles: 11188784 cumulative IPC: 4.469 (Simulation time: 00 hr 02 min 37 sec)
Warmup complete CPU 0 instructions: 50000004 cycles: 11188784 cumulative IPC: 4.469 (Simulation time: 00 hr 02 min 37 sec)
Heartbeat CPU 0 instructions: 50000327 cycles: 11188935 heartbeat IPC: 4.367 cumulative IPC: 2.139 (Simulation time: 00 hr 02 min 37 sec)
Heartbeat CPU 0 instructions: 50500332 cycles: 11744493 heartbeat IPC: 0.9 cumulative IPC: 0.9003 (Simulation time: 00 hr 02 min 41 sec)
Heartbeat CPU 0 instructions: 51000334 cycles: 12238635 heartbeat IPC: 1.012 cumulative IPC: 0.9528 (Simulation time: 00 hr 02 min 45 sec)
Heartbeat CPU 0 instructions: 51500335 cycles: 12748709 heartbeat IPC: 0.9803 cumulative IPC: 0.9618 (Simulation time: 00 hr 02 min 50 sec)
Heartbeat CPU 0 instructions: 52000339 cycles: 13228900 heartbeat IPC: 1.041 cumulative IPC: 0.9805 (Simulation time: 00 hr 02 min 54 sec)
Heartbeat CPU 0 instructions: 52500339 cycles: 13716864 heartbeat IPC: 1.025 cumulative IPC: 0.989 (Simulation time: 00 hr 02 min 58 sec)
Heartbeat CPU 0 instructions: 53000342 cycles: 14190336 heartbeat IPC: 1.056 cumulative IPC: 0.9996 (Simulation time: 00 hr 03 min 02 sec)
Heartbeat CPU 0 instructions: 53500342 cycles: 14671376 heartbeat IPC: 1.039 cumulative IPC: 1.005 (Simulation time: 00 hr 03 min 06 sec)
Heartbeat CPU 0 instructions: 54000345 cycles: 15216984 heartbeat IPC: 0.9164 cumulative IPC: 0.9931 (Simulation time: 00 hr 03 min 11 sec)
Heartbeat CPU 0 instructions: 54500345 cycles: 15752657 heartbeat IPC: 0.9334 cumulative IPC: 0.9861 (Simulation time: 00 hr 03 min 16 sec)
Heartbeat CPU 0 instructions: 55000345 cycles: 16289746 heartbeat IPC: 0.9309 cumulative IPC: 0.9803 (Simulation time: 00 hr 03 min 20 sec)
Heartbeat CPU 0 instructions: 55500352 cycles: 16791442 heartbeat IPC: 0.9966 cumulative IPC: 0.9817 (Simulation time: 00 hr 03 min 25 sec)
Heartbeat CPU 0 instructions: 56000354 cycles: 18133273 heartbeat IPC: 0.3726 cumulative IPC: 0.864 (Simulation time: 00 hr 03 min 36 sec)
Heartbeat CPU 0 instructions: 56500360 cycles: 21610556 heartbeat IPC: 0.1438 cumulative IPC: 0.6237 (Simulation time: 00 hr 04 min 01 sec)
Heartbeat CPU 0 instructions: 57000360 cycles: 22117092 heartbeat IPC: 0.9871 cumulative IPC: 0.6406 (Simulation time: 00 hr 04 min 05 sec)
Heartbeat CPU 0 instructions: 57500363 cycles: 22629537 heartbeat IPC: 0.9757 cumulative IPC: 0.6556 (Simulation time: 00 hr 04 min 09 sec)
Heartbeat CPU 0 instructions: 58000364 cycles: 23097928 heartbeat IPC: 1.067 cumulative IPC: 0.6718 (Simulation time: 00 hr 04 min 13 sec)
Heartbeat CPU 0 instructions: 58500367 cycles: 23581165 heartbeat IPC: 1.035 cumulative IPC: 0.6859 (Simulation time: 00 hr 04 min 17 sec)
Heartbeat CPU 0 instructions: 59000367 cycles: 24077148 heartbeat IPC: 1.008 cumulative IPC: 0.6983 (Simulation time: 00 hr 04 min 22 sec)
Heartbeat CPU 0 instructions: 59500370 cycles: 24569372 heartbeat IPC: 1.016 cumulative IPC: 0.71 (Simulation time: 00 hr 04 min 26 sec)
Heartbeat CPU 0 instructions: 60000372 cycles: 25057431 heartbeat IPC: 1.024 cumulative IPC: 0.7211 (Simulation time: 00 hr 04 min 30 sec)
Heartbeat CPU 0 instructions: 60500372 cycles: 25550942 heartbeat IPC: 1.013 cumulative IPC: 0.7311 (Simulation time: 00 hr 04 min 35 sec)
Heartbeat CPU 0 instructions: 61000372 cycles: 26133459 heartbeat IPC: 0.8583 cumulative IPC: 0.7361 (Simulation time: 00 hr 04 min 40 sec)
Heartbeat CPU 0 instructions: 61500375 cycles: 26700592 heartbeat IPC: 0.8816 cumulative IPC: 0.7414 (Simulation time: 00 hr 04 min 45 sec)
Heartbeat CPU 0 instructions: 62000379 cycles: 28134026 heartbeat IPC: 0.3488 cumulative IPC: 0.7082 (Simulation time: 00 hr 04 min 55 sec)
Heartbeat CPU 0 instructions: 62500383 cycles: 29862261 heartbeat IPC: 0.2893 cumulative IPC: 0.6694 (Simulation time: 00 hr 05 min 06 sec)
Heartbeat CPU 0 instructions: 63000383 cycles: 31361355 heartbeat IPC: 0.3335 cumulative IPC: 0.6445 (Simulation time: 00 hr 05 min 16 sec)
Heartbeat CPU 0 instructions: 63500386 cycles: 33226865 heartbeat IPC: 0.268 cumulative IPC: 0.6126 (Simulation time: 00 hr 05 min 27 sec)
Heartbeat CPU 0 instructions: 64000387 cycles: 34191149 heartbeat IPC: 0.5185 cumulative IPC: 0.6086 (Simulation time: 00 hr 05 min 34 sec)
Heartbeat CPU 0 instructions: 64500391 cycles: 34997850 heartbeat IPC: 0.6198 cumulative IPC: 0.609 (Simulation time: 00 hr 05 min 40 sec)
Heartbeat CPU 0 instructions: 65000393 cycles: 36101649 heartbeat IPC: 0.453 cumulative IPC: 0.6021 (Simulation time: 00 hr 05 min 47 sec)
Heartbeat CPU 0 instructions: 65500395 cycles: 36253997 heartbeat IPC: 3.282 cumulative IPC: 0.6184 (Simulation time: 00 hr 05 min 50 sec)
Heartbeat CPU 0 instructions: 66000397 cycles: 36428793 heartbeat IPC: 2.86 cumulative IPC: 0.6339 (Simulation time: 00 hr 05 min 52 sec)
Heartbeat CPU 0 instructions: 66500398 cycles: 36679646 heartbeat IPC: 1.993 cumulative IPC: 0.6473 (Simulation time: 00 hr 05 min 54 sec)
Heartbeat CPU 0 instructions: 67000402 cycles: 36901483 heartbeat IPC: 2.254 cumulative IPC: 0.6612 (Simulation time: 00 hr 05 min 56 sec)
Heartbeat CPU 0 instructions: 67500409 cycles: 37057021 heartbeat IPC: 3.215 cumulative IPC: 0.6765 (Simulation time: 00 hr 05 min 59 sec)
Heartbeat CPU 0 instructions: 68000413 cycles: 37219557 heartbeat IPC: 3.076 cumulative IPC: 0.6915 (Simulation time: 00 hr 06 min 01 sec)
Heartbeat CPU 0 instructions: 68500414 cycles: 37418530 heartbeat IPC: 2.513 cumulative IPC: 0.7053 (Simulation time: 00 hr 06 min 03 sec)
Heartbeat CPU 0 instructions: 69000418 cycles: 37600777 heartbeat IPC: 2.744 cumulative IPC: 0.7194 (Simulation time: 00 hr 06 min 05 sec)
Heartbeat CPU 0 instructions: 69500424 cycles: 37791217 heartbeat IPC: 2.626 cumulative IPC: 0.733 (Simulation time: 00 hr 06 min 07 sec)
Heartbeat CPU 0 instructions: 70000427 cycles: 37987082 heartbeat IPC: 2.553 cumulative IPC: 0.7463 (Simulation time: 00 hr 06 min 10 sec)
Heartbeat CPU 0 instructions: 70500427 cycles: 38156007 heartbeat IPC: 2.96 cumulative IPC: 0.7602 (Simulation time: 00 hr 06 min 12 sec)
Heartbeat CPU 0 instructions: 71000429 cycles: 38275376 heartbeat IPC: 4.189 cumulative IPC: 0.7753 (Simulation time: 00 hr 06 min 14 sec)
Heartbeat CPU 0 instructions: 71500429 cycles: 38480258 heartbeat IPC: 2.44 cumulative IPC: 0.7878 (Simulation time: 00 hr 06 min 16 sec)
Heartbeat CPU 0 instructions: 72000436 cycles: 38710011 heartbeat IPC: 2.176 cumulative IPC: 0.7994 (Simulation time: 00 hr 06 min 18 sec)
Heartbeat CPU 0 instructions: 72500436 cycles: 38862134 heartbeat IPC: 3.287 cumulative IPC: 0.8131 (Simulation time: 00 hr 06 min 20 sec)
Heartbeat CPU 0 instructions: 73000442 cycles: 39056465 heartbeat IPC: 2.573 cumulative IPC: 0.8253 (Simulation time: 00 hr 06 min 23 sec)
Heartbeat CPU 0 instructions: 73500443 cycles: 39248625 heartbeat IPC: 2.602 cumulative IPC: 0.8375 (Simulation time: 00 hr 06 min 25 sec)
Heartbeat CPU 0 instructions: 74000450 cycles: 39425475 heartbeat IPC: 2.827 cumulative IPC: 0.85 (Simulation time: 00 hr 06 min 27 sec)
Heartbeat CPU 0 instructions: 74500450 cycles: 39642266 heartbeat IPC: 2.306 cumulative IPC: 0.8611 (Simulation time: 00 hr 06 min 29 sec)
Heartbeat CPU 0 instructions: 75000456 cycles: 41551148 heartbeat IPC: 0.2619 cumulative IPC: 0.8234 (Simulation time: 00 hr 06 min 43 sec)
Heartbeat CPU 0 instructions: 75500457 cycles: 44144779 heartbeat IPC: 0.1928 cumulative IPC: 0.7738 (Simulation time: 00 hr 07 min 01 sec)
Heartbeat CPU 0 instructions: 76000457 cycles: 45451115 heartbeat IPC: 0.3827 cumulative IPC: 0.7589 (Simulation time: 00 hr 07 min 09 sec)
Heartbeat CPU 0 instructions: 76500459 cycles: 47292514 heartbeat IPC: 0.2715 cumulative IPC: 0.734 (Simulation time: 00 hr 07 min 21 sec)
Heartbeat CPU 0 instructions: 77000459 cycles: 48981613 heartbeat IPC: 0.296 cumulative IPC: 0.7144 (Simulation time: 00 hr 07 min 32 sec)
Heartbeat CPU 0 instructions: 77500459 cycles: 50757484 heartbeat IPC: 0.2816 cumulative IPC: 0.695 (Simulation time: 00 hr 07 min 43 sec)
Heartbeat CPU 0 instructions: 78000459 cycles: 52369987 heartbeat IPC: 0.3101 cumulative IPC: 0.6799 (Simulation time: 00 hr 07 min 54 sec)
Heartbeat CPU 0 instructions: 78500462 cycles: 54370976 heartbeat IPC: 0.2499 cumulative IPC: 0.66 (Simulation time: 00 hr 08 min 06 sec)
Heartbeat CPU 0 instructions: 79000465 cycles: 56214593 heartbeat IPC: 0.2712 cumulative IPC: 0.6441 (Simulation time: 00 hr 08 min 18 sec)
Heartbeat CPU 0 instructions: 79500469 cycles: 57739787 heartbeat IPC: 0.3278 cumulative IPC: 0.6337 (Simulation time: 00 hr 08 min 29 sec)
Heartbeat CPU 0 instructions: 80000469 cycles: 58868297 heartbeat IPC: 0.4431 cumulative IPC: 0.6292 (Simulation time: 00 hr 08 min 38 sec)
Heartbeat CPU 0 instructions: 80500469 cycles: 59997892 heartbeat IPC: 0.4426 cumulative IPC: 0.6249 (Simulation time: 00 hr 08 min 46 sec)
Heartbeat CPU 0 instructions: 81000471 cycles: 61116994 heartbeat IPC: 0.4468 cumulative IPC: 0.6209 (Simulation time: 00 hr 08 min 55 sec)
Heartbeat CPU 0 instructions: 81500473 cycles: 62283041 heartbeat IPC: 0.4288 cumulative IPC: 0.6165 (Simulation time: 00 hr 09 min 05 sec)
Heartbeat CPU 0 instructions: 82000474 cycles: 63402915 heartbeat IPC: 0.4465 cumulative IPC: 0.6129 (Simulation time: 00 hr 09 min 16 sec)
Heartbeat CPU 0 instructions: 82500476 cycles: 64459515 heartbeat IPC: 0.4732 cumulative IPC: 0.6101 (Simulation time: 00 hr 09 min 25 sec)
Heartbeat CPU 0 instructions: 83000479 cycles: 65471710 heartbeat IPC: 0.494 cumulative IPC: 0.6079 (Simulation time: 00 hr 09 min 35 sec)
Heartbeat CPU 0 instructions: 83500485 cycles: 66491323 heartbeat IPC: 0.4904 cumulative IPC: 0.6058 (Simulation time: 00 hr 09 min 45 sec)
Heartbeat CPU 0 instructions: 84000491 cycles: 67535620 heartbeat IPC: 0.4788 cumulative IPC: 0.6034 (Simulation time: 00 hr 09 min 55 sec)
Heartbeat CPU 0 instructions: 84500492 cycles: 68562031 heartbeat IPC: 0.4871 cumulative IPC: 0.6013 (Simulation time: 00 hr 10 min 05 sec)
Heartbeat CPU 0 instructions: 85000492 cycles: 69630973 heartbeat IPC: 0.4678 cumulative IPC: 0.5989 (Simulation time: 00 hr 10 min 15 sec)
Heartbeat CPU 0 instructions: 85500492 cycles: 72806012 heartbeat IPC: 0.1575 cumulative IPC: 0.5761 (Simulation time: 00 hr 10 min 38 sec)
Heartbeat CPU 0 instructions: 86000494 cycles: 75811637 heartbeat IPC: 0.1664 cumulative IPC: 0.5571 (Simulation time: 00 hr 10 min 59 sec)
Heartbeat CPU 0 instructions: 86500498 cycles: 77975536 heartbeat IPC: 0.2311 cumulative IPC: 0.5465 (Simulation time: 00 hr 11 min 12 sec)
Heartbeat CPU 0 instructions: 87000498 cycles: 79657169 heartbeat IPC: 0.2973 cumulative IPC: 0.5404 (Simulation time: 00 hr 11 min 23 sec)
Heartbeat CPU 0 instructions: 87500498 cycles: 81039800 heartbeat IPC: 0.3616 cumulative IPC: 0.5369 (Simulation time: 00 hr 11 min 32 sec)
Heartbeat CPU 0 instructions: 88000499 cycles: 82355045 heartbeat IPC: 0.3802 cumulative IPC: 0.534 (Simulation time: 00 hr 11 min 40 sec)
Heartbeat CPU 0 instructions: 88500499 cycles: 84390097 heartbeat IPC: 0.2457 cumulative IPC: 0.526 (Simulation time: 00 hr 11 min 52 sec)
Heartbeat CPU 0 instructions: 89000503 cycles: 85523938 heartbeat IPC: 0.441 cumulative IPC: 0.5247 (Simulation time: 00 hr 12 min 01 sec)
Heartbeat CPU 0 instructions: 89500510 cycles: 89514139 heartbeat IPC: 0.1253 cumulative IPC: 0.5043 (Simulation time: 00 hr 12 min 28 sec)
Heartbeat CPU 0 instructions: 90000512 cycles: 90113677 heartbeat IPC: 0.834 cumulative IPC: 0.5068 (Simulation time: 00 hr 12 min 33 sec)
Heartbeat CPU 0 instructions: 90500512 cycles: 90612314 heartbeat IPC: 1.003 cumulative IPC: 0.5099 (Simulation time: 00 hr 12 min 37 sec)
Heartbeat CPU 0 instructions: 91000512 cycles: 91100425 heartbeat IPC: 1.024 cumulative IPC: 0.5131 (Simulation time: 00 hr 12 min 41 sec)
Heartbeat CPU 0 instructions: 91500512 cycles: 91641288 heartbeat IPC: 0.9244 cumulative IPC: 0.5158 (Simulation time: 00 hr 12 min 46 sec)
Heartbeat CPU 0 instructions: 92000512 cycles: 92163578 heartbeat IPC: 0.9573 cumulative IPC: 0.5187 (Simulation time: 00 hr 12 min 50 sec)
Heartbeat CPU 0 instructions: 92500512 cycles: 92691316 heartbeat IPC: 0.9474 cumulative IPC: 0.5215 (Simulation time: 00 hr 12 min 55 sec)
Heartbeat CPU 0 instructions: 93000513 cycles: 94081896 heartbeat IPC: 0.3596 cumulative IPC: 0.5187 (Simulation time: 00 hr 13 min 05 sec)
Heartbeat CPU 0 instructions: 93500516 cycles: 96856804 heartbeat IPC: 0.1802 cumulative IPC: 0.5078 (Simulation time: 00 hr 13 min 27 sec)
Heartbeat CPU 0 instructions: 94000516 cycles: 96975751 heartbeat IPC: 4.204 cumulative IPC: 0.5129 (Simulation time: 00 hr 13 min 29 sec)
Heartbeat CPU 0 instructions: 94500520 cycles: 97091898 heartbeat IPC: 4.305 cumulative IPC: 0.518 (Simulation time: 00 hr 13 min 31 sec)
Heartbeat CPU 0 instructions: 95000525 cycles: 97218198 heartbeat IPC: 3.959 cumulative IPC: 0.5231 (Simulation time: 00 hr 13 min 33 sec)
Heartbeat CPU 0 instructions: 95500525 cycles: 97432540 heartbeat IPC: 2.333 cumulative IPC: 0.5276 (Simulation time: 00 hr 13 min 35 sec)
Heartbeat CPU 0 instructions: 96000527 cycles: 97596104 heartbeat IPC: 3.057 cumulative IPC: 0.5324 (Simulation time: 00 hr 13 min 38 sec)
Heartbeat CPU 0 instructions: 96500533 cycles: 97732155 heartbeat IPC: 3.675 cumulative IPC: 0.5373 (Simulation time: 00 hr 13 min 40 sec)
Heartbeat CPU 0 instructions: 97000540 cycles: 97869173 heartbeat IPC: 3.649 cumulative IPC: 0.5422 (Simulation time: 00 hr 13 min 42 sec)
Heartbeat CPU 0 instructions: 97500544 cycles: 97998720 heartbeat IPC: 3.86 cumulative IPC: 0.5472 (Simulation time: 00 hr 13 min 44 sec)
Heartbeat CPU 0 instructions: 98000546 cycles: 98139363 heartbeat IPC: 3.555 cumulative IPC: 0.552 (Simulation time: 00 hr 13 min 46 sec)
Heartbeat CPU 0 instructions: 98500547 cycles: 98281588 heartbeat IPC: 3.516 cumulative IPC: 0.5569 (Simulation time: 00 hr 13 min 48 sec)
Heartbeat CPU 0 instructions: 99000548 cycles: 98453218 heartbeat IPC: 2.913 cumulative IPC: 0.5615 (Simulation time: 00 hr 13 min 50 sec)
Heartbeat CPU 0 instructions: 99500551 cycles: 98661286 heartbeat IPC: 2.403 cumulative IPC: 0.5659 (Simulation time: 00 hr 13 min 52 sec)
Heartbeat CPU 0 instructions: 100000558 cycles: 98862126 heartbeat IPC: 2.49 cumulative IPC: 0.5703 (Simulation time: 00 hr 13 min 54 sec)
Heartbeat CPU 0 instructions: 100500564 cycles: 99076518 heartbeat IPC: 2.332 cumulative IPC: 0.5746 (Simulation time: 00 hr 13 min 57 sec)
Heartbeat CPU 0 instructions: 101000569 cycles: 99229887 heartbeat IPC: 3.26 cumulative IPC: 0.5793 (Simulation time: 00 hr 13 min 59 sec)
Heartbeat CPU 0 instructions: 101500571 cycles: 99434957 heartbeat IPC: 2.438 cumulative IPC: 0.5836 (Simulation time: 00 hr 14 min 01 sec)
Heartbeat CPU 0 instructions: 102000574 cycles: 99620808 heartbeat IPC: 2.69 cumulative IPC: 0.588 (Simulation time: 00 hr 14 min 03 sec)
Heartbeat CPU 0 instructions: 102500579 cycles: 99830634 heartbeat IPC: 2.383 cumulative IPC: 0.5923 (Simulation time: 00 hr 14 min 05 sec)
Heartbeat CPU 0 instructions: 103000583 cycles: 100002961 heartbeat IPC: 2.901 cumulative IPC: 0.5968 (Simulation time: 00 hr 14 min 08 sec)
Heartbeat CPU 0 instructions: 103500586 cycles: 100846557 heartbeat IPC: 0.5927 cumulative IPC: 0.5967 (Simulation time: 00 hr 14 min 14 sec)
Heartbeat CPU 0 instructions: 104000588 cycles: 101665563 heartbeat IPC: 0.6105 cumulative IPC: 0.5968 (Simulation time: 00 hr 14 min 19 sec)
Heartbeat CPU 0 instructions: 104500592 cycles: 102063920 heartbeat IPC: 1.255 cumulative IPC: 0.5997 (Simulation time: 00 hr 14 min 23 sec)
Heartbeat CPU 0 instructions: 105000595 cycles: 102536925 heartbeat IPC: 1.057 cumulative IPC: 0.6021 (Simulation time: 00 hr 14 min 27 sec)
Heartbeat CPU 0 instructions: 105500595 cycles: 102954619 heartbeat IPC: 1.197 cumulative IPC: 0.6048 (Simulation time: 00 hr 14 min 30 sec)
Heartbeat CPU 0 instructions: 106000595 cycles: 103380832 heartbeat IPC: 1.173 cumulative IPC: 0.6074 (Simulation time: 00 hr 14 min 34 sec)
Heartbeat CPU 0 instructions: 106500598 cycles: 103744274 heartbeat IPC: 1.376 cumulative IPC: 0.6105 (Simulation time: 00 hr 14 min 37 sec)
Heartbeat CPU 0 instructions: 107000599 cycles: 104189875 heartbeat IPC: 1.122 cumulative IPC: 0.6129 (Simulation time: 00 hr 14 min 40 sec)
Heartbeat CPU 0 instructions: 107500600 cycles: 104563857 heartbeat IPC: 1.337 cumulative IPC: 0.6158 (Simulation time: 00 hr 14 min 44 sec)
Heartbeat CPU 0 instructions: 108000600 cycles: 104935258 heartbeat IPC: 1.346 cumulative IPC: 0.6187 (Simulation time: 00 hr 14 min 47 sec)
Heartbeat CPU 0 instructions: 108500603 cycles: 105320656 heartbeat IPC: 1.297 cumulative IPC: 0.6215 (Simulation time: 00 hr 14 min 50 sec)
Heartbeat CPU 0 instructions: 109000603 cycles: 105622077 heartbeat IPC: 1.659 cumulative IPC: 0.6248 (Simulation time: 00 hr 14 min 53 sec)
Heartbeat CPU 0 instructions: 109500603 cycles: 105998074 heartbeat IPC: 1.33 cumulative IPC: 0.6276 (Simulation time: 00 hr 14 min 57 sec)
Heartbeat CPU 0 instructions: 110000606 cycles: 106280212 heartbeat IPC: 1.772 cumulative IPC: 0.631 (Simulation time: 00 hr 14 min 59 sec)
Heartbeat CPU 0 instructions: 110500609 cycles: 106723846 heartbeat IPC: 1.127 cumulative IPC: 0.6333 (Simulation time: 00 hr 15 min 03 sec)
Heartbeat CPU 0 instructions: 111000612 cycles: 107069772 heartbeat IPC: 1.445 cumulative IPC: 0.6362 (Simulation time: 00 hr 15 min 06 sec)
Heartbeat CPU 0 instructions: 111500613 cycles: 107384128 heartbeat IPC: 1.591 cumulative IPC: 0.6393 (Simulation time: 00 hr 15 min 09 sec)
Heartbeat CPU 0 instructions: 112000615 cycles: 107787508 heartbeat IPC: 1.24 cumulative IPC: 0.6418 (Simulation time: 00 hr 15 min 13 sec)
Heartbeat CPU 0 instructions: 112500622 cycles: 108115852 heartbeat IPC: 1.523 cumulative IPC: 0.6448 (Simulation time: 00 hr 15 min 16 sec)
Heartbeat CPU 0 instructions: 113000629 cycles: 108448367 heartbeat IPC: 1.504 cumulative IPC: 0.6478 (Simulation time: 00 hr 15 min 19 sec)
Heartbeat CPU 0 instructions: 113500629 cycles: 109527937 heartbeat IPC: 0.4631 cumulative IPC: 0.6457 (Simulation time: 00 hr 15 min 27 sec)
Heartbeat CPU 0 instructions: 114000630 cycles: 112954745 heartbeat IPC: 0.1459 cumulative IPC: 0.6289 (Simulation time: 00 hr 15 min 52 sec)
Heartbeat CPU 0 instructions: 114500632 cycles: 114000484 heartbeat IPC: 0.4781 cumulative IPC: 0.6274 (Simulation time: 00 hr 16 min 00 sec)
Heartbeat CPU 0 instructions: 115000638 cycles: 115399742 heartbeat IPC: 0.3573 cumulative IPC: 0.6237 (Simulation time: 00 hr 16 min 09 sec)
Heartbeat CPU 0 instructions: 115500644 cycles: 115640690 heartbeat IPC: 2.075 cumulative IPC: 0.6271 (Simulation time: 00 hr 16 min 12 sec)
Heartbeat CPU 0 instructions: 116000646 cycles: 115850938 heartbeat IPC: 2.378 cumulative IPC: 0.6306 (Simulation time: 00 hr 16 min 14 sec)
Heartbeat CPU 0 instructions: 116500648 cycles: 116095715 heartbeat IPC: 2.043 cumulative IPC: 0.6339 (Simulation time: 00 hr 16 min 17 sec)
Heartbeat CPU 0 instructions: 117000649 cycles: 116371152 heartbeat IPC: 1.815 cumulative IPC: 0.637 (Simulation time: 00 hr 16 min 19 sec)
Heartbeat CPU 0 instructions: 117500653 cycles: 116709231 heartbeat IPC: 1.479 cumulative IPC: 0.6397 (Simulation time: 00 hr 16 min 22 sec)
Heartbeat CPU 0 instructions: 118000655 cycles: 117022874 heartbeat IPC: 1.594 cumulative IPC: 0.6425 (Simulation time: 00 hr 16 min 25 sec)
Heartbeat CPU 0 instructions: 118500658 cycles: 117242839 heartbeat IPC: 2.273 cumulative IPC: 0.6459 (Simulation time: 00 hr 16 min 27 sec)
Heartbeat CPU 0 instructions: 119000658 cycles: 117392241 heartbeat IPC: 3.347 cumulative IPC: 0.6497 (Simulation time: 00 hr 16 min 29 sec)
Heartbeat CPU 0 instructions: 119500660 cycles: 117513844 heartbeat IPC: 4.112 cumulative IPC: 0.6537 (Simulation time: 00 hr 16 min 31 sec)
Heartbeat CPU 0 instructions: 120000662 cycles: 117643230 heartbeat IPC: 3.864 cumulative IPC: 0.6576 (Simulation time: 00 hr 16 min 33 sec)
Heartbeat CPU 0 instructions: 120500665 cycles: 117858717 heartbeat IPC: 2.32 cumulative IPC: 0.6609 (Simulation time: 00 hr 16 min 35 sec)
Heartbeat CPU 0 instructions: 121000666 cycles: 117999942 heartbeat IPC: 3.54 cumulative IPC: 0.6647 (Simulation time: 00 hr 16 min 37 sec)
Heartbeat CPU 0 instructions: 121500669 cycles: 118142746 heartbeat IPC: 3.501 cumulative IPC: 0.6685 (Simulation time: 00 hr 16 min 39 sec)
Heartbeat CPU 0 instructions: 122000669 cycles: 118278492 heartbeat IPC: 3.683 cumulative IPC: 0.6723 (Simulation time: 00 hr 16 min 41 sec)
Heartbeat CPU 0 instructions: 122500670 cycles: 118411943 heartbeat IPC: 3.747 cumulative IPC: 0.6762 (Simulation time: 00 hr 16 min 43 sec)
Heartbeat CPU 0 instructions: 123000676 cycles: 118538119 heartbeat IPC: 3.963 cumulative IPC: 0.68 (Simulation time: 00 hr 16 min 45 sec)
Heartbeat CPU 0 instructions: 123500678 cycles: 118676447 heartbeat IPC: 3.615 cumulative IPC: 0.6838 (Simulation time: 00 hr 16 min 48 sec)
Heartbeat CPU 0 instructions: 124000678 cycles: 118813947 heartbeat IPC: 3.636 cumulative IPC: 0.6876 (Simulation time: 00 hr 16 min 50 sec)
Heartbeat CPU 0 instructions: 124500685 cycles: 118952554 heartbeat IPC: 3.607 cumulative IPC: 0.6913 (Simulation time: 00 hr 16 min 52 sec)
Heartbeat CPU 0 instructions: 125000685 cycles: 120515351 heartbeat IPC: 0.3199 cumulative IPC: 0.686 (Simulation time: 00 hr 17 min 03 sec)
Heartbeat CPU 0 instructions: 125500689 cycles: 122583683 heartbeat IPC: 0.2417 cumulative IPC: 0.6778 (Simulation time: 00 hr 17 min 18 sec)
Heartbeat CPU 0 instructions: 126000690 cycles: 123197726 heartbeat IPC: 0.8143 cumulative IPC: 0.6785 (Simulation time: 00 hr 17 min 22 sec)
Heartbeat CPU 0 instructions: 126500690 cycles: 123513978 heartbeat IPC: 1.581 cumulative IPC: 0.6811 (Simulation time: 00 hr 17 min 25 sec)
Heartbeat CPU 0 instructions: 127000690 cycles: 123823772 heartbeat IPC: 1.614 cumulative IPC: 0.6836 (Simulation time: 00 hr 17 min 28 sec)
Heartbeat CPU 0 instructions: 127500690 cycles: 124133883 heartbeat IPC: 1.612 cumulative IPC: 0.6862 (Simulation time: 00 hr 17 min 31 sec)
Heartbeat CPU 0 instructions: 128000691 cycles: 124478987 heartbeat IPC: 1.449 cumulative IPC: 0.6885 (Simulation time: 00 hr 17 min 34 sec)
Heartbeat CPU 0 instructions: 128500696 cycles: 124816226 heartbeat IPC: 1.483 cumulative IPC: 0.6909 (Simulation time: 00 hr 17 min 37 sec)
Heartbeat CPU 0 instructions: 129000696 cycles: 125229819 heartbeat IPC: 1.209 cumulative IPC: 0.6927 (Simulation time: 00 hr 17 min 40 sec)
Heartbeat CPU 0 instructions: 129500696 cycles: 125543249 heartbeat IPC: 1.595 cumulative IPC: 0.6952 (Simulation time: 00 hr 17 min 43 sec)
Heartbeat CPU 0 instructions: 130000696 cycles: 125925914 heartbeat IPC: 1.307 cumulative IPC: 0.6973 (Simulation time: 00 hr 17 min 46 sec)
Heartbeat CPU 0 instructions: 130500702 cycles: 126285280 heartbeat IPC: 1.391 cumulative IPC: 0.6994 (Simulation time: 00 hr 17 min 50 sec)
Heartbeat CPU 0 instructions: 131000702 cycles: 126588015 heartbeat IPC: 1.652 cumulative IPC: 0.7019 (Simulation time: 00 hr 17 min 52 sec)
Heartbeat CPU 0 instructions: 131500703 cycles: 126966367 heartbeat IPC: 1.322 cumulative IPC: 0.7039 (Simulation time: 00 hr 17 min 56 sec)
Heartbeat CPU 0 instructions: 132000705 cycles: 127276351 heartbeat IPC: 1.613 cumulative IPC: 0.7064 (Simulation time: 00 hr 17 min 59 sec)
Heartbeat CPU 0 instructions: 132500710 cycles: 127665504 heartbeat IPC: 1.285 cumulative IPC: 0.7083 (Simulation time: 00 hr 18 min 02 sec)
Heartbeat CPU 0 instructions: 133000713 cycles: 128071754 heartbeat IPC: 1.231 cumulative IPC: 0.7101 (Simulation time: 00 hr 18 min 05 sec)
Heartbeat CPU 0 instructions: 133500713 cycles: 128359329 heartbeat IPC: 1.739 cumulative IPC: 0.7126 (Simulation time: 00 hr 18 min 08 sec)
Heartbeat CPU 0 instructions: 134000719 cycles: 128719310 heartbeat IPC: 1.389 cumulative IPC: 0.7147 (Simulation time: 00 hr 18 min 11 sec)
Heartbeat CPU 0 instructions: 134500719 cycles: 129159983 heartbeat IPC: 1.135 cumulative IPC: 0.7163 (Simulation time: 00 hr 18 min 15 sec)
Heartbeat CPU 0 instructions: 135000722 cycles: 129617810 heartbeat IPC: 1.092 cumulative IPC: 0.7177 (Simulation time: 00 hr 18 min 19 sec)
Heartbeat CPU 0 instructions: 135500725 cycles: 132975271 heartbeat IPC: 0.1489 cumulative IPC: 0.7021 (Simulation time: 00 hr 18 min 44 sec)
Heartbeat CPU 0 instructions: 136000731 cycles: 133272685 heartbeat IPC: 1.681 cumulative IPC: 0.7044 (Simulation time: 00 hr 18 min 48 sec)
Heartbeat CPU 0 instructions: 136500735 cycles: 133404084 heartbeat IPC: 3.805 cumulative IPC: 0.7078 (Simulation time: 00 hr 18 min 50 sec)
Heartbeat CPU 0 instructions: 137000740 cycles: 133536045 heartbeat IPC: 3.789 cumulative IPC: 0.7111 (Simulation time: 00 hr 18 min 52 sec)
Heartbeat CPU 0 instructions: 137500746 cycles: 133675573 heartbeat IPC: 3.584 cumulative IPC: 0.7144 (Simulation time: 00 hr 18 min 54 sec)
Heartbeat CPU 0 instructions: 138000747 cycles: 133932135 heartbeat IPC: 1.949 cumulative IPC: 0.7169 (Simulation time: 00 hr 18 min 56 sec)
Heartbeat CPU 0 instructions: 138500748 cycles: 134293792 heartbeat IPC: 1.383 cumulative IPC: 0.7189 (Simulation time: 00 hr 18 min 59 sec)
Heartbeat CPU 0 instructions: 139000749 cycles: 134645810 heartbeat IPC: 1.42 cumulative IPC: 0.7209 (Simulation time: 00 hr 19 min 02 sec)
Heartbeat CPU 0 instructions: 139500752 cycles: 134953740 heartbeat IPC: 1.624 cumulative IPC: 0.7232 (Simulation time: 00 hr 19 min 05 sec)
Heartbeat CPU 0 instructions: 140000752 cycles: 135279574 heartbeat IPC: 1.535 cumulative IPC: 0.7253 (Simulation time: 00 hr 19 min 07 sec)
Heartbeat CPU 0 instructions: 140500758 cycles: 135598915 heartbeat IPC: 1.566 cumulative IPC: 0.7274 (Simulation time: 00 hr 19 min 10 sec)
Heartbeat CPU 0 instructions: 141000759 cycles: 135909149 heartbeat IPC: 1.612 cumulative IPC: 0.7296 (Simulation time: 00 hr 19 min 13 sec)
Heartbeat CPU 0 instructions: 141500759 cycles: 136293289 heartbeat IPC: 1.302 cumulative IPC: 0.7314 (Simulation time: 00 hr 19 min 15 sec)
Heartbeat CPU 0 instructions: 142000759 cycles: 136637111 heartbeat IPC: 1.454 cumulative IPC: 0.7334 (Simulation time: 00 hr 19 min 18 sec)
Heartbeat CPU 0 instructions: 142500759 cycles: 136915234 heartbeat IPC: 1.798 cumulative IPC: 0.7357 (Simulation time: 00 hr 19 min 21 sec)
Heartbeat CPU 0 instructions: 143000760 cycles: 137165826 heartbeat IPC: 1.995 cumulative IPC: 0.7382 (Simulation time: 00 hr 19 min 23 sec)
Heartbeat CPU 0 instructions: 143500761 cycles: 137511268 heartbeat IPC: 1.447 cumulative IPC: 0.7402 (Simulation time: 00 hr 19 min 26 sec)
Heartbeat CPU 0 instructions: 144000761 cycles: 137893167 heartbeat IPC: 1.309 cumulative IPC: 0.7419 (Simulation time: 00 hr 19 min 29 sec)
Heartbeat CPU 0 instructions: 144500763 cycles: 138258912 heartbeat IPC: 1.367 cumulative IPC: 0.7437 (Simulation time: 00 hr 19 min 32 sec)
Heartbeat CPU 0 instructions: 145000765 cycles: 138551149 heartbeat IPC: 1.711 cumulative IPC: 0.7459 (Simulation time: 00 hr 19 min 34 sec)
Heartbeat CPU 0 instructions: 145500766 cycles: 138881721 heartbeat IPC: 1.513 cumulative IPC: 0.7479 (Simulation time: 00 hr 19 min 37 sec)
Heartbeat CPU 0 instructions: 146000768 cycles: 139499073 heartbeat IPC: 0.8099 cumulative IPC: 0.7482 (Simulation time: 00 hr 19 min 42 sec)
Heartbeat CPU 0 instructions: 146500770 cycles: 140196681 heartbeat IPC: 0.7167 cumulative IPC: 0.748 (Simulation time: 00 hr 19 min 47 sec)
Heartbeat CPU 0 instructions: 147000770 cycles: 140576559 heartbeat IPC: 1.316 cumulative IPC: 0.7497 (Simulation time: 00 hr 19 min 50 sec)
Heartbeat CPU 0 instructions: 147500773 cycles: 140953704 heartbeat IPC: 1.326 cumulative IPC: 0.7514 (Simulation time: 00 hr 19 min 53 sec)
Heartbeat CPU 0 instructions: 148000774 cycles: 141292870 heartbeat IPC: 1.474 cumulative IPC: 0.7532 (Simulation time: 00 hr 19 min 56 sec)
Heartbeat CPU 0 instructions: 148500775 cycles: 141729179 heartbeat IPC: 1.146 cumulative IPC: 0.7546 (Simulation time: 00 hr 20 min 00 sec)
Heartbeat CPU 0 instructions: 149000775 cycles: 142082664 heartbeat IPC: 1.414 cumulative IPC: 0.7563 (Simulation time: 00 hr 20 min 03 sec)
Heartbeat CPU 0 instructions: 149500775 cycles: 142440858 heartbeat IPC: 1.396 cumulative IPC: 0.7581 (Simulation time: 00 hr 20 min 06 sec)
Heartbeat CPU 0 instructions: 150000777 cycles: 142752255 heartbeat IPC: 1.606 cumulative IPC: 0.7601 (Simulation time: 00 hr 20 min 09 sec)
Heartbeat CPU 0 instructions: 150500777 cycles: 143125805 heartbeat IPC: 1.339 cumulative IPC: 0.7617 (Simulation time: 00 hr 20 min 12 sec)
Heartbeat CPU 0 instructions: 151000777 cycles: 143477216 heartbeat IPC: 1.423 cumulative IPC: 0.7635 (Simulation time: 00 hr 20 min 15 sec)
Heartbeat CPU 0 instructions: 151500778 cycles: 143826392 heartbeat IPC: 1.432 cumulative IPC: 0.7652 (Simulation time: 00 hr 20 min 18 sec)
Heartbeat CPU 0 instructions: 152000784 cycles: 144028922 heartbeat IPC: 2.469 cumulative IPC: 0.7678 (Simulation time: 00 hr 20 min 20 sec)
Heartbeat CPU 0 instructions: 152500788 cycles: 144322770 heartbeat IPC: 1.702 cumulative IPC: 0.7699 (Simulation time: 00 hr 20 min 23 sec)
Heartbeat CPU 0 instructions: 153000788 cycles: 144857352 heartbeat IPC: 0.9353 cumulative IPC: 0.7706 (Simulation time: 00 hr 20 min 27 sec)
Heartbeat CPU 0 instructions: 153500788 cycles: 148715050 heartbeat IPC: 0.1296 cumulative IPC: 0.7526 (Simulation time: 00 hr 20 min 55 sec)
Heartbeat CPU 0 instructions: 154000790 cycles: 149117837 heartbeat IPC: 1.241 cumulative IPC: 0.754 (Simulation time: 00 hr 20 min 58 sec)
Heartbeat CPU 0 instructions: 154500791 cycles: 149522007 heartbeat IPC: 1.237 cumulative IPC: 0.7554 (Simulation time: 00 hr 21 min 01 sec)
Heartbeat CPU 0 instructions: 155000797 cycles: 149994332 heartbeat IPC: 1.059 cumulative IPC: 0.7565 (Simulation time: 00 hr 21 min 04 sec)
Heartbeat CPU 0 instructions: 155500798 cycles: 150362077 heartbeat IPC: 1.36 cumulative IPC: 0.7581 (Simulation time: 00 hr 21 min 07 sec)
Heartbeat CPU 0 instructions: 156000799 cycles: 150689113 heartbeat IPC: 1.529 cumulative IPC: 0.7599 (Simulation time: 00 hr 21 min 09 sec)
Heartbeat CPU 0 instructions: 156500799 cycles: 151369836 heartbeat IPC: 0.7345 cumulative IPC: 0.7597 (Simulation time: 00 hr 21 min 14 sec)
Heartbeat CPU 0 instructions: 157000799 cycles: 152029009 heartbeat IPC: 0.7585 cumulative IPC: 0.7597 (Simulation time: 00 hr 21 min 19 sec)
Heartbeat CPU 0 instructions: 157500806 cycles: 152795658 heartbeat IPC: 0.6522 cumulative IPC: 0.7591 (Simulation time: 00 hr 21 min 25 sec)
Heartbeat CPU 0 instructions: 158000806 cycles: 154009155 heartbeat IPC: 0.412 cumulative IPC: 0.7562 (Simulation time: 00 hr 21 min 32 sec)
Heartbeat CPU 0 instructions: 158500806 cycles: 156522315 heartbeat IPC: 0.199 cumulative IPC: 0.7466 (Simulation time: 00 hr 21 min 49 sec)
Heartbeat CPU 0 instructions: 159000812 cycles: 157674439 heartbeat IPC: 0.434 cumulative IPC: 0.7441 (Simulation time: 00 hr 21 min 58 sec)
Heartbeat CPU 0 instructions: 159500816 cycles: 158423374 heartbeat IPC: 0.6676 cumulative IPC: 0.7437 (Simulation time: 00 hr 22 min 03 sec)
Heartbeat CPU 0 instructions: 160000818 cycles: 158854916 heartbeat IPC: 1.159 cumulative IPC: 0.7449 (Simulation time: 00 hr 22 min 06 sec)
Heartbeat CPU 0 instructions: 160500819 cycles: 159224608 heartbeat IPC: 1.352 cumulative IPC: 0.7464 (Simulation time: 00 hr 22 min 09 sec)
Heartbeat CPU 0 instructions: 161000820 cycles: 159565009 heartbeat IPC: 1.469 cumulative IPC: 0.7481 (Simulation time: 00 hr 22 min 12 sec)
Heartbeat CPU 0 instructions: 161500826 cycles: 159865084 heartbeat IPC: 1.666 cumulative IPC: 0.75 (Simulation time: 00 hr 22 min 15 sec)
Heartbeat CPU 0 instructions: 162000827 cycles: 160342246 heartbeat IPC: 1.048 cumulative IPC: 0.7509 (Simulation time: 00 hr 22 min 19 sec)
Heartbeat CPU 0 instructions: 162500827 cycles: 160932481 heartbeat IPC: 0.8471 cumulative IPC: 0.7513 (Simulation time: 00 hr 22 min 23 sec)
Heartbeat CPU 0 instructions: 163000829 cycles: 161342611 heartbeat IPC: 1.219 cumulative IPC: 0.7526 (Simulation time: 00 hr 22 min 26 sec)
Heartbeat CPU 0 instructions: 163500829 cycles: 161814820 heartbeat IPC: 1.059 cumulative IPC: 0.7535 (Simulation time: 00 hr 22 min 30 sec)
Heartbeat CPU 0 instructions: 164000829 cycles: 162059205 heartbeat IPC: 2.046 cumulative IPC: 0.7556 (Simulation time: 00 hr 22 min 33 sec)
Heartbeat CPU 0 instructions: 164500836 cycles: 162351882 heartbeat IPC: 1.708 cumulative IPC: 0.7575 (Simulation time: 00 hr 22 min 35 sec)
Heartbeat CPU 0 instructions: 165000836 cycles: 162707948 heartbeat IPC: 1.404 cumulative IPC: 0.759 (Simulation time: 00 hr 22 min 38 sec)
Heartbeat CPU 0 instructions: 165500839 cycles: 163044996 heartbeat IPC: 1.483 cumulative IPC: 0.7606 (Simulation time: 00 hr 22 min 41 sec)
Heartbeat CPU 0 instructions: 166000843 cycles: 163435295 heartbeat IPC: 1.281 cumulative IPC: 0.7619 (Simulation time: 00 hr 22 min 45 sec)
Heartbeat CPU 0 instructions: 166500843 cycles: 163813963 heartbeat IPC: 1.32 cumulative IPC: 0.7633 (Simulation time: 00 hr 22 min 48 sec)
Heartbeat CPU 0 instructions: 167000844 cycles: 164180004 heartbeat IPC: 1.366 cumulative IPC: 0.7648 (Simulation time: 00 hr 22 min 51 sec)
Heartbeat CPU 0 instructions: 167500846 cycles: 164551107 heartbeat IPC: 1.347 cumulative IPC: 0.7662 (Simulation time: 00 hr 22 min 54 sec)
Heartbeat CPU 0 instructions: 168000853 cycles: 164987156 heartbeat IPC: 1.147 cumulative IPC: 0.7672 (Simulation time: 00 hr 22 min 57 sec)
Heartbeat CPU 0 instructions: 168500857 cycles: 165300660 heartbeat IPC: 1.595 cumulative IPC: 0.7689 (Simulation time: 00 hr 23 min 00 sec)
Heartbeat CPU 0 instructions: 169000858 cycles: 165663606 heartbeat IPC: 1.378 cumulative IPC: 0.7704 (Simulation time: 00 hr 23 min 03 sec)
Heartbeat CPU 0 instructions: 169500859 cycles: 165986579 heartbeat IPC: 1.548 cumulative IPC: 0.772 (Simulation time: 00 hr 23 min 06 sec)
Heartbeat CPU 0 instructions: 170000865 cycles: 166369106 heartbeat IPC: 1.307 cumulative IPC: 0.7733 (Simulation time: 00 hr 23 min 10 sec)
Heartbeat CPU 0 instructions: 170500866 cycles: 166703500 heartbeat IPC: 1.495 cumulative IPC: 0.7749 (Simulation time: 00 hr 23 min 13 sec)
Heartbeat CPU 0 instructions: 171000872 cycles: 167116289 heartbeat IPC: 1.211 cumulative IPC: 0.776 (Simulation time: 00 hr 23 min 16 sec)
Heartbeat CPU 0 instructions: 171500873 cycles: 167417869 heartbeat IPC: 1.658 cumulative IPC: 0.7777 (Simulation time: 00 hr 23 min 19 sec)
Heartbeat CPU 0 instructions: 172000874 cycles: 167753557 heartbeat IPC: 1.489 cumulative IPC: 0.7792 (Simulation time: 00 hr 23 min 22 sec)
Heartbeat CPU 0 instructions: 172500874 cycles: 168275632 heartbeat IPC: 0.9577 cumulative IPC: 0.7798 (Simulation time: 00 hr 23 min 26 sec)
Heartbeat CPU 0 instructions: 173000876 cycles: 171231299 heartbeat IPC: 0.1692 cumulative IPC: 0.7686 (Simulation time: 00 hr 23 min 48 sec)
Heartbeat CPU 0 instructions: 173500879 cycles: 171689687 heartbeat IPC: 1.091 cumulative IPC: 0.7695 (Simulation time: 00 hr 23 min 52 sec)
Heartbeat CPU 0 instructions: 174000884 cycles: 172165296 heartbeat IPC: 1.051 cumulative IPC: 0.7703 (Simulation time: 00 hr 23 min 56 sec)
Heartbeat CPU 0 instructions: 174500884 cycles: 172563876 heartbeat IPC: 1.254 cumulative IPC: 0.7715 (Simulation time: 00 hr 23 min 59 sec)
Heartbeat CPU 0 instructions: 175000886 cycles: 172947245 heartbeat IPC: 1.304 cumulative IPC: 0.7728 (Simulation time: 00 hr 24 min 02 sec)
Heartbeat CPU 0 instructions: 175500891 cycles: 173347696 heartbeat IPC: 1.249 cumulative IPC: 0.7739 (Simulation time: 00 hr 24 min 05 sec)
Heartbeat CPU 0 instructions: 176000891 cycles: 173711326 heartbeat IPC: 1.375 cumulative IPC: 0.7753 (Simulation time: 00 hr 24 min 08 sec)
Heartbeat CPU 0 instructions: 176500895 cycles: 174192979 heartbeat IPC: 1.038 cumulative IPC: 0.7761 (Simulation time: 00 hr 24 min 12 sec)
Heartbeat CPU 0 instructions: 177000898 cycles: 174502547 heartbeat IPC: 1.615 cumulative IPC: 0.7776 (Simulation time: 00 hr 24 min 15 sec)
Heartbeat CPU 0 instructions: 177500898 cycles: 175277055 heartbeat IPC: 0.6456 cumulative IPC: 0.777 (Simulation time: 00 hr 24 min 20 sec)
Heartbeat CPU 0 instructions: 178000900 cycles: 177708078 heartbeat IPC: 0.2057 cumulative IPC: 0.7687 (Simulation time: 00 hr 24 min 39 sec)
Heartbeat CPU 0 instructions: 178500902 cycles: 178488694 heartbeat IPC: 0.6405 cumulative IPC: 0.7681 (Simulation time: 00 hr 24 min 44 sec)
Heartbeat CPU 0 instructions: 179000902 cycles: 180349999 heartbeat IPC: 0.2686 cumulative IPC: 0.7626 (Simulation time: 00 hr 24 min 55 sec)
Heartbeat CPU 0 instructions: 179500902 cycles: 181729703 heartbeat IPC: 0.3624 cumulative IPC: 0.7594 (Simulation time: 00 hr 25 min 06 sec)
Heartbeat CPU 0 instructions: 180000904 cycles: 182607799 heartbeat IPC: 0.5694 cumulative IPC: 0.7584 (Simulation time: 00 hr 25 min 13 sec)
Heartbeat CPU 0 instructions: 180500909 cycles: 183005440 heartbeat IPC: 1.257 cumulative IPC: 0.7595 (Simulation time: 00 hr 25 min 17 sec)
Heartbeat CPU 0 instructions: 181000909 cycles: 183373596 heartbeat IPC: 1.358 cumulative IPC: 0.7608 (Simulation time: 00 hr 25 min 21 sec)
Heartbeat CPU 0 instructions: 181500912 cycles: 183745439 heartbeat IPC: 1.345 cumulative IPC: 0.7621 (Simulation time: 00 hr 25 min 25 sec)
Heartbeat CPU 0 instructions: 182000912 cycles: 184182135 heartbeat IPC: 1.145 cumulative IPC: 0.763 (Simulation time: 00 hr 25 min 29 sec)
Heartbeat CPU 0 instructions: 182500912 cycles: 184694546 heartbeat IPC: 0.9758 cumulative IPC: 0.7637 (Simulation time: 00 hr 25 min 34 sec)
Heartbeat CPU 0 instructions: 183000913 cycles: 185018094 heartbeat IPC: 1.545 cumulative IPC: 0.7651 (Simulation time: 00 hr 25 min 37 sec)
Heartbeat CPU 0 instructions: 183500920 cycles: 185335852 heartbeat IPC: 1.574 cumulative IPC: 0.7666 (Simulation time: 00 hr 25 min 41 sec)
Heartbeat CPU 0 instructions: 184000925 cycles: 185655066 heartbeat IPC: 1.566 cumulative IPC: 0.7681 (Simulation time: 00 hr 25 min 44 sec)
Heartbeat CPU 0 instructions: 184500927 cycles: 185982165 heartbeat IPC: 1.529 cumulative IPC: 0.7695 (Simulation time: 00 hr 25 min 48 sec)
Heartbeat CPU 0 instructions: 185000932 cycles: 186635203 heartbeat IPC: 0.7657 cumulative IPC: 0.7695 (Simulation time: 00 hr 25 min 53 sec)
Heartbeat CPU 0 instructions: 185500932 cycles: 187820558 heartbeat IPC: 0.4218 cumulative IPC: 0.7671 (Simulation time: 00 hr 26 min 00 sec)
Heartbeat CPU 0 instructions: 186000938 cycles: 190499753 heartbeat IPC: 0.1866 cumulative IPC: 0.7585 (Simulation time: 00 hr 26 min 18 sec)
Heartbeat CPU 0 instructions: 186500941 cycles: 190926317 heartbeat IPC: 1.172 cumulative IPC: 0.7594 (Simulation time: 00 hr 26 min 22 sec)
Heartbeat CPU 0 instructions: 187000941 cycles: 191292640 heartbeat IPC: 1.365 cumulative IPC: 0.7607 (Simulation time: 00 hr 26 min 24 sec)
Heartbeat CPU 0 instructions: 187500941 cycles: 191623321 heartbeat IPC: 1.512 cumulative IPC: 0.7621 (Simulation time: 00 hr 26 min 27 sec)
Heartbeat CPU 0 instructions: 188000941 cycles: 193439135 heartbeat IPC: 0.2754 cumulative IPC: 0.7572 (Simulation time: 00 hr 26 min 37 sec)
Heartbeat CPU 0 instructions: 188500942 cycles: 195780486 heartbeat IPC: 0.2136 cumulative IPC: 0.7503 (Simulation time: 00 hr 26 min 50 sec)
Heartbeat CPU 0 instructions: 189000947 cycles: 197415352 heartbeat IPC: 0.3058 cumulative IPC: 0.7464 (Simulation time: 00 hr 26 min 59 sec)
Heartbeat CPU 0 instructions: 189500954 cycles: 198506017 heartbeat IPC: 0.4584 cumulative IPC: 0.7447 (Simulation time: 00 hr 27 min 07 sec)
Heartbeat CPU 0 instructions: 190000954 cycles: 199779173 heartbeat IPC: 0.3927 cumulative IPC: 0.7424 (Simulation time: 00 hr 27 min 15 sec)
Heartbeat CPU 0 instructions: 190500954 cycles: 201497182 heartbeat IPC: 0.291 cumulative IPC: 0.7383 (Simulation time: 00 hr 27 min 25 sec)
Heartbeat CPU 0 instructions: 191000955 cycles: 202767381 heartbeat IPC: 0.3936 cumulative IPC: 0.736 (Simulation time: 00 hr 27 min 32 sec)
Heartbeat CPU 0 instructions: 191500959 cycles: 204639546 heartbeat IPC: 0.2671 cumulative IPC: 0.7315 (Simulation time: 00 hr 27 min 44 sec)
Heartbeat CPU 0 instructions: 192000959 cycles: 206549621 heartbeat IPC: 0.2618 cumulative IPC: 0.7269 (Simulation time: 00 hr 27 min 57 sec)
Heartbeat CPU 0 instructions: 192500959 cycles: 209166727 heartbeat IPC: 0.1911 cumulative IPC: 0.7198 (Simulation time: 00 hr 28 min 14 sec)
Heartbeat CPU 0 instructions: 193000960 cycles: 209726875 heartbeat IPC: 0.8926 cumulative IPC: 0.7203 (Simulation time: 00 hr 28 min 18 sec)
Heartbeat CPU 0 instructions: 193500961 cycles: 210232572 heartbeat IPC: 0.9887 cumulative IPC: 0.721 (Simulation time: 00 hr 28 min 22 sec)
Heartbeat CPU 0 instructions: 194000964 cycles: 211074036 heartbeat IPC: 0.5942 cumulative IPC: 0.7204 (Simulation time: 00 hr 28 min 27 sec)
Heartbeat CPU 0 instructions: 194500966 cycles: 212243025 heartbeat IPC: 0.4277 cumulative IPC: 0.7187 (Simulation time: 00 hr 28 min 35 sec)
Heartbeat CPU 0 instructions: 195000968 cycles: 212995270 heartbeat IPC: 0.6647 cumulative IPC: 0.7185 (Simulation time: 00 hr 28 min 40 sec)
Heartbeat CPU 0 instructions: 195500973 cycles: 213714172 heartbeat IPC: 0.6955 cumulative IPC: 0.7184 (Simulation time: 00 hr 28 min 46 sec)
Heartbeat CPU 0 instructions: 196000979 cycles: 214348498 heartbeat IPC: 0.7882 cumulative IPC: 0.7187 (Simulation time: 00 hr 28 min 51 sec)
Heartbeat CPU 0 instructions: 196500979 cycles: 215061667 heartbeat IPC: 0.7011 cumulative IPC: 0.7186 (Simulation time: 00 hr 28 min 56 sec)
Heartbeat CPU 0 instructions: 197000986 cycles: 215579529 heartbeat IPC: 0.9655 cumulative IPC: 0.7192 (Simulation time: 00 hr 29 min 01 sec)
Heartbeat CPU 0 instructions: 197500986 cycles: 216229369 heartbeat IPC: 0.7694 cumulative IPC: 0.7194 (Simulation time: 00 hr 29 min 06 sec)
Heartbeat CPU 0 instructions: 198000986 cycles: 216906451 heartbeat IPC: 0.7385 cumulative IPC: 0.7194 (Simulation time: 00 hr 29 min 11 sec)
Heartbeat CPU 0 instructions: 198500986 cycles: 218517245 heartbeat IPC: 0.3104 cumulative IPC: 0.7163 (Simulation time: 00 hr 29 min 21 sec)
Heartbeat CPU 0 instructions: 199000992 cycles: 219345754 heartbeat IPC: 0.6035 cumulative IPC: 0.7158 (Simulation time: 00 hr 29 min 26 sec)
Heartbeat CPU 0 instructions: 199500997 cycles: 220483603 heartbeat IPC: 0.4394 cumulative IPC: 0.7143 (Simulation time: 00 hr 29 min 33 sec)
Heartbeat CPU 0 instructions: 200001003 cycles: 221847968 heartbeat IPC: 0.3665 cumulative IPC: 0.7121 (Simulation time: 00 hr 29 min 42 sec)
Heartbeat CPU 0 instructions: 200501004 cycles: 222932841 heartbeat IPC: 0.4609 cumulative IPC: 0.7108 (Simulation time: 00 hr 29 min 51 sec)
Heartbeat CPU 0 instructions: 201001004 cycles: 223690299 heartbeat IPC: 0.6601 cumulative IPC: 0.7106 (Simulation time: 00 hr 29 min 58 sec)
Heartbeat CPU 0 instructions: 201501010 cycles: 224857261 heartbeat IPC: 0.4285 cumulative IPC: 0.709 (Simulation time: 00 hr 30 min 05 sec)
Heartbeat CPU 0 instructions: 202001010 cycles: 225284136 heartbeat IPC: 1.171 cumulative IPC: 0.71 (Simulation time: 00 hr 30 min 08 sec)
Heartbeat CPU 0 instructions: 202501010 cycles: 227929728 heartbeat IPC: 0.189 cumulative IPC: 0.7036 (Simulation time: 00 hr 30 min 25 sec)
Heartbeat CPU 0 instructions: 203001017 cycles: 229417621 heartbeat IPC: 0.3361 cumulative IPC: 0.7011 (Simulation time: 00 hr 30 min 34 sec)
Heartbeat CPU 0 instructions: 203501020 cycles: 229676487 heartbeat IPC: 1.932 cumulative IPC: 0.7026 (Simulation time: 00 hr 30 min 37 sec)
Heartbeat CPU 0 instructions: 204001020 cycles: 229931338 heartbeat IPC: 1.962 cumulative IPC: 0.704 (Simulation time: 00 hr 30 min 39 sec)
Heartbeat CPU 0 instructions: 204501022 cycles: 230151220 heartbeat IPC: 2.274 cumulative IPC: 0.7056 (Simulation time: 00 hr 30 min 41 sec)
Heartbeat CPU 0 instructions: 205001025 cycles: 230393279 heartbeat IPC: 2.066 cumulative IPC: 0.7071 (Simulation time: 00 hr 30 min 43 sec)
Heartbeat CPU 0 instructions: 205501025 cycles: 231069797 heartbeat IPC: 0.7391 cumulative IPC: 0.7072 (Simulation time: 00 hr 30 min 47 sec)
Heartbeat CPU 0 instructions: 206001025 cycles: 232675075 heartbeat IPC: 0.3115 cumulative IPC: 0.7043 (Simulation time: 00 hr 30 min 58 sec)
Heartbeat CPU 0 instructions: 206501025 cycles: 233364348 heartbeat IPC: 0.7254 cumulative IPC: 0.7044 (Simulation time: 00 hr 31 min 04 sec)
Heartbeat CPU 0 instructions: 207001031 cycles: 234913352 heartbeat IPC: 0.3228 cumulative IPC: 0.7018 (Simulation time: 00 hr 31 min 12 sec)
Heartbeat CPU 0 instructions: 207501034 cycles: 235697004 heartbeat IPC: 0.638 cumulative IPC: 0.7015 (Simulation time: 00 hr 31 min 17 sec)
Heartbeat CPU 0 instructions: 208001034 cycles: 236865107 heartbeat IPC: 0.428 cumulative IPC: 0.7001 (Simulation time: 00 hr 31 min 24 sec)
Heartbeat CPU 0 instructions: 208501041 cycles: 239805633 heartbeat IPC: 0.17 cumulative IPC: 0.6933 (Simulation time: 00 hr 31 min 40 sec)
Heartbeat CPU 0 instructions: 209001048 cycles: 241566473 heartbeat IPC: 0.284 cumulative IPC: 0.6902 (Simulation time: 00 hr 31 min 55 sec)
Heartbeat CPU 0 instructions: 209501052 cycles: 242975818 heartbeat IPC: 0.3548 cumulative IPC: 0.6881 (Simulation time: 00 hr 32 min 06 sec)
Heartbeat CPU 0 instructions: 210001055 cycles: 243434677 heartbeat IPC: 1.09 cumulative IPC: 0.6889 (Simulation time: 00 hr 32 min 10 sec)
Heartbeat CPU 0 instructions: 210501055 cycles: 243884986 heartbeat IPC: 1.11 cumulative IPC: 0.6897 (Simulation time: 00 hr 32 min 14 sec)
Heartbeat CPU 0 instructions: 211001061 cycles: 244368101 heartbeat IPC: 1.035 cumulative IPC: 0.6905 (Simulation time: 00 hr 32 min 19 sec)
Heartbeat CPU 0 instructions: 211501062 cycles: 244808296 heartbeat IPC: 1.136 cumulative IPC: 0.6913 (Simulation time: 00 hr 32 min 23 sec)
Heartbeat CPU 0 instructions: 212001066 cycles: 245811513 heartbeat IPC: 0.4984 cumulative IPC: 0.6905 (Simulation time: 00 hr 32 min 30 sec)
Heartbeat CPU 0 instructions: 212501069 cycles: 246510860 heartbeat IPC: 0.715 cumulative IPC: 0.6905 (Simulation time: 00 hr 32 min 35 sec)
Heartbeat CPU 0 instructions: 213001069 cycles: 247937065 heartbeat IPC: 0.3506 cumulative IPC: 0.6885 (Simulation time: 00 hr 32 min 44 sec)
Heartbeat CPU 0 instructions: 213501069 cycles: 249547371 heartbeat IPC: 0.3105 cumulative IPC: 0.6859 (Simulation time: 00 hr 32 min 54 sec)
Heartbeat CPU 0 instructions: 214001070 cycles: 251135240 heartbeat IPC: 0.3149 cumulative IPC: 0.6835 (Simulation time: 00 hr 33 min 04 sec)
Heartbeat CPU 0 instructions: 214501071 cycles: 252569475 heartbeat IPC: 0.3486 cumulative IPC: 0.6815 (Simulation time: 00 hr 33 min 12 sec)
Heartbeat CPU 0 instructions: 215001077 cycles: 254760049 heartbeat IPC: 0.2283 cumulative IPC: 0.6774 (Simulation time: 00 hr 33 min 24 sec)
Heartbeat CPU 0 instructions: 215501084 cycles: 256455550 heartbeat IPC: 0.2949 cumulative IPC: 0.6748 (Simulation time: 00 hr 33 min 34 sec)
Heartbeat CPU 0 instructions: 216001087 cycles: 258150256 heartbeat IPC: 0.295 cumulative IPC: 0.6722 (Simulation time: 00 hr 33 min 45 sec)
Heartbeat CPU 0 instructions: 216501087 cycles: 261346524 heartbeat IPC: 0.1564 cumulative IPC: 0.6656 (Simulation time: 00 hr 34 min 01 sec)
Heartbeat CPU 0 instructions: 217001087 cycles: 264217534 heartbeat IPC: 0.1742 cumulative IPC: 0.66 (Simulation time: 00 hr 34 min 17 sec)
Heartbeat CPU 0 instructions: 217501093 cycles: 265893857 heartbeat IPC: 0.2983 cumulative IPC: 0.6576 (Simulation time: 00 hr 34 min 26 sec)
Heartbeat CPU 0 instructions: 218001093 cycles: 266373196 heartbeat IPC: 1.043 cumulative IPC: 0.6584 (Simulation time: 00 hr 34 min 30 sec)
Heartbeat CPU 0 instructions: 218501095 cycles: 266837238 heartbeat IPC: 1.077 cumulative IPC: 0.6591 (Simulation time: 00 hr 34 min 35 sec)
Heartbeat CPU 0 instructions: 219001095 cycles: 267290572 heartbeat IPC: 1.103 cumulative IPC: 0.6599 (Simulation time: 00 hr 34 min 39 sec)
Heartbeat CPU 0 instructions: 219501096 cycles: 267740061 heartbeat IPC: 1.112 cumulative IPC: 0.6607 (Simulation time: 00 hr 34 min 43 sec)
Heartbeat CPU 0 instructions: 220001096 cycles: 268182158 heartbeat IPC: 1.131 cumulative IPC: 0.6615 (Simulation time: 00 hr 34 min 47 sec)
Heartbeat CPU 0 instructions: 220501097 cycles: 268635596 heartbeat IPC: 1.103 cumulative IPC: 0.6623 (Simulation time: 00 hr 34 min 51 sec)
Heartbeat CPU 0 instructions: 221001101 cycles: 270153608 heartbeat IPC: 0.3294 cumulative IPC: 0.6603 (Simulation time: 00 hr 35 min 05 sec)
Heartbeat CPU 0 instructions: 221501102 cycles: 270533728 heartbeat IPC: 1.315 cumulative IPC: 0.6613 (Simulation time: 00 hr 35 min 09 sec)
Heartbeat CPU 0 instructions: 222001103 cycles: 270902471 heartbeat IPC: 1.356 cumulative IPC: 0.6623 (Simulation time: 00 hr 35 min 13 sec)
Heartbeat CPU 0 instructions: 222501103 cycles: 271281261 heartbeat IPC: 1.32 cumulative IPC: 0.6632 (Simulation time: 00 hr 35 min 17 sec)
Heartbeat CPU 0 instructions: 223001110 cycles: 272218126 heartbeat IPC: 0.5337 cumulative IPC: 0.6628 (Simulation time: 00 hr 35 min 24 sec)
Heartbeat CPU 0 instructions: 223501116 cycles: 273143100 heartbeat IPC: 0.5406 cumulative IPC: 0.6623 (Simulation time: 00 hr 35 min 30 sec)
Heartbeat CPU 0 instructions: 224001121 cycles: 273804405 heartbeat IPC: 0.7561 cumulative IPC: 0.6626 (Simulation time: 00 hr 35 min 35 sec)
Heartbeat CPU 0 instructions: 224501123 cycles: 274394863 heartbeat IPC: 0.8468 cumulative IPC: 0.663 (Simulation time: 00 hr 35 min 39 sec)
Heartbeat CPU 0 instructions: 225001126 cycles: 275085735 heartbeat IPC: 0.7237 cumulative IPC: 0.6631 (Simulation time: 00 hr 35 min 44 sec)
Heartbeat CPU 0 instructions: 225501127 cycles: 276420654 heartbeat IPC: 0.3746 cumulative IPC: 0.6617 (Simulation time: 00 hr 35 min 54 sec)
Heartbeat CPU 0 instructions: 226001127 cycles: 277564067 heartbeat IPC: 0.4373 cumulative IPC: 0.6607 (Simulation time: 00 hr 36 min 03 sec)
Heartbeat CPU 0 instructions: 226501128 cycles: 278497550 heartbeat IPC: 0.5356 cumulative IPC: 0.6603 (Simulation time: 00 hr 36 min 09 sec)
Heartbeat CPU 0 instructions: 227001132 cycles: 280063468 heartbeat IPC: 0.3193 cumulative IPC: 0.6583 (Simulation time: 00 hr 36 min 23 sec)
Heartbeat CPU 0 instructions: 227501134 cycles: 280951881 heartbeat IPC: 0.5628 cumulative IPC: 0.658 (Simulation time: 00 hr 36 min 30 sec)
Heartbeat CPU 0 instructions: 228001135 cycles: 282338155 heartbeat IPC: 0.3607 cumulative IPC: 0.6565 (Simulation time: 00 hr 36 min 38 sec)
Heartbeat CPU 0 instructions: 228501139 cycles: 282637407 heartbeat IPC: 1.671 cumulative IPC: 0.6576 (Simulation time: 00 hr 36 min 41 sec)
Heartbeat CPU 0 instructions: 229001139 cycles: 282901394 heartbeat IPC: 1.894 cumulative IPC: 0.6588 (Simulation time: 00 hr 36 min 43 sec)
Heartbeat CPU 0 instructions: 229501145 cycles: 283136763 heartbeat IPC: 2.124 cumulative IPC: 0.6601 (Simulation time: 00 hr 36 min 45 sec)
Heartbeat CPU 0 instructions: 230001151 cycles: 283377143 heartbeat IPC: 2.08 cumulative IPC: 0.6613 (Simulation time: 00 hr 36 min 48 sec)
Heartbeat CPU 0 instructions: 230501151 cycles: 283595177 heartbeat IPC: 2.293 cumulative IPC: 0.6626 (Simulation time: 00 hr 36 min 50 sec)
Heartbeat CPU 0 instructions: 231001151 cycles: 283827850 heartbeat IPC: 2.149 cumulative IPC: 0.6639 (Simulation time: 00 hr 36 min 52 sec)
Heartbeat CPU 0 instructions: 231501156 cycles: 284057929 heartbeat IPC: 2.173 cumulative IPC: 0.6652 (Simulation time: 00 hr 36 min 54 sec)
Heartbeat CPU 0 instructions: 232001159 cycles: 284294222 heartbeat IPC: 2.116 cumulative IPC: 0.6664 (Simulation time: 00 hr 36 min 56 sec)
Heartbeat CPU 0 instructions: 232501164 cycles: 284522144 heartbeat IPC: 2.194 cumulative IPC: 0.6677 (Simulation time: 00 hr 36 min 59 sec)
Heartbeat CPU 0 instructions: 233001166 cycles: 284756219 heartbeat IPC: 2.136 cumulative IPC: 0.6689 (Simulation time: 00 hr 37 min 01 sec)
Heartbeat CPU 0 instructions: 233501170 cycles: 284983273 heartbeat IPC: 2.202 cumulative IPC: 0.6702 (Simulation time: 00 hr 37 min 03 sec)
Heartbeat CPU 0 instructions: 234001171 cycles: 285211538 heartbeat IPC: 2.19 cumulative IPC: 0.6715 (Simulation time: 00 hr 37 min 05 sec)
Heartbeat CPU 0 instructions: 234501174 cycles: 285779971 heartbeat IPC: 0.8796 cumulative IPC: 0.6719 (Simulation time: 00 hr 37 min 09 sec)
Heartbeat CPU 0 instructions: 235001174 cycles: 289410228 heartbeat IPC: 0.1377 cumulative IPC: 0.6649 (Simulation time: 00 hr 37 min 31 sec)
Heartbeat CPU 0 instructions: 235501176 cycles: 291092766 heartbeat IPC: 0.2972 cumulative IPC: 0.6627 (Simulation time: 00 hr 37 min 40 sec)
Heartbeat CPU 0 instructions: 236001178 cycles: 292470315 heartbeat IPC: 0.363 cumulative IPC: 0.6613 (Simulation time: 00 hr 37 min 48 sec)
Heartbeat CPU 0 instructions: 236501184 cycles: 293685717 heartbeat IPC: 0.4114 cumulative IPC: 0.6602 (Simulation time: 00 hr 37 min 55 sec)
Heartbeat CPU 0 instructions: 237001186 cycles: 294311811 heartbeat IPC: 0.7986 cumulative IPC: 0.6605 (Simulation time: 00 hr 37 min 59 sec)
Heartbeat CPU 0 instructions: 237501186 cycles: 296361163 heartbeat IPC: 0.244 cumulative IPC: 0.6575 (Simulation time: 00 hr 38 min 11 sec)
Heartbeat CPU 0 instructions: 238001187 cycles: 300463041 heartbeat IPC: 0.1219 cumulative IPC: 0.6499 (Simulation time: 00 hr 38 min 42 sec)
Heartbeat CPU 0 instructions: 238501189 cycles: 301251711 heartbeat IPC: 0.634 cumulative IPC: 0.6499 (Simulation time: 00 hr 38 min 48 sec)
Heartbeat CPU 0 instructions: 239001192 cycles: 301935568 heartbeat IPC: 0.7312 cumulative IPC: 0.6501 (Simulation time: 00 hr 38 min 54 sec)
Heartbeat CPU 0 instructions: 239501192 cycles: 302630290 heartbeat IPC: 0.7197 cumulative IPC: 0.6502 (Simulation time: 00 hr 39 min 00 sec)
Heartbeat CPU 0 instructions: 240001193 cycles: 303346508 heartbeat IPC: 0.6981 cumulative IPC: 0.6503 (Simulation time: 00 hr 39 min 06 sec)
Heartbeat CPU 0 instructions: 240501195 cycles: 304089986 heartbeat IPC: 0.6725 cumulative IPC: 0.6504 (Simulation time: 00 hr 39 min 12 sec)
Heartbeat CPU 0 instructions: 241001202 cycles: 305281515 heartbeat IPC: 0.4196 cumulative IPC: 0.6495 (Simulation time: 00 hr 39 min 23 sec)
Heartbeat CPU 0 instructions: 241501208 cycles: 307707955 heartbeat IPC: 0.2061 cumulative IPC: 0.6458 (Simulation time: 00 hr 39 min 41 sec)
Heartbeat CPU 0 instructions: 242001210 cycles: 308429454 heartbeat IPC: 0.693 cumulative IPC: 0.6459 (Simulation time: 00 hr 39 min 47 sec)
Heartbeat CPU 0 instructions: 242501214 cycles: 309075615 heartbeat IPC: 0.7738 cumulative IPC: 0.6462 (Simulation time: 00 hr 39 min 52 sec)
Heartbeat CPU 0 instructions: 243001218 cycles: 309747325 heartbeat IPC: 0.7444 cumulative IPC: 0.6464 (Simulation time: 00 hr 39 min 58 sec)
Heartbeat CPU 0 instructions: 243501224 cycles: 310378872 heartbeat IPC: 0.7917 cumulative IPC: 0.6468 (Simulation time: 00 hr 40 min 04 sec)
Heartbeat CPU 0 instructions: 244001225 cycles: 311063044 heartbeat IPC: 0.7308 cumulative IPC: 0.6469 (Simulation time: 00 hr 40 min 10 sec)
Heartbeat CPU 0 instructions: 244501227 cycles: 311724283 heartbeat IPC: 0.7562 cumulative IPC: 0.6472 (Simulation time: 00 hr 40 min 16 sec)
Heartbeat CPU 0 instructions: 245001227 cycles: 312936891 heartbeat IPC: 0.4123 cumulative IPC: 0.6462 (Simulation time: 00 hr 40 min 25 sec)
Heartbeat CPU 0 instructions: 245501229 cycles: 313719339 heartbeat IPC: 0.639 cumulative IPC: 0.6462 (Simulation time: 00 hr 40 min 31 sec)
Heartbeat CPU 0 instructions: 246001236 cycles: 314390776 heartbeat IPC: 0.7447 cumulative IPC: 0.6464 (Simulation time: 00 hr 40 min 37 sec)
Heartbeat CPU 0 instructions: 246501237 cycles: 315078142 heartbeat IPC: 0.7274 cumulative IPC: 0.6466 (Simulation time: 00 hr 40 min 43 sec)
Heartbeat CPU 0 instructions: 247001243 cycles: 315730930 heartbeat IPC: 0.766 cumulative IPC: 0.6469 (Simulation time: 00 hr 40 min 49 sec)
Heartbeat CPU 0 instructions: 247501245 cycles: 316434054 heartbeat IPC: 0.7111 cumulative IPC: 0.647 (Simulation time: 00 hr 40 min 55 sec)
Heartbeat CPU 0 instructions: 248001246 cycles: 317097729 heartbeat IPC: 0.7534 cumulative IPC: 0.6473 (Simulation time: 00 hr 41 min 01 sec)
Heartbeat CPU 0 instructions: 248501248 cycles: 317729152 heartbeat IPC: 0.7919 cumulative IPC: 0.6476 (Simulation time: 00 hr 41 min 07 sec)
Heartbeat CPU 0 instructions: 249001249 cycles: 318554942 heartbeat IPC: 0.6055 cumulative IPC: 0.6474 (Simulation time: 00 hr 41 min 14 sec)
Heartbeat CPU 0 instructions: 249501256 cycles: 319685749 heartbeat IPC: 0.4422 cumulative IPC: 0.6467 (Simulation time: 00 hr 41 min 23 sec)
Simulation finished CPU 0 instructions: 200000007 cycles: 309139504 cumulative IPC: 0.647 (Simulation time: 00 hr 41 min 28 sec)
Simulation complete CPU 0 instructions: 200000007 cycles: 309139504 cumulative IPC: 0.647 (Simulation time: 00 hr 41 min 28 sec)

ChampSim completed all CPUs

=== Simulation ===
CPU 0 runs /local-ssd/ben/dpc4-traces/gtraces_v2/charlie_0003.champsim.gz

Region of Interest Statistics

CPU 0 cumulative IPC: 0.647 instructions: 200000007 cycles: 309139504
CPU 0 Branch Prediction Accuracy: 94.89% MPKI: 11.91 Average ROB Occupancy at Mispredict: 39.51
Branch type MPKI
BRANCH_DIRECT_JUMP: 0.3264
BRANCH_INDIRECT: 0.3452
BRANCH_CONDITIONAL: 10.36
BRANCH_DIRECT_CALL: 0.2826
BRANCH_INDIRECT_CALL: 0.3201
BRANCH_RETURN: 0.2747

cpu0->cpu0_STLB TOTAL        ACCESS:    4631876 HIT:    4192598 MISS:     439278 MSHR_MERGE:          0
cpu0->cpu0_STLB LOAD         ACCESS:    4631876 HIT:    4192598 MISS:     439278 MSHR_MERGE:          0
cpu0->cpu0_STLB RFO          ACCESS:          0 HIT:          0 MISS:          0 MSHR_MERGE:          0
cpu0->cpu0_STLB PREFETCH     ACCESS:          0 HIT:          0 MISS:          0 MSHR_MERGE:          0
cpu0->cpu0_STLB WRITE        ACCESS:          0 HIT:          0 MISS:          0 MSHR_MERGE:          0
cpu0->cpu0_STLB TRANSLATION  ACCESS:          0 HIT:          0 MISS:          0 MSHR_MERGE:          0
cpu0->cpu0_STLB PREFETCH REQUESTED:          0 ISSUED:          0 USEFUL:          0 USELESS:          0
cpu0->cpu0_STLB AVERAGE MISS LATENCY: 154.8 cycles
cpu0->cpu0_L2C TOTAL        ACCESS:   10507385 HIT:    7611752 MISS:    2895633 MSHR_MERGE:          0
cpu0->cpu0_L2C LOAD         ACCESS:    4783236 HIT:    3566301 MISS:    1216935 MSHR_MERGE:          0
cpu0->cpu0_L2C RFO          ACCESS:     430732 HIT:      98838 MISS:     331894 MSHR_MERGE:          0
cpu0->cpu0_L2C PREFETCH     ACCESS:    3912985 HIT:    2719305 MISS:    1193680 MSHR_MERGE:          0
cpu0->cpu0_L2C WRITE        ACCESS:    1039254 HIT:    1039175 MISS:         79 MSHR_MERGE:          0
cpu0->cpu0_L2C TRANSLATION  ACCESS:     341178 HIT:     188133 MISS:     153045 MSHR_MERGE:          0
cpu0->cpu0_L2C PREFETCH REQUESTED:          0 ISSUED:          0 USEFUL:          0 USELESS:          0
cpu0->cpu0_L2C AVERAGE MISS LATENCY: 237.5 cycles
cpu0->cpu0_L1I TOTAL        ACCESS:   17369528 HIT:   16531647 MISS:     837881 MSHR_MERGE:     191975
cpu0->cpu0_L1I LOAD         ACCESS:   17369528 HIT:   16531647 MISS:     837881 MSHR_MERGE:     191975
cpu0->cpu0_L1I RFO          ACCESS:          0 HIT:          0 MISS:          0 MSHR_MERGE:          0
cpu0->cpu0_L1I PREFETCH     ACCESS:          0 HIT:          0 MISS:          0 MSHR_MERGE:          0
cpu0->cpu0_L1I WRITE        ACCESS:          0 HIT:          0 MISS:          0 MSHR_MERGE:          0
cpu0->cpu0_L1I TRANSLATION  ACCESS:          0 HIT:          0 MISS:          0 MSHR_MERGE:          0
cpu0->cpu0_L1I PREFETCH REQUESTED:          0 ISSUED:          0 USEFUL:          0 USELESS:          0
cpu0->cpu0_L1I AVERAGE MISS LATENCY: 108 cycles
cpu0->cpu0_L1D TOTAL        ACCESS:   73370959 HIT:   60881334 MISS:   12489625 MSHR_MERGE:    3667348
cpu0->cpu0_L1D LOAD         ACCESS:   30127269 HIT:   25185608 MISS:    4941661 MSHR_MERGE:     804323
cpu0->cpu0_L1D RFO          ACCESS:          0 HIT:          0 MISS:          0 MSHR_MERGE:          0
cpu0->cpu0_L1D PREFETCH     ACCESS:   25947202 HIT:   20271253 MISS:    5675949 MSHR_MERGE:    1762962
cpu0->cpu0_L1D WRITE        ACCESS:   16249306 HIT:   14725994 MISS:    1523312 MSHR_MERGE:    1092538
cpu0->cpu0_L1D TRANSLATION  ACCESS:    1047182 HIT:     698479 MISS:     348703 MSHR_MERGE:       7525
cpu0->cpu0_L1D PREFETCH REQUESTED:   32804943 ISSUED:   25947197 USEFUL:     838718 USELESS:    3074034
cpu0->cpu0_L1D AVERAGE MISS LATENCY: 77.6 cycles
cpu0->cpu0_ITLB TOTAL        ACCESS:   13684033 HIT:   13593509 MISS:      90524 MSHR_MERGE:      37425
cpu0->cpu0_ITLB LOAD         ACCESS:   13684033 HIT:   13593509 MISS:      90524 MSHR_MERGE:      37425
cpu0->cpu0_ITLB RFO          ACCESS:          0 HIT:          0 MISS:          0 MSHR_MERGE:          0
cpu0->cpu0_ITLB PREFETCH     ACCESS:          0 HIT:          0 MISS:          0 MSHR_MERGE:          0
cpu0->cpu0_ITLB WRITE        ACCESS:          0 HIT:          0 MISS:          0 MSHR_MERGE:          0
cpu0->cpu0_ITLB TRANSLATION  ACCESS:          0 HIT:          0 MISS:          0 MSHR_MERGE:          0
cpu0->cpu0_ITLB PREFETCH REQUESTED:          0 ISSUED:          0 USEFUL:          0 USELESS:          0
cpu0->cpu0_ITLB AVERAGE MISS LATENCY: 64.89 cycles
cpu0->cpu0_DTLB TOTAL        ACCESS:   66680061 HIT:   61066010 MISS:    5614051 MSHR_MERGE:    1035273
cpu0->cpu0_DTLB LOAD         ACCESS:   66680061 HIT:   61066010 MISS:    5614051 MSHR_MERGE:    1035273
cpu0->cpu0_DTLB RFO          ACCESS:          0 HIT:          0 MISS:          0 MSHR_MERGE:          0
cpu0->cpu0_DTLB PREFETCH     ACCESS:          0 HIT:          0 MISS:          0 MSHR_MERGE:          0
cpu0->cpu0_DTLB WRITE        ACCESS:          0 HIT:          0 MISS:          0 MSHR_MERGE:          0
cpu0->cpu0_DTLB TRANSLATION  ACCESS:          0 HIT:          0 MISS:          0 MSHR_MERGE:          0
cpu0->cpu0_DTLB PREFETCH REQUESTED:          0 ISSUED:          0 USEFUL:          0 USELESS:          0
cpu0->cpu0_DTLB AVERAGE MISS LATENCY: 19.29 cycles
cpu0->LLC TOTAL        ACCESS:    3752449 HIT:     412502 MISS:    3339947 MSHR_MERGE:          0
cpu0->LLC LOAD         ACCESS:    1216935 HIT:     151288 MISS:    1065647 MSHR_MERGE:          0
cpu0->LLC RFO          ACCESS:     331894 HIT:       6245 MISS:     325649 MSHR_MERGE:          0
cpu0->LLC PREFETCH     ACCESS:    1193680 HIT:      27980 MISS:    1165700 MSHR_MERGE:          0
cpu0->LLC WRITE        ACCESS:     856895 HIT:     213333 MISS:     643562 MSHR_MERGE:          0
cpu0->LLC TRANSLATION  ACCESS:     153045 HIT:      13656 MISS:     139389 MSHR_MERGE:          0
cpu0->LLC PREFETCH REQUESTED:          0 ISSUED:          0 USEFUL:          0 USELESS:          0
cpu0->LLC AVERAGE MISS LATENCY: 173 cycles

DRAM Statistics

Channel 0 RQ ROW_BUFFER_HIT:     124040
  ROW_BUFFER_MISS:    2572013
  AVG DBUS CONGESTED CYCLE: 21.55
Channel 0 WQ ROW_BUFFER_HIT:     194782
  ROW_BUFFER_MISS:     537992
  FULL:        265
Channel 0 REFRESHES ISSUED:      25760
