[VMEM] WARNING: physical memory size is smaller than virtual memory size.

*** ChampSim Multicore Out-of-Order Simulator ***
Warmup Instructions: 50000000
Simulation Instructions: 200000000
Number of CPUs: 1
Page size: 4096
Core 0: /local-ssd/ben/dpc4-traces/gtraces_v2/yankee_0002.champsim.gz
Off-chip DRAM Size: 64 GiB Channels: 1 Width: 64-bit Data Rate: 4807 MT/s
[BTB] WARNING: target of return is a lower address than the corresponding call. This is usually a problem with your trace.
[BTB] WARNING: target of return is a lower address than the corresponding call. This is usually a problem with your trace.
[BTB] WARNING: target of return is a lower address than the corresponding call. This is usually a problem with your trace.
Heartbeat CPU 0 instructions: 500001 cycles: 200747 heartbeat IPC: 2.491 cumulative IPC: 2.491 (Simulation time: 00 hr 00 min 03 sec)
[BTB] WARNING: target of return is a lower address than the corresponding call. This is usually a problem with your trace.
Heartbeat CPU 0 instructions: 1000008 cycles: 453336 heartbeat IPC: 1.98 cumulative IPC: 2.206 (Simulation time: 00 hr 00 min 06 sec)
[BTB] WARNING: target of return is a lower address than the corresponding call. This is usually a problem with your trace.
[BTB] WARNING: target of return is a lower address than the corresponding call. This is usually a problem with your trace.
Heartbeat CPU 0 instructions: 1500015 cycles: 634581 heartbeat IPC: 2.759 cumulative IPC: 2.364 (Simulation time: 00 hr 00 min 09 sec)
Heartbeat CPU 0 instructions: 2000019 cycles: 796892 heartbeat IPC: 3.081 cumulative IPC: 2.51 (Simulation time: 00 hr 00 min 11 sec)
[BTB] WARNING: target of return is a lower address than the corresponding call. This is usually a problem with your trace.
[BTB] WARNING: target of return is a lower address than the corresponding call. This is usually a problem with your trace.
[BTB] WARNING: target of return is a lower address than the corresponding call. This is usually a problem with your trace.
[BTB] WARNING: target of return is a lower address than the corresponding call. This is usually a problem with your trace.
Heartbeat CPU 0 instructions: 2500024 cycles: 928318 heartbeat IPC: 3.804 cumulative IPC: 2.693 (Simulation time: 00 hr 00 min 13 sec)
Heartbeat CPU 0 instructions: 3000031 cycles: 1109143 heartbeat IPC: 2.765 cumulative IPC: 2.705 (Simulation time: 00 hr 00 min 16 sec)
Heartbeat CPU 0 instructions: 3500033 cycles: 1241720 heartbeat IPC: 3.771 cumulative IPC: 2.819 (Simulation time: 00 hr 00 min 18 sec)
Heartbeat CPU 0 instructions: 4000033 cycles: 1375028 heartbeat IPC: 3.751 cumulative IPC: 2.909 (Simulation time: 00 hr 00 min 20 sec)
Heartbeat CPU 0 instructions: 4500040 cycles: 1561123 heartbeat IPC: 2.687 cumulative IPC: 2.883 (Simulation time: 00 hr 00 min 23 sec)
Heartbeat CPU 0 instructions: 5000042 cycles: 1676798 heartbeat IPC: 4.322 cumulative IPC: 2.982 (Simulation time: 00 hr 00 min 25 sec)
Heartbeat CPU 0 instructions: 5500049 cycles: 1792449 heartbeat IPC: 4.323 cumulative IPC: 3.068 (Simulation time: 00 hr 00 min 27 sec)
Heartbeat CPU 0 instructions: 6000049 cycles: 1950762 heartbeat IPC: 3.158 cumulative IPC: 3.076 (Simulation time: 00 hr 00 min 29 sec)
Heartbeat CPU 0 instructions: 6500054 cycles: 2122995 heartbeat IPC: 2.903 cumulative IPC: 3.062 (Simulation time: 00 hr 00 min 31 sec)
Heartbeat CPU 0 instructions: 7000056 cycles: 2239386 heartbeat IPC: 4.296 cumulative IPC: 3.126 (Simulation time: 00 hr 00 min 33 sec)
Heartbeat CPU 0 instructions: 7500057 cycles: 2358364 heartbeat IPC: 4.202 cumulative IPC: 3.18 (Simulation time: 00 hr 00 min 35 sec)
Heartbeat CPU 0 instructions: 8000062 cycles: 2524279 heartbeat IPC: 3.014 cumulative IPC: 3.169 (Simulation time: 00 hr 00 min 38 sec)
Heartbeat CPU 0 instructions: 8500069 cycles: 2643881 heartbeat IPC: 4.181 cumulative IPC: 3.215 (Simulation time: 00 hr 00 min 40 sec)
Heartbeat CPU 0 instructions: 9000075 cycles: 2768639 heartbeat IPC: 4.008 cumulative IPC: 3.251 (Simulation time: 00 hr 00 min 42 sec)
Heartbeat CPU 0 instructions: 9500081 cycles: 2913109 heartbeat IPC: 3.461 cumulative IPC: 3.261 (Simulation time: 00 hr 00 min 44 sec)
Heartbeat CPU 0 instructions: 10000083 cycles: 3077481 heartbeat IPC: 3.042 cumulative IPC: 3.249 (Simulation time: 00 hr 00 min 47 sec)
Heartbeat CPU 0 instructions: 10500089 cycles: 3237733 heartbeat IPC: 3.12 cumulative IPC: 3.243 (Simulation time: 00 hr 00 min 49 sec)
Heartbeat CPU 0 instructions: 11000089 cycles: 3352330 heartbeat IPC: 4.363 cumulative IPC: 3.281 (Simulation time: 00 hr 00 min 51 sec)
Heartbeat CPU 0 instructions: 11500089 cycles: 3492304 heartbeat IPC: 3.572 cumulative IPC: 3.293 (Simulation time: 00 hr 00 min 53 sec)
Heartbeat CPU 0 instructions: 12000089 cycles: 3655815 heartbeat IPC: 3.058 cumulative IPC: 3.282 (Simulation time: 00 hr 00 min 55 sec)
Heartbeat CPU 0 instructions: 12500094 cycles: 3800419 heartbeat IPC: 3.458 cumulative IPC: 3.289 (Simulation time: 00 hr 00 min 58 sec)
Heartbeat CPU 0 instructions: 13000096 cycles: 3928191 heartbeat IPC: 3.913 cumulative IPC: 3.309 (Simulation time: 00 hr 01 min 00 sec)
Heartbeat CPU 0 instructions: 13500096 cycles: 4054435 heartbeat IPC: 3.961 cumulative IPC: 3.33 (Simulation time: 00 hr 01 min 02 sec)
Heartbeat CPU 0 instructions: 14000097 cycles: 4174516 heartbeat IPC: 4.164 cumulative IPC: 3.354 (Simulation time: 00 hr 01 min 03 sec)
Heartbeat CPU 0 instructions: 14500104 cycles: 4281003 heartbeat IPC: 4.695 cumulative IPC: 3.387 (Simulation time: 00 hr 01 min 05 sec)
Heartbeat CPU 0 instructions: 15000108 cycles: 4408807 heartbeat IPC: 3.912 cumulative IPC: 3.402 (Simulation time: 00 hr 01 min 07 sec)
Heartbeat CPU 0 instructions: 15500109 cycles: 4558173 heartbeat IPC: 3.347 cumulative IPC: 3.401 (Simulation time: 00 hr 01 min 09 sec)
Heartbeat CPU 0 instructions: 16000109 cycles: 4695258 heartbeat IPC: 3.647 cumulative IPC: 3.408 (Simulation time: 00 hr 01 min 12 sec)
Heartbeat CPU 0 instructions: 16500109 cycles: 4836652 heartbeat IPC: 3.536 cumulative IPC: 3.411 (Simulation time: 00 hr 01 min 14 sec)
Heartbeat CPU 0 instructions: 17000114 cycles: 4960727 heartbeat IPC: 4.03 cumulative IPC: 3.427 (Simulation time: 00 hr 01 min 16 sec)
Heartbeat CPU 0 instructions: 17500115 cycles: 5078941 heartbeat IPC: 4.23 cumulative IPC: 3.446 (Simulation time: 00 hr 01 min 18 sec)
Heartbeat CPU 0 instructions: 18000118 cycles: 5185588 heartbeat IPC: 4.688 cumulative IPC: 3.471 (Simulation time: 00 hr 01 min 19 sec)
Heartbeat CPU 0 instructions: 18500119 cycles: 5303897 heartbeat IPC: 4.226 cumulative IPC: 3.488 (Simulation time: 00 hr 01 min 21 sec)
Heartbeat CPU 0 instructions: 19000123 cycles: 5427096 heartbeat IPC: 4.059 cumulative IPC: 3.501 (Simulation time: 00 hr 01 min 23 sec)
Heartbeat CPU 0 instructions: 19500127 cycles: 5550032 heartbeat IPC: 4.067 cumulative IPC: 3.514 (Simulation time: 00 hr 01 min 25 sec)
Heartbeat CPU 0 instructions: 20000128 cycles: 5707380 heartbeat IPC: 3.178 cumulative IPC: 3.504 (Simulation time: 00 hr 01 min 27 sec)
Heartbeat CPU 0 instructions: 20500133 cycles: 5837886 heartbeat IPC: 3.831 cumulative IPC: 3.512 (Simulation time: 00 hr 01 min 29 sec)
Heartbeat CPU 0 instructions: 21000138 cycles: 5956991 heartbeat IPC: 4.198 cumulative IPC: 3.525 (Simulation time: 00 hr 01 min 31 sec)
Heartbeat CPU 0 instructions: 21500141 cycles: 6093715 heartbeat IPC: 3.657 cumulative IPC: 3.528 (Simulation time: 00 hr 01 min 33 sec)
Heartbeat CPU 0 instructions: 22000147 cycles: 6247661 heartbeat IPC: 3.248 cumulative IPC: 3.521 (Simulation time: 00 hr 01 min 36 sec)
Heartbeat CPU 0 instructions: 22500148 cycles: 6370204 heartbeat IPC: 4.08 cumulative IPC: 3.532 (Simulation time: 00 hr 01 min 38 sec)
Heartbeat CPU 0 instructions: 23000151 cycles: 6490462 heartbeat IPC: 4.158 cumulative IPC: 3.544 (Simulation time: 00 hr 01 min 40 sec)
Heartbeat CPU 0 instructions: 23500153 cycles: 6618494 heartbeat IPC: 3.905 cumulative IPC: 3.551 (Simulation time: 00 hr 01 min 42 sec)
Heartbeat CPU 0 instructions: 24000158 cycles: 6769087 heartbeat IPC: 3.32 cumulative IPC: 3.546 (Simulation time: 00 hr 01 min 44 sec)
Heartbeat CPU 0 instructions: 24500163 cycles: 6891800 heartbeat IPC: 4.075 cumulative IPC: 3.555 (Simulation time: 00 hr 01 min 46 sec)
Heartbeat CPU 0 instructions: 25000163 cycles: 7010623 heartbeat IPC: 4.208 cumulative IPC: 3.566 (Simulation time: 00 hr 01 min 48 sec)
Heartbeat CPU 0 instructions: 25500164 cycles: 7156841 heartbeat IPC: 3.42 cumulative IPC: 3.563 (Simulation time: 00 hr 01 min 50 sec)
Heartbeat CPU 0 instructions: 26000169 cycles: 7306749 heartbeat IPC: 3.335 cumulative IPC: 3.558 (Simulation time: 00 hr 01 min 53 sec)
Heartbeat CPU 0 instructions: 26500172 cycles: 7427899 heartbeat IPC: 4.127 cumulative IPC: 3.568 (Simulation time: 00 hr 01 min 55 sec)
Heartbeat CPU 0 instructions: 27000176 cycles: 7553151 heartbeat IPC: 3.992 cumulative IPC: 3.575 (Simulation time: 00 hr 01 min 56 sec)
Heartbeat CPU 0 instructions: 27500180 cycles: 7668336 heartbeat IPC: 4.341 cumulative IPC: 3.586 (Simulation time: 00 hr 01 min 58 sec)
Heartbeat CPU 0 instructions: 28000187 cycles: 7797169 heartbeat IPC: 3.881 cumulative IPC: 3.591 (Simulation time: 00 hr 02 min 00 sec)
Heartbeat CPU 0 instructions: 28500193 cycles: 7934363 heartbeat IPC: 3.645 cumulative IPC: 3.592 (Simulation time: 00 hr 02 min 03 sec)
Heartbeat CPU 0 instructions: 29000194 cycles: 8050696 heartbeat IPC: 4.298 cumulative IPC: 3.602 (Simulation time: 00 hr 02 min 04 sec)
Heartbeat CPU 0 instructions: 29500197 cycles: 8170306 heartbeat IPC: 4.18 cumulative IPC: 3.611 (Simulation time: 00 hr 02 min 06 sec)
Heartbeat CPU 0 instructions: 30000200 cycles: 8303145 heartbeat IPC: 3.764 cumulative IPC: 3.613 (Simulation time: 00 hr 02 min 09 sec)
Heartbeat CPU 0 instructions: 30500201 cycles: 8439660 heartbeat IPC: 3.663 cumulative IPC: 3.614 (Simulation time: 00 hr 02 min 11 sec)
Heartbeat CPU 0 instructions: 31000202 cycles: 8567876 heartbeat IPC: 3.9 cumulative IPC: 3.618 (Simulation time: 00 hr 02 min 13 sec)
Heartbeat CPU 0 instructions: 31500209 cycles: 8693175 heartbeat IPC: 3.991 cumulative IPC: 3.624 (Simulation time: 00 hr 02 min 14 sec)
Heartbeat CPU 0 instructions: 32000209 cycles: 8799684 heartbeat IPC: 4.694 cumulative IPC: 3.637 (Simulation time: 00 hr 02 min 16 sec)
Heartbeat CPU 0 instructions: 32500210 cycles: 8900341 heartbeat IPC: 4.967 cumulative IPC: 3.652 (Simulation time: 00 hr 02 min 17 sec)
Heartbeat CPU 0 instructions: 33000216 cycles: 9000476 heartbeat IPC: 4.993 cumulative IPC: 3.666 (Simulation time: 00 hr 02 min 19 sec)
Heartbeat CPU 0 instructions: 33500216 cycles: 9108182 heartbeat IPC: 4.642 cumulative IPC: 3.678 (Simulation time: 00 hr 02 min 20 sec)
Heartbeat CPU 0 instructions: 34000220 cycles: 9219456 heartbeat IPC: 4.493 cumulative IPC: 3.688 (Simulation time: 00 hr 02 min 22 sec)
Heartbeat CPU 0 instructions: 34500226 cycles: 9323857 heartbeat IPC: 4.789 cumulative IPC: 3.7 (Simulation time: 00 hr 02 min 24 sec)
Heartbeat CPU 0 instructions: 35000229 cycles: 9457300 heartbeat IPC: 3.747 cumulative IPC: 3.701 (Simulation time: 00 hr 02 min 26 sec)
Heartbeat CPU 0 instructions: 35500236 cycles: 9571319 heartbeat IPC: 4.385 cumulative IPC: 3.709 (Simulation time: 00 hr 02 min 28 sec)
Heartbeat CPU 0 instructions: 36000241 cycles: 9712642 heartbeat IPC: 3.538 cumulative IPC: 3.707 (Simulation time: 00 hr 02 min 30 sec)
Heartbeat CPU 0 instructions: 36500241 cycles: 9856849 heartbeat IPC: 3.467 cumulative IPC: 3.703 (Simulation time: 00 hr 02 min 32 sec)
Heartbeat CPU 0 instructions: 37000244 cycles: 9971832 heartbeat IPC: 4.348 cumulative IPC: 3.71 (Simulation time: 00 hr 02 min 34 sec)
Heartbeat CPU 0 instructions: 37500244 cycles: 10093298 heartbeat IPC: 4.116 cumulative IPC: 3.715 (Simulation time: 00 hr 02 min 36 sec)
Heartbeat CPU 0 instructions: 38000247 cycles: 10205800 heartbeat IPC: 4.444 cumulative IPC: 3.723 (Simulation time: 00 hr 02 min 37 sec)
Heartbeat CPU 0 instructions: 38500253 cycles: 10316949 heartbeat IPC: 4.499 cumulative IPC: 3.732 (Simulation time: 00 hr 02 min 39 sec)
Heartbeat CPU 0 instructions: 39000260 cycles: 10436655 heartbeat IPC: 4.177 cumulative IPC: 3.737 (Simulation time: 00 hr 02 min 41 sec)
Heartbeat CPU 0 instructions: 39500262 cycles: 10552540 heartbeat IPC: 4.315 cumulative IPC: 3.743 (Simulation time: 00 hr 02 min 43 sec)
Heartbeat CPU 0 instructions: 40000264 cycles: 10711598 heartbeat IPC: 3.144 cumulative IPC: 3.734 (Simulation time: 00 hr 02 min 46 sec)
Heartbeat CPU 0 instructions: 40500264 cycles: 10844211 heartbeat IPC: 3.77 cumulative IPC: 3.735 (Simulation time: 00 hr 02 min 48 sec)
Heartbeat CPU 0 instructions: 41000268 cycles: 10955213 heartbeat IPC: 4.504 cumulative IPC: 3.743 (Simulation time: 00 hr 02 min 50 sec)
Heartbeat CPU 0 instructions: 41500269 cycles: 11055964 heartbeat IPC: 4.963 cumulative IPC: 3.754 (Simulation time: 00 hr 02 min 51 sec)
Heartbeat CPU 0 instructions: 42000273 cycles: 11156210 heartbeat IPC: 4.988 cumulative IPC: 3.765 (Simulation time: 00 hr 02 min 53 sec)
Heartbeat CPU 0 instructions: 42500280 cycles: 11263086 heartbeat IPC: 4.678 cumulative IPC: 3.773 (Simulation time: 00 hr 02 min 54 sec)
Heartbeat CPU 0 instructions: 43000285 cycles: 11390918 heartbeat IPC: 3.911 cumulative IPC: 3.775 (Simulation time: 00 hr 02 min 56 sec)
Heartbeat CPU 0 instructions: 43500289 cycles: 11534110 heartbeat IPC: 3.492 cumulative IPC: 3.771 (Simulation time: 00 hr 02 min 59 sec)
Heartbeat CPU 0 instructions: 44000294 cycles: 11649575 heartbeat IPC: 4.33 cumulative IPC: 3.777 (Simulation time: 00 hr 03 min 00 sec)
Heartbeat CPU 0 instructions: 44500295 cycles: 11767949 heartbeat IPC: 4.224 cumulative IPC: 3.781 (Simulation time: 00 hr 03 min 02 sec)
Heartbeat CPU 0 instructions: 45000300 cycles: 11871227 heartbeat IPC: 4.841 cumulative IPC: 3.791 (Simulation time: 00 hr 03 min 04 sec)
Heartbeat CPU 0 instructions: 45500307 cycles: 11977394 heartbeat IPC: 4.71 cumulative IPC: 3.799 (Simulation time: 00 hr 03 min 05 sec)
Heartbeat CPU 0 instructions: 46000313 cycles: 12087915 heartbeat IPC: 4.524 cumulative IPC: 3.805 (Simulation time: 00 hr 03 min 07 sec)
Heartbeat CPU 0 instructions: 46500315 cycles: 12206244 heartbeat IPC: 4.226 cumulative IPC: 3.81 (Simulation time: 00 hr 03 min 09 sec)
Heartbeat CPU 0 instructions: 47000315 cycles: 12332194 heartbeat IPC: 3.97 cumulative IPC: 3.811 (Simulation time: 00 hr 03 min 11 sec)
Heartbeat CPU 0 instructions: 47500320 cycles: 12450260 heartbeat IPC: 4.235 cumulative IPC: 3.815 (Simulation time: 00 hr 03 min 13 sec)
Heartbeat CPU 0 instructions: 48000324 cycles: 12565982 heartbeat IPC: 4.321 cumulative IPC: 3.82 (Simulation time: 00 hr 03 min 15 sec)
Heartbeat CPU 0 instructions: 48500331 cycles: 12683015 heartbeat IPC: 4.272 cumulative IPC: 3.824 (Simulation time: 00 hr 03 min 17 sec)
Heartbeat CPU 0 instructions: 49000336 cycles: 12800764 heartbeat IPC: 4.246 cumulative IPC: 3.828 (Simulation time: 00 hr 03 min 19 sec)
Heartbeat CPU 0 instructions: 49500337 cycles: 12909577 heartbeat IPC: 4.595 cumulative IPC: 3.834 (Simulation time: 00 hr 03 min 20 sec)
Warmup halting CPU 0 at instruction 50000007 cycle 13009509 for remainder of phase
Warmup finished CPU 0 instructions: 50000007 cycles: 13009509 cumulative IPC: 3.843 (Simulation time: 00 hr 03 min 21 sec)
Warmup complete CPU 0 instructions: 50000007 cycles: 13009509 cumulative IPC: 3.843 (Simulation time: 00 hr 03 min 21 sec)
Heartbeat CPU 0 instructions: 50000337 cycles: 13009732 heartbeat IPC: 4.992 cumulative IPC: 1.48 (Simulation time: 00 hr 03 min 21 sec)
Heartbeat CPU 0 instructions: 50500338 cycles: 13483953 heartbeat IPC: 1.054 cumulative IPC: 1.055 (Simulation time: 00 hr 03 min 25 sec)
Heartbeat CPU 0 instructions: 51000339 cycles: 13786577 heartbeat IPC: 1.652 cumulative IPC: 1.287 (Simulation time: 00 hr 03 min 28 sec)
Heartbeat CPU 0 instructions: 51500344 cycles: 14129322 heartbeat IPC: 1.459 cumulative IPC: 1.34 (Simulation time: 00 hr 03 min 31 sec)
Heartbeat CPU 0 instructions: 52000344 cycles: 14556998 heartbeat IPC: 1.169 cumulative IPC: 1.293 (Simulation time: 00 hr 03 min 35 sec)
Heartbeat CPU 0 instructions: 52500351 cycles: 15117049 heartbeat IPC: 0.8928 cumulative IPC: 1.186 (Simulation time: 00 hr 03 min 40 sec)
Heartbeat CPU 0 instructions: 53000354 cycles: 15501610 heartbeat IPC: 1.3 cumulative IPC: 1.204 (Simulation time: 00 hr 03 min 43 sec)
Heartbeat CPU 0 instructions: 53500354 cycles: 15851667 heartbeat IPC: 1.428 cumulative IPC: 1.232 (Simulation time: 00 hr 03 min 47 sec)
Heartbeat CPU 0 instructions: 54000354 cycles: 16155020 heartbeat IPC: 1.648 cumulative IPC: 1.272 (Simulation time: 00 hr 03 min 50 sec)
Heartbeat CPU 0 instructions: 54500354 cycles: 16453605 heartbeat IPC: 1.675 cumulative IPC: 1.307 (Simulation time: 00 hr 03 min 53 sec)
Heartbeat CPU 0 instructions: 55000354 cycles: 16748680 heartbeat IPC: 1.694 cumulative IPC: 1.337 (Simulation time: 00 hr 03 min 56 sec)
Heartbeat CPU 0 instructions: 55500357 cycles: 17115306 heartbeat IPC: 1.364 cumulative IPC: 1.34 (Simulation time: 00 hr 04 min 00 sec)
Heartbeat CPU 0 instructions: 56000357 cycles: 18415267 heartbeat IPC: 0.3846 cumulative IPC: 1.11 (Simulation time: 00 hr 04 min 08 sec)
Heartbeat CPU 0 instructions: 56500357 cycles: 19835885 heartbeat IPC: 0.352 cumulative IPC: 0.9522 (Simulation time: 00 hr 04 min 17 sec)
Heartbeat CPU 0 instructions: 57000360 cycles: 20420019 heartbeat IPC: 0.856 cumulative IPC: 0.9447 (Simulation time: 00 hr 04 min 22 sec)
Heartbeat CPU 0 instructions: 57500361 cycles: 21409468 heartbeat IPC: 0.5053 cumulative IPC: 0.8929 (Simulation time: 00 hr 04 min 29 sec)
Heartbeat CPU 0 instructions: 58000367 cycles: 21929790 heartbeat IPC: 0.961 cumulative IPC: 0.8969 (Simulation time: 00 hr 04 min 33 sec)
Heartbeat CPU 0 instructions: 58500368 cycles: 22425336 heartbeat IPC: 1.009 cumulative IPC: 0.9028 (Simulation time: 00 hr 04 min 37 sec)
Heartbeat CPU 0 instructions: 59000371 cycles: 23207219 heartbeat IPC: 0.6395 cumulative IPC: 0.8826 (Simulation time: 00 hr 04 min 42 sec)
Heartbeat CPU 0 instructions: 59500377 cycles: 24880903 heartbeat IPC: 0.2987 cumulative IPC: 0.8003 (Simulation time: 00 hr 04 min 53 sec)
Heartbeat CPU 0 instructions: 60000380 cycles: 26776295 heartbeat IPC: 0.2638 cumulative IPC: 0.7264 (Simulation time: 00 hr 05 min 05 sec)
Heartbeat CPU 0 instructions: 60500381 cycles: 28601089 heartbeat IPC: 0.274 cumulative IPC: 0.6735 (Simulation time: 00 hr 05 min 17 sec)
Heartbeat CPU 0 instructions: 61000381 cycles: 29808090 heartbeat IPC: 0.4142 cumulative IPC: 0.6548 (Simulation time: 00 hr 05 min 25 sec)
Heartbeat CPU 0 instructions: 61500382 cycles: 30989001 heartbeat IPC: 0.4234 cumulative IPC: 0.6396 (Simulation time: 00 hr 05 min 33 sec)
Heartbeat CPU 0 instructions: 62000386 cycles: 32059393 heartbeat IPC: 0.4671 cumulative IPC: 0.6299 (Simulation time: 00 hr 05 min 40 sec)
Heartbeat CPU 0 instructions: 62500386 cycles: 32971946 heartbeat IPC: 0.5479 cumulative IPC: 0.6262 (Simulation time: 00 hr 05 min 46 sec)
Heartbeat CPU 0 instructions: 63000392 cycles: 33523814 heartbeat IPC: 0.906 cumulative IPC: 0.6337 (Simulation time: 00 hr 05 min 51 sec)
Heartbeat CPU 0 instructions: 63500397 cycles: 34626157 heartbeat IPC: 0.4536 cumulative IPC: 0.6245 (Simulation time: 00 hr 05 min 58 sec)
Heartbeat CPU 0 instructions: 64000400 cycles: 36737852 heartbeat IPC: 0.2368 cumulative IPC: 0.59 (Simulation time: 00 hr 06 min 11 sec)
Heartbeat CPU 0 instructions: 64500404 cycles: 37931389 heartbeat IPC: 0.4189 cumulative IPC: 0.5818 (Simulation time: 00 hr 06 min 19 sec)
Heartbeat CPU 0 instructions: 65000404 cycles: 38473525 heartbeat IPC: 0.9223 cumulative IPC: 0.5891 (Simulation time: 00 hr 06 min 23 sec)
Heartbeat CPU 0 instructions: 65500404 cycles: 38854661 heartbeat IPC: 1.312 cumulative IPC: 0.5997 (Simulation time: 00 hr 06 min 26 sec)
Heartbeat CPU 0 instructions: 66000411 cycles: 39318030 heartbeat IPC: 1.079 cumulative IPC: 0.6082 (Simulation time: 00 hr 06 min 30 sec)
Heartbeat CPU 0 instructions: 66500414 cycles: 39545922 heartbeat IPC: 2.194 cumulative IPC: 0.6218 (Simulation time: 00 hr 06 min 32 sec)
Heartbeat CPU 0 instructions: 67000417 cycles: 40312734 heartbeat IPC: 0.6521 cumulative IPC: 0.6227 (Simulation time: 00 hr 06 min 38 sec)
Heartbeat CPU 0 instructions: 67500417 cycles: 41918394 heartbeat IPC: 0.3114 cumulative IPC: 0.6054 (Simulation time: 00 hr 06 min 49 sec)
Heartbeat CPU 0 instructions: 68000420 cycles: 42931832 heartbeat IPC: 0.4934 cumulative IPC: 0.6016 (Simulation time: 00 hr 06 min 56 sec)
Heartbeat CPU 0 instructions: 68500422 cycles: 43910561 heartbeat IPC: 0.5109 cumulative IPC: 0.5987 (Simulation time: 00 hr 07 min 02 sec)
Heartbeat CPU 0 instructions: 69000425 cycles: 44868148 heartbeat IPC: 0.5221 cumulative IPC: 0.5964 (Simulation time: 00 hr 07 min 09 sec)
Heartbeat CPU 0 instructions: 69500425 cycles: 46792807 heartbeat IPC: 0.2598 cumulative IPC: 0.5772 (Simulation time: 00 hr 07 min 21 sec)
Heartbeat CPU 0 instructions: 70000426 cycles: 47698859 heartbeat IPC: 0.5518 cumulative IPC: 0.5766 (Simulation time: 00 hr 07 min 27 sec)
Heartbeat CPU 0 instructions: 70500426 cycles: 47943012 heartbeat IPC: 2.048 cumulative IPC: 0.5868 (Simulation time: 00 hr 07 min 30 sec)
Heartbeat CPU 0 instructions: 71000432 cycles: 48792359 heartbeat IPC: 0.5887 cumulative IPC: 0.5869 (Simulation time: 00 hr 07 min 36 sec)
Heartbeat CPU 0 instructions: 71500432 cycles: 50231403 heartbeat IPC: 0.3475 cumulative IPC: 0.5776 (Simulation time: 00 hr 07 min 45 sec)
Heartbeat CPU 0 instructions: 72000432 cycles: 51254465 heartbeat IPC: 0.4887 cumulative IPC: 0.5753 (Simulation time: 00 hr 07 min 52 sec)
Heartbeat CPU 0 instructions: 72500433 cycles: 52236650 heartbeat IPC: 0.5091 cumulative IPC: 0.5736 (Simulation time: 00 hr 07 min 58 sec)
Heartbeat CPU 0 instructions: 73000434 cycles: 53330089 heartbeat IPC: 0.4573 cumulative IPC: 0.5704 (Simulation time: 00 hr 08 min 05 sec)
Heartbeat CPU 0 instructions: 73500434 cycles: 55387857 heartbeat IPC: 0.243 cumulative IPC: 0.5545 (Simulation time: 00 hr 08 min 18 sec)
Heartbeat CPU 0 instructions: 74000434 cycles: 56353586 heartbeat IPC: 0.5177 cumulative IPC: 0.5537 (Simulation time: 00 hr 08 min 25 sec)
Heartbeat CPU 0 instructions: 74500440 cycles: 57210397 heartbeat IPC: 0.5836 cumulative IPC: 0.5543 (Simulation time: 00 hr 08 min 31 sec)
Heartbeat CPU 0 instructions: 75000445 cycles: 59210015 heartbeat IPC: 0.2501 cumulative IPC: 0.5411 (Simulation time: 00 hr 08 min 43 sec)
Heartbeat CPU 0 instructions: 75500449 cycles: 61065767 heartbeat IPC: 0.2694 cumulative IPC: 0.5306 (Simulation time: 00 hr 08 min 54 sec)
Heartbeat CPU 0 instructions: 76000452 cycles: 62093237 heartbeat IPC: 0.4866 cumulative IPC: 0.5297 (Simulation time: 00 hr 09 min 02 sec)
Heartbeat CPU 0 instructions: 76500455 cycles: 63482742 heartbeat IPC: 0.3598 cumulative IPC: 0.525 (Simulation time: 00 hr 09 min 11 sec)
Heartbeat CPU 0 instructions: 77000455 cycles: 64940561 heartbeat IPC: 0.343 cumulative IPC: 0.5199 (Simulation time: 00 hr 09 min 21 sec)
Heartbeat CPU 0 instructions: 77500455 cycles: 66469689 heartbeat IPC: 0.327 cumulative IPC: 0.5144 (Simulation time: 00 hr 09 min 30 sec)
Heartbeat CPU 0 instructions: 78000459 cycles: 68565405 heartbeat IPC: 0.2386 cumulative IPC: 0.504 (Simulation time: 00 hr 09 min 43 sec)
Heartbeat CPU 0 instructions: 78500460 cycles: 69607180 heartbeat IPC: 0.48 cumulative IPC: 0.5036 (Simulation time: 00 hr 09 min 50 sec)
Heartbeat CPU 0 instructions: 79000460 cycles: 70472882 heartbeat IPC: 0.5776 cumulative IPC: 0.5047 (Simulation time: 00 hr 09 min 56 sec)
Heartbeat CPU 0 instructions: 79500464 cycles: 71308655 heartbeat IPC: 0.5983 cumulative IPC: 0.506 (Simulation time: 00 hr 10 min 02 sec)
Heartbeat CPU 0 instructions: 80000465 cycles: 72449105 heartbeat IPC: 0.4384 cumulative IPC: 0.5047 (Simulation time: 00 hr 10 min 09 sec)
Heartbeat CPU 0 instructions: 80500471 cycles: 73838730 heartbeat IPC: 0.3598 cumulative IPC: 0.5014 (Simulation time: 00 hr 10 min 18 sec)
Heartbeat CPU 0 instructions: 81000473 cycles: 74789354 heartbeat IPC: 0.526 cumulative IPC: 0.5018 (Simulation time: 00 hr 10 min 24 sec)
Heartbeat CPU 0 instructions: 81500475 cycles: 75805904 heartbeat IPC: 0.4919 cumulative IPC: 0.5016 (Simulation time: 00 hr 10 min 31 sec)
Heartbeat CPU 0 instructions: 82000477 cycles: 77689034 heartbeat IPC: 0.2655 cumulative IPC: 0.4948 (Simulation time: 00 hr 10 min 43 sec)
Heartbeat CPU 0 instructions: 82500481 cycles: 79594424 heartbeat IPC: 0.2624 cumulative IPC: 0.4881 (Simulation time: 00 hr 10 min 56 sec)
Heartbeat CPU 0 instructions: 83000481 cycles: 81073168 heartbeat IPC: 0.3381 cumulative IPC: 0.4848 (Simulation time: 00 hr 11 min 06 sec)
Heartbeat CPU 0 instructions: 83500485 cycles: 82130256 heartbeat IPC: 0.473 cumulative IPC: 0.4847 (Simulation time: 00 hr 11 min 13 sec)
Heartbeat CPU 0 instructions: 84000489 cycles: 83444213 heartbeat IPC: 0.3805 cumulative IPC: 0.4827 (Simulation time: 00 hr 11 min 21 sec)
Heartbeat CPU 0 instructions: 84500491 cycles: 84316417 heartbeat IPC: 0.5733 cumulative IPC: 0.4838 (Simulation time: 00 hr 11 min 27 sec)
Heartbeat CPU 0 instructions: 85000494 cycles: 84982794 heartbeat IPC: 0.7503 cumulative IPC: 0.4863 (Simulation time: 00 hr 11 min 32 sec)
Heartbeat CPU 0 instructions: 85500494 cycles: 85650414 heartbeat IPC: 0.7489 cumulative IPC: 0.4887 (Simulation time: 00 hr 11 min 37 sec)
Heartbeat CPU 0 instructions: 86000497 cycles: 86402795 heartbeat IPC: 0.6646 cumulative IPC: 0.4905 (Simulation time: 00 hr 11 min 42 sec)
Heartbeat CPU 0 instructions: 86500497 cycles: 88048985 heartbeat IPC: 0.3037 cumulative IPC: 0.4864 (Simulation time: 00 hr 11 min 52 sec)
Heartbeat CPU 0 instructions: 87000504 cycles: 88887361 heartbeat IPC: 0.5964 cumulative IPC: 0.4876 (Simulation time: 00 hr 11 min 58 sec)
Heartbeat CPU 0 instructions: 87500505 cycles: 89373909 heartbeat IPC: 1.028 cumulative IPC: 0.4911 (Simulation time: 00 hr 12 min 02 sec)
Heartbeat CPU 0 instructions: 88000510 cycles: 89964241 heartbeat IPC: 0.847 cumulative IPC: 0.4938 (Simulation time: 00 hr 12 min 07 sec)
Heartbeat CPU 0 instructions: 88500515 cycles: 90570259 heartbeat IPC: 0.8251 cumulative IPC: 0.4964 (Simulation time: 00 hr 12 min 11 sec)
Heartbeat CPU 0 instructions: 89000521 cycles: 91424331 heartbeat IPC: 0.5854 cumulative IPC: 0.4974 (Simulation time: 00 hr 12 min 17 sec)
Heartbeat CPU 0 instructions: 89500522 cycles: 92799259 heartbeat IPC: 0.3637 cumulative IPC: 0.4951 (Simulation time: 00 hr 12 min 26 sec)
Heartbeat CPU 0 instructions: 90000523 cycles: 93736680 heartbeat IPC: 0.5334 cumulative IPC: 0.4955 (Simulation time: 00 hr 12 min 33 sec)
Heartbeat CPU 0 instructions: 90500528 cycles: 94322736 heartbeat IPC: 0.8532 cumulative IPC: 0.4981 (Simulation time: 00 hr 12 min 37 sec)
Heartbeat CPU 0 instructions: 91000529 cycles: 94772798 heartbeat IPC: 1.111 cumulative IPC: 0.5015 (Simulation time: 00 hr 12 min 41 sec)
Heartbeat CPU 0 instructions: 91500530 cycles: 95194636 heartbeat IPC: 1.185 cumulative IPC: 0.505 (Simulation time: 00 hr 12 min 45 sec)
Heartbeat CPU 0 instructions: 92000531 cycles: 95906495 heartbeat IPC: 0.7024 cumulative IPC: 0.5067 (Simulation time: 00 hr 12 min 49 sec)
Heartbeat CPU 0 instructions: 92500532 cycles: 96227292 heartbeat IPC: 1.559 cumulative IPC: 0.5107 (Simulation time: 00 hr 12 min 52 sec)
Heartbeat CPU 0 instructions: 93000532 cycles: 96468835 heartbeat IPC: 2.07 cumulative IPC: 0.5152 (Simulation time: 00 hr 12 min 55 sec)
Heartbeat CPU 0 instructions: 93500533 cycles: 96866989 heartbeat IPC: 1.256 cumulative IPC: 0.5187 (Simulation time: 00 hr 12 min 58 sec)
Heartbeat CPU 0 instructions: 94000534 cycles: 97594888 heartbeat IPC: 0.6869 cumulative IPC: 0.5202 (Simulation time: 00 hr 13 min 04 sec)
Heartbeat CPU 0 instructions: 94500534 cycles: 100105094 heartbeat IPC: 0.1992 cumulative IPC: 0.5109 (Simulation time: 00 hr 13 min 19 sec)
Heartbeat CPU 0 instructions: 95000535 cycles: 101411175 heartbeat IPC: 0.3828 cumulative IPC: 0.509 (Simulation time: 00 hr 13 min 28 sec)
Heartbeat CPU 0 instructions: 95500541 cycles: 102986750 heartbeat IPC: 0.3173 cumulative IPC: 0.5057 (Simulation time: 00 hr 13 min 38 sec)
Heartbeat CPU 0 instructions: 96000542 cycles: 104650117 heartbeat IPC: 0.3006 cumulative IPC: 0.502 (Simulation time: 00 hr 13 min 49 sec)
Heartbeat CPU 0 instructions: 96500543 cycles: 106889476 heartbeat IPC: 0.2233 cumulative IPC: 0.4953 (Simulation time: 00 hr 14 min 02 sec)
Heartbeat CPU 0 instructions: 97000545 cycles: 108054920 heartbeat IPC: 0.429 cumulative IPC: 0.4945 (Simulation time: 00 hr 14 min 10 sec)
Heartbeat CPU 0 instructions: 97500546 cycles: 109494449 heartbeat IPC: 0.3473 cumulative IPC: 0.4923 (Simulation time: 00 hr 14 min 20 sec)
Heartbeat CPU 0 instructions: 98000550 cycles: 111107770 heartbeat IPC: 0.3099 cumulative IPC: 0.4893 (Simulation time: 00 hr 14 min 30 sec)
Heartbeat CPU 0 instructions: 98500550 cycles: 112490596 heartbeat IPC: 0.3616 cumulative IPC: 0.4875 (Simulation time: 00 hr 14 min 39 sec)
Heartbeat CPU 0 instructions: 99000553 cycles: 113357027 heartbeat IPC: 0.5771 cumulative IPC: 0.4883 (Simulation time: 00 hr 14 min 45 sec)
Heartbeat CPU 0 instructions: 99500557 cycles: 113949739 heartbeat IPC: 0.8436 cumulative IPC: 0.4904 (Simulation time: 00 hr 14 min 49 sec)
Heartbeat CPU 0 instructions: 100000557 cycles: 114739683 heartbeat IPC: 0.633 cumulative IPC: 0.4915 (Simulation time: 00 hr 14 min 55 sec)
Heartbeat CPU 0 instructions: 100500562 cycles: 115233626 heartbeat IPC: 1.012 cumulative IPC: 0.494 (Simulation time: 00 hr 14 min 59 sec)
Heartbeat CPU 0 instructions: 101000563 cycles: 116245632 heartbeat IPC: 0.4941 cumulative IPC: 0.494 (Simulation time: 00 hr 15 min 06 sec)
Heartbeat CPU 0 instructions: 101500563 cycles: 118665315 heartbeat IPC: 0.2066 cumulative IPC: 0.4874 (Simulation time: 00 hr 15 min 21 sec)
Heartbeat CPU 0 instructions: 102000566 cycles: 119886564 heartbeat IPC: 0.4094 cumulative IPC: 0.4865 (Simulation time: 00 hr 15 min 29 sec)
Heartbeat CPU 0 instructions: 102500566 cycles: 120773355 heartbeat IPC: 0.5638 cumulative IPC: 0.4872 (Simulation time: 00 hr 15 min 35 sec)
Heartbeat CPU 0 instructions: 103000568 cycles: 122217341 heartbeat IPC: 0.3463 cumulative IPC: 0.4853 (Simulation time: 00 hr 15 min 44 sec)
Heartbeat CPU 0 instructions: 103500570 cycles: 123297292 heartbeat IPC: 0.463 cumulative IPC: 0.4851 (Simulation time: 00 hr 15 min 51 sec)
Heartbeat CPU 0 instructions: 104000570 cycles: 124321931 heartbeat IPC: 0.488 cumulative IPC: 0.4851 (Simulation time: 00 hr 15 min 58 sec)
Heartbeat CPU 0 instructions: 104500575 cycles: 126852812 heartbeat IPC: 0.1976 cumulative IPC: 0.4787 (Simulation time: 00 hr 16 min 14 sec)
Heartbeat CPU 0 instructions: 105000577 cycles: 128261302 heartbeat IPC: 0.355 cumulative IPC: 0.4772 (Simulation time: 00 hr 16 min 23 sec)
Heartbeat CPU 0 instructions: 105500578 cycles: 129135870 heartbeat IPC: 0.5717 cumulative IPC: 0.4779 (Simulation time: 00 hr 16 min 29 sec)
Heartbeat CPU 0 instructions: 106000582 cycles: 129862025 heartbeat IPC: 0.6886 cumulative IPC: 0.4792 (Simulation time: 00 hr 16 min 34 sec)
Heartbeat CPU 0 instructions: 106500583 cycles: 130395381 heartbeat IPC: 0.9375 cumulative IPC: 0.4813 (Simulation time: 00 hr 16 min 39 sec)
Heartbeat CPU 0 instructions: 107000589 cycles: 131110375 heartbeat IPC: 0.6993 cumulative IPC: 0.4826 (Simulation time: 00 hr 16 min 44 sec)
Heartbeat CPU 0 instructions: 107500595 cycles: 131349498 heartbeat IPC: 2.091 cumulative IPC: 0.4859 (Simulation time: 00 hr 16 min 46 sec)
Heartbeat CPU 0 instructions: 108000599 cycles: 131568638 heartbeat IPC: 2.282 cumulative IPC: 0.4892 (Simulation time: 00 hr 16 min 48 sec)
Heartbeat CPU 0 instructions: 108500601 cycles: 131813269 heartbeat IPC: 2.044 cumulative IPC: 0.4924 (Simulation time: 00 hr 16 min 50 sec)
Heartbeat CPU 0 instructions: 109000605 cycles: 131975431 heartbeat IPC: 3.083 cumulative IPC: 0.4959 (Simulation time: 00 hr 16 min 52 sec)
Heartbeat CPU 0 instructions: 109500608 cycles: 132176826 heartbeat IPC: 2.483 cumulative IPC: 0.4993 (Simulation time: 00 hr 16 min 54 sec)
Heartbeat CPU 0 instructions: 110000608 cycles: 132342387 heartbeat IPC: 3.02 cumulative IPC: 0.5028 (Simulation time: 00 hr 16 min 56 sec)
Heartbeat CPU 0 instructions: 110500610 cycles: 132517061 heartbeat IPC: 2.862 cumulative IPC: 0.5062 (Simulation time: 00 hr 16 min 58 sec)
Heartbeat CPU 0 instructions: 111000613 cycles: 132661162 heartbeat IPC: 3.47 cumulative IPC: 0.5098 (Simulation time: 00 hr 17 min 00 sec)
Heartbeat CPU 0 instructions: 111500617 cycles: 132820477 heartbeat IPC: 3.138 cumulative IPC: 0.5133 (Simulation time: 00 hr 17 min 02 sec)
Heartbeat CPU 0 instructions: 112000617 cycles: 132965735 heartbeat IPC: 3.442 cumulative IPC: 0.5169 (Simulation time: 00 hr 17 min 04 sec)
Heartbeat CPU 0 instructions: 112500620 cycles: 133135747 heartbeat IPC: 2.941 cumulative IPC: 0.5203 (Simulation time: 00 hr 17 min 06 sec)
Heartbeat CPU 0 instructions: 113000624 cycles: 133281138 heartbeat IPC: 3.439 cumulative IPC: 0.5238 (Simulation time: 00 hr 17 min 07 sec)
Heartbeat CPU 0 instructions: 113500624 cycles: 133657503 heartbeat IPC: 1.328 cumulative IPC: 0.5263 (Simulation time: 00 hr 17 min 11 sec)
Heartbeat CPU 0 instructions: 114000626 cycles: 134967061 heartbeat IPC: 0.3818 cumulative IPC: 0.5248 (Simulation time: 00 hr 17 min 19 sec)
Heartbeat CPU 0 instructions: 114500628 cycles: 136475146 heartbeat IPC: 0.3315 cumulative IPC: 0.5224 (Simulation time: 00 hr 17 min 28 sec)
Heartbeat CPU 0 instructions: 115000629 cycles: 138061774 heartbeat IPC: 0.3151 cumulative IPC: 0.5198 (Simulation time: 00 hr 17 min 38 sec)
Heartbeat CPU 0 instructions: 115500632 cycles: 138478558 heartbeat IPC: 1.2 cumulative IPC: 0.522 (Simulation time: 00 hr 17 min 42 sec)
Heartbeat CPU 0 instructions: 116000636 cycles: 138886617 heartbeat IPC: 1.225 cumulative IPC: 0.5243 (Simulation time: 00 hr 17 min 45 sec)
Heartbeat CPU 0 instructions: 116500637 cycles: 139328960 heartbeat IPC: 1.13 cumulative IPC: 0.5264 (Simulation time: 00 hr 17 min 48 sec)
Heartbeat CPU 0 instructions: 117000639 cycles: 139604332 heartbeat IPC: 1.816 cumulative IPC: 0.5293 (Simulation time: 00 hr 17 min 51 sec)
Heartbeat CPU 0 instructions: 117500645 cycles: 140218423 heartbeat IPC: 0.8142 cumulative IPC: 0.5306 (Simulation time: 00 hr 17 min 56 sec)
Heartbeat CPU 0 instructions: 118000645 cycles: 140536422 heartbeat IPC: 1.572 cumulative IPC: 0.5332 (Simulation time: 00 hr 17 min 59 sec)
Heartbeat CPU 0 instructions: 118500645 cycles: 140859606 heartbeat IPC: 1.547 cumulative IPC: 0.5358 (Simulation time: 00 hr 18 min 02 sec)
Heartbeat CPU 0 instructions: 119000652 cycles: 141531676 heartbeat IPC: 0.744 cumulative IPC: 0.5369 (Simulation time: 00 hr 18 min 06 sec)
Heartbeat CPU 0 instructions: 119500653 cycles: 141901344 heartbeat IPC: 1.353 cumulative IPC: 0.5392 (Simulation time: 00 hr 18 min 10 sec)
Heartbeat CPU 0 instructions: 120000654 cycles: 142620328 heartbeat IPC: 0.6954 cumulative IPC: 0.5401 (Simulation time: 00 hr 18 min 16 sec)
Heartbeat CPU 0 instructions: 120500658 cycles: 143783133 heartbeat IPC: 0.43 cumulative IPC: 0.5391 (Simulation time: 00 hr 18 min 23 sec)
Heartbeat CPU 0 instructions: 121000664 cycles: 145699365 heartbeat IPC: 0.2609 cumulative IPC: 0.5351 (Simulation time: 00 hr 18 min 35 sec)
Heartbeat CPU 0 instructions: 121500666 cycles: 146073453 heartbeat IPC: 1.337 cumulative IPC: 0.5373 (Simulation time: 00 hr 18 min 38 sec)
Heartbeat CPU 0 instructions: 122000670 cycles: 146237015 heartbeat IPC: 3.057 cumulative IPC: 0.5404 (Simulation time: 00 hr 18 min 40 sec)
Heartbeat CPU 0 instructions: 122500677 cycles: 146421793 heartbeat IPC: 2.706 cumulative IPC: 0.5434 (Simulation time: 00 hr 18 min 42 sec)
Heartbeat CPU 0 instructions: 123000677 cycles: 146564354 heartbeat IPC: 3.507 cumulative IPC: 0.5466 (Simulation time: 00 hr 18 min 44 sec)
Heartbeat CPU 0 instructions: 123500680 cycles: 146728986 heartbeat IPC: 3.037 cumulative IPC: 0.5497 (Simulation time: 00 hr 18 min 46 sec)
Heartbeat CPU 0 instructions: 124000680 cycles: 146915726 heartbeat IPC: 2.678 cumulative IPC: 0.5526 (Simulation time: 00 hr 18 min 48 sec)
Heartbeat CPU 0 instructions: 124500687 cycles: 147060821 heartbeat IPC: 3.446 cumulative IPC: 0.5558 (Simulation time: 00 hr 18 min 49 sec)
Heartbeat CPU 0 instructions: 125000694 cycles: 147202287 heartbeat IPC: 3.534 cumulative IPC: 0.5589 (Simulation time: 00 hr 18 min 51 sec)
Heartbeat CPU 0 instructions: 125500700 cycles: 147343935 heartbeat IPC: 3.53 cumulative IPC: 0.562 (Simulation time: 00 hr 18 min 53 sec)
Heartbeat CPU 0 instructions: 126000700 cycles: 147495199 heartbeat IPC: 3.305 cumulative IPC: 0.5651 (Simulation time: 00 hr 18 min 55 sec)
Heartbeat CPU 0 instructions: 126500700 cycles: 147669283 heartbeat IPC: 2.872 cumulative IPC: 0.5681 (Simulation time: 00 hr 18 min 57 sec)
Heartbeat CPU 0 instructions: 127000704 cycles: 147859528 heartbeat IPC: 2.628 cumulative IPC: 0.571 (Simulation time: 00 hr 18 min 59 sec)
Heartbeat CPU 0 instructions: 127500708 cycles: 148011982 heartbeat IPC: 3.28 cumulative IPC: 0.5741 (Simulation time: 00 hr 19 min 00 sec)
Heartbeat CPU 0 instructions: 128000710 cycles: 148183013 heartbeat IPC: 2.923 cumulative IPC: 0.577 (Simulation time: 00 hr 19 min 02 sec)
Heartbeat CPU 0 instructions: 128500717 cycles: 148363707 heartbeat IPC: 2.767 cumulative IPC: 0.58 (Simulation time: 00 hr 19 min 04 sec)
Heartbeat CPU 0 instructions: 129000718 cycles: 148531578 heartbeat IPC: 2.978 cumulative IPC: 0.5829 (Simulation time: 00 hr 19 min 06 sec)
Heartbeat CPU 0 instructions: 129500723 cycles: 148694752 heartbeat IPC: 3.064 cumulative IPC: 0.5859 (Simulation time: 00 hr 19 min 08 sec)
Heartbeat CPU 0 instructions: 130000723 cycles: 148872816 heartbeat IPC: 2.808 cumulative IPC: 0.5888 (Simulation time: 00 hr 19 min 10 sec)
Heartbeat CPU 0 instructions: 130500723 cycles: 149025518 heartbeat IPC: 3.274 cumulative IPC: 0.5918 (Simulation time: 00 hr 19 min 12 sec)
Heartbeat CPU 0 instructions: 131000724 cycles: 149160779 heartbeat IPC: 3.697 cumulative IPC: 0.5949 (Simulation time: 00 hr 19 min 13 sec)
Heartbeat CPU 0 instructions: 131500724 cycles: 149328102 heartbeat IPC: 2.988 cumulative IPC: 0.5979 (Simulation time: 00 hr 19 min 15 sec)
Heartbeat CPU 0 instructions: 132000724 cycles: 149502089 heartbeat IPC: 2.874 cumulative IPC: 0.6008 (Simulation time: 00 hr 19 min 17 sec)
Heartbeat CPU 0 instructions: 132500725 cycles: 149663898 heartbeat IPC: 3.09 cumulative IPC: 0.6037 (Simulation time: 00 hr 19 min 19 sec)
Heartbeat CPU 0 instructions: 133000727 cycles: 149823745 heartbeat IPC: 3.128 cumulative IPC: 0.6067 (Simulation time: 00 hr 19 min 21 sec)
Heartbeat CPU 0 instructions: 133500731 cycles: 149984995 heartbeat IPC: 3.101 cumulative IPC: 0.6096 (Simulation time: 00 hr 19 min 23 sec)
Heartbeat CPU 0 instructions: 134000738 cycles: 150151889 heartbeat IPC: 2.996 cumulative IPC: 0.6125 (Simulation time: 00 hr 19 min 25 sec)
Heartbeat CPU 0 instructions: 134500738 cycles: 150312607 heartbeat IPC: 3.111 cumulative IPC: 0.6154 (Simulation time: 00 hr 19 min 27 sec)
Heartbeat CPU 0 instructions: 135000742 cycles: 150466987 heartbeat IPC: 3.239 cumulative IPC: 0.6184 (Simulation time: 00 hr 19 min 28 sec)
Heartbeat CPU 0 instructions: 135500744 cycles: 150629691 heartbeat IPC: 3.073 cumulative IPC: 0.6213 (Simulation time: 00 hr 19 min 30 sec)
Heartbeat CPU 0 instructions: 136000744 cycles: 150786456 heartbeat IPC: 3.189 cumulative IPC: 0.6242 (Simulation time: 00 hr 19 min 32 sec)
Heartbeat CPU 0 instructions: 136500745 cycles: 150950352 heartbeat IPC: 3.051 cumulative IPC: 0.6271 (Simulation time: 00 hr 19 min 34 sec)
Heartbeat CPU 0 instructions: 137000749 cycles: 151099178 heartbeat IPC: 3.36 cumulative IPC: 0.63 (Simulation time: 00 hr 19 min 36 sec)
Heartbeat CPU 0 instructions: 137500753 cycles: 151244694 heartbeat IPC: 3.436 cumulative IPC: 0.633 (Simulation time: 00 hr 19 min 38 sec)
Heartbeat CPU 0 instructions: 138000755 cycles: 151388482 heartbeat IPC: 3.477 cumulative IPC: 0.6359 (Simulation time: 00 hr 19 min 39 sec)
Heartbeat CPU 0 instructions: 138500761 cycles: 151539964 heartbeat IPC: 3.301 cumulative IPC: 0.6389 (Simulation time: 00 hr 19 min 41 sec)
Heartbeat CPU 0 instructions: 139000761 cycles: 151709987 heartbeat IPC: 2.941 cumulative IPC: 0.6417 (Simulation time: 00 hr 19 min 43 sec)
Heartbeat CPU 0 instructions: 139500763 cycles: 151890675 heartbeat IPC: 2.767 cumulative IPC: 0.6444 (Simulation time: 00 hr 19 min 45 sec)
Heartbeat CPU 0 instructions: 140000766 cycles: 152034780 heartbeat IPC: 3.47 cumulative IPC: 0.6474 (Simulation time: 00 hr 19 min 47 sec)
Heartbeat CPU 0 instructions: 140500768 cycles: 152174291 heartbeat IPC: 3.584 cumulative IPC: 0.6503 (Simulation time: 00 hr 19 min 48 sec)
Heartbeat CPU 0 instructions: 141000772 cycles: 152315986 heartbeat IPC: 3.529 cumulative IPC: 0.6532 (Simulation time: 00 hr 19 min 50 sec)
Heartbeat CPU 0 instructions: 141500774 cycles: 153230375 heartbeat IPC: 0.5468 cumulative IPC: 0.6525 (Simulation time: 00 hr 19 min 56 sec)
Heartbeat CPU 0 instructions: 142000776 cycles: 153944450 heartbeat IPC: 0.7002 cumulative IPC: 0.6528 (Simulation time: 00 hr 20 min 01 sec)
Heartbeat CPU 0 instructions: 142500778 cycles: 154471712 heartbeat IPC: 0.9483 cumulative IPC: 0.6539 (Simulation time: 00 hr 20 min 05 sec)
Heartbeat CPU 0 instructions: 143000781 cycles: 155947282 heartbeat IPC: 0.3389 cumulative IPC: 0.6506 (Simulation time: 00 hr 20 min 14 sec)
Heartbeat CPU 0 instructions: 143500781 cycles: 156991098 heartbeat IPC: 0.479 cumulative IPC: 0.6494 (Simulation time: 00 hr 20 min 22 sec)
Heartbeat CPU 0 instructions: 144000781 cycles: 157583556 heartbeat IPC: 0.8439 cumulative IPC: 0.6502 (Simulation time: 00 hr 20 min 26 sec)
Heartbeat CPU 0 instructions: 144500783 cycles: 158116027 heartbeat IPC: 0.939 cumulative IPC: 0.6513 (Simulation time: 00 hr 20 min 30 sec)
Heartbeat CPU 0 instructions: 145000784 cycles: 158749399 heartbeat IPC: 0.7894 cumulative IPC: 0.6519 (Simulation time: 00 hr 20 min 34 sec)
Heartbeat CPU 0 instructions: 145500784 cycles: 159159209 heartbeat IPC: 1.22 cumulative IPC: 0.6534 (Simulation time: 00 hr 20 min 37 sec)
Heartbeat CPU 0 instructions: 146000785 cycles: 159567209 heartbeat IPC: 1.225 cumulative IPC: 0.655 (Simulation time: 00 hr 20 min 41 sec)
Heartbeat CPU 0 instructions: 146500785 cycles: 159975358 heartbeat IPC: 1.225 cumulative IPC: 0.6566 (Simulation time: 00 hr 20 min 44 sec)
Heartbeat CPU 0 instructions: 147000786 cycles: 160371080 heartbeat IPC: 1.264 cumulative IPC: 0.6583 (Simulation time: 00 hr 20 min 47 sec)
Heartbeat CPU 0 instructions: 147500787 cycles: 160782627 heartbeat IPC: 1.215 cumulative IPC: 0.6598 (Simulation time: 00 hr 20 min 50 sec)
Heartbeat CPU 0 instructions: 148000789 cycles: 161146740 heartbeat IPC: 1.373 cumulative IPC: 0.6616 (Simulation time: 00 hr 20 min 53 sec)
Heartbeat CPU 0 instructions: 148500792 cycles: 161350630 heartbeat IPC: 2.452 cumulative IPC: 0.664 (Simulation time: 00 hr 20 min 56 sec)
Heartbeat CPU 0 instructions: 149000792 cycles: 161598414 heartbeat IPC: 2.018 cumulative IPC: 0.6663 (Simulation time: 00 hr 20 min 58 sec)
Heartbeat CPU 0 instructions: 149500793 cycles: 161881319 heartbeat IPC: 1.767 cumulative IPC: 0.6684 (Simulation time: 00 hr 21 min 01 sec)
Heartbeat CPU 0 instructions: 150000795 cycles: 162162268 heartbeat IPC: 1.78 cumulative IPC: 0.6705 (Simulation time: 00 hr 21 min 04 sec)
Heartbeat CPU 0 instructions: 150500796 cycles: 162736555 heartbeat IPC: 0.8706 cumulative IPC: 0.6712 (Simulation time: 00 hr 21 min 09 sec)
Heartbeat CPU 0 instructions: 151000796 cycles: 163091774 heartbeat IPC: 1.408 cumulative IPC: 0.673 (Simulation time: 00 hr 21 min 12 sec)
Heartbeat CPU 0 instructions: 151500796 cycles: 163421742 heartbeat IPC: 1.515 cumulative IPC: 0.6748 (Simulation time: 00 hr 21 min 14 sec)
Heartbeat CPU 0 instructions: 152000799 cycles: 163745018 heartbeat IPC: 1.547 cumulative IPC: 0.6767 (Simulation time: 00 hr 21 min 17 sec)
Heartbeat CPU 0 instructions: 152500799 cycles: 164043267 heartbeat IPC: 1.676 cumulative IPC: 0.6787 (Simulation time: 00 hr 21 min 20 sec)
Heartbeat CPU 0 instructions: 153000805 cycles: 164337168 heartbeat IPC: 1.701 cumulative IPC: 0.6806 (Simulation time: 00 hr 21 min 22 sec)
Heartbeat CPU 0 instructions: 153500811 cycles: 164633294 heartbeat IPC: 1.688 cumulative IPC: 0.6826 (Simulation time: 00 hr 21 min 25 sec)
Heartbeat CPU 0 instructions: 154000812 cycles: 164937126 heartbeat IPC: 1.646 cumulative IPC: 0.6845 (Simulation time: 00 hr 21 min 28 sec)
Heartbeat CPU 0 instructions: 154500816 cycles: 165564149 heartbeat IPC: 0.7974 cumulative IPC: 0.685 (Simulation time: 00 hr 21 min 32 sec)
Heartbeat CPU 0 instructions: 155000819 cycles: 165807538 heartbeat IPC: 2.054 cumulative IPC: 0.6872 (Simulation time: 00 hr 21 min 35 sec)
Heartbeat CPU 0 instructions: 155500823 cycles: 166083016 heartbeat IPC: 1.815 cumulative IPC: 0.6892 (Simulation time: 00 hr 21 min 38 sec)
Heartbeat CPU 0 instructions: 156000823 cycles: 166672757 heartbeat IPC: 0.8478 cumulative IPC: 0.6898 (Simulation time: 00 hr 21 min 43 sec)
Heartbeat CPU 0 instructions: 156500830 cycles: 167129027 heartbeat IPC: 1.096 cumulative IPC: 0.691 (Simulation time: 00 hr 21 min 47 sec)
Heartbeat CPU 0 instructions: 157000832 cycles: 168936081 heartbeat IPC: 0.2767 cumulative IPC: 0.6862 (Simulation time: 00 hr 21 min 58 sec)
Heartbeat CPU 0 instructions: 157500834 cycles: 170917065 heartbeat IPC: 0.2524 cumulative IPC: 0.6808 (Simulation time: 00 hr 22 min 10 sec)
Heartbeat CPU 0 instructions: 158000834 cycles: 172049755 heartbeat IPC: 0.4414 cumulative IPC: 0.6791 (Simulation time: 00 hr 22 min 18 sec)
Heartbeat CPU 0 instructions: 158500841 cycles: 172842136 heartbeat IPC: 0.631 cumulative IPC: 0.6788 (Simulation time: 00 hr 22 min 23 sec)
Heartbeat CPU 0 instructions: 159000843 cycles: 173529629 heartbeat IPC: 0.7273 cumulative IPC: 0.679 (Simulation time: 00 hr 22 min 28 sec)
Heartbeat CPU 0 instructions: 159500844 cycles: 174289754 heartbeat IPC: 0.6578 cumulative IPC: 0.6789 (Simulation time: 00 hr 22 min 33 sec)
Heartbeat CPU 0 instructions: 160000844 cycles: 175209452 heartbeat IPC: 0.5437 cumulative IPC: 0.6782 (Simulation time: 00 hr 22 min 39 sec)
Heartbeat CPU 0 instructions: 160500851 cycles: 176040059 heartbeat IPC: 0.602 cumulative IPC: 0.6778 (Simulation time: 00 hr 22 min 45 sec)
Heartbeat CPU 0 instructions: 161000853 cycles: 176624502 heartbeat IPC: 0.8555 cumulative IPC: 0.6784 (Simulation time: 00 hr 22 min 49 sec)
Heartbeat CPU 0 instructions: 161500854 cycles: 178240088 heartbeat IPC: 0.3095 cumulative IPC: 0.6748 (Simulation time: 00 hr 22 min 59 sec)
Heartbeat CPU 0 instructions: 162000855 cycles: 179152811 heartbeat IPC: 0.5478 cumulative IPC: 0.6741 (Simulation time: 00 hr 23 min 05 sec)
Heartbeat CPU 0 instructions: 162500856 cycles: 179902475 heartbeat IPC: 0.667 cumulative IPC: 0.6741 (Simulation time: 00 hr 23 min 10 sec)
Heartbeat CPU 0 instructions: 163000858 cycles: 180719109 heartbeat IPC: 0.6123 cumulative IPC: 0.6738 (Simulation time: 00 hr 23 min 16 sec)
Heartbeat CPU 0 instructions: 163500860 cycles: 181255381 heartbeat IPC: 0.9324 cumulative IPC: 0.6746 (Simulation time: 00 hr 23 min 20 sec)
Heartbeat CPU 0 instructions: 164000860 cycles: 182393992 heartbeat IPC: 0.4391 cumulative IPC: 0.673 (Simulation time: 00 hr 23 min 27 sec)
Heartbeat CPU 0 instructions: 164500861 cycles: 184868044 heartbeat IPC: 0.2021 cumulative IPC: 0.6663 (Simulation time: 00 hr 23 min 42 sec)
Heartbeat CPU 0 instructions: 165000861 cycles: 186306240 heartbeat IPC: 0.3477 cumulative IPC: 0.6636 (Simulation time: 00 hr 23 min 51 sec)
Heartbeat CPU 0 instructions: 165500865 cycles: 187060898 heartbeat IPC: 0.6626 cumulative IPC: 0.6636 (Simulation time: 00 hr 23 min 56 sec)
Heartbeat CPU 0 instructions: 166000868 cycles: 187718936 heartbeat IPC: 0.7598 cumulative IPC: 0.664 (Simulation time: 00 hr 24 min 01 sec)
Heartbeat CPU 0 instructions: 166500871 cycles: 189129032 heartbeat IPC: 0.3546 cumulative IPC: 0.6615 (Simulation time: 00 hr 24 min 10 sec)
Heartbeat CPU 0 instructions: 167000871 cycles: 190068634 heartbeat IPC: 0.5321 cumulative IPC: 0.6608 (Simulation time: 00 hr 24 min 16 sec)
Heartbeat CPU 0 instructions: 167500873 cycles: 190803498 heartbeat IPC: 0.6804 cumulative IPC: 0.6609 (Simulation time: 00 hr 24 min 21 sec)
Heartbeat CPU 0 instructions: 168000874 cycles: 191082333 heartbeat IPC: 1.793 cumulative IPC: 0.6627 (Simulation time: 00 hr 24 min 24 sec)
Heartbeat CPU 0 instructions: 168500874 cycles: 192224840 heartbeat IPC: 0.4376 cumulative IPC: 0.6612 (Simulation time: 00 hr 24 min 31 sec)
Heartbeat CPU 0 instructions: 169000879 cycles: 193649909 heartbeat IPC: 0.3509 cumulative IPC: 0.6588 (Simulation time: 00 hr 24 min 40 sec)
Heartbeat CPU 0 instructions: 169500884 cycles: 194637800 heartbeat IPC: 0.5061 cumulative IPC: 0.6579 (Simulation time: 00 hr 24 min 47 sec)
Heartbeat CPU 0 instructions: 170000888 cycles: 195475815 heartbeat IPC: 0.5967 cumulative IPC: 0.6577 (Simulation time: 00 hr 24 min 52 sec)
Heartbeat CPU 0 instructions: 170500895 cycles: 195881596 heartbeat IPC: 1.232 cumulative IPC: 0.6589 (Simulation time: 00 hr 24 min 55 sec)
Heartbeat CPU 0 instructions: 171000895 cycles: 196449120 heartbeat IPC: 0.881 cumulative IPC: 0.6596 (Simulation time: 00 hr 25 min 00 sec)
Heartbeat CPU 0 instructions: 171500895 cycles: 197563322 heartbeat IPC: 0.4488 cumulative IPC: 0.6583 (Simulation time: 00 hr 25 min 07 sec)
Heartbeat CPU 0 instructions: 172000896 cycles: 199318938 heartbeat IPC: 0.2848 cumulative IPC: 0.6548 (Simulation time: 00 hr 25 min 18 sec)
Heartbeat CPU 0 instructions: 172500896 cycles: 200364027 heartbeat IPC: 0.4784 cumulative IPC: 0.6538 (Simulation time: 00 hr 25 min 24 sec)
Heartbeat CPU 0 instructions: 173000903 cycles: 201663883 heartbeat IPC: 0.3847 cumulative IPC: 0.652 (Simulation time: 00 hr 25 min 32 sec)
Heartbeat CPU 0 instructions: 173500905 cycles: 203172888 heartbeat IPC: 0.3313 cumulative IPC: 0.6494 (Simulation time: 00 hr 25 min 41 sec)
Heartbeat CPU 0 instructions: 174000905 cycles: 204028010 heartbeat IPC: 0.5847 cumulative IPC: 0.6492 (Simulation time: 00 hr 25 min 47 sec)
Heartbeat CPU 0 instructions: 174500909 cycles: 204786853 heartbeat IPC: 0.6589 cumulative IPC: 0.6492 (Simulation time: 00 hr 25 min 52 sec)
Heartbeat CPU 0 instructions: 175000909 cycles: 205648426 heartbeat IPC: 0.5803 cumulative IPC: 0.6489 (Simulation time: 00 hr 25 min 58 sec)
Heartbeat CPU 0 instructions: 175500912 cycles: 207374767 heartbeat IPC: 0.2896 cumulative IPC: 0.6457 (Simulation time: 00 hr 26 min 09 sec)
Heartbeat CPU 0 instructions: 176000913 cycles: 208367876 heartbeat IPC: 0.5035 cumulative IPC: 0.645 (Simulation time: 00 hr 26 min 16 sec)
Heartbeat CPU 0 instructions: 176500918 cycles: 209303927 heartbeat IPC: 0.5342 cumulative IPC: 0.6444 (Simulation time: 00 hr 26 min 22 sec)
Heartbeat CPU 0 instructions: 177000920 cycles: 210336096 heartbeat IPC: 0.4844 cumulative IPC: 0.6436 (Simulation time: 00 hr 26 min 28 sec)
Heartbeat CPU 0 instructions: 177500921 cycles: 211859178 heartbeat IPC: 0.3283 cumulative IPC: 0.6412 (Simulation time: 00 hr 26 min 38 sec)
Heartbeat CPU 0 instructions: 178000928 cycles: 213487967 heartbeat IPC: 0.307 cumulative IPC: 0.6385 (Simulation time: 00 hr 26 min 48 sec)
Heartbeat CPU 0 instructions: 178500928 cycles: 215256361 heartbeat IPC: 0.2827 cumulative IPC: 0.6354 (Simulation time: 00 hr 26 min 59 sec)
Heartbeat CPU 0 instructions: 179000930 cycles: 215963252 heartbeat IPC: 0.7073 cumulative IPC: 0.6356 (Simulation time: 00 hr 27 min 04 sec)
Heartbeat CPU 0 instructions: 179500932 cycles: 216637588 heartbeat IPC: 0.7415 cumulative IPC: 0.636 (Simulation time: 00 hr 27 min 09 sec)
Heartbeat CPU 0 instructions: 180000933 cycles: 218317299 heartbeat IPC: 0.2977 cumulative IPC: 0.6332 (Simulation time: 00 hr 27 min 19 sec)
Heartbeat CPU 0 instructions: 180500935 cycles: 218953521 heartbeat IPC: 0.7859 cumulative IPC: 0.6337 (Simulation time: 00 hr 27 min 24 sec)
Heartbeat CPU 0 instructions: 181000936 cycles: 219572639 heartbeat IPC: 0.8076 cumulative IPC: 0.6342 (Simulation time: 00 hr 27 min 29 sec)
Heartbeat CPU 0 instructions: 181500936 cycles: 220524175 heartbeat IPC: 0.5255 cumulative IPC: 0.6337 (Simulation time: 00 hr 27 min 35 sec)
Heartbeat CPU 0 instructions: 182000943 cycles: 222766936 heartbeat IPC: 0.2229 cumulative IPC: 0.6293 (Simulation time: 00 hr 27 min 48 sec)
Heartbeat CPU 0 instructions: 182500945 cycles: 224450835 heartbeat IPC: 0.2969 cumulative IPC: 0.6267 (Simulation time: 00 hr 27 min 58 sec)
Heartbeat CPU 0 instructions: 183000945 cycles: 225449379 heartbeat IPC: 0.5007 cumulative IPC: 0.6261 (Simulation time: 00 hr 28 min 04 sec)
Heartbeat CPU 0 instructions: 183500950 cycles: 226468553 heartbeat IPC: 0.4906 cumulative IPC: 0.6254 (Simulation time: 00 hr 28 min 11 sec)
Heartbeat CPU 0 instructions: 184000954 cycles: 228011852 heartbeat IPC: 0.324 cumulative IPC: 0.6233 (Simulation time: 00 hr 28 min 20 sec)
Heartbeat CPU 0 instructions: 184500954 cycles: 228481044 heartbeat IPC: 1.066 cumulative IPC: 0.6242 (Simulation time: 00 hr 28 min 24 sec)
Heartbeat CPU 0 instructions: 185000956 cycles: 229206488 heartbeat IPC: 0.6892 cumulative IPC: 0.6244 (Simulation time: 00 hr 28 min 28 sec)
Heartbeat CPU 0 instructions: 185500956 cycles: 230524367 heartbeat IPC: 0.3794 cumulative IPC: 0.623 (Simulation time: 00 hr 28 min 36 sec)
Heartbeat CPU 0 instructions: 186000956 cycles: 231729174 heartbeat IPC: 0.415 cumulative IPC: 0.6218 (Simulation time: 00 hr 28 min 43 sec)
Heartbeat CPU 0 instructions: 186500958 cycles: 232799913 heartbeat IPC: 0.467 cumulative IPC: 0.6211 (Simulation time: 00 hr 28 min 50 sec)
Heartbeat CPU 0 instructions: 187000961 cycles: 233647885 heartbeat IPC: 0.5896 cumulative IPC: 0.6209 (Simulation time: 00 hr 28 min 55 sec)
Heartbeat CPU 0 instructions: 187500961 cycles: 235521807 heartbeat IPC: 0.2668 cumulative IPC: 0.6179 (Simulation time: 00 hr 29 min 06 sec)
Heartbeat CPU 0 instructions: 188000964 cycles: 237536937 heartbeat IPC: 0.2481 cumulative IPC: 0.6146 (Simulation time: 00 hr 29 min 17 sec)
Heartbeat CPU 0 instructions: 188500970 cycles: 238774099 heartbeat IPC: 0.4042 cumulative IPC: 0.6135 (Simulation time: 00 hr 29 min 24 sec)
Heartbeat CPU 0 instructions: 189000976 cycles: 240024014 heartbeat IPC: 0.4 cumulative IPC: 0.6123 (Simulation time: 00 hr 29 min 32 sec)
Heartbeat CPU 0 instructions: 189500981 cycles: 241042003 heartbeat IPC: 0.4912 cumulative IPC: 0.6118 (Simulation time: 00 hr 29 min 38 sec)
Heartbeat CPU 0 instructions: 190000982 cycles: 242910132 heartbeat IPC: 0.2676 cumulative IPC: 0.609 (Simulation time: 00 hr 29 min 48 sec)
Heartbeat CPU 0 instructions: 190500983 cycles: 244509439 heartbeat IPC: 0.3126 cumulative IPC: 0.6069 (Simulation time: 00 hr 29 min 57 sec)
Heartbeat CPU 0 instructions: 191000984 cycles: 245664389 heartbeat IPC: 0.4329 cumulative IPC: 0.6061 (Simulation time: 00 hr 30 min 04 sec)
Heartbeat CPU 0 instructions: 191500991 cycles: 246858173 heartbeat IPC: 0.4188 cumulative IPC: 0.6051 (Simulation time: 00 hr 30 min 10 sec)
Heartbeat CPU 0 instructions: 192000995 cycles: 247730185 heartbeat IPC: 0.5734 cumulative IPC: 0.605 (Simulation time: 00 hr 30 min 16 sec)
Heartbeat CPU 0 instructions: 192500996 cycles: 248723072 heartbeat IPC: 0.5036 cumulative IPC: 0.6046 (Simulation time: 00 hr 30 min 22 sec)
Heartbeat CPU 0 instructions: 193000996 cycles: 251264392 heartbeat IPC: 0.1967 cumulative IPC: 0.6002 (Simulation time: 00 hr 30 min 35 sec)
Heartbeat CPU 0 instructions: 193501002 cycles: 252993705 heartbeat IPC: 0.2891 cumulative IPC: 0.598 (Simulation time: 00 hr 30 min 44 sec)
Heartbeat CPU 0 instructions: 194001003 cycles: 254624053 heartbeat IPC: 0.3067 cumulative IPC: 0.596 (Simulation time: 00 hr 30 min 53 sec)
Heartbeat CPU 0 instructions: 194501005 cycles: 255707655 heartbeat IPC: 0.4614 cumulative IPC: 0.5954 (Simulation time: 00 hr 31 min 00 sec)
Heartbeat CPU 0 instructions: 195001005 cycles: 256780601 heartbeat IPC: 0.466 cumulative IPC: 0.5948 (Simulation time: 00 hr 31 min 06 sec)
Heartbeat CPU 0 instructions: 195501006 cycles: 257559276 heartbeat IPC: 0.6421 cumulative IPC: 0.595 (Simulation time: 00 hr 31 min 11 sec)
Heartbeat CPU 0 instructions: 196001007 cycles: 258244738 heartbeat IPC: 0.7294 cumulative IPC: 0.5954 (Simulation time: 00 hr 31 min 15 sec)
Heartbeat CPU 0 instructions: 196501008 cycles: 260755364 heartbeat IPC: 0.1992 cumulative IPC: 0.5913 (Simulation time: 00 hr 31 min 29 sec)
Heartbeat CPU 0 instructions: 197001013 cycles: 262462191 heartbeat IPC: 0.2929 cumulative IPC: 0.5893 (Simulation time: 00 hr 31 min 38 sec)
Heartbeat CPU 0 instructions: 197501016 cycles: 263524897 heartbeat IPC: 0.4705 cumulative IPC: 0.5888 (Simulation time: 00 hr 31 min 44 sec)
Heartbeat CPU 0 instructions: 198001019 cycles: 265998406 heartbeat IPC: 0.2021 cumulative IPC: 0.585 (Simulation time: 00 hr 31 min 58 sec)
Heartbeat CPU 0 instructions: 198501020 cycles: 266931331 heartbeat IPC: 0.5359 cumulative IPC: 0.5848 (Simulation time: 00 hr 32 min 04 sec)
Heartbeat CPU 0 instructions: 199001023 cycles: 267590389 heartbeat IPC: 0.7587 cumulative IPC: 0.5853 (Simulation time: 00 hr 32 min 08 sec)
Heartbeat CPU 0 instructions: 199501025 cycles: 268283282 heartbeat IPC: 0.7216 cumulative IPC: 0.5856 (Simulation time: 00 hr 32 min 13 sec)
Heartbeat CPU 0 instructions: 200001026 cycles: 270589487 heartbeat IPC: 0.2168 cumulative IPC: 0.5823 (Simulation time: 00 hr 32 min 25 sec)
Heartbeat CPU 0 instructions: 200501030 cycles: 272709706 heartbeat IPC: 0.2358 cumulative IPC: 0.5795 (Simulation time: 00 hr 32 min 37 sec)
Heartbeat CPU 0 instructions: 201001030 cycles: 273517202 heartbeat IPC: 0.6192 cumulative IPC: 0.5796 (Simulation time: 00 hr 32 min 42 sec)
Heartbeat CPU 0 instructions: 201501030 cycles: 274664995 heartbeat IPC: 0.4356 cumulative IPC: 0.579 (Simulation time: 00 hr 32 min 49 sec)
Heartbeat CPU 0 instructions: 202001033 cycles: 276123089 heartbeat IPC: 0.3429 cumulative IPC: 0.5777 (Simulation time: 00 hr 32 min 57 sec)
Heartbeat CPU 0 instructions: 202501034 cycles: 276877017 heartbeat IPC: 0.6632 cumulative IPC: 0.5779 (Simulation time: 00 hr 33 min 02 sec)
Heartbeat CPU 0 instructions: 203001036 cycles: 278302627 heartbeat IPC: 0.3507 cumulative IPC: 0.5767 (Simulation time: 00 hr 33 min 11 sec)
Heartbeat CPU 0 instructions: 203501040 cycles: 279053986 heartbeat IPC: 0.6655 cumulative IPC: 0.577 (Simulation time: 00 hr 33 min 15 sec)
Heartbeat CPU 0 instructions: 204001045 cycles: 279657046 heartbeat IPC: 0.8291 cumulative IPC: 0.5775 (Simulation time: 00 hr 33 min 20 sec)
Heartbeat CPU 0 instructions: 204501045 cycles: 280942273 heartbeat IPC: 0.389 cumulative IPC: 0.5766 (Simulation time: 00 hr 33 min 27 sec)
Heartbeat CPU 0 instructions: 205001048 cycles: 283201416 heartbeat IPC: 0.2213 cumulative IPC: 0.5737 (Simulation time: 00 hr 33 min 40 sec)
Heartbeat CPU 0 instructions: 205501053 cycles: 284374699 heartbeat IPC: 0.4262 cumulative IPC: 0.573 (Simulation time: 00 hr 33 min 47 sec)
Heartbeat CPU 0 instructions: 206001054 cycles: 285388688 heartbeat IPC: 0.4931 cumulative IPC: 0.5727 (Simulation time: 00 hr 33 min 52 sec)
Heartbeat CPU 0 instructions: 206501056 cycles: 286830644 heartbeat IPC: 0.3468 cumulative IPC: 0.5715 (Simulation time: 00 hr 34 min 01 sec)
Heartbeat CPU 0 instructions: 207001057 cycles: 287499994 heartbeat IPC: 0.747 cumulative IPC: 0.572 (Simulation time: 00 hr 34 min 05 sec)
Heartbeat CPU 0 instructions: 207501059 cycles: 288652120 heartbeat IPC: 0.434 cumulative IPC: 0.5714 (Simulation time: 00 hr 34 min 12 sec)
Heartbeat CPU 0 instructions: 208001059 cycles: 291160864 heartbeat IPC: 0.1993 cumulative IPC: 0.568 (Simulation time: 00 hr 34 min 25 sec)
Heartbeat CPU 0 instructions: 208501060 cycles: 292289366 heartbeat IPC: 0.4431 cumulative IPC: 0.5675 (Simulation time: 00 hr 34 min 32 sec)
Heartbeat CPU 0 instructions: 209001065 cycles: 292828540 heartbeat IPC: 0.9274 cumulative IPC: 0.5682 (Simulation time: 00 hr 34 min 35 sec)
Heartbeat CPU 0 instructions: 209501065 cycles: 293720795 heartbeat IPC: 0.5604 cumulative IPC: 0.5682 (Simulation time: 00 hr 34 min 40 sec)
Heartbeat CPU 0 instructions: 210001069 cycles: 294521853 heartbeat IPC: 0.6242 cumulative IPC: 0.5684 (Simulation time: 00 hr 34 min 46 sec)
Heartbeat CPU 0 instructions: 210501070 cycles: 296542805 heartbeat IPC: 0.2474 cumulative IPC: 0.5661 (Simulation time: 00 hr 34 min 56 sec)
Heartbeat CPU 0 instructions: 211001070 cycles: 298286160 heartbeat IPC: 0.2868 cumulative IPC: 0.5644 (Simulation time: 00 hr 35 min 06 sec)
Heartbeat CPU 0 instructions: 211501072 cycles: 299316628 heartbeat IPC: 0.4852 cumulative IPC: 0.5641 (Simulation time: 00 hr 35 min 12 sec)
Heartbeat CPU 0 instructions: 212001073 cycles: 300562755 heartbeat IPC: 0.4012 cumulative IPC: 0.5634 (Simulation time: 00 hr 35 min 20 sec)
Heartbeat CPU 0 instructions: 212501078 cycles: 302069707 heartbeat IPC: 0.3318 cumulative IPC: 0.5622 (Simulation time: 00 hr 35 min 28 sec)
Heartbeat CPU 0 instructions: 213001084 cycles: 303928731 heartbeat IPC: 0.269 cumulative IPC: 0.5603 (Simulation time: 00 hr 35 min 38 sec)
Heartbeat CPU 0 instructions: 213501088 cycles: 305625147 heartbeat IPC: 0.2947 cumulative IPC: 0.5588 (Simulation time: 00 hr 35 min 47 sec)
Heartbeat CPU 0 instructions: 214001088 cycles: 306531102 heartbeat IPC: 0.5519 cumulative IPC: 0.5587 (Simulation time: 00 hr 35 min 53 sec)
Heartbeat CPU 0 instructions: 214501089 cycles: 307846886 heartbeat IPC: 0.38 cumulative IPC: 0.5579 (Simulation time: 00 hr 36 min 00 sec)
Heartbeat CPU 0 instructions: 215001094 cycles: 308672602 heartbeat IPC: 0.6055 cumulative IPC: 0.5581 (Simulation time: 00 hr 36 min 05 sec)
Heartbeat CPU 0 instructions: 215501095 cycles: 309487927 heartbeat IPC: 0.6133 cumulative IPC: 0.5582 (Simulation time: 00 hr 36 min 10 sec)
Heartbeat CPU 0 instructions: 216001102 cycles: 310299987 heartbeat IPC: 0.6157 cumulative IPC: 0.5584 (Simulation time: 00 hr 36 min 15 sec)
Heartbeat CPU 0 instructions: 216501104 cycles: 312023868 heartbeat IPC: 0.29 cumulative IPC: 0.5568 (Simulation time: 00 hr 36 min 25 sec)
Heartbeat CPU 0 instructions: 217001105 cycles: 312875452 heartbeat IPC: 0.5871 cumulative IPC: 0.5569 (Simulation time: 00 hr 36 min 30 sec)
Heartbeat CPU 0 instructions: 217501106 cycles: 313580165 heartbeat IPC: 0.7095 cumulative IPC: 0.5573 (Simulation time: 00 hr 36 min 34 sec)
Heartbeat CPU 0 instructions: 218001106 cycles: 314881665 heartbeat IPC: 0.3842 cumulative IPC: 0.5565 (Simulation time: 00 hr 36 min 42 sec)
Heartbeat CPU 0 instructions: 218501107 cycles: 315893844 heartbeat IPC: 0.494 cumulative IPC: 0.5563 (Simulation time: 00 hr 36 min 48 sec)
Heartbeat CPU 0 instructions: 219001109 cycles: 316750566 heartbeat IPC: 0.5836 cumulative IPC: 0.5564 (Simulation time: 00 hr 36 min 53 sec)
Heartbeat CPU 0 instructions: 219501109 cycles: 318110562 heartbeat IPC: 0.3676 cumulative IPC: 0.5556 (Simulation time: 00 hr 37 min 01 sec)
Heartbeat CPU 0 instructions: 220001114 cycles: 319098382 heartbeat IPC: 0.5062 cumulative IPC: 0.5554 (Simulation time: 00 hr 37 min 07 sec)
Heartbeat CPU 0 instructions: 220501121 cycles: 319910021 heartbeat IPC: 0.616 cumulative IPC: 0.5556 (Simulation time: 00 hr 37 min 12 sec)
Heartbeat CPU 0 instructions: 221001121 cycles: 321075733 heartbeat IPC: 0.4289 cumulative IPC: 0.5551 (Simulation time: 00 hr 37 min 19 sec)
Heartbeat CPU 0 instructions: 221501121 cycles: 322020910 heartbeat IPC: 0.529 cumulative IPC: 0.555 (Simulation time: 00 hr 37 min 25 sec)
Heartbeat CPU 0 instructions: 222001122 cycles: 322887411 heartbeat IPC: 0.577 cumulative IPC: 0.5551 (Simulation time: 00 hr 37 min 30 sec)
Heartbeat CPU 0 instructions: 222501124 cycles: 325118552 heartbeat IPC: 0.2241 cumulative IPC: 0.5527 (Simulation time: 00 hr 37 min 42 sec)
Heartbeat CPU 0 instructions: 223001124 cycles: 326139998 heartbeat IPC: 0.4895 cumulative IPC: 0.5525 (Simulation time: 00 hr 37 min 48 sec)
Heartbeat CPU 0 instructions: 223501126 cycles: 326749665 heartbeat IPC: 0.8201 cumulative IPC: 0.553 (Simulation time: 00 hr 37 min 52 sec)
Heartbeat CPU 0 instructions: 224001127 cycles: 327353703 heartbeat IPC: 0.8278 cumulative IPC: 0.5535 (Simulation time: 00 hr 37 min 56 sec)
Heartbeat CPU 0 instructions: 224501127 cycles: 327798478 heartbeat IPC: 1.124 cumulative IPC: 0.5543 (Simulation time: 00 hr 38 min 00 sec)
Heartbeat CPU 0 instructions: 225001129 cycles: 328663672 heartbeat IPC: 0.5779 cumulative IPC: 0.5544 (Simulation time: 00 hr 38 min 05 sec)
Heartbeat CPU 0 instructions: 225501130 cycles: 330079603 heartbeat IPC: 0.3531 cumulative IPC: 0.5535 (Simulation time: 00 hr 38 min 13 sec)
Heartbeat CPU 0 instructions: 226001130 cycles: 330976271 heartbeat IPC: 0.5576 cumulative IPC: 0.5535 (Simulation time: 00 hr 38 min 18 sec)
Heartbeat CPU 0 instructions: 226501130 cycles: 332488221 heartbeat IPC: 0.3307 cumulative IPC: 0.5525 (Simulation time: 00 hr 38 min 26 sec)
Heartbeat CPU 0 instructions: 227001131 cycles: 334552196 heartbeat IPC: 0.2423 cumulative IPC: 0.5505 (Simulation time: 00 hr 38 min 38 sec)
Heartbeat CPU 0 instructions: 227501131 cycles: 335528113 heartbeat IPC: 0.5123 cumulative IPC: 0.5504 (Simulation time: 00 hr 38 min 44 sec)
Heartbeat CPU 0 instructions: 228001137 cycles: 336013689 heartbeat IPC: 1.03 cumulative IPC: 0.5511 (Simulation time: 00 hr 38 min 47 sec)
Heartbeat CPU 0 instructions: 228501143 cycles: 337526437 heartbeat IPC: 0.3305 cumulative IPC: 0.5501 (Simulation time: 00 hr 38 min 55 sec)
Heartbeat CPU 0 instructions: 229001145 cycles: 338836452 heartbeat IPC: 0.3817 cumulative IPC: 0.5494 (Simulation time: 00 hr 39 min 03 sec)
Heartbeat CPU 0 instructions: 229501147 cycles: 339712906 heartbeat IPC: 0.5705 cumulative IPC: 0.5494 (Simulation time: 00 hr 39 min 08 sec)
Heartbeat CPU 0 instructions: 230001153 cycles: 340206575 heartbeat IPC: 1.013 cumulative IPC: 0.5501 (Simulation time: 00 hr 39 min 12 sec)
Heartbeat CPU 0 instructions: 230501158 cycles: 340885413 heartbeat IPC: 0.7366 cumulative IPC: 0.5505 (Simulation time: 00 hr 39 min 16 sec)
Heartbeat CPU 0 instructions: 231001163 cycles: 341280383 heartbeat IPC: 1.266 cumulative IPC: 0.5514 (Simulation time: 00 hr 39 min 19 sec)
Heartbeat CPU 0 instructions: 231501163 cycles: 341588874 heartbeat IPC: 1.621 cumulative IPC: 0.5524 (Simulation time: 00 hr 39 min 21 sec)
Heartbeat CPU 0 instructions: 232001169 cycles: 342198853 heartbeat IPC: 0.8197 cumulative IPC: 0.5529 (Simulation time: 00 hr 39 min 25 sec)
Heartbeat CPU 0 instructions: 232501169 cycles: 344590059 heartbeat IPC: 0.2091 cumulative IPC: 0.5504 (Simulation time: 00 hr 39 min 38 sec)
Heartbeat CPU 0 instructions: 233001174 cycles: 346009615 heartbeat IPC: 0.3522 cumulative IPC: 0.5496 (Simulation time: 00 hr 39 min 46 sec)
Heartbeat CPU 0 instructions: 233501176 cycles: 347025935 heartbeat IPC: 0.492 cumulative IPC: 0.5494 (Simulation time: 00 hr 39 min 53 sec)
Heartbeat CPU 0 instructions: 234001176 cycles: 348494991 heartbeat IPC: 0.3404 cumulative IPC: 0.5485 (Simulation time: 00 hr 40 min 01 sec)
Heartbeat CPU 0 instructions: 234501176 cycles: 349492351 heartbeat IPC: 0.5013 cumulative IPC: 0.5483 (Simulation time: 00 hr 40 min 07 sec)
Heartbeat CPU 0 instructions: 235001176 cycles: 350525189 heartbeat IPC: 0.4841 cumulative IPC: 0.5481 (Simulation time: 00 hr 40 min 13 sec)
Heartbeat CPU 0 instructions: 235501183 cycles: 351187920 heartbeat IPC: 0.7545 cumulative IPC: 0.5485 (Simulation time: 00 hr 40 min 17 sec)
Heartbeat CPU 0 instructions: 236001183 cycles: 352775786 heartbeat IPC: 0.3149 cumulative IPC: 0.5474 (Simulation time: 00 hr 40 min 26 sec)
Heartbeat CPU 0 instructions: 236501184 cycles: 353928977 heartbeat IPC: 0.4336 cumulative IPC: 0.5471 (Simulation time: 00 hr 40 min 33 sec)
Heartbeat CPU 0 instructions: 237001190 cycles: 354566098 heartbeat IPC: 0.7848 cumulative IPC: 0.5475 (Simulation time: 00 hr 40 min 37 sec)
Heartbeat CPU 0 instructions: 237501190 cycles: 354969382 heartbeat IPC: 1.24 cumulative IPC: 0.5483 (Simulation time: 00 hr 40 min 40 sec)
Heartbeat CPU 0 instructions: 238001190 cycles: 355354107 heartbeat IPC: 1.3 cumulative IPC: 0.5492 (Simulation time: 00 hr 40 min 43 sec)
Heartbeat CPU 0 instructions: 238501197 cycles: 356038540 heartbeat IPC: 0.7305 cumulative IPC: 0.5495 (Simulation time: 00 hr 40 min 47 sec)
Heartbeat CPU 0 instructions: 239001201 cycles: 356322186 heartbeat IPC: 1.763 cumulative IPC: 0.5505 (Simulation time: 00 hr 40 min 50 sec)
Heartbeat CPU 0 instructions: 239501201 cycles: 356509703 heartbeat IPC: 2.666 cumulative IPC: 0.5517 (Simulation time: 00 hr 40 min 51 sec)
Heartbeat CPU 0 instructions: 240001206 cycles: 356728567 heartbeat IPC: 2.285 cumulative IPC: 0.5528 (Simulation time: 00 hr 40 min 53 sec)
Heartbeat CPU 0 instructions: 240501206 cycles: 356903158 heartbeat IPC: 2.864 cumulative IPC: 0.554 (Simulation time: 00 hr 40 min 55 sec)
Heartbeat CPU 0 instructions: 241001210 cycles: 357097998 heartbeat IPC: 2.566 cumulative IPC: 0.5551 (Simulation time: 00 hr 40 min 57 sec)
Heartbeat CPU 0 instructions: 241501215 cycles: 357255392 heartbeat IPC: 3.177 cumulative IPC: 0.5563 (Simulation time: 00 hr 40 min 59 sec)
Heartbeat CPU 0 instructions: 242001217 cycles: 357419937 heartbeat IPC: 3.039 cumulative IPC: 0.5575 (Simulation time: 00 hr 41 min 00 sec)
Heartbeat CPU 0 instructions: 242501222 cycles: 357589603 heartbeat IPC: 2.947 cumulative IPC: 0.5587 (Simulation time: 00 hr 41 min 02 sec)
Heartbeat CPU 0 instructions: 243001224 cycles: 357785542 heartbeat IPC: 2.552 cumulative IPC: 0.5598 (Simulation time: 00 hr 41 min 04 sec)
Heartbeat CPU 0 instructions: 243501227 cycles: 357958225 heartbeat IPC: 2.895 cumulative IPC: 0.561 (Simulation time: 00 hr 41 min 06 sec)
Heartbeat CPU 0 instructions: 244001233 cycles: 358140338 heartbeat IPC: 2.746 cumulative IPC: 0.5621 (Simulation time: 00 hr 41 min 07 sec)
Heartbeat CPU 0 instructions: 244501234 cycles: 358290839 heartbeat IPC: 3.322 cumulative IPC: 0.5633 (Simulation time: 00 hr 41 min 09 sec)
Heartbeat CPU 0 instructions: 245001236 cycles: 358442671 heartbeat IPC: 3.293 cumulative IPC: 0.5645 (Simulation time: 00 hr 41 min 10 sec)
Heartbeat CPU 0 instructions: 245501239 cycles: 358611177 heartbeat IPC: 2.967 cumulative IPC: 0.5657 (Simulation time: 00 hr 41 min 12 sec)
Heartbeat CPU 0 instructions: 246001240 cycles: 358797477 heartbeat IPC: 2.684 cumulative IPC: 0.5668 (Simulation time: 00 hr 41 min 14 sec)
Heartbeat CPU 0 instructions: 246501242 cycles: 358963528 heartbeat IPC: 3.011 cumulative IPC: 0.568 (Simulation time: 00 hr 41 min 16 sec)
Heartbeat CPU 0 instructions: 247001243 cycles: 359156856 heartbeat IPC: 2.586 cumulative IPC: 0.5691 (Simulation time: 00 hr 41 min 17 sec)
Heartbeat CPU 0 instructions: 247501243 cycles: 359299008 heartbeat IPC: 3.517 cumulative IPC: 0.5703 (Simulation time: 00 hr 41 min 19 sec)
Heartbeat CPU 0 instructions: 248001244 cycles: 359491660 heartbeat IPC: 2.595 cumulative IPC: 0.5715 (Simulation time: 00 hr 41 min 21 sec)
Heartbeat CPU 0 instructions: 248501244 cycles: 359648043 heartbeat IPC: 3.197 cumulative IPC: 0.5726 (Simulation time: 00 hr 41 min 22 sec)
Heartbeat CPU 0 instructions: 249001244 cycles: 359799661 heartbeat IPC: 3.298 cumulative IPC: 0.5738 (Simulation time: 00 hr 41 min 24 sec)
Heartbeat CPU 0 instructions: 249501248 cycles: 359950010 heartbeat IPC: 3.326 cumulative IPC: 0.575 (Simulation time: 00 hr 41 min 26 sec)
Simulation finished CPU 0 instructions: 200000001 cycles: 347121451 cumulative IPC: 0.5762 (Simulation time: 00 hr 41 min 27 sec)
Simulation complete CPU 0 instructions: 200000001 cycles: 347121451 cumulative IPC: 0.5762 (Simulation time: 00 hr 41 min 27 sec)

ChampSim completed all CPUs

=== Simulation ===
CPU 0 runs /local-ssd/ben/dpc4-traces/gtraces_v2/yankee_0002.champsim.gz

Region of Interest Statistics

CPU 0 cumulative IPC: 0.5762 instructions: 200000001 cycles: 347121451
CPU 0 Branch Prediction Accuracy: 90.22% MPKI: 17.79 Average ROB Occupancy at Mispredict: 24.28
Branch type MPKI
BRANCH_DIRECT_JUMP: 0.8106
BRANCH_INDIRECT: 0.3993
BRANCH_CONDITIONAL: 14.36
BRANCH_DIRECT_CALL: 1.18
BRANCH_INDIRECT_CALL: 0.3731
BRANCH_RETURN: 0.6668

cpu0->cpu0_STLB TOTAL        ACCESS:    2217162 HIT:    1674335 MISS:     542827 MSHR_MERGE:          0
cpu0->cpu0_STLB LOAD         ACCESS:    2217162 HIT:    1674335 MISS:     542827 MSHR_MERGE:          0
cpu0->cpu0_STLB RFO          ACCESS:          0 HIT:          0 MISS:          0 MSHR_MERGE:          0
cpu0->cpu0_STLB PREFETCH     ACCESS:          0 HIT:          0 MISS:          0 MSHR_MERGE:          0
cpu0->cpu0_STLB WRITE        ACCESS:          0 HIT:          0 MISS:          0 MSHR_MERGE:          0
cpu0->cpu0_STLB TRANSLATION  ACCESS:          0 HIT:          0 MISS:          0 MSHR_MERGE:          0
cpu0->cpu0_STLB PREFETCH REQUESTED:          0 ISSUED:          0 USEFUL:          0 USELESS:          0
cpu0->cpu0_STLB AVERAGE MISS LATENCY: 132.8 cycles
cpu0->cpu0_L2C TOTAL        ACCESS:    7867970 HIT:    4673606 MISS:    3194364 MSHR_MERGE:          0
cpu0->cpu0_L2C LOAD         ACCESS:    3418486 HIT:    1763811 MISS:    1654675 MSHR_MERGE:          0
cpu0->cpu0_L2C RFO          ACCESS:     590284 HIT:     186148 MISS:     404136 MSHR_MERGE:          0
cpu0->cpu0_L2C PREFETCH     ACCESS:    2229622 HIT:    1303789 MISS:     925833 MSHR_MERGE:          0
cpu0->cpu0_L2C WRITE        ACCESS:    1096967 HIT:    1096963 MISS:          4 MSHR_MERGE:          0
cpu0->cpu0_L2C TRANSLATION  ACCESS:     532611 HIT:     322895 MISS:     209716 MSHR_MERGE:          0
cpu0->cpu0_L2C PREFETCH REQUESTED:          0 ISSUED:          0 USEFUL:          0 USELESS:          0
cpu0->cpu0_L2C AVERAGE MISS LATENCY: 179.6 cycles
cpu0->cpu0_L1I TOTAL        ACCESS:   14900080 HIT:   12795985 MISS:    2104095 MSHR_MERGE:     462227
cpu0->cpu0_L1I LOAD         ACCESS:   14900080 HIT:   12795985 MISS:    2104095 MSHR_MERGE:     462227
cpu0->cpu0_L1I RFO          ACCESS:          0 HIT:          0 MISS:          0 MSHR_MERGE:          0
cpu0->cpu0_L1I PREFETCH     ACCESS:          0 HIT:          0 MISS:          0 MSHR_MERGE:          0
cpu0->cpu0_L1I WRITE        ACCESS:          0 HIT:          0 MISS:          0 MSHR_MERGE:          0
cpu0->cpu0_L1I TRANSLATION  ACCESS:          0 HIT:          0 MISS:          0 MSHR_MERGE:          0
cpu0->cpu0_L1I PREFETCH REQUESTED:          0 ISSUED:          0 USEFUL:          0 USELESS:          0
cpu0->cpu0_L1I AVERAGE MISS LATENCY: 103.8 cycles
cpu0->cpu0_L1D TOTAL        ACCESS:   81447854 HIT:   72981923 MISS:    8465931 MSHR_MERGE:    3336739
cpu0->cpu0_L1D LOAD         ACCESS:   31756100 HIT:   29446161 MISS:    2309939 MSHR_MERGE:     533303
cpu0->cpu0_L1D RFO          ACCESS:          0 HIT:          0 MISS:          0 MSHR_MERGE:          0
cpu0->cpu0_L1D PREFETCH     ACCESS:   27950879 HIT:   24593973 MISS:    3356906 MSHR_MERGE:    1127279
cpu0->cpu0_L1D WRITE        ACCESS:   20395593 HIT:   18132402 MISS:    2263191 MSHR_MERGE:    1672873
cpu0->cpu0_L1D TRANSLATION  ACCESS:    1345282 HIT:     809387 MISS:     535895 MSHR_MERGE:       3284
cpu0->cpu0_L1D PREFETCH REQUESTED:   32171684 ISSUED:   27950874 USEFUL:     421956 USELESS:    1807636
cpu0->cpu0_L1D AVERAGE MISS LATENCY: 94.63 cycles
cpu0->cpu0_ITLB TOTAL        ACCESS:   12075297 HIT:   11889189 MISS:     186108 MSHR_MERGE:      90609
cpu0->cpu0_ITLB LOAD         ACCESS:   12075297 HIT:   11889189 MISS:     186108 MSHR_MERGE:      90609
cpu0->cpu0_ITLB RFO          ACCESS:          0 HIT:          0 MISS:          0 MSHR_MERGE:          0
cpu0->cpu0_ITLB PREFETCH     ACCESS:          0 HIT:          0 MISS:          0 MSHR_MERGE:          0
cpu0->cpu0_ITLB WRITE        ACCESS:          0 HIT:          0 MISS:          0 MSHR_MERGE:          0
cpu0->cpu0_ITLB TRANSLATION  ACCESS:          0 HIT:          0 MISS:          0 MSHR_MERGE:          0
cpu0->cpu0_ITLB PREFETCH REQUESTED:          0 ISSUED:          0 USEFUL:          0 USELESS:          0
cpu0->cpu0_ITLB AVERAGE MISS LATENCY: 35.94 cycles
cpu0->cpu0_DTLB TOTAL        ACCESS:   73676572 HIT:   70460573 MISS:    3215999 MSHR_MERGE:    1094336
cpu0->cpu0_DTLB LOAD         ACCESS:   73676572 HIT:   70460573 MISS:    3215999 MSHR_MERGE:    1094336
cpu0->cpu0_DTLB RFO          ACCESS:          0 HIT:          0 MISS:          0 MSHR_MERGE:          0
cpu0->cpu0_DTLB PREFETCH     ACCESS:          0 HIT:          0 MISS:          0 MSHR_MERGE:          0
cpu0->cpu0_DTLB WRITE        ACCESS:          0 HIT:          0 MISS:          0 MSHR_MERGE:          0
cpu0->cpu0_DTLB TRANSLATION  ACCESS:          0 HIT:          0 MISS:          0 MSHR_MERGE:          0
cpu0->cpu0_DTLB PREFETCH REQUESTED:          0 ISSUED:          0 USEFUL:          0 USELESS:          0
cpu0->cpu0_DTLB AVERAGE MISS LATENCY: 37.85 cycles
cpu0->LLC TOTAL        ACCESS:    3851938 HIT:     923667 MISS:    2928271 MSHR_MERGE:          0
cpu0->LLC LOAD         ACCESS:    1654675 HIT:     588125 MISS:    1066550 MSHR_MERGE:          0
cpu0->LLC RFO          ACCESS:     404136 HIT:      13068 MISS:     391068 MSHR_MERGE:          0
cpu0->LLC PREFETCH     ACCESS:     925833 HIT:     113069 MISS:     812764 MSHR_MERGE:          0
cpu0->LLC WRITE        ACCESS:     657578 HIT:     171306 MISS:     486272 MSHR_MERGE:          0
cpu0->LLC TRANSLATION  ACCESS:     209716 HIT:      38099 MISS:     171617 MSHR_MERGE:          0
cpu0->LLC PREFETCH REQUESTED:          0 ISSUED:          0 USEFUL:          0 USELESS:          0
cpu0->LLC AVERAGE MISS LATENCY: 172.1 cycles

DRAM Statistics

Channel 0 RQ ROW_BUFFER_HIT:     102941
  ROW_BUFFER_MISS:    2339024
  AVG DBUS CONGESTED CYCLE: 27.03
Channel 0 WQ ROW_BUFFER_HIT:     172135
  ROW_BUFFER_MISS:     456057
  FULL:          0
Channel 0 REFRESHES ISSUED:      28924
