[VMEM] WARNING: physical memory size is smaller than virtual memory size.

*** ChampSim Multicore Out-of-Order Simulator ***
Warmup Instructions: 50000000
Simulation Instructions: 200000000
Number of CPUs: 1
Page size: 4096
Core 0: /local-ssd/ben/dpc4-traces/SPEC17/619.lbm_s-2676B.champsimtrace.xz
Off-chip DRAM Size: 64 GiB Channels: 1 Width: 64-bit Data Rate: 4807 MT/s
Heartbeat CPU 0 instructions: 500003 cycles: 124329 heartbeat IPC: 4.022 cumulative IPC: 4.022 (Simulation time: 00 hr 00 min 02 sec)
Heartbeat CPU 0 instructions: 1000005 cycles: 230948 heartbeat IPC: 4.69 cumulative IPC: 4.33 (Simulation time: 00 hr 00 min 04 sec)
Heartbeat CPU 0 instructions: 1500006 cycles: 343949 heartbeat IPC: 4.425 cumulative IPC: 4.361 (Simulation time: 00 hr 00 min 05 sec)
Heartbeat CPU 0 instructions: 2000007 cycles: 462807 heartbeat IPC: 4.207 cumulative IPC: 4.321 (Simulation time: 00 hr 00 min 07 sec)
Heartbeat CPU 0 instructions: 2500012 cycles: 587287 heartbeat IPC: 4.017 cumulative IPC: 4.257 (Simulation time: 00 hr 00 min 09 sec)
Heartbeat CPU 0 instructions: 3000014 cycles: 710876 heartbeat IPC: 4.046 cumulative IPC: 4.22 (Simulation time: 00 hr 00 min 11 sec)
Heartbeat CPU 0 instructions: 3500017 cycles: 843557 heartbeat IPC: 3.768 cumulative IPC: 4.149 (Simulation time: 00 hr 00 min 13 sec)
Heartbeat CPU 0 instructions: 4000018 cycles: 967878 heartbeat IPC: 4.022 cumulative IPC: 4.133 (Simulation time: 00 hr 00 min 15 sec)
Heartbeat CPU 0 instructions: 4500020 cycles: 1089465 heartbeat IPC: 4.112 cumulative IPC: 4.13 (Simulation time: 00 hr 00 min 17 sec)
Heartbeat CPU 0 instructions: 5000021 cycles: 1210970 heartbeat IPC: 4.115 cumulative IPC: 4.129 (Simulation time: 00 hr 00 min 19 sec)
Heartbeat CPU 0 instructions: 5500025 cycles: 1336038 heartbeat IPC: 3.998 cumulative IPC: 4.117 (Simulation time: 00 hr 00 min 21 sec)
Heartbeat CPU 0 instructions: 6000027 cycles: 1461999 heartbeat IPC: 3.969 cumulative IPC: 4.104 (Simulation time: 00 hr 00 min 22 sec)
Heartbeat CPU 0 instructions: 6500031 cycles: 1587662 heartbeat IPC: 3.979 cumulative IPC: 4.094 (Simulation time: 00 hr 00 min 24 sec)
Heartbeat CPU 0 instructions: 7000031 cycles: 1709890 heartbeat IPC: 4.091 cumulative IPC: 4.094 (Simulation time: 00 hr 00 min 26 sec)
Heartbeat CPU 0 instructions: 7500031 cycles: 1838036 heartbeat IPC: 3.902 cumulative IPC: 4.08 (Simulation time: 00 hr 00 min 28 sec)
Heartbeat CPU 0 instructions: 8000031 cycles: 1958052 heartbeat IPC: 4.166 cumulative IPC: 4.086 (Simulation time: 00 hr 00 min 30 sec)
Heartbeat CPU 0 instructions: 8500034 cycles: 2089981 heartbeat IPC: 3.79 cumulative IPC: 4.067 (Simulation time: 00 hr 00 min 32 sec)
Heartbeat CPU 0 instructions: 9000036 cycles: 2199816 heartbeat IPC: 4.552 cumulative IPC: 4.091 (Simulation time: 00 hr 00 min 34 sec)
Heartbeat CPU 0 instructions: 9500040 cycles: 2317096 heartbeat IPC: 4.263 cumulative IPC: 4.1 (Simulation time: 00 hr 00 min 36 sec)
Heartbeat CPU 0 instructions: 10000045 cycles: 2430849 heartbeat IPC: 4.396 cumulative IPC: 4.114 (Simulation time: 00 hr 00 min 37 sec)
Heartbeat CPU 0 instructions: 10500051 cycles: 2537122 heartbeat IPC: 4.705 cumulative IPC: 4.139 (Simulation time: 00 hr 00 min 39 sec)
Heartbeat CPU 0 instructions: 11000056 cycles: 2660697 heartbeat IPC: 4.046 cumulative IPC: 4.134 (Simulation time: 00 hr 00 min 41 sec)
Heartbeat CPU 0 instructions: 11500059 cycles: 2781894 heartbeat IPC: 4.126 cumulative IPC: 4.134 (Simulation time: 00 hr 00 min 43 sec)
Heartbeat CPU 0 instructions: 12000062 cycles: 2902804 heartbeat IPC: 4.135 cumulative IPC: 4.134 (Simulation time: 00 hr 00 min 45 sec)
Heartbeat CPU 0 instructions: 12500069 cycles: 3032271 heartbeat IPC: 3.862 cumulative IPC: 4.122 (Simulation time: 00 hr 00 min 47 sec)
Heartbeat CPU 0 instructions: 13000075 cycles: 3144486 heartbeat IPC: 4.456 cumulative IPC: 4.134 (Simulation time: 00 hr 00 min 48 sec)
Heartbeat CPU 0 instructions: 13500075 cycles: 3264822 heartbeat IPC: 4.155 cumulative IPC: 4.135 (Simulation time: 00 hr 00 min 50 sec)
Heartbeat CPU 0 instructions: 14000079 cycles: 3386111 heartbeat IPC: 4.122 cumulative IPC: 4.135 (Simulation time: 00 hr 00 min 52 sec)
Heartbeat CPU 0 instructions: 14500085 cycles: 3506966 heartbeat IPC: 4.137 cumulative IPC: 4.135 (Simulation time: 00 hr 00 min 54 sec)
Heartbeat CPU 0 instructions: 15000092 cycles: 3627333 heartbeat IPC: 4.154 cumulative IPC: 4.135 (Simulation time: 00 hr 00 min 56 sec)
Heartbeat CPU 0 instructions: 15500098 cycles: 3749099 heartbeat IPC: 4.106 cumulative IPC: 4.134 (Simulation time: 00 hr 00 min 58 sec)
Heartbeat CPU 0 instructions: 16000100 cycles: 3866158 heartbeat IPC: 4.271 cumulative IPC: 4.139 (Simulation time: 00 hr 01 min 00 sec)
Heartbeat CPU 0 instructions: 16500100 cycles: 3991692 heartbeat IPC: 3.983 cumulative IPC: 4.134 (Simulation time: 00 hr 01 min 02 sec)
Heartbeat CPU 0 instructions: 17000101 cycles: 4106491 heartbeat IPC: 4.355 cumulative IPC: 4.14 (Simulation time: 00 hr 01 min 03 sec)
Heartbeat CPU 0 instructions: 17500104 cycles: 4234615 heartbeat IPC: 3.902 cumulative IPC: 4.133 (Simulation time: 00 hr 01 min 05 sec)
Heartbeat CPU 0 instructions: 18000110 cycles: 4343922 heartbeat IPC: 4.574 cumulative IPC: 4.144 (Simulation time: 00 hr 01 min 07 sec)
Heartbeat CPU 0 instructions: 18500113 cycles: 4464078 heartbeat IPC: 4.161 cumulative IPC: 4.144 (Simulation time: 00 hr 01 min 09 sec)
Heartbeat CPU 0 instructions: 19000116 cycles: 4577395 heartbeat IPC: 4.412 cumulative IPC: 4.151 (Simulation time: 00 hr 01 min 10 sec)
Heartbeat CPU 0 instructions: 19500121 cycles: 4683731 heartbeat IPC: 4.702 cumulative IPC: 4.163 (Simulation time: 00 hr 01 min 12 sec)
Heartbeat CPU 0 instructions: 20000125 cycles: 4805936 heartbeat IPC: 4.092 cumulative IPC: 4.162 (Simulation time: 00 hr 01 min 14 sec)
Heartbeat CPU 0 instructions: 20500129 cycles: 4926536 heartbeat IPC: 4.146 cumulative IPC: 4.161 (Simulation time: 00 hr 01 min 16 sec)
Heartbeat CPU 0 instructions: 21000134 cycles: 5044070 heartbeat IPC: 4.254 cumulative IPC: 4.163 (Simulation time: 00 hr 01 min 18 sec)
Heartbeat CPU 0 instructions: 21500141 cycles: 5166528 heartbeat IPC: 4.083 cumulative IPC: 4.161 (Simulation time: 00 hr 01 min 20 sec)
Heartbeat CPU 0 instructions: 22000144 cycles: 5283971 heartbeat IPC: 4.257 cumulative IPC: 4.164 (Simulation time: 00 hr 01 min 22 sec)
Heartbeat CPU 0 instructions: 22500147 cycles: 5400202 heartbeat IPC: 4.302 cumulative IPC: 4.167 (Simulation time: 00 hr 01 min 23 sec)
Heartbeat CPU 0 instructions: 23000152 cycles: 5520984 heartbeat IPC: 4.14 cumulative IPC: 4.166 (Simulation time: 00 hr 01 min 25 sec)
Heartbeat CPU 0 instructions: 23500153 cycles: 5639442 heartbeat IPC: 4.221 cumulative IPC: 4.167 (Simulation time: 00 hr 01 min 27 sec)
Heartbeat CPU 0 instructions: 24000153 cycles: 5753973 heartbeat IPC: 4.366 cumulative IPC: 4.171 (Simulation time: 00 hr 01 min 29 sec)
Heartbeat CPU 0 instructions: 24500159 cycles: 5877705 heartbeat IPC: 4.041 cumulative IPC: 4.168 (Simulation time: 00 hr 01 min 31 sec)
Heartbeat CPU 0 instructions: 25000165 cycles: 5994094 heartbeat IPC: 4.296 cumulative IPC: 4.171 (Simulation time: 00 hr 01 min 33 sec)
Heartbeat CPU 0 instructions: 25500165 cycles: 6105864 heartbeat IPC: 4.473 cumulative IPC: 4.176 (Simulation time: 00 hr 01 min 34 sec)
Heartbeat CPU 0 instructions: 26000170 cycles: 6230915 heartbeat IPC: 3.998 cumulative IPC: 4.173 (Simulation time: 00 hr 01 min 36 sec)
Heartbeat CPU 0 instructions: 26500171 cycles: 6351785 heartbeat IPC: 4.137 cumulative IPC: 4.172 (Simulation time: 00 hr 01 min 38 sec)
Heartbeat CPU 0 instructions: 27000174 cycles: 6473174 heartbeat IPC: 4.119 cumulative IPC: 4.171 (Simulation time: 00 hr 01 min 40 sec)
Heartbeat CPU 0 instructions: 27500174 cycles: 6591152 heartbeat IPC: 4.238 cumulative IPC: 4.172 (Simulation time: 00 hr 01 min 42 sec)
Heartbeat CPU 0 instructions: 28000181 cycles: 6700776 heartbeat IPC: 4.561 cumulative IPC: 4.179 (Simulation time: 00 hr 01 min 44 sec)
Heartbeat CPU 0 instructions: 28500181 cycles: 6813395 heartbeat IPC: 4.44 cumulative IPC: 4.183 (Simulation time: 00 hr 01 min 45 sec)
Heartbeat CPU 0 instructions: 29000182 cycles: 6929217 heartbeat IPC: 4.317 cumulative IPC: 4.185 (Simulation time: 00 hr 01 min 47 sec)
Heartbeat CPU 0 instructions: 29500183 cycles: 7046518 heartbeat IPC: 4.263 cumulative IPC: 4.186 (Simulation time: 00 hr 01 min 49 sec)
Heartbeat CPU 0 instructions: 30000186 cycles: 7162609 heartbeat IPC: 4.307 cumulative IPC: 4.188 (Simulation time: 00 hr 01 min 51 sec)
Heartbeat CPU 0 instructions: 30500191 cycles: 7276911 heartbeat IPC: 4.374 cumulative IPC: 4.191 (Simulation time: 00 hr 01 min 52 sec)
Heartbeat CPU 0 instructions: 31000191 cycles: 7398812 heartbeat IPC: 4.102 cumulative IPC: 4.19 (Simulation time: 00 hr 01 min 54 sec)
Heartbeat CPU 0 instructions: 31500191 cycles: 7510822 heartbeat IPC: 4.464 cumulative IPC: 4.194 (Simulation time: 00 hr 01 min 56 sec)
Heartbeat CPU 0 instructions: 32000193 cycles: 7625071 heartbeat IPC: 4.376 cumulative IPC: 4.197 (Simulation time: 00 hr 01 min 58 sec)
Heartbeat CPU 0 instructions: 32500195 cycles: 7742205 heartbeat IPC: 4.269 cumulative IPC: 4.198 (Simulation time: 00 hr 02 min 00 sec)
Heartbeat CPU 0 instructions: 33000195 cycles: 7861511 heartbeat IPC: 4.191 cumulative IPC: 4.198 (Simulation time: 00 hr 02 min 01 sec)
Heartbeat CPU 0 instructions: 33500195 cycles: 7972655 heartbeat IPC: 4.499 cumulative IPC: 4.202 (Simulation time: 00 hr 02 min 03 sec)
Heartbeat CPU 0 instructions: 34000197 cycles: 8092314 heartbeat IPC: 4.179 cumulative IPC: 4.202 (Simulation time: 00 hr 02 min 05 sec)
Heartbeat CPU 0 instructions: 34500202 cycles: 8208613 heartbeat IPC: 4.299 cumulative IPC: 4.203 (Simulation time: 00 hr 02 min 07 sec)
Heartbeat CPU 0 instructions: 35000203 cycles: 8319087 heartbeat IPC: 4.526 cumulative IPC: 4.207 (Simulation time: 00 hr 02 min 09 sec)
Heartbeat CPU 0 instructions: 35500204 cycles: 8439563 heartbeat IPC: 4.15 cumulative IPC: 4.206 (Simulation time: 00 hr 02 min 10 sec)
Heartbeat CPU 0 instructions: 36000205 cycles: 8550222 heartbeat IPC: 4.518 cumulative IPC: 4.21 (Simulation time: 00 hr 02 min 12 sec)
Heartbeat CPU 0 instructions: 36500208 cycles: 8678919 heartbeat IPC: 3.885 cumulative IPC: 4.206 (Simulation time: 00 hr 02 min 14 sec)
Heartbeat CPU 0 instructions: 37000208 cycles: 8791241 heartbeat IPC: 4.451 cumulative IPC: 4.209 (Simulation time: 00 hr 02 min 16 sec)
Heartbeat CPU 0 instructions: 37500209 cycles: 8910784 heartbeat IPC: 4.183 cumulative IPC: 4.208 (Simulation time: 00 hr 02 min 18 sec)
Heartbeat CPU 0 instructions: 38000215 cycles: 9023877 heartbeat IPC: 4.421 cumulative IPC: 4.211 (Simulation time: 00 hr 02 min 19 sec)
Heartbeat CPU 0 instructions: 38500222 cycles: 9129367 heartbeat IPC: 4.74 cumulative IPC: 4.217 (Simulation time: 00 hr 02 min 21 sec)
Heartbeat CPU 0 instructions: 39000228 cycles: 9248447 heartbeat IPC: 4.199 cumulative IPC: 4.217 (Simulation time: 00 hr 02 min 23 sec)
Heartbeat CPU 0 instructions: 39500230 cycles: 9363372 heartbeat IPC: 4.351 cumulative IPC: 4.219 (Simulation time: 00 hr 02 min 25 sec)
Heartbeat CPU 0 instructions: 40000231 cycles: 9474784 heartbeat IPC: 4.488 cumulative IPC: 4.222 (Simulation time: 00 hr 02 min 26 sec)
Heartbeat CPU 0 instructions: 40500236 cycles: 9585656 heartbeat IPC: 4.51 cumulative IPC: 4.225 (Simulation time: 00 hr 02 min 28 sec)
Heartbeat CPU 0 instructions: 41000239 cycles: 9703588 heartbeat IPC: 4.24 cumulative IPC: 4.225 (Simulation time: 00 hr 02 min 30 sec)
Heartbeat CPU 0 instructions: 41500240 cycles: 9812193 heartbeat IPC: 4.604 cumulative IPC: 4.229 (Simulation time: 00 hr 02 min 32 sec)
Heartbeat CPU 0 instructions: 42000244 cycles: 9925558 heartbeat IPC: 4.411 cumulative IPC: 4.232 (Simulation time: 00 hr 02 min 33 sec)
Heartbeat CPU 0 instructions: 42500246 cycles: 10043698 heartbeat IPC: 4.232 cumulative IPC: 4.232 (Simulation time: 00 hr 02 min 35 sec)
Heartbeat CPU 0 instructions: 43000252 cycles: 10164579 heartbeat IPC: 4.136 cumulative IPC: 4.23 (Simulation time: 00 hr 02 min 37 sec)
Heartbeat CPU 0 instructions: 43500257 cycles: 10273101 heartbeat IPC: 4.607 cumulative IPC: 4.234 (Simulation time: 00 hr 02 min 39 sec)
Heartbeat CPU 0 instructions: 44000261 cycles: 10387471 heartbeat IPC: 4.372 cumulative IPC: 4.236 (Simulation time: 00 hr 02 min 41 sec)
Heartbeat CPU 0 instructions: 44500267 cycles: 10502090 heartbeat IPC: 4.362 cumulative IPC: 4.237 (Simulation time: 00 hr 02 min 42 sec)
Heartbeat CPU 0 instructions: 45000274 cycles: 10613211 heartbeat IPC: 4.5 cumulative IPC: 4.24 (Simulation time: 00 hr 02 min 44 sec)
Heartbeat CPU 0 instructions: 45500275 cycles: 10727023 heartbeat IPC: 4.393 cumulative IPC: 4.242 (Simulation time: 00 hr 02 min 46 sec)
Heartbeat CPU 0 instructions: 46000278 cycles: 10838189 heartbeat IPC: 4.498 cumulative IPC: 4.244 (Simulation time: 00 hr 02 min 48 sec)
Heartbeat CPU 0 instructions: 46500281 cycles: 10958796 heartbeat IPC: 4.146 cumulative IPC: 4.243 (Simulation time: 00 hr 02 min 49 sec)
Heartbeat CPU 0 instructions: 47000283 cycles: 11076324 heartbeat IPC: 4.254 cumulative IPC: 4.243 (Simulation time: 00 hr 02 min 51 sec)
Heartbeat CPU 0 instructions: 47500286 cycles: 11195316 heartbeat IPC: 4.202 cumulative IPC: 4.243 (Simulation time: 00 hr 02 min 53 sec)
Heartbeat CPU 0 instructions: 48000292 cycles: 11303102 heartbeat IPC: 4.639 cumulative IPC: 4.247 (Simulation time: 00 hr 02 min 55 sec)
Heartbeat CPU 0 instructions: 48500293 cycles: 11415262 heartbeat IPC: 4.458 cumulative IPC: 4.249 (Simulation time: 00 hr 02 min 56 sec)
Heartbeat CPU 0 instructions: 49000297 cycles: 11529112 heartbeat IPC: 4.392 cumulative IPC: 4.25 (Simulation time: 00 hr 02 min 58 sec)
Heartbeat CPU 0 instructions: 49500297 cycles: 11642546 heartbeat IPC: 4.408 cumulative IPC: 4.252 (Simulation time: 00 hr 03 min 00 sec)
Warmup halting CPU 0 at instruction 50000007 cycle 11755534 for remainder of phase
Warmup finished CPU 0 instructions: 50000007 cycles: 11755534 cumulative IPC: 4.253 (Simulation time: 00 hr 03 min 02 sec)
Warmup complete CPU 0 instructions: 50000007 cycles: 11755534 cumulative IPC: 4.253 (Simulation time: 00 hr 03 min 02 sec)
Heartbeat CPU 0 instructions: 50000303 cycles: 11755571 heartbeat IPC: 4.424 cumulative IPC: 8 (Simulation time: 00 hr 03 min 02 sec)
Heartbeat CPU 0 instructions: 50500308 cycles: 12418858 heartbeat IPC: 0.7538 cumulative IPC: 0.7542 (Simulation time: 00 hr 03 min 11 sec)
Heartbeat CPU 0 instructions: 51000309 cycles: 13077607 heartbeat IPC: 0.759 cumulative IPC: 0.7566 (Simulation time: 00 hr 03 min 21 sec)
Heartbeat CPU 0 instructions: 51500309 cycles: 13875639 heartbeat IPC: 0.6265 cumulative IPC: 0.7077 (Simulation time: 00 hr 03 min 33 sec)
Heartbeat CPU 0 instructions: 52000311 cycles: 14481912 heartbeat IPC: 0.8247 cumulative IPC: 0.7337 (Simulation time: 00 hr 03 min 42 sec)
Heartbeat CPU 0 instructions: 52500311 cycles: 15194278 heartbeat IPC: 0.7019 cumulative IPC: 0.7271 (Simulation time: 00 hr 03 min 52 sec)
Heartbeat CPU 0 instructions: 53000318 cycles: 15982333 heartbeat IPC: 0.6345 cumulative IPC: 0.7098 (Simulation time: 00 hr 04 min 04 sec)
Heartbeat CPU 0 instructions: 53500323 cycles: 16821734 heartbeat IPC: 0.5957 cumulative IPC: 0.6909 (Simulation time: 00 hr 04 min 16 sec)
Heartbeat CPU 0 instructions: 54000323 cycles: 17417493 heartbeat IPC: 0.8393 cumulative IPC: 0.7065 (Simulation time: 00 hr 04 min 25 sec)
Heartbeat CPU 0 instructions: 54500329 cycles: 18070791 heartbeat IPC: 0.7654 cumulative IPC: 0.7126 (Simulation time: 00 hr 04 min 35 sec)
Heartbeat CPU 0 instructions: 55000334 cycles: 18788812 heartbeat IPC: 0.6964 cumulative IPC: 0.711 (Simulation time: 00 hr 04 min 46 sec)
Heartbeat CPU 0 instructions: 55500335 cycles: 19485387 heartbeat IPC: 0.7178 cumulative IPC: 0.7116 (Simulation time: 00 hr 04 min 56 sec)
Heartbeat CPU 0 instructions: 56000339 cycles: 20138859 heartbeat IPC: 0.7651 cumulative IPC: 0.7157 (Simulation time: 00 hr 05 min 06 sec)
Heartbeat CPU 0 instructions: 56500343 cycles: 20826638 heartbeat IPC: 0.727 cumulative IPC: 0.7166 (Simulation time: 00 hr 05 min 16 sec)
Heartbeat CPU 0 instructions: 57000348 cycles: 21408338 heartbeat IPC: 0.8596 cumulative IPC: 0.7252 (Simulation time: 00 hr 05 min 25 sec)
Heartbeat CPU 0 instructions: 57500350 cycles: 22336083 heartbeat IPC: 0.5389 cumulative IPC: 0.7089 (Simulation time: 00 hr 05 min 38 sec)
Heartbeat CPU 0 instructions: 58000351 cycles: 23050728 heartbeat IPC: 0.6996 cumulative IPC: 0.7083 (Simulation time: 00 hr 05 min 48 sec)
Heartbeat CPU 0 instructions: 58500352 cycles: 23896204 heartbeat IPC: 0.5914 cumulative IPC: 0.7002 (Simulation time: 00 hr 06 min 01 sec)
Heartbeat CPU 0 instructions: 59000354 cycles: 24351792 heartbeat IPC: 1.097 cumulative IPC: 0.7145 (Simulation time: 00 hr 06 min 08 sec)
Heartbeat CPU 0 instructions: 59500354 cycles: 24955408 heartbeat IPC: 0.8283 cumulative IPC: 0.7197 (Simulation time: 00 hr 06 min 17 sec)
Heartbeat CPU 0 instructions: 60000357 cycles: 25753098 heartbeat IPC: 0.6268 cumulative IPC: 0.7144 (Simulation time: 00 hr 06 min 29 sec)
Heartbeat CPU 0 instructions: 60500363 cycles: 26373281 heartbeat IPC: 0.8062 cumulative IPC: 0.7183 (Simulation time: 00 hr 06 min 38 sec)
Heartbeat CPU 0 instructions: 61000364 cycles: 27043705 heartbeat IPC: 0.7458 cumulative IPC: 0.7195 (Simulation time: 00 hr 06 min 48 sec)
Heartbeat CPU 0 instructions: 61500365 cycles: 27659711 heartbeat IPC: 0.8117 cumulative IPC: 0.7231 (Simulation time: 00 hr 06 min 57 sec)
Heartbeat CPU 0 instructions: 62000366 cycles: 28288674 heartbeat IPC: 0.795 cumulative IPC: 0.7258 (Simulation time: 00 hr 07 min 06 sec)
Heartbeat CPU 0 instructions: 62500371 cycles: 29019374 heartbeat IPC: 0.6843 cumulative IPC: 0.7241 (Simulation time: 00 hr 07 min 17 sec)
Heartbeat CPU 0 instructions: 63000372 cycles: 29575701 heartbeat IPC: 0.8988 cumulative IPC: 0.7295 (Simulation time: 00 hr 07 min 26 sec)
Heartbeat CPU 0 instructions: 63500373 cycles: 30242133 heartbeat IPC: 0.7503 cumulative IPC: 0.7303 (Simulation time: 00 hr 07 min 36 sec)
Heartbeat CPU 0 instructions: 64000378 cycles: 31001616 heartbeat IPC: 0.6583 cumulative IPC: 0.7274 (Simulation time: 00 hr 07 min 47 sec)
Heartbeat CPU 0 instructions: 64500378 cycles: 31813444 heartbeat IPC: 0.6159 cumulative IPC: 0.7229 (Simulation time: 00 hr 07 min 58 sec)
Heartbeat CPU 0 instructions: 65000379 cycles: 32442937 heartbeat IPC: 0.7943 cumulative IPC: 0.7251 (Simulation time: 00 hr 08 min 08 sec)
Heartbeat CPU 0 instructions: 65500380 cycles: 32989063 heartbeat IPC: 0.9155 cumulative IPC: 0.73 (Simulation time: 00 hr 08 min 16 sec)
Heartbeat CPU 0 instructions: 66000381 cycles: 33670406 heartbeat IPC: 0.7338 cumulative IPC: 0.7301 (Simulation time: 00 hr 08 min 26 sec)
Heartbeat CPU 0 instructions: 66500388 cycles: 34333002 heartbeat IPC: 0.7546 cumulative IPC: 0.7308 (Simulation time: 00 hr 08 min 36 sec)
Heartbeat CPU 0 instructions: 67000392 cycles: 34941670 heartbeat IPC: 0.8215 cumulative IPC: 0.7332 (Simulation time: 00 hr 08 min 45 sec)
Heartbeat CPU 0 instructions: 67500393 cycles: 35572181 heartbeat IPC: 0.793 cumulative IPC: 0.7348 (Simulation time: 00 hr 08 min 55 sec)
Heartbeat CPU 0 instructions: 68000396 cycles: 36125628 heartbeat IPC: 0.9034 cumulative IPC: 0.7386 (Simulation time: 00 hr 09 min 03 sec)
Heartbeat CPU 0 instructions: 68500398 cycles: 36769387 heartbeat IPC: 0.7767 cumulative IPC: 0.7396 (Simulation time: 00 hr 09 min 13 sec)
Heartbeat CPU 0 instructions: 69000401 cycles: 37618371 heartbeat IPC: 0.5889 cumulative IPC: 0.7347 (Simulation time: 00 hr 09 min 25 sec)
Heartbeat CPU 0 instructions: 69500405 cycles: 38323726 heartbeat IPC: 0.7089 cumulative IPC: 0.734 (Simulation time: 00 hr 09 min 35 sec)
Heartbeat CPU 0 instructions: 70000411 cycles: 39121696 heartbeat IPC: 0.6266 cumulative IPC: 0.7308 (Simulation time: 00 hr 09 min 47 sec)
Heartbeat CPU 0 instructions: 70500417 cycles: 39558055 heartbeat IPC: 1.146 cumulative IPC: 0.7374 (Simulation time: 00 hr 09 min 54 sec)
Heartbeat CPU 0 instructions: 71000422 cycles: 40142605 heartbeat IPC: 0.8554 cumulative IPC: 0.7398 (Simulation time: 00 hr 10 min 03 sec)
Heartbeat CPU 0 instructions: 71500427 cycles: 40855933 heartbeat IPC: 0.7009 cumulative IPC: 0.7388 (Simulation time: 00 hr 10 min 13 sec)
Heartbeat CPU 0 instructions: 72000432 cycles: 41478534 heartbeat IPC: 0.8031 cumulative IPC: 0.7402 (Simulation time: 00 hr 10 min 23 sec)
Heartbeat CPU 0 instructions: 72500433 cycles: 42100742 heartbeat IPC: 0.8036 cumulative IPC: 0.7415 (Simulation time: 00 hr 10 min 32 sec)
Heartbeat CPU 0 instructions: 73000440 cycles: 42703229 heartbeat IPC: 0.8299 cumulative IPC: 0.7432 (Simulation time: 00 hr 10 min 41 sec)
Heartbeat CPU 0 instructions: 73500445 cycles: 43262059 heartbeat IPC: 0.8947 cumulative IPC: 0.7459 (Simulation time: 00 hr 10 min 49 sec)
Heartbeat CPU 0 instructions: 74000450 cycles: 43938316 heartbeat IPC: 0.7394 cumulative IPC: 0.7458 (Simulation time: 00 hr 10 min 59 sec)
Heartbeat CPU 0 instructions: 74500453 cycles: 44514375 heartbeat IPC: 0.868 cumulative IPC: 0.7479 (Simulation time: 00 hr 11 min 08 sec)
Heartbeat CPU 0 instructions: 75000453 cycles: 45059643 heartbeat IPC: 0.917 cumulative IPC: 0.7507 (Simulation time: 00 hr 11 min 16 sec)
Heartbeat CPU 0 instructions: 75500454 cycles: 45796312 heartbeat IPC: 0.6787 cumulative IPC: 0.7491 (Simulation time: 00 hr 11 min 27 sec)
Heartbeat CPU 0 instructions: 76000458 cycles: 46495098 heartbeat IPC: 0.7155 cumulative IPC: 0.7484 (Simulation time: 00 hr 11 min 38 sec)
Heartbeat CPU 0 instructions: 76500459 cycles: 47255922 heartbeat IPC: 0.6572 cumulative IPC: 0.7465 (Simulation time: 00 hr 11 min 49 sec)
Heartbeat CPU 0 instructions: 77000462 cycles: 47795475 heartbeat IPC: 0.9267 cumulative IPC: 0.7492 (Simulation time: 00 hr 11 min 57 sec)
Heartbeat CPU 0 instructions: 77500466 cycles: 48317380 heartbeat IPC: 0.958 cumulative IPC: 0.7522 (Simulation time: 00 hr 12 min 05 sec)
Heartbeat CPU 0 instructions: 78000470 cycles: 48969321 heartbeat IPC: 0.7669 cumulative IPC: 0.7524 (Simulation time: 00 hr 12 min 15 sec)
Heartbeat CPU 0 instructions: 78500471 cycles: 49579050 heartbeat IPC: 0.82 cumulative IPC: 0.7535 (Simulation time: 00 hr 12 min 24 sec)
Heartbeat CPU 0 instructions: 79000478 cycles: 50150100 heartbeat IPC: 0.8756 cumulative IPC: 0.7553 (Simulation time: 00 hr 12 min 32 sec)
Heartbeat CPU 0 instructions: 79500480 cycles: 50738670 heartbeat IPC: 0.8495 cumulative IPC: 0.7567 (Simulation time: 00 hr 12 min 41 sec)
Heartbeat CPU 0 instructions: 80000481 cycles: 51258472 heartbeat IPC: 0.9619 cumulative IPC: 0.7594 (Simulation time: 00 hr 12 min 49 sec)
Heartbeat CPU 0 instructions: 80500487 cycles: 51810027 heartbeat IPC: 0.9065 cumulative IPC: 0.7615 (Simulation time: 00 hr 12 min 58 sec)
Heartbeat CPU 0 instructions: 81000492 cycles: 52620256 heartbeat IPC: 0.6171 cumulative IPC: 0.7586 (Simulation time: 00 hr 13 min 09 sec)
Heartbeat CPU 0 instructions: 81500494 cycles: 53276732 heartbeat IPC: 0.7616 cumulative IPC: 0.7587 (Simulation time: 00 hr 13 min 19 sec)
Heartbeat CPU 0 instructions: 82000499 cycles: 54041058 heartbeat IPC: 0.6542 cumulative IPC: 0.7568 (Simulation time: 00 hr 13 min 30 sec)
Heartbeat CPU 0 instructions: 82500499 cycles: 54574144 heartbeat IPC: 0.9379 cumulative IPC: 0.759 (Simulation time: 00 hr 13 min 38 sec)
Heartbeat CPU 0 instructions: 83000502 cycles: 55116852 heartbeat IPC: 0.9213 cumulative IPC: 0.7611 (Simulation time: 00 hr 13 min 47 sec)
Heartbeat CPU 0 instructions: 83500504 cycles: 55678367 heartbeat IPC: 0.8905 cumulative IPC: 0.7627 (Simulation time: 00 hr 13 min 55 sec)
Heartbeat CPU 0 instructions: 84000509 cycles: 56295550 heartbeat IPC: 0.8101 cumulative IPC: 0.7634 (Simulation time: 00 hr 14 min 04 sec)
Heartbeat CPU 0 instructions: 84500514 cycles: 56852562 heartbeat IPC: 0.8977 cumulative IPC: 0.765 (Simulation time: 00 hr 14 min 13 sec)
Heartbeat CPU 0 instructions: 85000517 cycles: 57432685 heartbeat IPC: 0.8619 cumulative IPC: 0.7663 (Simulation time: 00 hr 14 min 22 sec)
Heartbeat CPU 0 instructions: 85500519 cycles: 57978474 heartbeat IPC: 0.9161 cumulative IPC: 0.768 (Simulation time: 00 hr 14 min 30 sec)
Heartbeat CPU 0 instructions: 86000520 cycles: 58524263 heartbeat IPC: 0.9161 cumulative IPC: 0.7698 (Simulation time: 00 hr 14 min 38 sec)
Heartbeat CPU 0 instructions: 86500526 cycles: 59139081 heartbeat IPC: 0.8133 cumulative IPC: 0.7703 (Simulation time: 00 hr 14 min 47 sec)
Heartbeat CPU 0 instructions: 87000527 cycles: 59703412 heartbeat IPC: 0.886 cumulative IPC: 0.7717 (Simulation time: 00 hr 14 min 56 sec)
Heartbeat CPU 0 instructions: 87500529 cycles: 60230485 heartbeat IPC: 0.9486 cumulative IPC: 0.7736 (Simulation time: 00 hr 15 min 04 sec)
Heartbeat CPU 0 instructions: 88000536 cycles: 60938003 heartbeat IPC: 0.7067 cumulative IPC: 0.7726 (Simulation time: 00 hr 15 min 14 sec)
Heartbeat CPU 0 instructions: 88500540 cycles: 61593811 heartbeat IPC: 0.7624 cumulative IPC: 0.7725 (Simulation time: 00 hr 15 min 24 sec)
Heartbeat CPU 0 instructions: 89000540 cycles: 62286439 heartbeat IPC: 0.7219 cumulative IPC: 0.7718 (Simulation time: 00 hr 15 min 34 sec)
Heartbeat CPU 0 instructions: 89500541 cycles: 62856862 heartbeat IPC: 0.8765 cumulative IPC: 0.773 (Simulation time: 00 hr 15 min 43 sec)
Heartbeat CPU 0 instructions: 90000542 cycles: 63361075 heartbeat IPC: 0.9916 cumulative IPC: 0.7751 (Simulation time: 00 hr 15 min 51 sec)
Heartbeat CPU 0 instructions: 90500546 cycles: 63939456 heartbeat IPC: 0.8645 cumulative IPC: 0.7761 (Simulation time: 00 hr 16 min 00 sec)
Heartbeat CPU 0 instructions: 91000549 cycles: 64560955 heartbeat IPC: 0.8045 cumulative IPC: 0.7764 (Simulation time: 00 hr 16 min 09 sec)
Heartbeat CPU 0 instructions: 91500553 cycles: 65127608 heartbeat IPC: 0.8824 cumulative IPC: 0.7776 (Simulation time: 00 hr 16 min 17 sec)
Heartbeat CPU 0 instructions: 92000555 cycles: 65681596 heartbeat IPC: 0.9026 cumulative IPC: 0.7789 (Simulation time: 00 hr 16 min 26 sec)
Heartbeat CPU 0 instructions: 92500559 cycles: 66191657 heartbeat IPC: 0.9803 cumulative IPC: 0.7807 (Simulation time: 00 hr 16 min 34 sec)
Heartbeat CPU 0 instructions: 93000564 cycles: 66661080 heartbeat IPC: 1.065 cumulative IPC: 0.7832 (Simulation time: 00 hr 16 min 41 sec)
Heartbeat CPU 0 instructions: 93500569 cycles: 67292070 heartbeat IPC: 0.7924 cumulative IPC: 0.7833 (Simulation time: 00 hr 16 min 50 sec)
Heartbeat CPU 0 instructions: 94000575 cycles: 67991570 heartbeat IPC: 0.7148 cumulative IPC: 0.7824 (Simulation time: 00 hr 17 min 01 sec)
Heartbeat CPU 0 instructions: 94500582 cycles: 68601166 heartbeat IPC: 0.8202 cumulative IPC: 0.7828 (Simulation time: 00 hr 17 min 10 sec)
Heartbeat CPU 0 instructions: 95000584 cycles: 69325355 heartbeat IPC: 0.6904 cumulative IPC: 0.7817 (Simulation time: 00 hr 17 min 20 sec)
Heartbeat CPU 0 instructions: 95500586 cycles: 69802407 heartbeat IPC: 1.048 cumulative IPC: 0.7839 (Simulation time: 00 hr 17 min 28 sec)
Heartbeat CPU 0 instructions: 96000590 cycles: 70341922 heartbeat IPC: 0.9268 cumulative IPC: 0.7852 (Simulation time: 00 hr 17 min 36 sec)
Heartbeat CPU 0 instructions: 96500590 cycles: 70864118 heartbeat IPC: 0.9575 cumulative IPC: 0.7867 (Simulation time: 00 hr 17 min 44 sec)
Heartbeat CPU 0 instructions: 97000592 cycles: 71447665 heartbeat IPC: 0.8568 cumulative IPC: 0.7874 (Simulation time: 00 hr 17 min 53 sec)
Heartbeat CPU 0 instructions: 97500592 cycles: 71978138 heartbeat IPC: 0.9426 cumulative IPC: 0.7888 (Simulation time: 00 hr 18 min 01 sec)
Heartbeat CPU 0 instructions: 98000596 cycles: 72511042 heartbeat IPC: 0.9383 cumulative IPC: 0.7901 (Simulation time: 00 hr 18 min 09 sec)
Heartbeat CPU 0 instructions: 98500600 cycles: 73040283 heartbeat IPC: 0.9448 cumulative IPC: 0.7914 (Simulation time: 00 hr 18 min 17 sec)
Heartbeat CPU 0 instructions: 99000601 cycles: 73557528 heartbeat IPC: 0.9667 cumulative IPC: 0.7929 (Simulation time: 00 hr 18 min 25 sec)
Heartbeat CPU 0 instructions: 99500606 cycles: 74132587 heartbeat IPC: 0.8695 cumulative IPC: 0.7936 (Simulation time: 00 hr 18 min 33 sec)
Heartbeat CPU 0 instructions: 100000612 cycles: 74702617 heartbeat IPC: 0.8772 cumulative IPC: 0.7943 (Simulation time: 00 hr 18 min 42 sec)
Heartbeat CPU 0 instructions: 100500616 cycles: 75176122 heartbeat IPC: 1.056 cumulative IPC: 0.7963 (Simulation time: 00 hr 18 min 49 sec)
Heartbeat CPU 0 instructions: 101000620 cycles: 75758905 heartbeat IPC: 0.858 cumulative IPC: 0.7968 (Simulation time: 00 hr 18 min 58 sec)
Heartbeat CPU 0 instructions: 101500623 cycles: 76418264 heartbeat IPC: 0.7583 cumulative IPC: 0.7964 (Simulation time: 00 hr 19 min 07 sec)
Heartbeat CPU 0 instructions: 102000626 cycles: 77062283 heartbeat IPC: 0.7764 cumulative IPC: 0.7963 (Simulation time: 00 hr 19 min 17 sec)
Heartbeat CPU 0 instructions: 102500626 cycles: 77668563 heartbeat IPC: 0.8247 cumulative IPC: 0.7965 (Simulation time: 00 hr 19 min 25 sec)
Heartbeat CPU 0 instructions: 103000633 cycles: 78185011 heartbeat IPC: 0.9682 cumulative IPC: 0.7978 (Simulation time: 00 hr 19 min 33 sec)
Heartbeat CPU 0 instructions: 103500638 cycles: 78649575 heartbeat IPC: 1.076 cumulative IPC: 0.7998 (Simulation time: 00 hr 19 min 40 sec)
Heartbeat CPU 0 instructions: 104000638 cycles: 79204902 heartbeat IPC: 0.9004 cumulative IPC: 0.8006 (Simulation time: 00 hr 19 min 49 sec)
Heartbeat CPU 0 instructions: 104500639 cycles: 79795833 heartbeat IPC: 0.8461 cumulative IPC: 0.801 (Simulation time: 00 hr 19 min 57 sec)
Heartbeat CPU 0 instructions: 105000646 cycles: 80344606 heartbeat IPC: 0.9111 cumulative IPC: 0.8019 (Simulation time: 00 hr 20 min 05 sec)
Heartbeat CPU 0 instructions: 105500648 cycles: 80898946 heartbeat IPC: 0.902 cumulative IPC: 0.8027 (Simulation time: 00 hr 20 min 14 sec)
Heartbeat CPU 0 instructions: 106000651 cycles: 81380126 heartbeat IPC: 1.039 cumulative IPC: 0.8043 (Simulation time: 00 hr 20 min 21 sec)
Heartbeat CPU 0 instructions: 106500658 cycles: 81834873 heartbeat IPC: 1.1 cumulative IPC: 0.8062 (Simulation time: 00 hr 20 min 28 sec)
Heartbeat CPU 0 instructions: 107000658 cycles: 82414084 heartbeat IPC: 0.8632 cumulative IPC: 0.8067 (Simulation time: 00 hr 20 min 37 sec)
Heartbeat CPU 0 instructions: 107500658 cycles: 83042618 heartbeat IPC: 0.7955 cumulative IPC: 0.8066 (Simulation time: 00 hr 20 min 46 sec)
Heartbeat CPU 0 instructions: 108000660 cycles: 83599427 heartbeat IPC: 0.898 cumulative IPC: 0.8073 (Simulation time: 00 hr 20 min 54 sec)
Heartbeat CPU 0 instructions: 108500661 cycles: 84260114 heartbeat IPC: 0.7568 cumulative IPC: 0.8069 (Simulation time: 00 hr 21 min 03 sec)
Heartbeat CPU 0 instructions: 109000662 cycles: 84802494 heartbeat IPC: 0.9219 cumulative IPC: 0.8077 (Simulation time: 00 hr 21 min 12 sec)
Heartbeat CPU 0 instructions: 109500662 cycles: 85336440 heartbeat IPC: 0.9364 cumulative IPC: 0.8086 (Simulation time: 00 hr 21 min 19 sec)
Heartbeat CPU 0 instructions: 110000668 cycles: 85794992 heartbeat IPC: 1.09 cumulative IPC: 0.8104 (Simulation time: 00 hr 21 min 26 sec)
Heartbeat CPU 0 instructions: 110500671 cycles: 86338268 heartbeat IPC: 0.9203 cumulative IPC: 0.8112 (Simulation time: 00 hr 21 min 34 sec)
Heartbeat CPU 0 instructions: 111000678 cycles: 86856299 heartbeat IPC: 0.9652 cumulative IPC: 0.8123 (Simulation time: 00 hr 21 min 42 sec)
Heartbeat CPU 0 instructions: 111500679 cycles: 87364373 heartbeat IPC: 0.9841 cumulative IPC: 0.8134 (Simulation time: 00 hr 21 min 50 sec)
Heartbeat CPU 0 instructions: 112000686 cycles: 87868858 heartbeat IPC: 0.9911 cumulative IPC: 0.8146 (Simulation time: 00 hr 21 min 57 sec)
Heartbeat CPU 0 instructions: 112500688 cycles: 88377888 heartbeat IPC: 0.9823 cumulative IPC: 0.8157 (Simulation time: 00 hr 22 min 05 sec)
Heartbeat CPU 0 instructions: 113000688 cycles: 88888512 heartbeat IPC: 0.9792 cumulative IPC: 0.8168 (Simulation time: 00 hr 22 min 12 sec)
Heartbeat CPU 0 instructions: 113500691 cycles: 89419778 heartbeat IPC: 0.9412 cumulative IPC: 0.8176 (Simulation time: 00 hr 22 min 20 sec)
Heartbeat CPU 0 instructions: 114000693 cycles: 89932598 heartbeat IPC: 0.975 cumulative IPC: 0.8187 (Simulation time: 00 hr 22 min 28 sec)
Heartbeat CPU 0 instructions: 114500697 cycles: 90382775 heartbeat IPC: 1.111 cumulative IPC: 0.8203 (Simulation time: 00 hr 22 min 35 sec)
Heartbeat CPU 0 instructions: 115000699 cycles: 90981137 heartbeat IPC: 0.8356 cumulative IPC: 0.8205 (Simulation time: 00 hr 22 min 44 sec)
Heartbeat CPU 0 instructions: 115500701 cycles: 91562955 heartbeat IPC: 0.8594 cumulative IPC: 0.8207 (Simulation time: 00 hr 22 min 52 sec)
Heartbeat CPU 0 instructions: 116000706 cycles: 92176402 heartbeat IPC: 0.8151 cumulative IPC: 0.8207 (Simulation time: 00 hr 23 min 01 sec)
Heartbeat CPU 0 instructions: 116500708 cycles: 92772488 heartbeat IPC: 0.8388 cumulative IPC: 0.8208 (Simulation time: 00 hr 23 min 10 sec)
Heartbeat CPU 0 instructions: 117000711 cycles: 93267552 heartbeat IPC: 1.01 cumulative IPC: 0.822 (Simulation time: 00 hr 23 min 17 sec)
Heartbeat CPU 0 instructions: 117500713 cycles: 93720455 heartbeat IPC: 1.104 cumulative IPC: 0.8235 (Simulation time: 00 hr 23 min 24 sec)
Heartbeat CPU 0 instructions: 118000716 cycles: 94228857 heartbeat IPC: 0.9835 cumulative IPC: 0.8245 (Simulation time: 00 hr 23 min 31 sec)
Heartbeat CPU 0 instructions: 118500721 cycles: 94790044 heartbeat IPC: 0.891 cumulative IPC: 0.825 (Simulation time: 00 hr 23 min 39 sec)
Heartbeat CPU 0 instructions: 119000722 cycles: 95321369 heartbeat IPC: 0.941 cumulative IPC: 0.8257 (Simulation time: 00 hr 23 min 47 sec)
Heartbeat CPU 0 instructions: 119500722 cycles: 95856087 heartbeat IPC: 0.9351 cumulative IPC: 0.8264 (Simulation time: 00 hr 23 min 55 sec)
Heartbeat CPU 0 instructions: 120000727 cycles: 96368654 heartbeat IPC: 0.9755 cumulative IPC: 0.8273 (Simulation time: 00 hr 24 min 03 sec)
Heartbeat CPU 0 instructions: 120500730 cycles: 96792931 heartbeat IPC: 1.178 cumulative IPC: 0.8291 (Simulation time: 00 hr 24 min 09 sec)
Heartbeat CPU 0 instructions: 121000733 cycles: 97279768 heartbeat IPC: 1.027 cumulative IPC: 0.8302 (Simulation time: 00 hr 24 min 16 sec)
Heartbeat CPU 0 instructions: 121500734 cycles: 97895252 heartbeat IPC: 0.8124 cumulative IPC: 0.8301 (Simulation time: 00 hr 24 min 25 sec)
Heartbeat CPU 0 instructions: 122000736 cycles: 98416645 heartbeat IPC: 0.959 cumulative IPC: 0.8308 (Simulation time: 00 hr 24 min 33 sec)
Heartbeat CPU 0 instructions: 122500741 cycles: 98945243 heartbeat IPC: 0.9459 cumulative IPC: 0.8315 (Simulation time: 00 hr 24 min 41 sec)
Heartbeat CPU 0 instructions: 123000744 cycles: 99570478 heartbeat IPC: 0.7997 cumulative IPC: 0.8313 (Simulation time: 00 hr 24 min 50 sec)
Heartbeat CPU 0 instructions: 123500746 cycles: 100029936 heartbeat IPC: 1.088 cumulative IPC: 0.8326 (Simulation time: 00 hr 24 min 57 sec)
Heartbeat CPU 0 instructions: 124000751 cycles: 100564089 heartbeat IPC: 0.9361 cumulative IPC: 0.8333 (Simulation time: 00 hr 25 min 04 sec)
Heartbeat CPU 0 instructions: 124500757 cycles: 101030426 heartbeat IPC: 1.072 cumulative IPC: 0.8345 (Simulation time: 00 hr 25 min 11 sec)
Heartbeat CPU 0 instructions: 125000763 cycles: 101520818 heartbeat IPC: 1.02 cumulative IPC: 0.8355 (Simulation time: 00 hr 25 min 18 sec)
Heartbeat CPU 0 instructions: 125500767 cycles: 102033276 heartbeat IPC: 0.9757 cumulative IPC: 0.8363 (Simulation time: 00 hr 25 min 26 sec)
Heartbeat CPU 0 instructions: 126000774 cycles: 102506422 heartbeat IPC: 1.057 cumulative IPC: 0.8375 (Simulation time: 00 hr 25 min 33 sec)
Heartbeat CPU 0 instructions: 126500776 cycles: 102988644 heartbeat IPC: 1.037 cumulative IPC: 0.8385 (Simulation time: 00 hr 25 min 40 sec)
Heartbeat CPU 0 instructions: 127000778 cycles: 103478343 heartbeat IPC: 1.021 cumulative IPC: 0.8395 (Simulation time: 00 hr 25 min 47 sec)
Heartbeat CPU 0 instructions: 127500778 cycles: 103962038 heartbeat IPC: 1.034 cumulative IPC: 0.8405 (Simulation time: 00 hr 25 min 54 sec)
Heartbeat CPU 0 instructions: 128000781 cycles: 104478122 heartbeat IPC: 0.9688 cumulative IPC: 0.8412 (Simulation time: 00 hr 26 min 02 sec)
Heartbeat CPU 0 instructions: 128500784 cycles: 104970936 heartbeat IPC: 1.015 cumulative IPC: 0.8421 (Simulation time: 00 hr 26 min 09 sec)
Heartbeat CPU 0 instructions: 129000789 cycles: 105402653 heartbeat IPC: 1.158 cumulative IPC: 0.8436 (Simulation time: 00 hr 26 min 16 sec)
Heartbeat CPU 0 instructions: 129500796 cycles: 105915802 heartbeat IPC: 0.9744 cumulative IPC: 0.8443 (Simulation time: 00 hr 26 min 23 sec)
Heartbeat CPU 0 instructions: 130000801 cycles: 106457715 heartbeat IPC: 0.9227 cumulative IPC: 0.8448 (Simulation time: 00 hr 26 min 31 sec)
Heartbeat CPU 0 instructions: 130500802 cycles: 107004617 heartbeat IPC: 0.9142 cumulative IPC: 0.8452 (Simulation time: 00 hr 26 min 39 sec)
Heartbeat CPU 0 instructions: 131000806 cycles: 107597988 heartbeat IPC: 0.8426 cumulative IPC: 0.8451 (Simulation time: 00 hr 26 min 47 sec)
Heartbeat CPU 0 instructions: 131500809 cycles: 108116332 heartbeat IPC: 0.9646 cumulative IPC: 0.8458 (Simulation time: 00 hr 26 min 55 sec)
Heartbeat CPU 0 instructions: 132000812 cycles: 108585105 heartbeat IPC: 1.067 cumulative IPC: 0.8469 (Simulation time: 00 hr 27 min 02 sec)
Heartbeat CPU 0 instructions: 132500816 cycles: 109030042 heartbeat IPC: 1.124 cumulative IPC: 0.8481 (Simulation time: 00 hr 27 min 08 sec)
Heartbeat CPU 0 instructions: 133000816 cycles: 109547302 heartbeat IPC: 0.9666 cumulative IPC: 0.8488 (Simulation time: 00 hr 27 min 16 sec)
Heartbeat CPU 0 instructions: 133500820 cycles: 110058255 heartbeat IPC: 0.9786 cumulative IPC: 0.8494 (Simulation time: 00 hr 27 min 23 sec)
Heartbeat CPU 0 instructions: 134000826 cycles: 110562691 heartbeat IPC: 0.9912 cumulative IPC: 0.8501 (Simulation time: 00 hr 27 min 30 sec)
Heartbeat CPU 0 instructions: 134500831 cycles: 111083190 heartbeat IPC: 0.9606 cumulative IPC: 0.8507 (Simulation time: 00 hr 27 min 38 sec)
Heartbeat CPU 0 instructions: 135000833 cycles: 111556146 heartbeat IPC: 1.057 cumulative IPC: 0.8517 (Simulation time: 00 hr 27 min 44 sec)
Heartbeat CPU 0 instructions: 135500838 cycles: 111966813 heartbeat IPC: 1.218 cumulative IPC: 0.8532 (Simulation time: 00 hr 27 min 51 sec)
Heartbeat CPU 0 instructions: 136000843 cycles: 112444982 heartbeat IPC: 1.046 cumulative IPC: 0.8541 (Simulation time: 00 hr 27 min 57 sec)
Heartbeat CPU 0 instructions: 136500848 cycles: 112991372 heartbeat IPC: 0.9151 cumulative IPC: 0.8544 (Simulation time: 00 hr 28 min 05 sec)
Heartbeat CPU 0 instructions: 137000850 cycles: 113456646 heartbeat IPC: 1.075 cumulative IPC: 0.8555 (Simulation time: 00 hr 28 min 12 sec)
Heartbeat CPU 0 instructions: 137500857 cycles: 113953601 heartbeat IPC: 1.006 cumulative IPC: 0.8562 (Simulation time: 00 hr 28 min 19 sec)
Heartbeat CPU 0 instructions: 138000859 cycles: 114527025 heartbeat IPC: 0.872 cumulative IPC: 0.8563 (Simulation time: 00 hr 28 min 27 sec)
Heartbeat CPU 0 instructions: 138500864 cycles: 115014373 heartbeat IPC: 1.026 cumulative IPC: 0.8571 (Simulation time: 00 hr 28 min 34 sec)
Heartbeat CPU 0 instructions: 139000870 cycles: 115549246 heartbeat IPC: 0.9348 cumulative IPC: 0.8575 (Simulation time: 00 hr 28 min 41 sec)
Heartbeat CPU 0 instructions: 139500877 cycles: 115974338 heartbeat IPC: 1.176 cumulative IPC: 0.8588 (Simulation time: 00 hr 28 min 47 sec)
Heartbeat CPU 0 instructions: 140000881 cycles: 116453687 heartbeat IPC: 1.043 cumulative IPC: 0.8596 (Simulation time: 00 hr 28 min 54 sec)
Heartbeat CPU 0 instructions: 140500888 cycles: 116927378 heartbeat IPC: 1.056 cumulative IPC: 0.8605 (Simulation time: 00 hr 29 min 01 sec)
Heartbeat CPU 0 instructions: 141000889 cycles: 117393134 heartbeat IPC: 1.074 cumulative IPC: 0.8614 (Simulation time: 00 hr 29 min 08 sec)
Heartbeat CPU 0 instructions: 141500895 cycles: 117831865 heartbeat IPC: 1.14 cumulative IPC: 0.8626 (Simulation time: 00 hr 29 min 14 sec)
Heartbeat CPU 0 instructions: 142000899 cycles: 118288733 heartbeat IPC: 1.094 cumulative IPC: 0.8636 (Simulation time: 00 hr 29 min 20 sec)
Heartbeat CPU 0 instructions: 142500901 cycles: 118757533 heartbeat IPC: 1.067 cumulative IPC: 0.8645 (Simulation time: 00 hr 29 min 27 sec)
Heartbeat CPU 0 instructions: 143000908 cycles: 119233121 heartbeat IPC: 1.051 cumulative IPC: 0.8653 (Simulation time: 00 hr 29 min 34 sec)
Heartbeat CPU 0 instructions: 143500910 cycles: 119715484 heartbeat IPC: 1.037 cumulative IPC: 0.8661 (Simulation time: 00 hr 29 min 40 sec)
Heartbeat CPU 0 instructions: 144000913 cycles: 120177067 heartbeat IPC: 1.083 cumulative IPC: 0.867 (Simulation time: 00 hr 29 min 47 sec)
Heartbeat CPU 0 instructions: 144500919 cycles: 120594864 heartbeat IPC: 1.197 cumulative IPC: 0.8683 (Simulation time: 00 hr 29 min 53 sec)
Heartbeat CPU 0 instructions: 145000925 cycles: 121079519 heartbeat IPC: 1.032 cumulative IPC: 0.869 (Simulation time: 00 hr 29 min 59 sec)
Heartbeat CPU 0 instructions: 145500932 cycles: 121593569 heartbeat IPC: 0.9727 cumulative IPC: 0.8695 (Simulation time: 00 hr 30 min 06 sec)
Heartbeat CPU 0 instructions: 146000933 cycles: 122125970 heartbeat IPC: 0.9391 cumulative IPC: 0.8698 (Simulation time: 00 hr 30 min 14 sec)
Heartbeat CPU 0 instructions: 146500936 cycles: 122665780 heartbeat IPC: 0.9263 cumulative IPC: 0.8701 (Simulation time: 00 hr 30 min 21 sec)
Heartbeat CPU 0 instructions: 147000938 cycles: 123190373 heartbeat IPC: 0.9531 cumulative IPC: 0.8705 (Simulation time: 00 hr 30 min 28 sec)
Heartbeat CPU 0 instructions: 147500939 cycles: 123655553 heartbeat IPC: 1.075 cumulative IPC: 0.8713 (Simulation time: 00 hr 30 min 34 sec)
Heartbeat CPU 0 instructions: 148000941 cycles: 124079994 heartbeat IPC: 1.178 cumulative IPC: 0.8725 (Simulation time: 00 hr 30 min 40 sec)
Heartbeat CPU 0 instructions: 148500948 cycles: 124559135 heartbeat IPC: 1.044 cumulative IPC: 0.8732 (Simulation time: 00 hr 30 min 47 sec)
Heartbeat CPU 0 instructions: 149000954 cycles: 125042355 heartbeat IPC: 1.035 cumulative IPC: 0.8739 (Simulation time: 00 hr 30 min 54 sec)
Heartbeat CPU 0 instructions: 149500957 cycles: 125530631 heartbeat IPC: 1.024 cumulative IPC: 0.8745 (Simulation time: 00 hr 31 min 00 sec)
Heartbeat CPU 0 instructions: 150000961 cycles: 126021523 heartbeat IPC: 1.019 cumulative IPC: 0.8752 (Simulation time: 00 hr 31 min 07 sec)
Heartbeat CPU 0 instructions: 150500965 cycles: 126500083 heartbeat IPC: 1.045 cumulative IPC: 0.8759 (Simulation time: 00 hr 31 min 14 sec)
Heartbeat CPU 0 instructions: 151000968 cycles: 126914675 heartbeat IPC: 1.206 cumulative IPC: 0.8771 (Simulation time: 00 hr 31 min 19 sec)
Heartbeat CPU 0 instructions: 151500972 cycles: 127338952 heartbeat IPC: 1.178 cumulative IPC: 0.8782 (Simulation time: 00 hr 31 min 25 sec)
Heartbeat CPU 0 instructions: 152000977 cycles: 127825664 heartbeat IPC: 1.027 cumulative IPC: 0.8788 (Simulation time: 00 hr 31 min 32 sec)
Heartbeat CPU 0 instructions: 152500978 cycles: 128277687 heartbeat IPC: 1.106 cumulative IPC: 0.8797 (Simulation time: 00 hr 31 min 38 sec)
Heartbeat CPU 0 instructions: 153000978 cycles: 128708418 heartbeat IPC: 1.161 cumulative IPC: 0.8807 (Simulation time: 00 hr 31 min 44 sec)
Heartbeat CPU 0 instructions: 153500979 cycles: 129211290 heartbeat IPC: 0.9943 cumulative IPC: 0.8812 (Simulation time: 00 hr 31 min 51 sec)
Heartbeat CPU 0 instructions: 154000981 cycles: 129755466 heartbeat IPC: 0.9188 cumulative IPC: 0.8814 (Simulation time: 00 hr 31 min 58 sec)
Heartbeat CPU 0 instructions: 154500986 cycles: 130178788 heartbeat IPC: 1.181 cumulative IPC: 0.8824 (Simulation time: 00 hr 32 min 04 sec)
Heartbeat CPU 0 instructions: 155000987 cycles: 130711970 heartbeat IPC: 0.9378 cumulative IPC: 0.8827 (Simulation time: 00 hr 32 min 11 sec)
Heartbeat CPU 0 instructions: 155500993 cycles: 131152312 heartbeat IPC: 1.135 cumulative IPC: 0.8836 (Simulation time: 00 hr 32 min 18 sec)
Heartbeat CPU 0 instructions: 156000996 cycles: 131619607 heartbeat IPC: 1.07 cumulative IPC: 0.8843 (Simulation time: 00 hr 32 min 24 sec)
Heartbeat CPU 0 instructions: 156500997 cycles: 132094564 heartbeat IPC: 1.053 cumulative IPC: 0.885 (Simulation time: 00 hr 32 min 30 sec)
Heartbeat CPU 0 instructions: 157000998 cycles: 132533551 heartbeat IPC: 1.139 cumulative IPC: 0.8859 (Simulation time: 00 hr 32 min 36 sec)
Heartbeat CPU 0 instructions: 157501002 cycles: 132947288 heartbeat IPC: 1.209 cumulative IPC: 0.887 (Simulation time: 00 hr 32 min 42 sec)
Heartbeat CPU 0 instructions: 158001005 cycles: 133375197 heartbeat IPC: 1.168 cumulative IPC: 0.888 (Simulation time: 00 hr 32 min 48 sec)
Heartbeat CPU 0 instructions: 158501007 cycles: 133839178 heartbeat IPC: 1.078 cumulative IPC: 0.8887 (Simulation time: 00 hr 32 min 54 sec)
Heartbeat CPU 0 instructions: 159001007 cycles: 134287683 heartbeat IPC: 1.115 cumulative IPC: 0.8896 (Simulation time: 00 hr 33 min 01 sec)
Heartbeat CPU 0 instructions: 159501014 cycles: 134748137 heartbeat IPC: 1.086 cumulative IPC: 0.8903 (Simulation time: 00 hr 33 min 07 sec)
Heartbeat CPU 0 instructions: 160001021 cycles: 135197531 heartbeat IPC: 1.113 cumulative IPC: 0.8911 (Simulation time: 00 hr 33 min 13 sec)
Heartbeat CPU 0 instructions: 160501021 cycles: 135603838 heartbeat IPC: 1.231 cumulative IPC: 0.8922 (Simulation time: 00 hr 33 min 19 sec)
Heartbeat CPU 0 instructions: 161001027 cycles: 136056433 heartbeat IPC: 1.105 cumulative IPC: 0.893 (Simulation time: 00 hr 33 min 25 sec)
Heartbeat CPU 0 instructions: 161501033 cycles: 136532601 heartbeat IPC: 1.05 cumulative IPC: 0.8936 (Simulation time: 00 hr 33 min 32 sec)
Heartbeat CPU 0 instructions: 162001040 cycles: 137041336 heartbeat IPC: 0.9828 cumulative IPC: 0.894 (Simulation time: 00 hr 33 min 38 sec)
Heartbeat CPU 0 instructions: 162501040 cycles: 137568130 heartbeat IPC: 0.9491 cumulative IPC: 0.8942 (Simulation time: 00 hr 33 min 46 sec)
Heartbeat CPU 0 instructions: 163001044 cycles: 138075782 heartbeat IPC: 0.9849 cumulative IPC: 0.8946 (Simulation time: 00 hr 33 min 52 sec)
Heartbeat CPU 0 instructions: 163501046 cycles: 138555113 heartbeat IPC: 1.043 cumulative IPC: 0.8951 (Simulation time: 00 hr 33 min 59 sec)
Heartbeat CPU 0 instructions: 164001047 cycles: 138973756 heartbeat IPC: 1.194 cumulative IPC: 0.8961 (Simulation time: 00 hr 34 min 05 sec)
Heartbeat CPU 0 instructions: 164501051 cycles: 139427578 heartbeat IPC: 1.102 cumulative IPC: 0.8968 (Simulation time: 00 hr 34 min 11 sec)
Heartbeat CPU 0 instructions: 165001052 cycles: 139890545 heartbeat IPC: 1.08 cumulative IPC: 0.8975 (Simulation time: 00 hr 34 min 17 sec)
Heartbeat CPU 0 instructions: 165501057 cycles: 140351166 heartbeat IPC: 1.086 cumulative IPC: 0.8982 (Simulation time: 00 hr 34 min 24 sec)
Heartbeat CPU 0 instructions: 166001064 cycles: 140817123 heartbeat IPC: 1.073 cumulative IPC: 0.8988 (Simulation time: 00 hr 34 min 30 sec)
Heartbeat CPU 0 instructions: 166501068 cycles: 141300957 heartbeat IPC: 1.033 cumulative IPC: 0.8993 (Simulation time: 00 hr 34 min 37 sec)
Heartbeat CPU 0 instructions: 167001068 cycles: 141731918 heartbeat IPC: 1.16 cumulative IPC: 0.9002 (Simulation time: 00 hr 34 min 43 sec)
Heartbeat CPU 0 instructions: 167501070 cycles: 142133564 heartbeat IPC: 1.245 cumulative IPC: 0.9012 (Simulation time: 00 hr 34 min 48 sec)
Heartbeat CPU 0 instructions: 168001070 cycles: 142550036 heartbeat IPC: 1.201 cumulative IPC: 0.9022 (Simulation time: 00 hr 34 min 54 sec)
Heartbeat CPU 0 instructions: 168501076 cycles: 142974892 heartbeat IPC: 1.177 cumulative IPC: 0.9031 (Simulation time: 00 hr 35 min 00 sec)
Heartbeat CPU 0 instructions: 169001076 cycles: 143387657 heartbeat IPC: 1.211 cumulative IPC: 0.904 (Simulation time: 00 hr 35 min 06 sec)
Heartbeat CPU 0 instructions: 169501079 cycles: 143809880 heartbeat IPC: 1.184 cumulative IPC: 0.9049 (Simulation time: 00 hr 35 min 12 sec)
Heartbeat CPU 0 instructions: 170001086 cycles: 144291834 heartbeat IPC: 1.037 cumulative IPC: 0.9054 (Simulation time: 00 hr 35 min 18 sec)
Heartbeat CPU 0 instructions: 170501090 cycles: 144788351 heartbeat IPC: 1.007 cumulative IPC: 0.9058 (Simulation time: 00 hr 35 min 25 sec)
Heartbeat CPU 0 instructions: 171001093 cycles: 145203732 heartbeat IPC: 1.204 cumulative IPC: 0.9067 (Simulation time: 00 hr 35 min 31 sec)
Heartbeat CPU 0 instructions: 171501096 cycles: 145734827 heartbeat IPC: 0.9415 cumulative IPC: 0.9069 (Simulation time: 00 hr 35 min 38 sec)
Heartbeat CPU 0 instructions: 172001098 cycles: 146172206 heartbeat IPC: 1.143 cumulative IPC: 0.9076 (Simulation time: 00 hr 35 min 44 sec)
Heartbeat CPU 0 instructions: 172501100 cycles: 146625285 heartbeat IPC: 1.104 cumulative IPC: 0.9083 (Simulation time: 00 hr 35 min 50 sec)
Heartbeat CPU 0 instructions: 173001103 cycles: 147073772 heartbeat IPC: 1.115 cumulative IPC: 0.909 (Simulation time: 00 hr 35 min 56 sec)
Heartbeat CPU 0 instructions: 173501103 cycles: 147506379 heartbeat IPC: 1.156 cumulative IPC: 0.9098 (Simulation time: 00 hr 36 min 02 sec)
Heartbeat CPU 0 instructions: 174001108 cycles: 147917300 heartbeat IPC: 1.217 cumulative IPC: 0.9107 (Simulation time: 00 hr 36 min 08 sec)
Heartbeat CPU 0 instructions: 174501108 cycles: 148325589 heartbeat IPC: 1.225 cumulative IPC: 0.9116 (Simulation time: 00 hr 36 min 14 sec)
Heartbeat CPU 0 instructions: 175001113 cycles: 148785026 heartbeat IPC: 1.088 cumulative IPC: 0.9122 (Simulation time: 00 hr 36 min 20 sec)
Heartbeat CPU 0 instructions: 175501114 cycles: 149217146 heartbeat IPC: 1.157 cumulative IPC: 0.913 (Simulation time: 00 hr 36 min 26 sec)
Heartbeat CPU 0 instructions: 176001118 cycles: 149662860 heartbeat IPC: 1.122 cumulative IPC: 0.9137 (Simulation time: 00 hr 36 min 32 sec)
Heartbeat CPU 0 instructions: 176501121 cycles: 150093495 heartbeat IPC: 1.161 cumulative IPC: 0.9144 (Simulation time: 00 hr 36 min 38 sec)
Heartbeat CPU 0 instructions: 177001122 cycles: 150500335 heartbeat IPC: 1.229 cumulative IPC: 0.9154 (Simulation time: 00 hr 36 min 44 sec)
Heartbeat CPU 0 instructions: 177501127 cycles: 150933318 heartbeat IPC: 1.155 cumulative IPC: 0.9161 (Simulation time: 00 hr 36 min 50 sec)
Heartbeat CPU 0 instructions: 178001131 cycles: 151397674 heartbeat IPC: 1.077 cumulative IPC: 0.9166 (Simulation time: 00 hr 36 min 56 sec)
Heartbeat CPU 0 instructions: 178501137 cycles: 151872215 heartbeat IPC: 1.054 cumulative IPC: 0.9171 (Simulation time: 00 hr 37 min 03 sec)
Heartbeat CPU 0 instructions: 179001140 cycles: 152368024 heartbeat IPC: 1.008 cumulative IPC: 0.9174 (Simulation time: 00 hr 37 min 10 sec)
Heartbeat CPU 0 instructions: 179501144 cycles: 152872209 heartbeat IPC: 0.9917 cumulative IPC: 0.9177 (Simulation time: 00 hr 37 min 16 sec)
Heartbeat CPU 0 instructions: 180001144 cycles: 153366206 heartbeat IPC: 1.012 cumulative IPC: 0.918 (Simulation time: 00 hr 37 min 23 sec)
Heartbeat CPU 0 instructions: 180501150 cycles: 153786214 heartbeat IPC: 1.19 cumulative IPC: 0.9188 (Simulation time: 00 hr 37 min 29 sec)
Heartbeat CPU 0 instructions: 181001155 cycles: 154208592 heartbeat IPC: 1.184 cumulative IPC: 0.9196 (Simulation time: 00 hr 37 min 35 sec)
Heartbeat CPU 0 instructions: 181501162 cycles: 154674637 heartbeat IPC: 1.073 cumulative IPC: 0.9201 (Simulation time: 00 hr 37 min 41 sec)
Heartbeat CPU 0 instructions: 182001168 cycles: 155108650 heartbeat IPC: 1.152 cumulative IPC: 0.9208 (Simulation time: 00 hr 37 min 47 sec)
Heartbeat CPU 0 instructions: 182501175 cycles: 155559864 heartbeat IPC: 1.108 cumulative IPC: 0.9214 (Simulation time: 00 hr 37 min 53 sec)
Heartbeat CPU 0 instructions: 183001180 cycles: 156011401 heartbeat IPC: 1.107 cumulative IPC: 0.922 (Simulation time: 00 hr 38 min 00 sec)
Heartbeat CPU 0 instructions: 183501180 cycles: 156457958 heartbeat IPC: 1.12 cumulative IPC: 0.9226 (Simulation time: 00 hr 38 min 06 sec)
Heartbeat CPU 0 instructions: 184001184 cycles: 156878381 heartbeat IPC: 1.189 cumulative IPC: 0.9234 (Simulation time: 00 hr 38 min 12 sec)
Heartbeat CPU 0 instructions: 184501186 cycles: 157280484 heartbeat IPC: 1.243 cumulative IPC: 0.9242 (Simulation time: 00 hr 38 min 17 sec)
Heartbeat CPU 0 instructions: 185001188 cycles: 157682572 heartbeat IPC: 1.244 cumulative IPC: 0.9251 (Simulation time: 00 hr 38 min 23 sec)
Heartbeat CPU 0 instructions: 185501193 cycles: 158085446 heartbeat IPC: 1.241 cumulative IPC: 0.926 (Simulation time: 00 hr 38 min 29 sec)
Heartbeat CPU 0 instructions: 186001199 cycles: 158490509 heartbeat IPC: 1.234 cumulative IPC: 0.9268 (Simulation time: 00 hr 38 min 34 sec)
Heartbeat CPU 0 instructions: 186501199 cycles: 158919641 heartbeat IPC: 1.165 cumulative IPC: 0.9275 (Simulation time: 00 hr 38 min 40 sec)
Heartbeat CPU 0 instructions: 187001202 cycles: 159394386 heartbeat IPC: 1.053 cumulative IPC: 0.9279 (Simulation time: 00 hr 38 min 47 sec)
Heartbeat CPU 0 instructions: 187501202 cycles: 159859261 heartbeat IPC: 1.076 cumulative IPC: 0.9284 (Simulation time: 00 hr 38 min 53 sec)
Heartbeat CPU 0 instructions: 188001203 cycles: 160260819 heartbeat IPC: 1.245 cumulative IPC: 0.9293 (Simulation time: 00 hr 38 min 59 sec)
Heartbeat CPU 0 instructions: 188501203 cycles: 160793352 heartbeat IPC: 0.9389 cumulative IPC: 0.9293 (Simulation time: 00 hr 39 min 06 sec)
Heartbeat CPU 0 instructions: 189001207 cycles: 161216558 heartbeat IPC: 1.181 cumulative IPC: 0.93 (Simulation time: 00 hr 39 min 12 sec)
Heartbeat CPU 0 instructions: 189501211 cycles: 161645844 heartbeat IPC: 1.165 cumulative IPC: 0.9307 (Simulation time: 00 hr 39 min 18 sec)
Heartbeat CPU 0 instructions: 190001212 cycles: 162093317 heartbeat IPC: 1.117 cumulative IPC: 0.9312 (Simulation time: 00 hr 39 min 24 sec)
Heartbeat CPU 0 instructions: 190501215 cycles: 162509341 heartbeat IPC: 1.202 cumulative IPC: 0.932 (Simulation time: 00 hr 39 min 30 sec)
Heartbeat CPU 0 instructions: 191001215 cycles: 162905656 heartbeat IPC: 1.262 cumulative IPC: 0.9329 (Simulation time: 00 hr 39 min 35 sec)
Heartbeat CPU 0 instructions: 191501219 cycles: 163301968 heartbeat IPC: 1.262 cumulative IPC: 0.9337 (Simulation time: 00 hr 39 min 41 sec)
Heartbeat CPU 0 instructions: 192001224 cycles: 163734728 heartbeat IPC: 1.155 cumulative IPC: 0.9343 (Simulation time: 00 hr 39 min 47 sec)
Heartbeat CPU 0 instructions: 192501224 cycles: 164156540 heartbeat IPC: 1.185 cumulative IPC: 0.935 (Simulation time: 00 hr 39 min 53 sec)
Heartbeat CPU 0 instructions: 193001225 cycles: 164566200 heartbeat IPC: 1.221 cumulative IPC: 0.9358 (Simulation time: 00 hr 39 min 59 sec)
Heartbeat CPU 0 instructions: 193501232 cycles: 164993941 heartbeat IPC: 1.169 cumulative IPC: 0.9365 (Simulation time: 00 hr 40 min 05 sec)
Heartbeat CPU 0 instructions: 194001235 cycles: 165388658 heartbeat IPC: 1.267 cumulative IPC: 0.9373 (Simulation time: 00 hr 40 min 10 sec)
Heartbeat CPU 0 instructions: 194501242 cycles: 165810556 heartbeat IPC: 1.185 cumulative IPC: 0.938 (Simulation time: 00 hr 40 min 16 sec)
Heartbeat CPU 0 instructions: 195001247 cycles: 166250378 heartbeat IPC: 1.137 cumulative IPC: 0.9386 (Simulation time: 00 hr 40 min 22 sec)
Heartbeat CPU 0 instructions: 195501248 cycles: 166710546 heartbeat IPC: 1.087 cumulative IPC: 0.939 (Simulation time: 00 hr 40 min 28 sec)
Heartbeat CPU 0 instructions: 196001255 cycles: 167198890 heartbeat IPC: 1.024 cumulative IPC: 0.9393 (Simulation time: 00 hr 40 min 35 sec)
Heartbeat CPU 0 instructions: 196501262 cycles: 167695020 heartbeat IPC: 1.008 cumulative IPC: 0.9395 (Simulation time: 00 hr 40 min 42 sec)
Heartbeat CPU 0 instructions: 197001263 cycles: 168182590 heartbeat IPC: 1.025 cumulative IPC: 0.9397 (Simulation time: 00 hr 40 min 48 sec)
Heartbeat CPU 0 instructions: 197501263 cycles: 168622617 heartbeat IPC: 1.136 cumulative IPC: 0.9403 (Simulation time: 00 hr 40 min 54 sec)
Heartbeat CPU 0 instructions: 198001269 cycles: 169025776 heartbeat IPC: 1.24 cumulative IPC: 0.9411 (Simulation time: 00 hr 41 min 00 sec)
Heartbeat CPU 0 instructions: 198501270 cycles: 169462350 heartbeat IPC: 1.145 cumulative IPC: 0.9416 (Simulation time: 00 hr 41 min 06 sec)
Heartbeat CPU 0 instructions: 199001271 cycles: 169901207 heartbeat IPC: 1.139 cumulative IPC: 0.9422 (Simulation time: 00 hr 41 min 12 sec)
Heartbeat CPU 0 instructions: 199501273 cycles: 170332132 heartbeat IPC: 1.16 cumulative IPC: 0.9428 (Simulation time: 00 hr 41 min 18 sec)
Heartbeat CPU 0 instructions: 200001276 cycles: 170770909 heartbeat IPC: 1.14 cumulative IPC: 0.9433 (Simulation time: 00 hr 41 min 24 sec)
Heartbeat CPU 0 instructions: 200501277 cycles: 171202845 heartbeat IPC: 1.158 cumulative IPC: 0.9439 (Simulation time: 00 hr 41 min 30 sec)
Heartbeat CPU 0 instructions: 201001282 cycles: 171634454 heartbeat IPC: 1.158 cumulative IPC: 0.9445 (Simulation time: 00 hr 41 min 36 sec)
Heartbeat CPU 0 instructions: 201501289 cycles: 172034645 heartbeat IPC: 1.249 cumulative IPC: 0.9452 (Simulation time: 00 hr 41 min 42 sec)
Heartbeat CPU 0 instructions: 202001291 cycles: 172426273 heartbeat IPC: 1.277 cumulative IPC: 0.946 (Simulation time: 00 hr 41 min 47 sec)
Heartbeat CPU 0 instructions: 202501295 cycles: 172833091 heartbeat IPC: 1.229 cumulative IPC: 0.9468 (Simulation time: 00 hr 41 min 53 sec)
Heartbeat CPU 0 instructions: 203001297 cycles: 173235449 heartbeat IPC: 1.243 cumulative IPC: 0.9475 (Simulation time: 00 hr 41 min 59 sec)
Heartbeat CPU 0 instructions: 203501299 cycles: 173636540 heartbeat IPC: 1.247 cumulative IPC: 0.9482 (Simulation time: 00 hr 42 min 04 sec)
Heartbeat CPU 0 instructions: 204001302 cycles: 174066015 heartbeat IPC: 1.164 cumulative IPC: 0.9488 (Simulation time: 00 hr 42 min 10 sec)
Heartbeat CPU 0 instructions: 204501307 cycles: 174521419 heartbeat IPC: 1.098 cumulative IPC: 0.9492 (Simulation time: 00 hr 42 min 16 sec)
Heartbeat CPU 0 instructions: 205001310 cycles: 174949101 heartbeat IPC: 1.169 cumulative IPC: 0.9498 (Simulation time: 00 hr 42 min 22 sec)
Heartbeat CPU 0 instructions: 205501316 cycles: 175349637 heartbeat IPC: 1.248 cumulative IPC: 0.9505 (Simulation time: 00 hr 42 min 28 sec)
Heartbeat CPU 0 instructions: 206001319 cycles: 175885846 heartbeat IPC: 0.9325 cumulative IPC: 0.9505 (Simulation time: 00 hr 42 min 35 sec)
Heartbeat CPU 0 instructions: 206501319 cycles: 176315172 heartbeat IPC: 1.165 cumulative IPC: 0.951 (Simulation time: 00 hr 42 min 41 sec)
Heartbeat CPU 0 instructions: 207001323 cycles: 176752241 heartbeat IPC: 1.144 cumulative IPC: 0.9515 (Simulation time: 00 hr 42 min 47 sec)
Heartbeat CPU 0 instructions: 207501330 cycles: 177181692 heartbeat IPC: 1.164 cumulative IPC: 0.9521 (Simulation time: 00 hr 42 min 53 sec)
Heartbeat CPU 0 instructions: 208001332 cycles: 177579387 heartbeat IPC: 1.257 cumulative IPC: 0.9528 (Simulation time: 00 hr 42 min 59 sec)
Heartbeat CPU 0 instructions: 208501334 cycles: 177983426 heartbeat IPC: 1.238 cumulative IPC: 0.9535 (Simulation time: 00 hr 43 min 04 sec)
Heartbeat CPU 0 instructions: 209001338 cycles: 178383292 heartbeat IPC: 1.25 cumulative IPC: 0.9542 (Simulation time: 00 hr 43 min 10 sec)
Heartbeat CPU 0 instructions: 209501340 cycles: 178799426 heartbeat IPC: 1.202 cumulative IPC: 0.9548 (Simulation time: 00 hr 43 min 16 sec)
Heartbeat CPU 0 instructions: 210001345 cycles: 179200045 heartbeat IPC: 1.248 cumulative IPC: 0.9555 (Simulation time: 00 hr 43 min 21 sec)
Heartbeat CPU 0 instructions: 210501347 cycles: 179601148 heartbeat IPC: 1.247 cumulative IPC: 0.9562 (Simulation time: 00 hr 43 min 27 sec)
Heartbeat CPU 0 instructions: 211001351 cycles: 180010873 heartbeat IPC: 1.22 cumulative IPC: 0.9569 (Simulation time: 00 hr 43 min 33 sec)
Heartbeat CPU 0 instructions: 211501356 cycles: 180403997 heartbeat IPC: 1.272 cumulative IPC: 0.9576 (Simulation time: 00 hr 43 min 38 sec)
Heartbeat CPU 0 instructions: 212001361 cycles: 180814677 heartbeat IPC: 1.218 cumulative IPC: 0.9583 (Simulation time: 00 hr 43 min 44 sec)
Heartbeat CPU 0 instructions: 212501366 cycles: 181244283 heartbeat IPC: 1.164 cumulative IPC: 0.9588 (Simulation time: 00 hr 43 min 50 sec)
Heartbeat CPU 0 instructions: 213001368 cycles: 181684941 heartbeat IPC: 1.135 cumulative IPC: 0.9592 (Simulation time: 00 hr 43 min 56 sec)
Heartbeat CPU 0 instructions: 213501370 cycles: 182149196 heartbeat IPC: 1.077 cumulative IPC: 0.9596 (Simulation time: 00 hr 44 min 02 sec)
Heartbeat CPU 0 instructions: 214001374 cycles: 182627516 heartbeat IPC: 1.045 cumulative IPC: 0.9598 (Simulation time: 00 hr 44 min 08 sec)
Heartbeat CPU 0 instructions: 214501378 cycles: 183100841 heartbeat IPC: 1.056 cumulative IPC: 0.9601 (Simulation time: 00 hr 44 min 15 sec)
Heartbeat CPU 0 instructions: 215001379 cycles: 183533425 heartbeat IPC: 1.156 cumulative IPC: 0.9606 (Simulation time: 00 hr 44 min 21 sec)
Heartbeat CPU 0 instructions: 215501379 cycles: 183932550 heartbeat IPC: 1.253 cumulative IPC: 0.9612 (Simulation time: 00 hr 44 min 26 sec)
Heartbeat CPU 0 instructions: 216001380 cycles: 184347812 heartbeat IPC: 1.204 cumulative IPC: 0.9618 (Simulation time: 00 hr 44 min 32 sec)
Heartbeat CPU 0 instructions: 216501385 cycles: 184779825 heartbeat IPC: 1.157 cumulative IPC: 0.9623 (Simulation time: 00 hr 44 min 38 sec)
Heartbeat CPU 0 instructions: 217001385 cycles: 185202223 heartbeat IPC: 1.184 cumulative IPC: 0.9628 (Simulation time: 00 hr 44 min 44 sec)
Heartbeat CPU 0 instructions: 217501386 cycles: 185621253 heartbeat IPC: 1.193 cumulative IPC: 0.9634 (Simulation time: 00 hr 44 min 50 sec)
Heartbeat CPU 0 instructions: 218001387 cycles: 186064480 heartbeat IPC: 1.128 cumulative IPC: 0.9638 (Simulation time: 00 hr 44 min 56 sec)
Heartbeat CPU 0 instructions: 218501391 cycles: 186504035 heartbeat IPC: 1.138 cumulative IPC: 0.9643 (Simulation time: 00 hr 45 min 02 sec)
Heartbeat CPU 0 instructions: 219001391 cycles: 186902715 heartbeat IPC: 1.254 cumulative IPC: 0.9649 (Simulation time: 00 hr 45 min 07 sec)
Heartbeat CPU 0 instructions: 219501396 cycles: 187299944 heartbeat IPC: 1.259 cumulative IPC: 0.9656 (Simulation time: 00 hr 45 min 13 sec)
Heartbeat CPU 0 instructions: 220001397 cycles: 187698964 heartbeat IPC: 1.253 cumulative IPC: 0.9662 (Simulation time: 00 hr 45 min 19 sec)
Heartbeat CPU 0 instructions: 220501399 cycles: 188097812 heartbeat IPC: 1.254 cumulative IPC: 0.9669 (Simulation time: 00 hr 45 min 24 sec)
Heartbeat CPU 0 instructions: 221001403 cycles: 188498064 heartbeat IPC: 1.249 cumulative IPC: 0.9675 (Simulation time: 00 hr 45 min 30 sec)
Heartbeat CPU 0 instructions: 221501409 cycles: 188909768 heartbeat IPC: 1.214 cumulative IPC: 0.9681 (Simulation time: 00 hr 45 min 35 sec)
Heartbeat CPU 0 instructions: 222001416 cycles: 189362660 heartbeat IPC: 1.104 cumulative IPC: 0.9684 (Simulation time: 00 hr 45 min 42 sec)
Heartbeat CPU 0 instructions: 222501423 cycles: 189784620 heartbeat IPC: 1.185 cumulative IPC: 0.969 (Simulation time: 00 hr 45 min 47 sec)
Heartbeat CPU 0 instructions: 223001430 cycles: 190183663 heartbeat IPC: 1.253 cumulative IPC: 0.9696 (Simulation time: 00 hr 45 min 53 sec)
Heartbeat CPU 0 instructions: 223501436 cycles: 190716078 heartbeat IPC: 0.9391 cumulative IPC: 0.9695 (Simulation time: 00 hr 46 min 00 sec)
Heartbeat CPU 0 instructions: 224001438 cycles: 191147336 heartbeat IPC: 1.159 cumulative IPC: 0.97 (Simulation time: 00 hr 46 min 06 sec)
Heartbeat CPU 0 instructions: 224501445 cycles: 191586760 heartbeat IPC: 1.138 cumulative IPC: 0.9704 (Simulation time: 00 hr 46 min 12 sec)
Heartbeat CPU 0 instructions: 225001450 cycles: 192013840 heartbeat IPC: 1.171 cumulative IPC: 0.9708 (Simulation time: 00 hr 46 min 18 sec)
Heartbeat CPU 0 instructions: 225501450 cycles: 192414490 heartbeat IPC: 1.248 cumulative IPC: 0.9715 (Simulation time: 00 hr 46 min 24 sec)
Heartbeat CPU 0 instructions: 226001450 cycles: 192810560 heartbeat IPC: 1.262 cumulative IPC: 0.9721 (Simulation time: 00 hr 46 min 29 sec)
Heartbeat CPU 0 instructions: 226501457 cycles: 193214877 heartbeat IPC: 1.237 cumulative IPC: 0.9727 (Simulation time: 00 hr 46 min 35 sec)
Heartbeat CPU 0 instructions: 227001458 cycles: 193605583 heartbeat IPC: 1.28 cumulative IPC: 0.9733 (Simulation time: 00 hr 46 min 41 sec)
Heartbeat CPU 0 instructions: 227501465 cycles: 194008395 heartbeat IPC: 1.241 cumulative IPC: 0.9739 (Simulation time: 00 hr 46 min 46 sec)
Heartbeat CPU 0 instructions: 228001465 cycles: 194410168 heartbeat IPC: 1.244 cumulative IPC: 0.9745 (Simulation time: 00 hr 46 min 52 sec)
Heartbeat CPU 0 instructions: 228501466 cycles: 194803434 heartbeat IPC: 1.271 cumulative IPC: 0.9752 (Simulation time: 00 hr 46 min 57 sec)
Heartbeat CPU 0 instructions: 229001468 cycles: 195200611 heartbeat IPC: 1.259 cumulative IPC: 0.9758 (Simulation time: 00 hr 47 min 03 sec)
Heartbeat CPU 0 instructions: 229501469 cycles: 195610609 heartbeat IPC: 1.22 cumulative IPC: 0.9763 (Simulation time: 00 hr 47 min 09 sec)
Heartbeat CPU 0 instructions: 230001469 cycles: 196019151 heartbeat IPC: 1.224 cumulative IPC: 0.9769 (Simulation time: 00 hr 47 min 14 sec)
Heartbeat CPU 0 instructions: 230501474 cycles: 196423800 heartbeat IPC: 1.236 cumulative IPC: 0.9774 (Simulation time: 00 hr 47 min 20 sec)
Heartbeat CPU 0 instructions: 231001481 cycles: 196853725 heartbeat IPC: 1.163 cumulative IPC: 0.9779 (Simulation time: 00 hr 47 min 26 sec)
Heartbeat CPU 0 instructions: 231501487 cycles: 197308808 heartbeat IPC: 1.099 cumulative IPC: 0.9782 (Simulation time: 00 hr 47 min 32 sec)
Heartbeat CPU 0 instructions: 232001491 cycles: 197792412 heartbeat IPC: 1.034 cumulative IPC: 0.9783 (Simulation time: 00 hr 47 min 39 sec)
Heartbeat CPU 0 instructions: 232501498 cycles: 198246428 heartbeat IPC: 1.101 cumulative IPC: 0.9786 (Simulation time: 00 hr 47 min 45 sec)
Heartbeat CPU 0 instructions: 233001498 cycles: 198655819 heartbeat IPC: 1.221 cumulative IPC: 0.9791 (Simulation time: 00 hr 47 min 51 sec)
Heartbeat CPU 0 instructions: 233501501 cycles: 199048432 heartbeat IPC: 1.274 cumulative IPC: 0.9798 (Simulation time: 00 hr 47 min 56 sec)
Heartbeat CPU 0 instructions: 234001507 cycles: 199463858 heartbeat IPC: 1.204 cumulative IPC: 0.9803 (Simulation time: 00 hr 48 min 02 sec)
Heartbeat CPU 0 instructions: 234501508 cycles: 199893591 heartbeat IPC: 1.164 cumulative IPC: 0.9807 (Simulation time: 00 hr 48 min 08 sec)
Heartbeat CPU 0 instructions: 235001515 cycles: 200300670 heartbeat IPC: 1.228 cumulative IPC: 0.9812 (Simulation time: 00 hr 48 min 14 sec)
Heartbeat CPU 0 instructions: 235501516 cycles: 200726408 heartbeat IPC: 1.174 cumulative IPC: 0.9816 (Simulation time: 00 hr 48 min 20 sec)
Heartbeat CPU 0 instructions: 236001516 cycles: 201152154 heartbeat IPC: 1.174 cumulative IPC: 0.9821 (Simulation time: 00 hr 48 min 26 sec)
Heartbeat CPU 0 instructions: 236501518 cycles: 201582581 heartbeat IPC: 1.162 cumulative IPC: 0.9825 (Simulation time: 00 hr 48 min 31 sec)
Heartbeat CPU 0 instructions: 237001518 cycles: 201980260 heartbeat IPC: 1.257 cumulative IPC: 0.9831 (Simulation time: 00 hr 48 min 37 sec)
Heartbeat CPU 0 instructions: 237501519 cycles: 202383508 heartbeat IPC: 1.24 cumulative IPC: 0.9836 (Simulation time: 00 hr 48 min 43 sec)
Heartbeat CPU 0 instructions: 238001523 cycles: 202780939 heartbeat IPC: 1.258 cumulative IPC: 0.9842 (Simulation time: 00 hr 48 min 48 sec)
Heartbeat CPU 0 instructions: 238501524 cycles: 203175747 heartbeat IPC: 1.266 cumulative IPC: 0.9848 (Simulation time: 00 hr 48 min 54 sec)
Heartbeat CPU 0 instructions: 239001527 cycles: 203579369 heartbeat IPC: 1.239 cumulative IPC: 0.9853 (Simulation time: 00 hr 48 min 59 sec)
Heartbeat CPU 0 instructions: 239501532 cycles: 203992996 heartbeat IPC: 1.209 cumulative IPC: 0.9858 (Simulation time: 00 hr 49 min 05 sec)
Heartbeat CPU 0 instructions: 240001538 cycles: 204428741 heartbeat IPC: 1.147 cumulative IPC: 0.9861 (Simulation time: 00 hr 49 min 11 sec)
Heartbeat CPU 0 instructions: 240501543 cycles: 204833649 heartbeat IPC: 1.235 cumulative IPC: 0.9867 (Simulation time: 00 hr 49 min 17 sec)
Heartbeat CPU 0 instructions: 241001545 cycles: 205225262 heartbeat IPC: 1.277 cumulative IPC: 0.9872 (Simulation time: 00 hr 49 min 22 sec)
Heartbeat CPU 0 instructions: 241501547 cycles: 205759547 heartbeat IPC: 0.9358 cumulative IPC: 0.9871 (Simulation time: 00 hr 49 min 29 sec)
Heartbeat CPU 0 instructions: 242001549 cycles: 206186893 heartbeat IPC: 1.17 cumulative IPC: 0.9875 (Simulation time: 00 hr 49 min 35 sec)
Heartbeat CPU 0 instructions: 242501549 cycles: 206626073 heartbeat IPC: 1.138 cumulative IPC: 0.9878 (Simulation time: 00 hr 49 min 41 sec)
Heartbeat CPU 0 instructions: 243001551 cycles: 207047753 heartbeat IPC: 1.186 cumulative IPC: 0.9883 (Simulation time: 00 hr 49 min 47 sec)
Heartbeat CPU 0 instructions: 243501558 cycles: 207449336 heartbeat IPC: 1.245 cumulative IPC: 0.9888 (Simulation time: 00 hr 49 min 53 sec)
Heartbeat CPU 0 instructions: 244001561 cycles: 207846243 heartbeat IPC: 1.26 cumulative IPC: 0.9893 (Simulation time: 00 hr 49 min 58 sec)
Heartbeat CPU 0 instructions: 244501561 cycles: 208239180 heartbeat IPC: 1.272 cumulative IPC: 0.9899 (Simulation time: 00 hr 50 min 04 sec)
Heartbeat CPU 0 instructions: 245001563 cycles: 208635801 heartbeat IPC: 1.261 cumulative IPC: 0.9905 (Simulation time: 00 hr 50 min 10 sec)
Heartbeat CPU 0 instructions: 245501563 cycles: 209040242 heartbeat IPC: 1.236 cumulative IPC: 0.991 (Simulation time: 00 hr 50 min 15 sec)
Heartbeat CPU 0 instructions: 246001563 cycles: 209446474 heartbeat IPC: 1.231 cumulative IPC: 0.9915 (Simulation time: 00 hr 50 min 21 sec)
Heartbeat CPU 0 instructions: 246501566 cycles: 209837460 heartbeat IPC: 1.279 cumulative IPC: 0.992 (Simulation time: 00 hr 50 min 26 sec)
Heartbeat CPU 0 instructions: 247001566 cycles: 210236017 heartbeat IPC: 1.255 cumulative IPC: 0.9925 (Simulation time: 00 hr 50 min 32 sec)
Heartbeat CPU 0 instructions: 247501573 cycles: 210631949 heartbeat IPC: 1.263 cumulative IPC: 0.9931 (Simulation time: 00 hr 50 min 37 sec)
Heartbeat CPU 0 instructions: 248001579 cycles: 211030310 heartbeat IPC: 1.255 cumulative IPC: 0.9936 (Simulation time: 00 hr 50 min 43 sec)
Heartbeat CPU 0 instructions: 248501584 cycles: 211431381 heartbeat IPC: 1.247 cumulative IPC: 0.9941 (Simulation time: 00 hr 50 min 49 sec)
Heartbeat CPU 0 instructions: 249001586 cycles: 211841816 heartbeat IPC: 1.218 cumulative IPC: 0.9946 (Simulation time: 00 hr 50 min 54 sec)
Heartbeat CPU 0 instructions: 249501591 cycles: 212279820 heartbeat IPC: 1.142 cumulative IPC: 0.9949 (Simulation time: 00 hr 51 min 01 sec)
Simulation finished CPU 0 instructions: 200000005 cycles: 200990000 cumulative IPC: 0.9951 (Simulation time: 00 hr 51 min 07 sec)
Simulation complete CPU 0 instructions: 200000005 cycles: 200990000 cumulative IPC: 0.9951 (Simulation time: 00 hr 51 min 07 sec)

ChampSim completed all CPUs

=== Simulation ===
CPU 0 runs /local-ssd/ben/dpc4-traces/SPEC17/619.lbm_s-2676B.champsimtrace.xz

Region of Interest Statistics

CPU 0 cumulative IPC: 0.9951 instructions: 200000005 cycles: 200990000
CPU 0 Branch Prediction Accuracy: 99.05% MPKI: 0.1154 Average ROB Occupancy at Mispredict: 337.1
Branch type MPKI
BRANCH_DIRECT_JUMP: 0
BRANCH_INDIRECT: 0
BRANCH_CONDITIONAL: 0.1154
BRANCH_DIRECT_CALL: 0
BRANCH_INDIRECT_CALL: 0
BRANCH_RETURN: 0

cpu0->cpu0_STLB TOTAL        ACCESS:     158750 HIT:      75431 MISS:      83319 MSHR_MERGE:          0
cpu0->cpu0_STLB LOAD         ACCESS:     158750 HIT:      75431 MISS:      83319 MSHR_MERGE:          0
cpu0->cpu0_STLB RFO          ACCESS:          0 HIT:          0 MISS:          0 MSHR_MERGE:          0
cpu0->cpu0_STLB PREFETCH     ACCESS:          0 HIT:          0 MISS:          0 MSHR_MERGE:          0
cpu0->cpu0_STLB WRITE        ACCESS:          0 HIT:          0 MISS:          0 MSHR_MERGE:          0
cpu0->cpu0_STLB TRANSLATION  ACCESS:          0 HIT:          0 MISS:          0 MSHR_MERGE:          0
cpu0->cpu0_STLB PREFETCH REQUESTED:          0 ISSUED:          0 USEFUL:          0 USELESS:          0
cpu0->cpu0_STLB AVERAGE MISS LATENCY: 272.8 cycles
cpu0->cpu0_L2C TOTAL        ACCESS:   16377869 HIT:   11037236 MISS:    5340633 MSHR_MERGE:          0
cpu0->cpu0_L2C LOAD         ACCESS:     235633 HIT:          2 MISS:     235631 MSHR_MERGE:          0
cpu0->cpu0_L2C RFO          ACCESS:    7516322 HIT:    3518862 MISS:    3997460 MSHR_MERGE:          0
cpu0->cpu0_L2C PREFETCH     ACCESS:    1097051 HIT:         27 MISS:    1097024 MSHR_MERGE:          0
cpu0->cpu0_L2C WRITE        ACCESS:    7518340 HIT:    7518340 MISS:          0 MSHR_MERGE:          0
cpu0->cpu0_L2C TRANSLATION  ACCESS:      10523 HIT:          5 MISS:      10518 MSHR_MERGE:          0
cpu0->cpu0_L2C PREFETCH REQUESTED:          0 ISSUED:          0 USEFUL:          0 USELESS:          0
cpu0->cpu0_L2C AVERAGE MISS LATENCY: 533.9 cycles
cpu0->cpu0_L1I TOTAL        ACCESS:   34558694 HIT:   34558694 MISS:          0 MSHR_MERGE:          0
cpu0->cpu0_L1I LOAD         ACCESS:   34558694 HIT:   34558694 MISS:          0 MSHR_MERGE:          0
cpu0->cpu0_L1I RFO          ACCESS:          0 HIT:          0 MISS:          0 MSHR_MERGE:          0
cpu0->cpu0_L1I PREFETCH     ACCESS:          0 HIT:          0 MISS:          0 MSHR_MERGE:          0
cpu0->cpu0_L1I WRITE        ACCESS:          0 HIT:          0 MISS:          0 MSHR_MERGE:          0
cpu0->cpu0_L1I TRANSLATION  ACCESS:          0 HIT:          0 MISS:          0 MSHR_MERGE:          0
cpu0->cpu0_L1I PREFETCH REQUESTED:          0 ISSUED:          0 USEFUL:          0 USELESS:          0
cpu0->cpu0_L1I AVERAGE MISS LATENCY: - cycles
cpu0->cpu0_L1D TOTAL        ACCESS:   42305831 HIT:   30983077 MISS:   11322754 MSHR_MERGE:    2461207
cpu0->cpu0_L1D LOAD         ACCESS:    7424703 HIT:    7110148 MISS:     314555 MSHR_MERGE:      78922
cpu0->cpu0_L1D RFO          ACCESS:          0 HIT:          0 MISS:          0 MSHR_MERGE:          0
cpu0->cpu0_L1D PREFETCH     ACCESS:    5445225 HIT:    2336339 MISS:    3108886 MSHR_MERGE:    2011835
cpu0->cpu0_L1D WRITE        ACCESS:   29269184 HIT:   21380394 MISS:    7888790 MSHR_MERGE:     370450
cpu0->cpu0_L1D TRANSLATION  ACCESS:     166719 HIT:     156196 MISS:      10523 MSHR_MERGE:          0
cpu0->cpu0_L1D PREFETCH REQUESTED:   12936929 ISSUED:    5445225 USEFUL:    1096896 USELESS:        130
cpu0->cpu0_L1D AVERAGE MISS LATENCY: 301.2 cycles
cpu0->cpu0_ITLB TOTAL        ACCESS:   24439166 HIT:   24439166 MISS:          0 MSHR_MERGE:          0
cpu0->cpu0_ITLB LOAD         ACCESS:   24439166 HIT:   24439166 MISS:          0 MSHR_MERGE:          0
cpu0->cpu0_ITLB RFO          ACCESS:          0 HIT:          0 MISS:          0 MSHR_MERGE:          0
cpu0->cpu0_ITLB PREFETCH     ACCESS:          0 HIT:          0 MISS:          0 MSHR_MERGE:          0
cpu0->cpu0_ITLB WRITE        ACCESS:          0 HIT:          0 MISS:          0 MSHR_MERGE:          0
cpu0->cpu0_ITLB TRANSLATION  ACCESS:          0 HIT:          0 MISS:          0 MSHR_MERGE:          0
cpu0->cpu0_ITLB PREFETCH REQUESTED:          0 ISSUED:          0 USEFUL:          0 USELESS:          0
cpu0->cpu0_ITLB AVERAGE MISS LATENCY: - cycles
cpu0->cpu0_DTLB TOTAL        ACCESS:   37796288 HIT:   37479001 MISS:     317287 MSHR_MERGE:     158537
cpu0->cpu0_DTLB LOAD         ACCESS:   37796288 HIT:   37479001 MISS:     317287 MSHR_MERGE:     158537
cpu0->cpu0_DTLB RFO          ACCESS:          0 HIT:          0 MISS:          0 MSHR_MERGE:          0
cpu0->cpu0_DTLB PREFETCH     ACCESS:          0 HIT:          0 MISS:          0 MSHR_MERGE:          0
cpu0->cpu0_DTLB WRITE        ACCESS:          0 HIT:          0 MISS:          0 MSHR_MERGE:          0
cpu0->cpu0_DTLB TRANSLATION  ACCESS:          0 HIT:          0 MISS:          0 MSHR_MERGE:          0
cpu0->cpu0_DTLB PREFETCH REQUESTED:          0 ISSUED:          0 USEFUL:          0 USELESS:          0
cpu0->cpu0_DTLB AVERAGE MISS LATENCY: 148.7 cycles
cpu0->LLC TOTAL        ACCESS:    9337729 HIT:     711425 MISS:    8626304 MSHR_MERGE:          0
cpu0->LLC LOAD         ACCESS:     235631 HIT:          0 MISS:     235631 MSHR_MERGE:          0
cpu0->LLC RFO          ACCESS:    3997460 HIT:          0 MISS:    3997460 MSHR_MERGE:          0
cpu0->LLC PREFETCH     ACCESS:    1097024 HIT:          2 MISS:    1097022 MSHR_MERGE:          0
cpu0->LLC WRITE        ACCESS:    3997096 HIT:     711423 MISS:    3285673 MSHR_MERGE:          0
cpu0->LLC TRANSLATION  ACCESS:      10518 HIT:          0 MISS:      10518 MSHR_MERGE:          0
cpu0->LLC PREFETCH REQUESTED:          0 ISSUED:          0 USEFUL:          0 USELESS:          0
cpu0->LLC AVERAGE MISS LATENCY: 295.4 cycles

DRAM Statistics

Channel 0 RQ ROW_BUFFER_HIT:     375247
  ROW_BUFFER_MISS:    4965368
  AVG DBUS CONGESTED CYCLE: 15.37
Channel 0 WQ ROW_BUFFER_HIT:     550643
  ROW_BUFFER_MISS:    3446708
  FULL:      36143
Channel 0 REFRESHES ISSUED:      16748
