[VMEM] WARNING: physical memory size is smaller than virtual memory size.

*** ChampSim Multicore Out-of-Order Simulator ***
Warmup Instructions: 50000000
Simulation Instructions: 200000000
Number of CPUs: 1
Page size: 4096
Core 0: /local-ssd/ben/dpc4-traces/ai-ml/llama2.c-stories15M.3.champsimtrace.gz
Off-chip DRAM Size: 64 GiB Channels: 1 Width: 64-bit Data Rate: 4807 MT/s
Heartbeat CPU 0 instructions: 500001 cycles: 127485 heartbeat IPC: 3.922 cumulative IPC: 3.922 (Simulation time: 00 hr 00 min 03 sec)
Heartbeat CPU 0 instructions: 1000004 cycles: 253383 heartbeat IPC: 3.971 cumulative IPC: 3.947 (Simulation time: 00 hr 00 min 05 sec)
Heartbeat CPU 0 instructions: 1500007 cycles: 379078 heartbeat IPC: 3.978 cumulative IPC: 3.957 (Simulation time: 00 hr 00 min 07 sec)
Heartbeat CPU 0 instructions: 2000010 cycles: 504303 heartbeat IPC: 3.993 cumulative IPC: 3.966 (Simulation time: 00 hr 00 min 09 sec)
Heartbeat CPU 0 instructions: 2500013 cycles: 607797 heartbeat IPC: 4.831 cumulative IPC: 4.113 (Simulation time: 00 hr 00 min 10 sec)
Heartbeat CPU 0 instructions: 3000013 cycles: 751373 heartbeat IPC: 3.482 cumulative IPC: 3.993 (Simulation time: 00 hr 00 min 12 sec)
Heartbeat CPU 0 instructions: 3500020 cycles: 876448 heartbeat IPC: 3.998 cumulative IPC: 3.993 (Simulation time: 00 hr 00 min 14 sec)
Heartbeat CPU 0 instructions: 4000022 cycles: 1002433 heartbeat IPC: 3.969 cumulative IPC: 3.99 (Simulation time: 00 hr 00 min 16 sec)
Heartbeat CPU 0 instructions: 4500022 cycles: 1128181 heartbeat IPC: 3.976 cumulative IPC: 3.989 (Simulation time: 00 hr 00 min 18 sec)
Heartbeat CPU 0 instructions: 5000027 cycles: 1253615 heartbeat IPC: 3.986 cumulative IPC: 3.988 (Simulation time: 00 hr 00 min 19 sec)
Heartbeat CPU 0 instructions: 5500028 cycles: 1377567 heartbeat IPC: 4.034 cumulative IPC: 3.993 (Simulation time: 00 hr 00 min 21 sec)
Heartbeat CPU 0 instructions: 6000028 cycles: 1503450 heartbeat IPC: 3.972 cumulative IPC: 3.991 (Simulation time: 00 hr 00 min 23 sec)
Heartbeat CPU 0 instructions: 6500030 cycles: 1628706 heartbeat IPC: 3.992 cumulative IPC: 3.991 (Simulation time: 00 hr 00 min 25 sec)
Heartbeat CPU 0 instructions: 7000032 cycles: 1752460 heartbeat IPC: 4.04 cumulative IPC: 3.994 (Simulation time: 00 hr 00 min 27 sec)
Heartbeat CPU 0 instructions: 7500037 cycles: 1878109 heartbeat IPC: 3.979 cumulative IPC: 3.993 (Simulation time: 00 hr 00 min 29 sec)
Heartbeat CPU 0 instructions: 8000042 cycles: 2003158 heartbeat IPC: 3.998 cumulative IPC: 3.994 (Simulation time: 00 hr 00 min 31 sec)
Heartbeat CPU 0 instructions: 8500049 cycles: 2129144 heartbeat IPC: 3.969 cumulative IPC: 3.992 (Simulation time: 00 hr 00 min 32 sec)
Heartbeat CPU 0 instructions: 9000053 cycles: 2252727 heartbeat IPC: 4.046 cumulative IPC: 3.995 (Simulation time: 00 hr 00 min 34 sec)
Heartbeat CPU 0 instructions: 9500060 cycles: 2378341 heartbeat IPC: 3.981 cumulative IPC: 3.994 (Simulation time: 00 hr 00 min 36 sec)
Heartbeat CPU 0 instructions: 10000061 cycles: 2503543 heartbeat IPC: 3.994 cumulative IPC: 3.994 (Simulation time: 00 hr 00 min 38 sec)
Heartbeat CPU 0 instructions: 10500068 cycles: 2629252 heartbeat IPC: 3.977 cumulative IPC: 3.994 (Simulation time: 00 hr 00 min 40 sec)
Heartbeat CPU 0 instructions: 11000069 cycles: 2752791 heartbeat IPC: 4.047 cumulative IPC: 3.996 (Simulation time: 00 hr 00 min 42 sec)
Heartbeat CPU 0 instructions: 11500071 cycles: 2878648 heartbeat IPC: 3.973 cumulative IPC: 3.995 (Simulation time: 00 hr 00 min 43 sec)
Heartbeat CPU 0 instructions: 12000072 cycles: 3004007 heartbeat IPC: 3.989 cumulative IPC: 3.995 (Simulation time: 00 hr 00 min 45 sec)
Heartbeat CPU 0 instructions: 12500076 cycles: 3129372 heartbeat IPC: 3.988 cumulative IPC: 3.994 (Simulation time: 00 hr 00 min 47 sec)
Heartbeat CPU 0 instructions: 13000076 cycles: 3252768 heartbeat IPC: 4.052 cumulative IPC: 3.997 (Simulation time: 00 hr 00 min 49 sec)
Heartbeat CPU 0 instructions: 13500077 cycles: 3378347 heartbeat IPC: 3.982 cumulative IPC: 3.996 (Simulation time: 00 hr 00 min 51 sec)
Heartbeat CPU 0 instructions: 14000078 cycles: 3503497 heartbeat IPC: 3.995 cumulative IPC: 3.996 (Simulation time: 00 hr 00 min 53 sec)
Heartbeat CPU 0 instructions: 14500080 cycles: 3629253 heartbeat IPC: 3.976 cumulative IPC: 3.995 (Simulation time: 00 hr 00 min 55 sec)
Heartbeat CPU 0 instructions: 15000082 cycles: 3754843 heartbeat IPC: 3.981 cumulative IPC: 3.995 (Simulation time: 00 hr 00 min 56 sec)
Heartbeat CPU 0 instructions: 15500086 cycles: 3880521 heartbeat IPC: 3.978 cumulative IPC: 3.994 (Simulation time: 00 hr 00 min 58 sec)
Heartbeat CPU 0 instructions: 16000091 cycles: 4006196 heartbeat IPC: 3.979 cumulative IPC: 3.994 (Simulation time: 00 hr 01 min 00 sec)
Heartbeat CPU 0 instructions: 16500094 cycles: 4132092 heartbeat IPC: 3.972 cumulative IPC: 3.993 (Simulation time: 00 hr 01 min 02 sec)
Heartbeat CPU 0 instructions: 17000097 cycles: 4257788 heartbeat IPC: 3.978 cumulative IPC: 3.993 (Simulation time: 00 hr 01 min 04 sec)
Heartbeat CPU 0 instructions: 17500099 cycles: 4383685 heartbeat IPC: 3.972 cumulative IPC: 3.992 (Simulation time: 00 hr 01 min 06 sec)
Heartbeat CPU 0 instructions: 18000102 cycles: 4509369 heartbeat IPC: 3.978 cumulative IPC: 3.992 (Simulation time: 00 hr 01 min 08 sec)
Heartbeat CPU 0 instructions: 18500105 cycles: 4635058 heartbeat IPC: 3.978 cumulative IPC: 3.991 (Simulation time: 00 hr 01 min 09 sec)
Heartbeat CPU 0 instructions: 19000108 cycles: 4760731 heartbeat IPC: 3.979 cumulative IPC: 3.991 (Simulation time: 00 hr 01 min 11 sec)
Heartbeat CPU 0 instructions: 19500114 cycles: 4886620 heartbeat IPC: 3.972 cumulative IPC: 3.991 (Simulation time: 00 hr 01 min 13 sec)
Heartbeat CPU 0 instructions: 20000116 cycles: 5012521 heartbeat IPC: 3.971 cumulative IPC: 3.99 (Simulation time: 00 hr 01 min 15 sec)
Heartbeat CPU 0 instructions: 20500119 cycles: 5138213 heartbeat IPC: 3.978 cumulative IPC: 3.99 (Simulation time: 00 hr 01 min 17 sec)
Heartbeat CPU 0 instructions: 21000122 cycles: 5264109 heartbeat IPC: 3.972 cumulative IPC: 3.989 (Simulation time: 00 hr 01 min 19 sec)
Heartbeat CPU 0 instructions: 21500128 cycles: 5389598 heartbeat IPC: 3.984 cumulative IPC: 3.989 (Simulation time: 00 hr 01 min 21 sec)
Heartbeat CPU 0 instructions: 22000131 cycles: 5515463 heartbeat IPC: 3.973 cumulative IPC: 3.989 (Simulation time: 00 hr 01 min 23 sec)
Heartbeat CPU 0 instructions: 22500133 cycles: 5641157 heartbeat IPC: 3.978 cumulative IPC: 3.989 (Simulation time: 00 hr 01 min 24 sec)
Heartbeat CPU 0 instructions: 23000136 cycles: 5767042 heartbeat IPC: 3.972 cumulative IPC: 3.988 (Simulation time: 00 hr 01 min 26 sec)
Heartbeat CPU 0 instructions: 23500138 cycles: 5892742 heartbeat IPC: 3.978 cumulative IPC: 3.988 (Simulation time: 00 hr 01 min 28 sec)
Heartbeat CPU 0 instructions: 24000141 cycles: 6018634 heartbeat IPC: 3.972 cumulative IPC: 3.988 (Simulation time: 00 hr 01 min 30 sec)
Heartbeat CPU 0 instructions: 24500144 cycles: 6144332 heartbeat IPC: 3.978 cumulative IPC: 3.987 (Simulation time: 00 hr 01 min 32 sec)
Heartbeat CPU 0 instructions: 25000151 cycles: 6270007 heartbeat IPC: 3.979 cumulative IPC: 3.987 (Simulation time: 00 hr 01 min 34 sec)
Heartbeat CPU 0 instructions: 25500153 cycles: 6395687 heartbeat IPC: 3.978 cumulative IPC: 3.987 (Simulation time: 00 hr 01 min 36 sec)
Heartbeat CPU 0 instructions: 26000155 cycles: 6521584 heartbeat IPC: 3.972 cumulative IPC: 3.987 (Simulation time: 00 hr 01 min 38 sec)
Heartbeat CPU 0 instructions: 26500158 cycles: 6647268 heartbeat IPC: 3.978 cumulative IPC: 3.987 (Simulation time: 00 hr 01 min 39 sec)
Heartbeat CPU 0 instructions: 27000161 cycles: 6773171 heartbeat IPC: 3.971 cumulative IPC: 3.986 (Simulation time: 00 hr 01 min 41 sec)
Heartbeat CPU 0 instructions: 27500163 cycles: 6898865 heartbeat IPC: 3.978 cumulative IPC: 3.986 (Simulation time: 00 hr 01 min 43 sec)
Heartbeat CPU 0 instructions: 28000166 cycles: 7024542 heartbeat IPC: 3.978 cumulative IPC: 3.986 (Simulation time: 00 hr 01 min 45 sec)
Heartbeat CPU 0 instructions: 28500169 cycles: 7150212 heartbeat IPC: 3.979 cumulative IPC: 3.986 (Simulation time: 00 hr 01 min 47 sec)
Heartbeat CPU 0 instructions: 29000173 cycles: 7274440 heartbeat IPC: 4.025 cumulative IPC: 3.987 (Simulation time: 00 hr 01 min 49 sec)
Heartbeat CPU 0 instructions: 29500176 cycles: 7374441 heartbeat IPC: 5 cumulative IPC: 4 (Simulation time: 00 hr 01 min 50 sec)
Heartbeat CPU 0 instructions: 30000179 cycles: 7474440 heartbeat IPC: 5 cumulative IPC: 4.014 (Simulation time: 00 hr 01 min 51 sec)
Heartbeat CPU 0 instructions: 30500186 cycles: 7574441 heartbeat IPC: 5 cumulative IPC: 4.027 (Simulation time: 00 hr 01 min 53 sec)
Heartbeat CPU 0 instructions: 31000188 cycles: 7680586 heartbeat IPC: 4.711 cumulative IPC: 4.036 (Simulation time: 00 hr 01 min 54 sec)
Heartbeat CPU 0 instructions: 31500192 cycles: 7787474 heartbeat IPC: 4.678 cumulative IPC: 4.045 (Simulation time: 00 hr 01 min 55 sec)
Heartbeat CPU 0 instructions: 32000192 cycles: 7907370 heartbeat IPC: 4.17 cumulative IPC: 4.047 (Simulation time: 00 hr 01 min 57 sec)
Heartbeat CPU 0 instructions: 32500192 cycles: 8007418 heartbeat IPC: 4.998 cumulative IPC: 4.059 (Simulation time: 00 hr 01 min 58 sec)
Heartbeat CPU 0 instructions: 33000197 cycles: 8107420 heartbeat IPC: 5 cumulative IPC: 4.07 (Simulation time: 00 hr 01 min 59 sec)
Heartbeat CPU 0 instructions: 33500201 cycles: 8207419 heartbeat IPC: 5 cumulative IPC: 4.082 (Simulation time: 00 hr 02 min 01 sec)
Heartbeat CPU 0 instructions: 34000208 cycles: 8307516 heartbeat IPC: 4.995 cumulative IPC: 4.093 (Simulation time: 00 hr 02 min 02 sec)
Heartbeat CPU 0 instructions: 34500208 cycles: 8407518 heartbeat IPC: 5 cumulative IPC: 4.103 (Simulation time: 00 hr 02 min 03 sec)
Heartbeat CPU 0 instructions: 35000212 cycles: 8507520 heartbeat IPC: 5 cumulative IPC: 4.114 (Simulation time: 00 hr 02 min 05 sec)
Heartbeat CPU 0 instructions: 35500216 cycles: 8607518 heartbeat IPC: 5 cumulative IPC: 4.124 (Simulation time: 00 hr 02 min 06 sec)
Heartbeat CPU 0 instructions: 36000216 cycles: 8707616 heartbeat IPC: 4.995 cumulative IPC: 4.134 (Simulation time: 00 hr 02 min 07 sec)
Heartbeat CPU 0 instructions: 36500223 cycles: 8807620 heartbeat IPC: 5 cumulative IPC: 4.144 (Simulation time: 00 hr 02 min 09 sec)
Heartbeat CPU 0 instructions: 37000223 cycles: 8907618 heartbeat IPC: 5 cumulative IPC: 4.154 (Simulation time: 00 hr 02 min 10 sec)
Heartbeat CPU 0 instructions: 37500224 cycles: 9007615 heartbeat IPC: 5 cumulative IPC: 4.163 (Simulation time: 00 hr 02 min 11 sec)
Heartbeat CPU 0 instructions: 38000227 cycles: 9107714 heartbeat IPC: 4.995 cumulative IPC: 4.172 (Simulation time: 00 hr 02 min 12 sec)
Heartbeat CPU 0 instructions: 38500234 cycles: 9207716 heartbeat IPC: 5 cumulative IPC: 4.181 (Simulation time: 00 hr 02 min 14 sec)
Heartbeat CPU 0 instructions: 39000238 cycles: 9307716 heartbeat IPC: 5 cumulative IPC: 4.19 (Simulation time: 00 hr 02 min 15 sec)
Heartbeat CPU 0 instructions: 39500239 cycles: 9407765 heartbeat IPC: 4.998 cumulative IPC: 4.199 (Simulation time: 00 hr 02 min 16 sec)
Heartbeat CPU 0 instructions: 40000245 cycles: 9507814 heartbeat IPC: 4.998 cumulative IPC: 4.207 (Simulation time: 00 hr 02 min 18 sec)
Heartbeat CPU 0 instructions: 40500245 cycles: 9607814 heartbeat IPC: 5 cumulative IPC: 4.215 (Simulation time: 00 hr 02 min 19 sec)
Heartbeat CPU 0 instructions: 41000246 cycles: 9707812 heartbeat IPC: 5 cumulative IPC: 4.223 (Simulation time: 00 hr 02 min 20 sec)
Heartbeat CPU 0 instructions: 41500253 cycles: 9807911 heartbeat IPC: 4.995 cumulative IPC: 4.231 (Simulation time: 00 hr 02 min 22 sec)
Heartbeat CPU 0 instructions: 42000253 cycles: 9907912 heartbeat IPC: 5 cumulative IPC: 4.239 (Simulation time: 00 hr 02 min 23 sec)
Heartbeat CPU 0 instructions: 42500257 cycles: 10007914 heartbeat IPC: 5 cumulative IPC: 4.247 (Simulation time: 00 hr 02 min 24 sec)
Heartbeat CPU 0 instructions: 43000261 cycles: 10107913 heartbeat IPC: 5 cumulative IPC: 4.254 (Simulation time: 00 hr 02 min 26 sec)
Heartbeat CPU 0 instructions: 43500268 cycles: 10207914 heartbeat IPC: 5 cumulative IPC: 4.261 (Simulation time: 00 hr 02 min 27 sec)
Heartbeat CPU 0 instructions: 44000275 cycles: 10307916 heartbeat IPC: 5 cumulative IPC: 4.269 (Simulation time: 00 hr 02 min 28 sec)
Heartbeat CPU 0 instructions: 44500277 cycles: 10407914 heartbeat IPC: 5 cumulative IPC: 4.276 (Simulation time: 00 hr 02 min 29 sec)
Heartbeat CPU 0 instructions: 45000282 cycles: 10507917 heartbeat IPC: 5 cumulative IPC: 4.283 (Simulation time: 00 hr 02 min 31 sec)
Heartbeat CPU 0 instructions: 45500285 cycles: 10607919 heartbeat IPC: 5 cumulative IPC: 4.289 (Simulation time: 00 hr 02 min 32 sec)
Heartbeat CPU 0 instructions: 46000288 cycles: 10707918 heartbeat IPC: 5 cumulative IPC: 4.296 (Simulation time: 00 hr 02 min 33 sec)
Heartbeat CPU 0 instructions: 46500295 cycles: 10807919 heartbeat IPC: 5 cumulative IPC: 4.302 (Simulation time: 00 hr 02 min 35 sec)
Heartbeat CPU 0 instructions: 47000295 cycles: 10907920 heartbeat IPC: 5 cumulative IPC: 4.309 (Simulation time: 00 hr 02 min 36 sec)
Heartbeat CPU 0 instructions: 47500298 cycles: 11007921 heartbeat IPC: 5 cumulative IPC: 4.315 (Simulation time: 00 hr 02 min 37 sec)
Heartbeat CPU 0 instructions: 48000305 cycles: 11107920 heartbeat IPC: 5 cumulative IPC: 4.321 (Simulation time: 00 hr 02 min 38 sec)
Heartbeat CPU 0 instructions: 48500308 cycles: 11207922 heartbeat IPC: 5 cumulative IPC: 4.327 (Simulation time: 00 hr 02 min 40 sec)
Heartbeat CPU 0 instructions: 49000312 cycles: 11307922 heartbeat IPC: 5 cumulative IPC: 4.333 (Simulation time: 00 hr 02 min 41 sec)
Heartbeat CPU 0 instructions: 49500319 cycles: 11407923 heartbeat IPC: 5 cumulative IPC: 4.339 (Simulation time: 00 hr 02 min 42 sec)
Warmup finished CPU 0 instructions: 50000007 cycles: 11507863 cumulative IPC: 4.345 (Simulation time: 00 hr 02 min 44 sec)
Warmup complete CPU 0 instructions: 50000007 cycles: 11507863 cumulative IPC: 4.345 (Simulation time: 00 hr 02 min 44 sec)
Heartbeat CPU 0 instructions: 50000319 cycles: 11508112 heartbeat IPC: 4.991 cumulative IPC: 1.253 (Simulation time: 00 hr 02 min 44 sec)
Heartbeat CPU 0 instructions: 50500323 cycles: 12008920 heartbeat IPC: 0.9984 cumulative IPC: 0.9985 (Simulation time: 00 hr 02 min 48 sec)
Heartbeat CPU 0 instructions: 51000324 cycles: 12516979 heartbeat IPC: 0.9841 cumulative IPC: 0.9913 (Simulation time: 00 hr 02 min 53 sec)
Heartbeat CPU 0 instructions: 51500329 cycles: 13026632 heartbeat IPC: 0.9811 cumulative IPC: 0.9879 (Simulation time: 00 hr 02 min 58 sec)
Heartbeat CPU 0 instructions: 52000333 cycles: 13537035 heartbeat IPC: 0.9796 cumulative IPC: 0.9858 (Simulation time: 00 hr 03 min 04 sec)
Heartbeat CPU 0 instructions: 52500334 cycles: 14047087 heartbeat IPC: 0.9803 cumulative IPC: 0.9847 (Simulation time: 00 hr 03 min 09 sec)
Heartbeat CPU 0 instructions: 53000334 cycles: 14555285 heartbeat IPC: 0.9839 cumulative IPC: 0.9845 (Simulation time: 00 hr 03 min 14 sec)
Heartbeat CPU 0 instructions: 53500336 cycles: 15065503 heartbeat IPC: 0.98 cumulative IPC: 0.9839 (Simulation time: 00 hr 03 min 19 sec)
Heartbeat CPU 0 instructions: 54000340 cycles: 15571848 heartbeat IPC: 0.9875 cumulative IPC: 0.9843 (Simulation time: 00 hr 03 min 24 sec)
Heartbeat CPU 0 instructions: 54500344 cycles: 16082267 heartbeat IPC: 0.9796 cumulative IPC: 0.9838 (Simulation time: 00 hr 03 min 29 sec)
Heartbeat CPU 0 instructions: 55000348 cycles: 16589604 heartbeat IPC: 0.9855 cumulative IPC: 0.984 (Simulation time: 00 hr 03 min 34 sec)
Heartbeat CPU 0 instructions: 55500349 cycles: 17098051 heartbeat IPC: 0.9834 cumulative IPC: 0.9839 (Simulation time: 00 hr 03 min 39 sec)
Heartbeat CPU 0 instructions: 56000354 cycles: 17607316 heartbeat IPC: 0.9818 cumulative IPC: 0.9838 (Simulation time: 00 hr 03 min 44 sec)
Heartbeat CPU 0 instructions: 56500358 cycles: 18110362 heartbeat IPC: 0.994 cumulative IPC: 0.9845 (Simulation time: 00 hr 03 min 49 sec)
Heartbeat CPU 0 instructions: 57000359 cycles: 18616246 heartbeat IPC: 0.9884 cumulative IPC: 0.9848 (Simulation time: 00 hr 03 min 54 sec)
Heartbeat CPU 0 instructions: 57500359 cycles: 19123265 heartbeat IPC: 0.9862 cumulative IPC: 0.9849 (Simulation time: 00 hr 03 min 58 sec)
Heartbeat CPU 0 instructions: 58000360 cycles: 19636714 heartbeat IPC: 0.9738 cumulative IPC: 0.9842 (Simulation time: 00 hr 04 min 04 sec)
Heartbeat CPU 0 instructions: 58500365 cycles: 20153350 heartbeat IPC: 0.9678 cumulative IPC: 0.9832 (Simulation time: 00 hr 04 min 09 sec)
Heartbeat CPU 0 instructions: 59000369 cycles: 20672963 heartbeat IPC: 0.9623 cumulative IPC: 0.982 (Simulation time: 00 hr 04 min 14 sec)
Heartbeat CPU 0 instructions: 59500373 cycles: 21190070 heartbeat IPC: 0.9669 cumulative IPC: 0.9812 (Simulation time: 00 hr 04 min 19 sec)
Heartbeat CPU 0 instructions: 60000374 cycles: 21654740 heartbeat IPC: 1.076 cumulative IPC: 0.9856 (Simulation time: 00 hr 04 min 24 sec)
Heartbeat CPU 0 instructions: 60500376 cycles: 22094127 heartbeat IPC: 1.138 cumulative IPC: 0.9919 (Simulation time: 00 hr 04 min 29 sec)
Heartbeat CPU 0 instructions: 61000380 cycles: 22539238 heartbeat IPC: 1.123 cumulative IPC: 0.9972 (Simulation time: 00 hr 04 min 33 sec)
Heartbeat CPU 0 instructions: 61500380 cycles: 23101198 heartbeat IPC: 0.8897 cumulative IPC: 0.992 (Simulation time: 00 hr 04 min 38 sec)
Heartbeat CPU 0 instructions: 62000385 cycles: 23722882 heartbeat IPC: 0.8043 cumulative IPC: 0.9824 (Simulation time: 00 hr 04 min 44 sec)
Heartbeat CPU 0 instructions: 62500386 cycles: 24335998 heartbeat IPC: 0.8155 cumulative IPC: 0.9745 (Simulation time: 00 hr 04 min 49 sec)
Heartbeat CPU 0 instructions: 63000390 cycles: 24969049 heartbeat IPC: 0.7898 cumulative IPC: 0.9658 (Simulation time: 00 hr 04 min 55 sec)
Heartbeat CPU 0 instructions: 63500390 cycles: 25577911 heartbeat IPC: 0.8212 cumulative IPC: 0.9595 (Simulation time: 00 hr 05 min 00 sec)
Heartbeat CPU 0 instructions: 64000392 cycles: 26201202 heartbeat IPC: 0.8022 cumulative IPC: 0.9528 (Simulation time: 00 hr 05 min 06 sec)
Heartbeat CPU 0 instructions: 64500394 cycles: 26820097 heartbeat IPC: 0.8079 cumulative IPC: 0.947 (Simulation time: 00 hr 05 min 12 sec)
Heartbeat CPU 0 instructions: 65000397 cycles: 27424138 heartbeat IPC: 0.8278 cumulative IPC: 0.9425 (Simulation time: 00 hr 05 min 17 sec)
Heartbeat CPU 0 instructions: 65500400 cycles: 28017552 heartbeat IPC: 0.8426 cumulative IPC: 0.9389 (Simulation time: 00 hr 05 min 23 sec)
Heartbeat CPU 0 instructions: 66000403 cycles: 28620631 heartbeat IPC: 0.8291 cumulative IPC: 0.935 (Simulation time: 00 hr 05 min 28 sec)
Heartbeat CPU 0 instructions: 66500403 cycles: 29232934 heartbeat IPC: 0.8166 cumulative IPC: 0.9309 (Simulation time: 00 hr 05 min 34 sec)
Heartbeat CPU 0 instructions: 67000409 cycles: 29840936 heartbeat IPC: 0.8224 cumulative IPC: 0.9273 (Simulation time: 00 hr 05 min 39 sec)
Heartbeat CPU 0 instructions: 67500412 cycles: 30438242 heartbeat IPC: 0.8371 cumulative IPC: 0.9245 (Simulation time: 00 hr 05 min 45 sec)
Heartbeat CPU 0 instructions: 68000413 cycles: 31040593 heartbeat IPC: 0.8301 cumulative IPC: 0.9216 (Simulation time: 00 hr 05 min 50 sec)
Heartbeat CPU 0 instructions: 68500413 cycles: 31651765 heartbeat IPC: 0.8181 cumulative IPC: 0.9184 (Simulation time: 00 hr 05 min 56 sec)
Heartbeat CPU 0 instructions: 69000417 cycles: 32248688 heartbeat IPC: 0.8376 cumulative IPC: 0.9161 (Simulation time: 00 hr 06 min 01 sec)
Heartbeat CPU 0 instructions: 69500422 cycles: 32856435 heartbeat IPC: 0.8227 cumulative IPC: 0.9134 (Simulation time: 00 hr 06 min 06 sec)
Heartbeat CPU 0 instructions: 70000423 cycles: 33461766 heartbeat IPC: 0.826 cumulative IPC: 0.911 (Simulation time: 00 hr 06 min 12 sec)
Heartbeat CPU 0 instructions: 70500424 cycles: 34086115 heartbeat IPC: 0.8008 cumulative IPC: 0.908 (Simulation time: 00 hr 06 min 18 sec)
Heartbeat CPU 0 instructions: 71000426 cycles: 34676689 heartbeat IPC: 0.8466 cumulative IPC: 0.9064 (Simulation time: 00 hr 06 min 23 sec)
Heartbeat CPU 0 instructions: 71500429 cycles: 35288265 heartbeat IPC: 0.8176 cumulative IPC: 0.9041 (Simulation time: 00 hr 06 min 28 sec)
Heartbeat CPU 0 instructions: 72000430 cycles: 35899919 heartbeat IPC: 0.8175 cumulative IPC: 0.902 (Simulation time: 00 hr 06 min 34 sec)
Heartbeat CPU 0 instructions: 72500431 cycles: 36510992 heartbeat IPC: 0.8182 cumulative IPC: 0.8999 (Simulation time: 00 hr 06 min 40 sec)
Heartbeat CPU 0 instructions: 73000433 cycles: 37135710 heartbeat IPC: 0.8004 cumulative IPC: 0.8975 (Simulation time: 00 hr 06 min 45 sec)
Heartbeat CPU 0 instructions: 73500437 cycles: 37757532 heartbeat IPC: 0.8041 cumulative IPC: 0.8953 (Simulation time: 00 hr 06 min 51 sec)
Heartbeat CPU 0 instructions: 74000441 cycles: 38381334 heartbeat IPC: 0.8015 cumulative IPC: 0.8931 (Simulation time: 00 hr 06 min 56 sec)
Heartbeat CPU 0 instructions: 74500442 cycles: 39010427 heartbeat IPC: 0.7948 cumulative IPC: 0.8908 (Simulation time: 00 hr 07 min 02 sec)
Heartbeat CPU 0 instructions: 75000449 cycles: 39634958 heartbeat IPC: 0.8006 cumulative IPC: 0.8888 (Simulation time: 00 hr 07 min 08 sec)
Heartbeat CPU 0 instructions: 75500451 cycles: 40257736 heartbeat IPC: 0.8029 cumulative IPC: 0.887 (Simulation time: 00 hr 07 min 13 sec)
Heartbeat CPU 0 instructions: 76000452 cycles: 40882130 heartbeat IPC: 0.8008 cumulative IPC: 0.8851 (Simulation time: 00 hr 07 min 19 sec)
Heartbeat CPU 0 instructions: 76500452 cycles: 41506834 heartbeat IPC: 0.8004 cumulative IPC: 0.8834 (Simulation time: 00 hr 07 min 24 sec)
Heartbeat CPU 0 instructions: 77000456 cycles: 42132221 heartbeat IPC: 0.7995 cumulative IPC: 0.8817 (Simulation time: 00 hr 07 min 30 sec)
Heartbeat CPU 0 instructions: 77500458 cycles: 42758121 heartbeat IPC: 0.7989 cumulative IPC: 0.88 (Simulation time: 00 hr 07 min 35 sec)
Heartbeat CPU 0 instructions: 78000462 cycles: 43389772 heartbeat IPC: 0.7916 cumulative IPC: 0.8783 (Simulation time: 00 hr 07 min 41 sec)
Heartbeat CPU 0 instructions: 78500466 cycles: 44018368 heartbeat IPC: 0.7954 cumulative IPC: 0.8767 (Simulation time: 00 hr 07 min 47 sec)
Heartbeat CPU 0 instructions: 79000470 cycles: 44642920 heartbeat IPC: 0.8006 cumulative IPC: 0.8752 (Simulation time: 00 hr 07 min 52 sec)
Heartbeat CPU 0 instructions: 79500470 cycles: 45266576 heartbeat IPC: 0.8017 cumulative IPC: 0.8739 (Simulation time: 00 hr 07 min 58 sec)
Heartbeat CPU 0 instructions: 80000476 cycles: 45889811 heartbeat IPC: 0.8023 cumulative IPC: 0.8726 (Simulation time: 00 hr 08 min 03 sec)
Heartbeat CPU 0 instructions: 80500477 cycles: 46513015 heartbeat IPC: 0.8023 cumulative IPC: 0.8713 (Simulation time: 00 hr 08 min 09 sec)
Heartbeat CPU 0 instructions: 81000477 cycles: 47140511 heartbeat IPC: 0.7968 cumulative IPC: 0.87 (Simulation time: 00 hr 08 min 15 sec)
Heartbeat CPU 0 instructions: 81500481 cycles: 47762829 heartbeat IPC: 0.8035 cumulative IPC: 0.8689 (Simulation time: 00 hr 08 min 20 sec)
Heartbeat CPU 0 instructions: 82000483 cycles: 48386667 heartbeat IPC: 0.8015 cumulative IPC: 0.8677 (Simulation time: 00 hr 08 min 26 sec)
Heartbeat CPU 0 instructions: 82500487 cycles: 49007896 heartbeat IPC: 0.8049 cumulative IPC: 0.8667 (Simulation time: 00 hr 08 min 31 sec)
Heartbeat CPU 0 instructions: 83000491 cycles: 49632899 heartbeat IPC: 0.8 cumulative IPC: 0.8656 (Simulation time: 00 hr 08 min 37 sec)
Heartbeat CPU 0 instructions: 83500492 cycles: 50258561 heartbeat IPC: 0.7992 cumulative IPC: 0.8645 (Simulation time: 00 hr 08 min 43 sec)
Heartbeat CPU 0 instructions: 84000497 cycles: 50889042 heartbeat IPC: 0.7931 cumulative IPC: 0.8634 (Simulation time: 00 hr 08 min 48 sec)
Heartbeat CPU 0 instructions: 84500501 cycles: 51521269 heartbeat IPC: 0.7909 cumulative IPC: 0.8622 (Simulation time: 00 hr 08 min 54 sec)
Heartbeat CPU 0 instructions: 85000502 cycles: 52149246 heartbeat IPC: 0.7962 cumulative IPC: 0.8612 (Simulation time: 00 hr 08 min 59 sec)
Heartbeat CPU 0 instructions: 85500502 cycles: 52775603 heartbeat IPC: 0.7983 cumulative IPC: 0.8602 (Simulation time: 00 hr 09 min 05 sec)
Heartbeat CPU 0 instructions: 86000504 cycles: 53396544 heartbeat IPC: 0.8052 cumulative IPC: 0.8594 (Simulation time: 00 hr 09 min 11 sec)
Heartbeat CPU 0 instructions: 86500508 cycles: 54025388 heartbeat IPC: 0.7951 cumulative IPC: 0.8585 (Simulation time: 00 hr 09 min 16 sec)
Heartbeat CPU 0 instructions: 87000512 cycles: 54649164 heartbeat IPC: 0.8016 cumulative IPC: 0.8577 (Simulation time: 00 hr 09 min 22 sec)
Heartbeat CPU 0 instructions: 87500516 cycles: 55277005 heartbeat IPC: 0.7964 cumulative IPC: 0.8568 (Simulation time: 00 hr 09 min 27 sec)
Heartbeat CPU 0 instructions: 88000517 cycles: 55898435 heartbeat IPC: 0.8046 cumulative IPC: 0.856 (Simulation time: 00 hr 09 min 33 sec)
Heartbeat CPU 0 instructions: 88500522 cycles: 56516750 heartbeat IPC: 0.8087 cumulative IPC: 0.8554 (Simulation time: 00 hr 09 min 39 sec)
Heartbeat CPU 0 instructions: 89000522 cycles: 57067792 heartbeat IPC: 0.9074 cumulative IPC: 0.856 (Simulation time: 00 hr 09 min 44 sec)
Heartbeat CPU 0 instructions: 89500522 cycles: 57511719 heartbeat IPC: 1.126 cumulative IPC: 0.8586 (Simulation time: 00 hr 09 min 49 sec)
Heartbeat CPU 0 instructions: 90000528 cycles: 57953335 heartbeat IPC: 1.132 cumulative IPC: 0.8612 (Simulation time: 00 hr 09 min 53 sec)
Heartbeat CPU 0 instructions: 90500534 cycles: 58522414 heartbeat IPC: 0.8786 cumulative IPC: 0.8614 (Simulation time: 00 hr 09 min 58 sec)
Heartbeat CPU 0 instructions: 91000539 cycles: 59136460 heartbeat IPC: 0.8143 cumulative IPC: 0.8608 (Simulation time: 00 hr 10 min 04 sec)
Heartbeat CPU 0 instructions: 91500545 cycles: 59744953 heartbeat IPC: 0.8217 cumulative IPC: 0.8603 (Simulation time: 00 hr 10 min 09 sec)
Heartbeat CPU 0 instructions: 92000547 cycles: 60366861 heartbeat IPC: 0.804 cumulative IPC: 0.8596 (Simulation time: 00 hr 10 min 15 sec)
Heartbeat CPU 0 instructions: 92500550 cycles: 60973103 heartbeat IPC: 0.8248 cumulative IPC: 0.8592 (Simulation time: 00 hr 10 min 20 sec)
Heartbeat CPU 0 instructions: 93000555 cycles: 61595934 heartbeat IPC: 0.8028 cumulative IPC: 0.8585 (Simulation time: 00 hr 10 min 26 sec)
Heartbeat CPU 0 instructions: 93500555 cycles: 62215056 heartbeat IPC: 0.8076 cumulative IPC: 0.8579 (Simulation time: 00 hr 10 min 32 sec)
Heartbeat CPU 0 instructions: 94000555 cycles: 62815241 heartbeat IPC: 0.8331 cumulative IPC: 0.8576 (Simulation time: 00 hr 10 min 37 sec)
Heartbeat CPU 0 instructions: 94500559 cycles: 63404811 heartbeat IPC: 0.8481 cumulative IPC: 0.8575 (Simulation time: 00 hr 10 min 43 sec)
Heartbeat CPU 0 instructions: 95000565 cycles: 63998591 heartbeat IPC: 0.8421 cumulative IPC: 0.8573 (Simulation time: 00 hr 10 min 48 sec)
Heartbeat CPU 0 instructions: 95500569 cycles: 64616593 heartbeat IPC: 0.8091 cumulative IPC: 0.8567 (Simulation time: 00 hr 10 min 54 sec)
Heartbeat CPU 0 instructions: 96000571 cycles: 65219286 heartbeat IPC: 0.8296 cumulative IPC: 0.8564 (Simulation time: 00 hr 10 min 59 sec)
Heartbeat CPU 0 instructions: 96500574 cycles: 65811289 heartbeat IPC: 0.8446 cumulative IPC: 0.8563 (Simulation time: 00 hr 11 min 04 sec)
Heartbeat CPU 0 instructions: 97000575 cycles: 66414260 heartbeat IPC: 0.8292 cumulative IPC: 0.856 (Simulation time: 00 hr 11 min 10 sec)
Heartbeat CPU 0 instructions: 97500578 cycles: 67030328 heartbeat IPC: 0.8116 cumulative IPC: 0.8555 (Simulation time: 00 hr 11 min 16 sec)
Heartbeat CPU 0 instructions: 98000585 cycles: 67630096 heartbeat IPC: 0.8337 cumulative IPC: 0.8553 (Simulation time: 00 hr 11 min 21 sec)
Heartbeat CPU 0 instructions: 98500585 cycles: 68239102 heartbeat IPC: 0.821 cumulative IPC: 0.8549 (Simulation time: 00 hr 11 min 26 sec)
Heartbeat CPU 0 instructions: 99000585 cycles: 68844690 heartbeat IPC: 0.8256 cumulative IPC: 0.8546 (Simulation time: 00 hr 11 min 32 sec)
Heartbeat CPU 0 instructions: 99500591 cycles: 69466020 heartbeat IPC: 0.8047 cumulative IPC: 0.8541 (Simulation time: 00 hr 11 min 38 sec)
Heartbeat CPU 0 instructions: 100000594 cycles: 70049883 heartbeat IPC: 0.8564 cumulative IPC: 0.8541 (Simulation time: 00 hr 11 min 43 sec)
Heartbeat CPU 0 instructions: 100500594 cycles: 70663174 heartbeat IPC: 0.8153 cumulative IPC: 0.8537 (Simulation time: 00 hr 11 min 48 sec)
Heartbeat CPU 0 instructions: 101000595 cycles: 71270748 heartbeat IPC: 0.8229 cumulative IPC: 0.8534 (Simulation time: 00 hr 11 min 54 sec)
Heartbeat CPU 0 instructions: 101500601 cycles: 71874363 heartbeat IPC: 0.8284 cumulative IPC: 0.8531 (Simulation time: 00 hr 12 min 00 sec)
Heartbeat CPU 0 instructions: 102000603 cycles: 72496007 heartbeat IPC: 0.8043 cumulative IPC: 0.8526 (Simulation time: 00 hr 12 min 05 sec)
Heartbeat CPU 0 instructions: 102500607 cycles: 73119074 heartbeat IPC: 0.8025 cumulative IPC: 0.8521 (Simulation time: 00 hr 12 min 11 sec)
Heartbeat CPU 0 instructions: 103000611 cycles: 73740967 heartbeat IPC: 0.804 cumulative IPC: 0.8516 (Simulation time: 00 hr 12 min 16 sec)
Heartbeat CPU 0 instructions: 103500615 cycles: 74368600 heartbeat IPC: 0.7967 cumulative IPC: 0.8511 (Simulation time: 00 hr 12 min 22 sec)
Heartbeat CPU 0 instructions: 104000619 cycles: 74989701 heartbeat IPC: 0.805 cumulative IPC: 0.8506 (Simulation time: 00 hr 12 min 28 sec)
Heartbeat CPU 0 instructions: 104500621 cycles: 75619559 heartbeat IPC: 0.7938 cumulative IPC: 0.8501 (Simulation time: 00 hr 12 min 33 sec)
Heartbeat CPU 0 instructions: 105000625 cycles: 76250314 heartbeat IPC: 0.7927 cumulative IPC: 0.8495 (Simulation time: 00 hr 12 min 39 sec)
Heartbeat CPU 0 instructions: 105500629 cycles: 76874849 heartbeat IPC: 0.8006 cumulative IPC: 0.8491 (Simulation time: 00 hr 12 min 44 sec)
Heartbeat CPU 0 instructions: 106000632 cycles: 77502445 heartbeat IPC: 0.7967 cumulative IPC: 0.8486 (Simulation time: 00 hr 12 min 50 sec)
Heartbeat CPU 0 instructions: 106500632 cycles: 78133714 heartbeat IPC: 0.7921 cumulative IPC: 0.848 (Simulation time: 00 hr 12 min 56 sec)
Heartbeat CPU 0 instructions: 107000632 cycles: 78765809 heartbeat IPC: 0.791 cumulative IPC: 0.8475 (Simulation time: 00 hr 13 min 01 sec)
Heartbeat CPU 0 instructions: 107500636 cycles: 79395905 heartbeat IPC: 0.7935 cumulative IPC: 0.847 (Simulation time: 00 hr 13 min 07 sec)
Heartbeat CPU 0 instructions: 108000637 cycles: 80017906 heartbeat IPC: 0.8039 cumulative IPC: 0.8466 (Simulation time: 00 hr 13 min 13 sec)
Heartbeat CPU 0 instructions: 108500637 cycles: 80639823 heartbeat IPC: 0.804 cumulative IPC: 0.8462 (Simulation time: 00 hr 13 min 18 sec)
Heartbeat CPU 0 instructions: 109000638 cycles: 81263019 heartbeat IPC: 0.8023 cumulative IPC: 0.8458 (Simulation time: 00 hr 13 min 24 sec)
Heartbeat CPU 0 instructions: 109500643 cycles: 81889680 heartbeat IPC: 0.7979 cumulative IPC: 0.8454 (Simulation time: 00 hr 13 min 30 sec)
Heartbeat CPU 0 instructions: 110000647 cycles: 82512556 heartbeat IPC: 0.8027 cumulative IPC: 0.845 (Simulation time: 00 hr 13 min 35 sec)
Heartbeat CPU 0 instructions: 110500651 cycles: 83137376 heartbeat IPC: 0.8002 cumulative IPC: 0.8446 (Simulation time: 00 hr 13 min 41 sec)
Heartbeat CPU 0 instructions: 111000653 cycles: 83758190 heartbeat IPC: 0.8054 cumulative IPC: 0.8443 (Simulation time: 00 hr 13 min 46 sec)
Heartbeat CPU 0 instructions: 111500657 cycles: 84381594 heartbeat IPC: 0.8021 cumulative IPC: 0.8439 (Simulation time: 00 hr 13 min 52 sec)
Heartbeat CPU 0 instructions: 112000661 cycles: 85007161 heartbeat IPC: 0.7993 cumulative IPC: 0.8436 (Simulation time: 00 hr 13 min 58 sec)
Heartbeat CPU 0 instructions: 112500662 cycles: 85629397 heartbeat IPC: 0.8036 cumulative IPC: 0.8432 (Simulation time: 00 hr 14 min 03 sec)
Heartbeat CPU 0 instructions: 113000667 cycles: 86250731 heartbeat IPC: 0.8047 cumulative IPC: 0.8429 (Simulation time: 00 hr 14 min 09 sec)
Heartbeat CPU 0 instructions: 113500671 cycles: 86883550 heartbeat IPC: 0.7901 cumulative IPC: 0.8425 (Simulation time: 00 hr 14 min 14 sec)
Heartbeat CPU 0 instructions: 114000672 cycles: 87511797 heartbeat IPC: 0.7959 cumulative IPC: 0.8421 (Simulation time: 00 hr 14 min 20 sec)
Heartbeat CPU 0 instructions: 114500672 cycles: 88136866 heartbeat IPC: 0.7999 cumulative IPC: 0.8417 (Simulation time: 00 hr 14 min 26 sec)
Heartbeat CPU 0 instructions: 115000674 cycles: 88766162 heartbeat IPC: 0.7945 cumulative IPC: 0.8413 (Simulation time: 00 hr 14 min 31 sec)
Heartbeat CPU 0 instructions: 115500678 cycles: 89397140 heartbeat IPC: 0.7924 cumulative IPC: 0.8409 (Simulation time: 00 hr 14 min 37 sec)
Heartbeat CPU 0 instructions: 116000682 cycles: 90013785 heartbeat IPC: 0.8108 cumulative IPC: 0.8407 (Simulation time: 00 hr 14 min 43 sec)
Heartbeat CPU 0 instructions: 116500686 cycles: 90644052 heartbeat IPC: 0.7933 cumulative IPC: 0.8403 (Simulation time: 00 hr 14 min 48 sec)
Heartbeat CPU 0 instructions: 117000690 cycles: 91264661 heartbeat IPC: 0.8057 cumulative IPC: 0.8401 (Simulation time: 00 hr 14 min 54 sec)
Heartbeat CPU 0 instructions: 117500692 cycles: 91881405 heartbeat IPC: 0.8107 cumulative IPC: 0.8398 (Simulation time: 00 hr 15 min 00 sec)
Heartbeat CPU 0 instructions: 118000692 cycles: 92432839 heartbeat IPC: 0.9067 cumulative IPC: 0.8403 (Simulation time: 00 hr 15 min 05 sec)
Heartbeat CPU 0 instructions: 118500694 cycles: 92882343 heartbeat IPC: 1.112 cumulative IPC: 0.8418 (Simulation time: 00 hr 15 min 10 sec)
Heartbeat CPU 0 instructions: 119000700 cycles: 93280324 heartbeat IPC: 1.256 cumulative IPC: 0.8438 (Simulation time: 00 hr 15 min 14 sec)
Heartbeat CPU 0 instructions: 119500706 cycles: 93840126 heartbeat IPC: 0.8932 cumulative IPC: 0.8441 (Simulation time: 00 hr 15 min 19 sec)
Heartbeat CPU 0 instructions: 120000706 cycles: 94447757 heartbeat IPC: 0.8229 cumulative IPC: 0.844 (Simulation time: 00 hr 15 min 24 sec)
Heartbeat CPU 0 instructions: 120500709 cycles: 95065807 heartbeat IPC: 0.809 cumulative IPC: 0.8437 (Simulation time: 00 hr 15 min 30 sec)
Heartbeat CPU 0 instructions: 121000713 cycles: 95696862 heartbeat IPC: 0.7923 cumulative IPC: 0.8433 (Simulation time: 00 hr 15 min 36 sec)
Heartbeat CPU 0 instructions: 121500715 cycles: 96303668 heartbeat IPC: 0.824 cumulative IPC: 0.8432 (Simulation time: 00 hr 15 min 41 sec)
Heartbeat CPU 0 instructions: 122000720 cycles: 96928539 heartbeat IPC: 0.8002 cumulative IPC: 0.8429 (Simulation time: 00 hr 15 min 47 sec)
Heartbeat CPU 0 instructions: 122500723 cycles: 97547780 heartbeat IPC: 0.8074 cumulative IPC: 0.8426 (Simulation time: 00 hr 15 min 53 sec)
Heartbeat CPU 0 instructions: 123000727 cycles: 98161637 heartbeat IPC: 0.8145 cumulative IPC: 0.8424 (Simulation time: 00 hr 15 min 58 sec)
Heartbeat CPU 0 instructions: 123500731 cycles: 98729875 heartbeat IPC: 0.8799 cumulative IPC: 0.8427 (Simulation time: 00 hr 16 min 04 sec)
Heartbeat CPU 0 instructions: 124000732 cycles: 99336940 heartbeat IPC: 0.8236 cumulative IPC: 0.8426 (Simulation time: 00 hr 16 min 09 sec)
Heartbeat CPU 0 instructions: 124500737 cycles: 99938807 heartbeat IPC: 0.8308 cumulative IPC: 0.8425 (Simulation time: 00 hr 16 min 15 sec)
Heartbeat CPU 0 instructions: 125000739 cycles: 100549307 heartbeat IPC: 0.819 cumulative IPC: 0.8423 (Simulation time: 00 hr 16 min 20 sec)
Heartbeat CPU 0 instructions: 125500743 cycles: 101145373 heartbeat IPC: 0.8388 cumulative IPC: 0.8423 (Simulation time: 00 hr 16 min 25 sec)
Heartbeat CPU 0 instructions: 126000747 cycles: 101754159 heartbeat IPC: 0.8213 cumulative IPC: 0.8421 (Simulation time: 00 hr 16 min 31 sec)
Heartbeat CPU 0 instructions: 126500749 cycles: 102373522 heartbeat IPC: 0.8073 cumulative IPC: 0.8419 (Simulation time: 00 hr 16 min 37 sec)
Heartbeat CPU 0 instructions: 127000751 cycles: 102981371 heartbeat IPC: 0.8226 cumulative IPC: 0.8418 (Simulation time: 00 hr 16 min 42 sec)
Heartbeat CPU 0 instructions: 127500754 cycles: 103583884 heartbeat IPC: 0.8299 cumulative IPC: 0.8417 (Simulation time: 00 hr 16 min 48 sec)
Heartbeat CPU 0 instructions: 128000757 cycles: 104190856 heartbeat IPC: 0.8238 cumulative IPC: 0.8416 (Simulation time: 00 hr 16 min 53 sec)
Heartbeat CPU 0 instructions: 128500762 cycles: 104811951 heartbeat IPC: 0.805 cumulative IPC: 0.8413 (Simulation time: 00 hr 16 min 59 sec)
Heartbeat CPU 0 instructions: 129000768 cycles: 105408314 heartbeat IPC: 0.8384 cumulative IPC: 0.8413 (Simulation time: 00 hr 17 min 04 sec)
Heartbeat CPU 0 instructions: 129500773 cycles: 106011844 heartbeat IPC: 0.8285 cumulative IPC: 0.8412 (Simulation time: 00 hr 17 min 10 sec)
Heartbeat CPU 0 instructions: 130000778 cycles: 106623721 heartbeat IPC: 0.8172 cumulative IPC: 0.8411 (Simulation time: 00 hr 17 min 15 sec)
Heartbeat CPU 0 instructions: 130500778 cycles: 107236330 heartbeat IPC: 0.8162 cumulative IPC: 0.8409 (Simulation time: 00 hr 17 min 21 sec)
Heartbeat CPU 0 instructions: 131000783 cycles: 107861394 heartbeat IPC: 0.7999 cumulative IPC: 0.8407 (Simulation time: 00 hr 17 min 27 sec)
Heartbeat CPU 0 instructions: 131500785 cycles: 108485683 heartbeat IPC: 0.8009 cumulative IPC: 0.8404 (Simulation time: 00 hr 17 min 32 sec)
Heartbeat CPU 0 instructions: 132000786 cycles: 109109901 heartbeat IPC: 0.801 cumulative IPC: 0.8402 (Simulation time: 00 hr 17 min 38 sec)
Heartbeat CPU 0 instructions: 132500786 cycles: 109736254 heartbeat IPC: 0.7983 cumulative IPC: 0.8399 (Simulation time: 00 hr 17 min 43 sec)
Heartbeat CPU 0 instructions: 133000788 cycles: 110362224 heartbeat IPC: 0.7988 cumulative IPC: 0.8396 (Simulation time: 00 hr 17 min 49 sec)
Heartbeat CPU 0 instructions: 133500792 cycles: 110988082 heartbeat IPC: 0.7989 cumulative IPC: 0.8394 (Simulation time: 00 hr 17 min 54 sec)
Heartbeat CPU 0 instructions: 134000796 cycles: 111612948 heartbeat IPC: 0.8002 cumulative IPC: 0.8391 (Simulation time: 00 hr 18 min 00 sec)
Heartbeat CPU 0 instructions: 134500800 cycles: 112241702 heartbeat IPC: 0.7952 cumulative IPC: 0.8389 (Simulation time: 00 hr 18 min 06 sec)
Heartbeat CPU 0 instructions: 135000804 cycles: 112869949 heartbeat IPC: 0.7959 cumulative IPC: 0.8386 (Simulation time: 00 hr 18 min 11 sec)
Heartbeat CPU 0 instructions: 135500804 cycles: 113496434 heartbeat IPC: 0.7981 cumulative IPC: 0.8383 (Simulation time: 00 hr 18 min 17 sec)
Heartbeat CPU 0 instructions: 136000810 cycles: 114122693 heartbeat IPC: 0.7984 cumulative IPC: 0.8381 (Simulation time: 00 hr 18 min 22 sec)
Heartbeat CPU 0 instructions: 136500811 cycles: 114747162 heartbeat IPC: 0.8007 cumulative IPC: 0.8379 (Simulation time: 00 hr 18 min 28 sec)
Heartbeat CPU 0 instructions: 137000811 cycles: 115373489 heartbeat IPC: 0.7983 cumulative IPC: 0.8376 (Simulation time: 00 hr 18 min 34 sec)
Heartbeat CPU 0 instructions: 137500817 cycles: 115994601 heartbeat IPC: 0.805 cumulative IPC: 0.8374 (Simulation time: 00 hr 18 min 39 sec)
Heartbeat CPU 0 instructions: 138000817 cycles: 116626080 heartbeat IPC: 0.7918 cumulative IPC: 0.8372 (Simulation time: 00 hr 18 min 45 sec)
Heartbeat CPU 0 instructions: 138500821 cycles: 117252779 heartbeat IPC: 0.7978 cumulative IPC: 0.8369 (Simulation time: 00 hr 18 min 50 sec)
Heartbeat CPU 0 instructions: 139000825 cycles: 117879923 heartbeat IPC: 0.7973 cumulative IPC: 0.8367 (Simulation time: 00 hr 18 min 56 sec)
Heartbeat CPU 0 instructions: 139500826 cycles: 118505240 heartbeat IPC: 0.7996 cumulative IPC: 0.8365 (Simulation time: 00 hr 19 min 01 sec)
Heartbeat CPU 0 instructions: 140000831 cycles: 119126866 heartbeat IPC: 0.8044 cumulative IPC: 0.8363 (Simulation time: 00 hr 19 min 07 sec)
Heartbeat CPU 0 instructions: 140500835 cycles: 119750513 heartbeat IPC: 0.8017 cumulative IPC: 0.8361 (Simulation time: 00 hr 19 min 12 sec)
Heartbeat CPU 0 instructions: 141000836 cycles: 120375485 heartbeat IPC: 0.8 cumulative IPC: 0.8359 (Simulation time: 00 hr 19 min 18 sec)
Heartbeat CPU 0 instructions: 141500836 cycles: 121000104 heartbeat IPC: 0.8005 cumulative IPC: 0.8357 (Simulation time: 00 hr 19 min 23 sec)
Heartbeat CPU 0 instructions: 142000838 cycles: 121621532 heartbeat IPC: 0.8046 cumulative IPC: 0.8355 (Simulation time: 00 hr 19 min 29 sec)
Heartbeat CPU 0 instructions: 142500842 cycles: 122248428 heartbeat IPC: 0.7976 cumulative IPC: 0.8353 (Simulation time: 00 hr 19 min 34 sec)
Heartbeat CPU 0 instructions: 143000846 cycles: 122875262 heartbeat IPC: 0.7977 cumulative IPC: 0.8351 (Simulation time: 00 hr 19 min 40 sec)
Heartbeat CPU 0 instructions: 143500850 cycles: 123501533 heartbeat IPC: 0.7984 cumulative IPC: 0.8349 (Simulation time: 00 hr 19 min 45 sec)
Heartbeat CPU 0 instructions: 144000851 cycles: 124126865 heartbeat IPC: 0.7996 cumulative IPC: 0.8347 (Simulation time: 00 hr 19 min 51 sec)
Heartbeat CPU 0 instructions: 144500856 cycles: 124753203 heartbeat IPC: 0.7983 cumulative IPC: 0.8345 (Simulation time: 00 hr 19 min 56 sec)
Heartbeat CPU 0 instructions: 145000860 cycles: 125375711 heartbeat IPC: 0.8032 cumulative IPC: 0.8343 (Simulation time: 00 hr 20 min 02 sec)
Heartbeat CPU 0 instructions: 145500861 cycles: 126001895 heartbeat IPC: 0.7985 cumulative IPC: 0.8341 (Simulation time: 00 hr 20 min 07 sec)
Heartbeat CPU 0 instructions: 146000861 cycles: 126627082 heartbeat IPC: 0.7998 cumulative IPC: 0.8339 (Simulation time: 00 hr 20 min 13 sec)
Heartbeat CPU 0 instructions: 146500863 cycles: 127244326 heartbeat IPC: 0.8101 cumulative IPC: 0.8338 (Simulation time: 00 hr 20 min 18 sec)
Heartbeat CPU 0 instructions: 147000866 cycles: 127855854 heartbeat IPC: 0.8176 cumulative IPC: 0.8337 (Simulation time: 00 hr 20 min 24 sec)
Heartbeat CPU 0 instructions: 147500866 cycles: 128318550 heartbeat IPC: 1.081 cumulative IPC: 0.8347 (Simulation time: 00 hr 20 min 29 sec)
Heartbeat CPU 0 instructions: 148000868 cycles: 128691128 heartbeat IPC: 1.342 cumulative IPC: 0.8363 (Simulation time: 00 hr 20 min 33 sec)
Heartbeat CPU 0 instructions: 148500872 cycles: 129264840 heartbeat IPC: 0.8715 cumulative IPC: 0.8365 (Simulation time: 00 hr 20 min 38 sec)
Heartbeat CPU 0 instructions: 149000872 cycles: 129874297 heartbeat IPC: 0.8204 cumulative IPC: 0.8364 (Simulation time: 00 hr 20 min 43 sec)
Heartbeat CPU 0 instructions: 149500875 cycles: 130492851 heartbeat IPC: 0.8083 cumulative IPC: 0.8362 (Simulation time: 00 hr 20 min 49 sec)
Heartbeat CPU 0 instructions: 150000876 cycles: 131126974 heartbeat IPC: 0.7885 cumulative IPC: 0.836 (Simulation time: 00 hr 20 min 54 sec)
Heartbeat CPU 0 instructions: 150500881 cycles: 131734908 heartbeat IPC: 0.8225 cumulative IPC: 0.8359 (Simulation time: 00 hr 21 min 00 sec)
Heartbeat CPU 0 instructions: 151000886 cycles: 132366365 heartbeat IPC: 0.7918 cumulative IPC: 0.8357 (Simulation time: 00 hr 21 min 05 sec)
Heartbeat CPU 0 instructions: 151500892 cycles: 132980453 heartbeat IPC: 0.8142 cumulative IPC: 0.8356 (Simulation time: 00 hr 21 min 11 sec)
Heartbeat CPU 0 instructions: 152000899 cycles: 133601737 heartbeat IPC: 0.8048 cumulative IPC: 0.8354 (Simulation time: 00 hr 21 min 16 sec)
Heartbeat CPU 0 instructions: 152500899 cycles: 134171329 heartbeat IPC: 0.8778 cumulative IPC: 0.8356 (Simulation time: 00 hr 21 min 21 sec)
Heartbeat CPU 0 instructions: 153000904 cycles: 134776700 heartbeat IPC: 0.8259 cumulative IPC: 0.8356 (Simulation time: 00 hr 21 min 27 sec)
Heartbeat CPU 0 instructions: 153500905 cycles: 135374053 heartbeat IPC: 0.837 cumulative IPC: 0.8356 (Simulation time: 00 hr 21 min 32 sec)
Heartbeat CPU 0 instructions: 154000906 cycles: 135976063 heartbeat IPC: 0.8306 cumulative IPC: 0.8356 (Simulation time: 00 hr 21 min 37 sec)
Heartbeat CPU 0 instructions: 154500906 cycles: 136560102 heartbeat IPC: 0.8561 cumulative IPC: 0.8357 (Simulation time: 00 hr 21 min 42 sec)
Heartbeat CPU 0 instructions: 155000908 cycles: 137166825 heartbeat IPC: 0.8241 cumulative IPC: 0.8356 (Simulation time: 00 hr 21 min 48 sec)
Heartbeat CPU 0 instructions: 155500908 cycles: 137774126 heartbeat IPC: 0.8233 cumulative IPC: 0.8355 (Simulation time: 00 hr 21 min 53 sec)
Heartbeat CPU 0 instructions: 156000910 cycles: 138372035 heartbeat IPC: 0.8363 cumulative IPC: 0.8355 (Simulation time: 00 hr 21 min 59 sec)
Heartbeat CPU 0 instructions: 156500912 cycles: 138974707 heartbeat IPC: 0.8296 cumulative IPC: 0.8355 (Simulation time: 00 hr 22 min 04 sec)
Heartbeat CPU 0 instructions: 157000917 cycles: 139588812 heartbeat IPC: 0.8142 cumulative IPC: 0.8354 (Simulation time: 00 hr 22 min 09 sec)
Heartbeat CPU 0 instructions: 157500919 cycles: 140211091 heartbeat IPC: 0.8035 cumulative IPC: 0.8353 (Simulation time: 00 hr 22 min 15 sec)
Heartbeat CPU 0 instructions: 158000921 cycles: 140808998 heartbeat IPC: 0.8363 cumulative IPC: 0.8353 (Simulation time: 00 hr 22 min 20 sec)
Heartbeat CPU 0 instructions: 158500926 cycles: 141415617 heartbeat IPC: 0.8242 cumulative IPC: 0.8352 (Simulation time: 00 hr 22 min 25 sec)
Heartbeat CPU 0 instructions: 159000927 cycles: 142030674 heartbeat IPC: 0.8129 cumulative IPC: 0.8351 (Simulation time: 00 hr 22 min 31 sec)
Heartbeat CPU 0 instructions: 159500927 cycles: 142647700 heartbeat IPC: 0.8103 cumulative IPC: 0.835 (Simulation time: 00 hr 22 min 36 sec)
Heartbeat CPU 0 instructions: 160000931 cycles: 143271132 heartbeat IPC: 0.802 cumulative IPC: 0.8348 (Simulation time: 00 hr 22 min 42 sec)
Heartbeat CPU 0 instructions: 160500935 cycles: 143899289 heartbeat IPC: 0.796 cumulative IPC: 0.8347 (Simulation time: 00 hr 22 min 47 sec)
Heartbeat CPU 0 instructions: 161000936 cycles: 144527487 heartbeat IPC: 0.7959 cumulative IPC: 0.8345 (Simulation time: 00 hr 22 min 53 sec)
Heartbeat CPU 0 instructions: 161500936 cycles: 145155190 heartbeat IPC: 0.7966 cumulative IPC: 0.8343 (Simulation time: 00 hr 22 min 58 sec)
Heartbeat CPU 0 instructions: 162000937 cycles: 145781487 heartbeat IPC: 0.7983 cumulative IPC: 0.8341 (Simulation time: 00 hr 23 min 04 sec)
Heartbeat CPU 0 instructions: 162500942 cycles: 146409450 heartbeat IPC: 0.7962 cumulative IPC: 0.8339 (Simulation time: 00 hr 23 min 09 sec)
Heartbeat CPU 0 instructions: 163000946 cycles: 147040283 heartbeat IPC: 0.7926 cumulative IPC: 0.8338 (Simulation time: 00 hr 23 min 15 sec)
Heartbeat CPU 0 instructions: 163500952 cycles: 147666782 heartbeat IPC: 0.7981 cumulative IPC: 0.8336 (Simulation time: 00 hr 23 min 20 sec)
Heartbeat CPU 0 instructions: 164000952 cycles: 148295524 heartbeat IPC: 0.7952 cumulative IPC: 0.8334 (Simulation time: 00 hr 23 min 25 sec)
Heartbeat CPU 0 instructions: 164500956 cycles: 148922731 heartbeat IPC: 0.7972 cumulative IPC: 0.8333 (Simulation time: 00 hr 23 min 31 sec)
Heartbeat CPU 0 instructions: 165000960 cycles: 149544682 heartbeat IPC: 0.8039 cumulative IPC: 0.8331 (Simulation time: 00 hr 23 min 36 sec)
Heartbeat CPU 0 instructions: 165500961 cycles: 150171302 heartbeat IPC: 0.7979 cumulative IPC: 0.833 (Simulation time: 00 hr 23 min 42 sec)
Heartbeat CPU 0 instructions: 166000966 cycles: 150791122 heartbeat IPC: 0.8067 cumulative IPC: 0.8328 (Simulation time: 00 hr 23 min 47 sec)
Heartbeat CPU 0 instructions: 166500970 cycles: 151418088 heartbeat IPC: 0.7975 cumulative IPC: 0.8327 (Simulation time: 00 hr 23 min 52 sec)
Heartbeat CPU 0 instructions: 167000974 cycles: 152044271 heartbeat IPC: 0.7985 cumulative IPC: 0.8325 (Simulation time: 00 hr 23 min 58 sec)
Heartbeat CPU 0 instructions: 167500978 cycles: 152669661 heartbeat IPC: 0.7995 cumulative IPC: 0.8324 (Simulation time: 00 hr 24 min 03 sec)
Heartbeat CPU 0 instructions: 168000981 cycles: 153296610 heartbeat IPC: 0.7975 cumulative IPC: 0.8322 (Simulation time: 00 hr 24 min 08 sec)
Heartbeat CPU 0 instructions: 168500981 cycles: 153926075 heartbeat IPC: 0.7943 cumulative IPC: 0.8321 (Simulation time: 00 hr 24 min 14 sec)
Heartbeat CPU 0 instructions: 169000981 cycles: 154548587 heartbeat IPC: 0.8032 cumulative IPC: 0.8319 (Simulation time: 00 hr 24 min 19 sec)
Heartbeat CPU 0 instructions: 169500985 cycles: 155164706 heartbeat IPC: 0.8115 cumulative IPC: 0.8319 (Simulation time: 00 hr 24 min 25 sec)
Heartbeat CPU 0 instructions: 170000986 cycles: 155787172 heartbeat IPC: 0.8033 cumulative IPC: 0.8317 (Simulation time: 00 hr 24 min 30 sec)
Heartbeat CPU 0 instructions: 170500991 cycles: 156416118 heartbeat IPC: 0.795 cumulative IPC: 0.8316 (Simulation time: 00 hr 24 min 35 sec)
Heartbeat CPU 0 instructions: 171000995 cycles: 157043768 heartbeat IPC: 0.7966 cumulative IPC: 0.8314 (Simulation time: 00 hr 24 min 41 sec)
Heartbeat CPU 0 instructions: 171500996 cycles: 157667792 heartbeat IPC: 0.8013 cumulative IPC: 0.8313 (Simulation time: 00 hr 24 min 46 sec)
Heartbeat CPU 0 instructions: 172000996 cycles: 158295085 heartbeat IPC: 0.7971 cumulative IPC: 0.8311 (Simulation time: 00 hr 24 min 51 sec)
Heartbeat CPU 0 instructions: 172500997 cycles: 158917870 heartbeat IPC: 0.8028 cumulative IPC: 0.831 (Simulation time: 00 hr 24 min 57 sec)
Heartbeat CPU 0 instructions: 173001002 cycles: 159537320 heartbeat IPC: 0.8072 cumulative IPC: 0.8309 (Simulation time: 00 hr 25 min 02 sec)
Heartbeat CPU 0 instructions: 173501006 cycles: 160161024 heartbeat IPC: 0.8017 cumulative IPC: 0.8308 (Simulation time: 00 hr 25 min 07 sec)
Heartbeat CPU 0 instructions: 174001010 cycles: 160786158 heartbeat IPC: 0.7998 cumulative IPC: 0.8307 (Simulation time: 00 hr 25 min 13 sec)
Heartbeat CPU 0 instructions: 174501011 cycles: 161414436 heartbeat IPC: 0.7958 cumulative IPC: 0.8305 (Simulation time: 00 hr 25 min 18 sec)
Heartbeat CPU 0 instructions: 175001016 cycles: 162038885 heartbeat IPC: 0.8007 cumulative IPC: 0.8304 (Simulation time: 00 hr 25 min 24 sec)
Heartbeat CPU 0 instructions: 175501020 cycles: 162657064 heartbeat IPC: 0.8088 cumulative IPC: 0.8303 (Simulation time: 00 hr 25 min 29 sec)
Heartbeat CPU 0 instructions: 176001021 cycles: 163276053 heartbeat IPC: 0.8078 cumulative IPC: 0.8302 (Simulation time: 00 hr 25 min 34 sec)
Heartbeat CPU 0 instructions: 176501021 cycles: 163738764 heartbeat IPC: 1.081 cumulative IPC: 0.831 (Simulation time: 00 hr 25 min 40 sec)
Heartbeat CPU 0 instructions: 177001024 cycles: 164114480 heartbeat IPC: 1.331 cumulative IPC: 0.8322 (Simulation time: 00 hr 25 min 43 sec)
Heartbeat CPU 0 instructions: 177501025 cycles: 164680098 heartbeat IPC: 0.884 cumulative IPC: 0.8324 (Simulation time: 00 hr 25 min 48 sec)
Heartbeat CPU 0 instructions: 178001027 cycles: 165288270 heartbeat IPC: 0.8221 cumulative IPC: 0.8324 (Simulation time: 00 hr 25 min 53 sec)
Heartbeat CPU 0 instructions: 178501033 cycles: 165909511 heartbeat IPC: 0.8049 cumulative IPC: 0.8323 (Simulation time: 00 hr 25 min 59 sec)
Heartbeat CPU 0 instructions: 179001035 cycles: 166537057 heartbeat IPC: 0.7968 cumulative IPC: 0.8321 (Simulation time: 00 hr 26 min 04 sec)
Heartbeat CPU 0 instructions: 179501039 cycles: 167140995 heartbeat IPC: 0.8279 cumulative IPC: 0.8321 (Simulation time: 00 hr 26 min 09 sec)
Heartbeat CPU 0 instructions: 180001045 cycles: 167763285 heartbeat IPC: 0.8035 cumulative IPC: 0.832 (Simulation time: 00 hr 26 min 15 sec)
Heartbeat CPU 0 instructions: 180501047 cycles: 168377724 heartbeat IPC: 0.8138 cumulative IPC: 0.8319 (Simulation time: 00 hr 26 min 20 sec)
Heartbeat CPU 0 instructions: 181001053 cycles: 168987414 heartbeat IPC: 0.8201 cumulative IPC: 0.8319 (Simulation time: 00 hr 26 min 25 sec)
Heartbeat CPU 0 instructions: 181501056 cycles: 169570538 heartbeat IPC: 0.8575 cumulative IPC: 0.832 (Simulation time: 00 hr 26 min 30 sec)
Heartbeat CPU 0 instructions: 182001062 cycles: 170177104 heartbeat IPC: 0.8243 cumulative IPC: 0.8319 (Simulation time: 00 hr 26 min 36 sec)
Heartbeat CPU 0 instructions: 182501063 cycles: 170767734 heartbeat IPC: 0.8466 cumulative IPC: 0.832 (Simulation time: 00 hr 26 min 41 sec)
Heartbeat CPU 0 instructions: 183001067 cycles: 171372745 heartbeat IPC: 0.8264 cumulative IPC: 0.832 (Simulation time: 00 hr 26 min 46 sec)
Heartbeat CPU 0 instructions: 183501071 cycles: 171956263 heartbeat IPC: 0.8569 cumulative IPC: 0.832 (Simulation time: 00 hr 26 min 51 sec)
Heartbeat CPU 0 instructions: 184001075 cycles: 172560261 heartbeat IPC: 0.8278 cumulative IPC: 0.832 (Simulation time: 00 hr 26 min 56 sec)
Heartbeat CPU 0 instructions: 184501080 cycles: 173170534 heartbeat IPC: 0.8193 cumulative IPC: 0.832 (Simulation time: 00 hr 27 min 02 sec)
Heartbeat CPU 0 instructions: 185001081 cycles: 173769205 heartbeat IPC: 0.8352 cumulative IPC: 0.832 (Simulation time: 00 hr 27 min 07 sec)
Heartbeat CPU 0 instructions: 185501087 cycles: 174368405 heartbeat IPC: 0.8345 cumulative IPC: 0.832 (Simulation time: 00 hr 27 min 12 sec)
Heartbeat CPU 0 instructions: 186001089 cycles: 174980116 heartbeat IPC: 0.8174 cumulative IPC: 0.832 (Simulation time: 00 hr 27 min 17 sec)
Heartbeat CPU 0 instructions: 186501095 cycles: 175591615 heartbeat IPC: 0.8177 cumulative IPC: 0.8319 (Simulation time: 00 hr 27 min 22 sec)
Heartbeat CPU 0 instructions: 187001096 cycles: 176193323 heartbeat IPC: 0.831 cumulative IPC: 0.8319 (Simulation time: 00 hr 27 min 27 sec)
Heartbeat CPU 0 instructions: 187501101 cycles: 176801688 heartbeat IPC: 0.8219 cumulative IPC: 0.8319 (Simulation time: 00 hr 27 min 33 sec)
Heartbeat CPU 0 instructions: 188001103 cycles: 177418365 heartbeat IPC: 0.8108 cumulative IPC: 0.8318 (Simulation time: 00 hr 27 min 38 sec)
Heartbeat CPU 0 instructions: 188501104 cycles: 178029901 heartbeat IPC: 0.8176 cumulative IPC: 0.8317 (Simulation time: 00 hr 27 min 43 sec)
Heartbeat CPU 0 instructions: 189001108 cycles: 178653635 heartbeat IPC: 0.8016 cumulative IPC: 0.8316 (Simulation time: 00 hr 27 min 49 sec)
Heartbeat CPU 0 instructions: 189501114 cycles: 179280695 heartbeat IPC: 0.7974 cumulative IPC: 0.8315 (Simulation time: 00 hr 27 min 54 sec)
Heartbeat CPU 0 instructions: 190001114 cycles: 179906928 heartbeat IPC: 0.7984 cumulative IPC: 0.8314 (Simulation time: 00 hr 27 min 59 sec)
Heartbeat CPU 0 instructions: 190501118 cycles: 180533664 heartbeat IPC: 0.7978 cumulative IPC: 0.8312 (Simulation time: 00 hr 28 min 05 sec)
Heartbeat CPU 0 instructions: 191001122 cycles: 181159298 heartbeat IPC: 0.7992 cumulative IPC: 0.8311 (Simulation time: 00 hr 28 min 10 sec)
Heartbeat CPU 0 instructions: 191501123 cycles: 181778049 heartbeat IPC: 0.8081 cumulative IPC: 0.831 (Simulation time: 00 hr 28 min 15 sec)
Heartbeat CPU 0 instructions: 192001128 cycles: 182405796 heartbeat IPC: 0.7965 cumulative IPC: 0.8309 (Simulation time: 00 hr 28 min 21 sec)
Heartbeat CPU 0 instructions: 192501132 cycles: 183033288 heartbeat IPC: 0.7968 cumulative IPC: 0.8308 (Simulation time: 00 hr 28 min 26 sec)
Heartbeat CPU 0 instructions: 193001133 cycles: 183656590 heartbeat IPC: 0.8022 cumulative IPC: 0.8307 (Simulation time: 00 hr 28 min 31 sec)
Heartbeat CPU 0 instructions: 193501133 cycles: 184286707 heartbeat IPC: 0.7935 cumulative IPC: 0.8305 (Simulation time: 00 hr 28 min 37 sec)
Heartbeat CPU 0 instructions: 194001135 cycles: 184918494 heartbeat IPC: 0.7914 cumulative IPC: 0.8304 (Simulation time: 00 hr 28 min 42 sec)
Heartbeat CPU 0 instructions: 194501139 cycles: 185548063 heartbeat IPC: 0.7942 cumulative IPC: 0.8303 (Simulation time: 00 hr 28 min 47 sec)
Heartbeat CPU 0 instructions: 195001143 cycles: 186173769 heartbeat IPC: 0.7991 cumulative IPC: 0.8302 (Simulation time: 00 hr 28 min 53 sec)
Heartbeat CPU 0 instructions: 195501147 cycles: 186799271 heartbeat IPC: 0.7994 cumulative IPC: 0.8301 (Simulation time: 00 hr 28 min 58 sec)
Heartbeat CPU 0 instructions: 196001148 cycles: 187432606 heartbeat IPC: 0.7895 cumulative IPC: 0.8299 (Simulation time: 00 hr 29 min 03 sec)
Heartbeat CPU 0 instructions: 196501153 cycles: 188064063 heartbeat IPC: 0.7918 cumulative IPC: 0.8298 (Simulation time: 00 hr 29 min 09 sec)
Heartbeat CPU 0 instructions: 197001157 cycles: 188691059 heartbeat IPC: 0.7975 cumulative IPC: 0.8297 (Simulation time: 00 hr 29 min 14 sec)
Heartbeat CPU 0 instructions: 197501158 cycles: 189322410 heartbeat IPC: 0.792 cumulative IPC: 0.8295 (Simulation time: 00 hr 29 min 19 sec)
Heartbeat CPU 0 instructions: 198001158 cycles: 189950843 heartbeat IPC: 0.7956 cumulative IPC: 0.8294 (Simulation time: 00 hr 29 min 24 sec)
Heartbeat CPU 0 instructions: 198501159 cycles: 190577364 heartbeat IPC: 0.7981 cumulative IPC: 0.8293 (Simulation time: 00 hr 29 min 30 sec)
Heartbeat CPU 0 instructions: 199001164 cycles: 191202951 heartbeat IPC: 0.7993 cumulative IPC: 0.8292 (Simulation time: 00 hr 29 min 35 sec)
Heartbeat CPU 0 instructions: 199501168 cycles: 191829156 heartbeat IPC: 0.7985 cumulative IPC: 0.8291 (Simulation time: 00 hr 29 min 40 sec)
Heartbeat CPU 0 instructions: 200001172 cycles: 192455746 heartbeat IPC: 0.798 cumulative IPC: 0.829 (Simulation time: 00 hr 29 min 45 sec)
Heartbeat CPU 0 instructions: 200501173 cycles: 193089634 heartbeat IPC: 0.7888 cumulative IPC: 0.8288 (Simulation time: 00 hr 29 min 51 sec)
Heartbeat CPU 0 instructions: 201001178 cycles: 193715984 heartbeat IPC: 0.7983 cumulative IPC: 0.8287 (Simulation time: 00 hr 29 min 56 sec)
Heartbeat CPU 0 instructions: 201501182 cycles: 194340023 heartbeat IPC: 0.8012 cumulative IPC: 0.8286 (Simulation time: 00 hr 30 min 01 sec)
Heartbeat CPU 0 instructions: 202001186 cycles: 194970449 heartbeat IPC: 0.7931 cumulative IPC: 0.8285 (Simulation time: 00 hr 30 min 07 sec)
Heartbeat CPU 0 instructions: 202501190 cycles: 195594709 heartbeat IPC: 0.801 cumulative IPC: 0.8284 (Simulation time: 00 hr 30 min 12 sec)
Heartbeat CPU 0 instructions: 203001192 cycles: 196215278 heartbeat IPC: 0.8057 cumulative IPC: 0.8283 (Simulation time: 00 hr 30 min 17 sec)
Heartbeat CPU 0 instructions: 203501193 cycles: 196838012 heartbeat IPC: 0.8029 cumulative IPC: 0.8283 (Simulation time: 00 hr 30 min 22 sec)
Heartbeat CPU 0 instructions: 204001193 cycles: 197462101 heartbeat IPC: 0.8012 cumulative IPC: 0.8282 (Simulation time: 00 hr 30 min 28 sec)
Heartbeat CPU 0 instructions: 204501197 cycles: 198079528 heartbeat IPC: 0.8098 cumulative IPC: 0.8281 (Simulation time: 00 hr 30 min 33 sec)
Heartbeat CPU 0 instructions: 205001198 cycles: 198696415 heartbeat IPC: 0.8105 cumulative IPC: 0.828 (Simulation time: 00 hr 30 min 38 sec)
Heartbeat CPU 0 instructions: 205501198 cycles: 199167389 heartbeat IPC: 1.062 cumulative IPC: 0.8286 (Simulation time: 00 hr 30 min 43 sec)
Heartbeat CPU 0 instructions: 206001201 cycles: 199521639 heartbeat IPC: 1.411 cumulative IPC: 0.8297 (Simulation time: 00 hr 30 min 46 sec)
Heartbeat CPU 0 instructions: 206501202 cycles: 200085068 heartbeat IPC: 0.8874 cumulative IPC: 0.8299 (Simulation time: 00 hr 30 min 51 sec)
Heartbeat CPU 0 instructions: 207001203 cycles: 200683881 heartbeat IPC: 0.835 cumulative IPC: 0.8299 (Simulation time: 00 hr 30 min 56 sec)
Heartbeat CPU 0 instructions: 207501205 cycles: 201299212 heartbeat IPC: 0.8126 cumulative IPC: 0.8299 (Simulation time: 00 hr 31 min 01 sec)
Heartbeat CPU 0 instructions: 208001211 cycles: 201927321 heartbeat IPC: 0.796 cumulative IPC: 0.8298 (Simulation time: 00 hr 31 min 07 sec)
Heartbeat CPU 0 instructions: 208501215 cycles: 202534860 heartbeat IPC: 0.823 cumulative IPC: 0.8297 (Simulation time: 00 hr 31 min 12 sec)
Heartbeat CPU 0 instructions: 209001217 cycles: 203168884 heartbeat IPC: 0.7886 cumulative IPC: 0.8296 (Simulation time: 00 hr 31 min 17 sec)
Heartbeat CPU 0 instructions: 209501220 cycles: 203791221 heartbeat IPC: 0.8034 cumulative IPC: 0.8295 (Simulation time: 00 hr 31 min 23 sec)
Heartbeat CPU 0 instructions: 210001225 cycles: 204407012 heartbeat IPC: 0.812 cumulative IPC: 0.8295 (Simulation time: 00 hr 31 min 28 sec)
Heartbeat CPU 0 instructions: 210501225 cycles: 204983991 heartbeat IPC: 0.8666 cumulative IPC: 0.8296 (Simulation time: 00 hr 31 min 33 sec)
Heartbeat CPU 0 instructions: 211001230 cycles: 205597375 heartbeat IPC: 0.8152 cumulative IPC: 0.8295 (Simulation time: 00 hr 31 min 38 sec)
Heartbeat CPU 0 instructions: 211501230 cycles: 206199104 heartbeat IPC: 0.8309 cumulative IPC: 0.8295 (Simulation time: 00 hr 31 min 43 sec)
Heartbeat CPU 0 instructions: 212001232 cycles: 206818346 heartbeat IPC: 0.8074 cumulative IPC: 0.8295 (Simulation time: 00 hr 31 min 48 sec)
Heartbeat CPU 0 instructions: 212501235 cycles: 207404366 heartbeat IPC: 0.8532 cumulative IPC: 0.8295 (Simulation time: 00 hr 31 min 53 sec)
Heartbeat CPU 0 instructions: 213001237 cycles: 208021347 heartbeat IPC: 0.8104 cumulative IPC: 0.8295 (Simulation time: 00 hr 31 min 58 sec)
Heartbeat CPU 0 instructions: 213501238 cycles: 208628847 heartbeat IPC: 0.823 cumulative IPC: 0.8294 (Simulation time: 00 hr 32 min 03 sec)
Heartbeat CPU 0 instructions: 214001238 cycles: 209235264 heartbeat IPC: 0.8245 cumulative IPC: 0.8294 (Simulation time: 00 hr 32 min 08 sec)
Heartbeat CPU 0 instructions: 214501238 cycles: 209843713 heartbeat IPC: 0.8218 cumulative IPC: 0.8294 (Simulation time: 00 hr 32 min 13 sec)
Heartbeat CPU 0 instructions: 215001238 cycles: 210459328 heartbeat IPC: 0.8122 cumulative IPC: 0.8294 (Simulation time: 00 hr 32 min 19 sec)
Heartbeat CPU 0 instructions: 215501240 cycles: 211074311 heartbeat IPC: 0.813 cumulative IPC: 0.8293 (Simulation time: 00 hr 32 min 24 sec)
Heartbeat CPU 0 instructions: 216001240 cycles: 211679223 heartbeat IPC: 0.8266 cumulative IPC: 0.8293 (Simulation time: 00 hr 32 min 29 sec)
Heartbeat CPU 0 instructions: 216501240 cycles: 212291321 heartbeat IPC: 0.8169 cumulative IPC: 0.8293 (Simulation time: 00 hr 32 min 34 sec)
Heartbeat CPU 0 instructions: 217001242 cycles: 212910831 heartbeat IPC: 0.8071 cumulative IPC: 0.8292 (Simulation time: 00 hr 32 min 39 sec)
Heartbeat CPU 0 instructions: 217501242 cycles: 213525287 heartbeat IPC: 0.8137 cumulative IPC: 0.8291 (Simulation time: 00 hr 32 min 44 sec)
Heartbeat CPU 0 instructions: 218001248 cycles: 214148610 heartbeat IPC: 0.8022 cumulative IPC: 0.8291 (Simulation time: 00 hr 32 min 50 sec)
Heartbeat CPU 0 instructions: 218501249 cycles: 214770616 heartbeat IPC: 0.8039 cumulative IPC: 0.829 (Simulation time: 00 hr 32 min 55 sec)
Heartbeat CPU 0 instructions: 219001249 cycles: 215398721 heartbeat IPC: 0.796 cumulative IPC: 0.8289 (Simulation time: 00 hr 33 min 00 sec)
Heartbeat CPU 0 instructions: 219501255 cycles: 216029188 heartbeat IPC: 0.7931 cumulative IPC: 0.8288 (Simulation time: 00 hr 33 min 05 sec)
Heartbeat CPU 0 instructions: 220001255 cycles: 216658793 heartbeat IPC: 0.7941 cumulative IPC: 0.8287 (Simulation time: 00 hr 33 min 10 sec)
Heartbeat CPU 0 instructions: 220501259 cycles: 217282037 heartbeat IPC: 0.8023 cumulative IPC: 0.8286 (Simulation time: 00 hr 33 min 15 sec)
Heartbeat CPU 0 instructions: 221001263 cycles: 217911924 heartbeat IPC: 0.7938 cumulative IPC: 0.8285 (Simulation time: 00 hr 33 min 20 sec)
Heartbeat CPU 0 instructions: 221501264 cycles: 218537899 heartbeat IPC: 0.7988 cumulative IPC: 0.8284 (Simulation time: 00 hr 33 min 25 sec)
Heartbeat CPU 0 instructions: 222001269 cycles: 219157818 heartbeat IPC: 0.8066 cumulative IPC: 0.8283 (Simulation time: 00 hr 33 min 30 sec)
Heartbeat CPU 0 instructions: 222501273 cycles: 219788072 heartbeat IPC: 0.7933 cumulative IPC: 0.8282 (Simulation time: 00 hr 33 min 36 sec)
Heartbeat CPU 0 instructions: 223001277 cycles: 220417883 heartbeat IPC: 0.7939 cumulative IPC: 0.8281 (Simulation time: 00 hr 33 min 41 sec)
Heartbeat CPU 0 instructions: 223501281 cycles: 221050037 heartbeat IPC: 0.791 cumulative IPC: 0.828 (Simulation time: 00 hr 33 min 46 sec)
Heartbeat CPU 0 instructions: 224001284 cycles: 221679932 heartbeat IPC: 0.7938 cumulative IPC: 0.8279 (Simulation time: 00 hr 33 min 51 sec)
Heartbeat CPU 0 instructions: 224501284 cycles: 222304692 heartbeat IPC: 0.8003 cumulative IPC: 0.8278 (Simulation time: 00 hr 33 min 56 sec)
Heartbeat CPU 0 instructions: 225001284 cycles: 222934060 heartbeat IPC: 0.7944 cumulative IPC: 0.8277 (Simulation time: 00 hr 34 min 01 sec)
Heartbeat CPU 0 instructions: 225501288 cycles: 223559134 heartbeat IPC: 0.7999 cumulative IPC: 0.8276 (Simulation time: 00 hr 34 min 06 sec)
Heartbeat CPU 0 instructions: 226001289 cycles: 224184120 heartbeat IPC: 0.8 cumulative IPC: 0.8276 (Simulation time: 00 hr 34 min 11 sec)
Heartbeat CPU 0 instructions: 226501294 cycles: 224809606 heartbeat IPC: 0.7994 cumulative IPC: 0.8275 (Simulation time: 00 hr 34 min 17 sec)
Heartbeat CPU 0 instructions: 227001298 cycles: 225431746 heartbeat IPC: 0.8037 cumulative IPC: 0.8274 (Simulation time: 00 hr 34 min 22 sec)
Heartbeat CPU 0 instructions: 227501299 cycles: 226058646 heartbeat IPC: 0.7976 cumulative IPC: 0.8273 (Simulation time: 00 hr 34 min 27 sec)
Heartbeat CPU 0 instructions: 228001299 cycles: 226687470 heartbeat IPC: 0.7951 cumulative IPC: 0.8272 (Simulation time: 00 hr 34 min 32 sec)
Heartbeat CPU 0 instructions: 228501301 cycles: 227307999 heartbeat IPC: 0.8058 cumulative IPC: 0.8272 (Simulation time: 00 hr 34 min 37 sec)
Heartbeat CPU 0 instructions: 229001305 cycles: 227927078 heartbeat IPC: 0.8077 cumulative IPC: 0.8271 (Simulation time: 00 hr 34 min 42 sec)
Heartbeat CPU 0 instructions: 229501309 cycles: 228550446 heartbeat IPC: 0.8021 cumulative IPC: 0.827 (Simulation time: 00 hr 34 min 47 sec)
Heartbeat CPU 0 instructions: 230001313 cycles: 229173134 heartbeat IPC: 0.803 cumulative IPC: 0.827 (Simulation time: 00 hr 34 min 52 sec)
Heartbeat CPU 0 instructions: 230501314 cycles: 229800586 heartbeat IPC: 0.7969 cumulative IPC: 0.8269 (Simulation time: 00 hr 34 min 57 sec)
Heartbeat CPU 0 instructions: 231001319 cycles: 230425476 heartbeat IPC: 0.8001 cumulative IPC: 0.8268 (Simulation time: 00 hr 35 min 02 sec)
Heartbeat CPU 0 instructions: 231501323 cycles: 231048783 heartbeat IPC: 0.8022 cumulative IPC: 0.8267 (Simulation time: 00 hr 35 min 07 sec)
Heartbeat CPU 0 instructions: 232001324 cycles: 231679009 heartbeat IPC: 0.7934 cumulative IPC: 0.8266 (Simulation time: 00 hr 35 min 12 sec)
Heartbeat CPU 0 instructions: 232501324 cycles: 232304163 heartbeat IPC: 0.7998 cumulative IPC: 0.8266 (Simulation time: 00 hr 35 min 17 sec)
Heartbeat CPU 0 instructions: 233001325 cycles: 232927272 heartbeat IPC: 0.8024 cumulative IPC: 0.8265 (Simulation time: 00 hr 35 min 22 sec)
Heartbeat CPU 0 instructions: 233501330 cycles: 233547060 heartbeat IPC: 0.8067 cumulative IPC: 0.8264 (Simulation time: 00 hr 35 min 27 sec)
Heartbeat CPU 0 instructions: 234001334 cycles: 234166281 heartbeat IPC: 0.8075 cumulative IPC: 0.8264 (Simulation time: 00 hr 35 min 33 sec)
Heartbeat CPU 0 instructions: 234501336 cycles: 234650630 heartbeat IPC: 1.032 cumulative IPC: 0.8268 (Simulation time: 00 hr 35 min 38 sec)
Heartbeat CPU 0 instructions: 235001338 cycles: 235005592 heartbeat IPC: 1.409 cumulative IPC: 0.8278 (Simulation time: 00 hr 35 min 41 sec)
Heartbeat CPU 0 instructions: 235501344 cycles: 235572169 heartbeat IPC: 0.8825 cumulative IPC: 0.8279 (Simulation time: 00 hr 35 min 45 sec)
Heartbeat CPU 0 instructions: 236001348 cycles: 236177395 heartbeat IPC: 0.8261 cumulative IPC: 0.8279 (Simulation time: 00 hr 35 min 50 sec)
Heartbeat CPU 0 instructions: 236501351 cycles: 236794096 heartbeat IPC: 0.8108 cumulative IPC: 0.8278 (Simulation time: 00 hr 35 min 55 sec)
Heartbeat CPU 0 instructions: 237001352 cycles: 237417891 heartbeat IPC: 0.8015 cumulative IPC: 0.8278 (Simulation time: 00 hr 36 min 01 sec)
Heartbeat CPU 0 instructions: 237501355 cycles: 238030635 heartbeat IPC: 0.816 cumulative IPC: 0.8277 (Simulation time: 00 hr 36 min 06 sec)
Heartbeat CPU 0 instructions: 238001360 cycles: 238654373 heartbeat IPC: 0.8016 cumulative IPC: 0.8277 (Simulation time: 00 hr 36 min 11 sec)
Heartbeat CPU 0 instructions: 238501361 cycles: 239269379 heartbeat IPC: 0.813 cumulative IPC: 0.8276 (Simulation time: 00 hr 36 min 16 sec)
Heartbeat CPU 0 instructions: 239001361 cycles: 239879504 heartbeat IPC: 0.8195 cumulative IPC: 0.8276 (Simulation time: 00 hr 36 min 21 sec)
Heartbeat CPU 0 instructions: 239501364 cycles: 240468090 heartbeat IPC: 0.8495 cumulative IPC: 0.8277 (Simulation time: 00 hr 36 min 25 sec)
Heartbeat CPU 0 instructions: 240001371 cycles: 241074416 heartbeat IPC: 0.8247 cumulative IPC: 0.8277 (Simulation time: 00 hr 36 min 30 sec)
Heartbeat CPU 0 instructions: 240501372 cycles: 241674475 heartbeat IPC: 0.8333 cumulative IPC: 0.8277 (Simulation time: 00 hr 36 min 35 sec)
Heartbeat CPU 0 instructions: 241001378 cycles: 242288679 heartbeat IPC: 0.8141 cumulative IPC: 0.8276 (Simulation time: 00 hr 36 min 40 sec)
Heartbeat CPU 0 instructions: 241501384 cycles: 242875325 heartbeat IPC: 0.8523 cumulative IPC: 0.8277 (Simulation time: 00 hr 36 min 45 sec)
Heartbeat CPU 0 instructions: 242001389 cycles: 243487243 heartbeat IPC: 0.8171 cumulative IPC: 0.8277 (Simulation time: 00 hr 36 min 50 sec)
Heartbeat CPU 0 instructions: 242501392 cycles: 244089182 heartbeat IPC: 0.8307 cumulative IPC: 0.8277 (Simulation time: 00 hr 36 min 55 sec)
Heartbeat CPU 0 instructions: 243001394 cycles: 244700940 heartbeat IPC: 0.8173 cumulative IPC: 0.8276 (Simulation time: 00 hr 37 min 00 sec)
Heartbeat CPU 0 instructions: 243501397 cycles: 245296911 heartbeat IPC: 0.839 cumulative IPC: 0.8277 (Simulation time: 00 hr 37 min 05 sec)
Heartbeat CPU 0 instructions: 244001400 cycles: 245905781 heartbeat IPC: 0.8212 cumulative IPC: 0.8277 (Simulation time: 00 hr 37 min 10 sec)
Heartbeat CPU 0 instructions: 244501406 cycles: 246513123 heartbeat IPC: 0.8233 cumulative IPC: 0.8276 (Simulation time: 00 hr 37 min 15 sec)
Heartbeat CPU 0 instructions: 245001411 cycles: 247117439 heartbeat IPC: 0.8274 cumulative IPC: 0.8276 (Simulation time: 00 hr 37 min 20 sec)
Heartbeat CPU 0 instructions: 245501415 cycles: 247714525 heartbeat IPC: 0.8374 cumulative IPC: 0.8277 (Simulation time: 00 hr 37 min 24 sec)
Heartbeat CPU 0 instructions: 246001421 cycles: 248332117 heartbeat IPC: 0.8096 cumulative IPC: 0.8276 (Simulation time: 00 hr 37 min 30 sec)
Heartbeat CPU 0 instructions: 246501422 cycles: 248948687 heartbeat IPC: 0.8109 cumulative IPC: 0.8276 (Simulation time: 00 hr 37 min 35 sec)
Heartbeat CPU 0 instructions: 247001422 cycles: 249570220 heartbeat IPC: 0.8045 cumulative IPC: 0.8275 (Simulation time: 00 hr 37 min 40 sec)
Heartbeat CPU 0 instructions: 247501426 cycles: 250195499 heartbeat IPC: 0.7996 cumulative IPC: 0.8274 (Simulation time: 00 hr 37 min 45 sec)
Heartbeat CPU 0 instructions: 248001428 cycles: 250819473 heartbeat IPC: 0.8013 cumulative IPC: 0.8274 (Simulation time: 00 hr 37 min 50 sec)
Heartbeat CPU 0 instructions: 248501432 cycles: 251447753 heartbeat IPC: 0.7958 cumulative IPC: 0.8273 (Simulation time: 00 hr 37 min 55 sec)
Heartbeat CPU 0 instructions: 249001436 cycles: 252078464 heartbeat IPC: 0.7928 cumulative IPC: 0.8272 (Simulation time: 00 hr 38 min 00 sec)
Heartbeat CPU 0 instructions: 249501437 cycles: 252707207 heartbeat IPC: 0.7952 cumulative IPC: 0.8271 (Simulation time: 00 hr 38 min 05 sec)
Simulation finished CPU 0 instructions: 200000000 cycles: 241821520 cumulative IPC: 0.8271 (Simulation time: 00 hr 38 min 10 sec)
Simulation complete CPU 0 instructions: 200000000 cycles: 241821520 cumulative IPC: 0.8271 (Simulation time: 00 hr 38 min 10 sec)

ChampSim completed all CPUs

=== Simulation ===
CPU 0 runs /local-ssd/ben/dpc4-traces/ai-ml/llama2.c-stories15M.3.champsimtrace.gz

Region of Interest Statistics

CPU 0 cumulative IPC: 0.8271 instructions: 200000000 cycles: 241821520
CPU 0 Branch Prediction Accuracy: 98.73% MPKI: 1.825 Average ROB Occupancy at Mispredict: 499.6
Branch type MPKI
BRANCH_DIRECT_JUMP: 0
BRANCH_INDIRECT: 0
BRANCH_CONDITIONAL: 1.825
BRANCH_DIRECT_CALL: 1e-05
BRANCH_INDIRECT_CALL: 0.000145
BRANCH_RETURN: 8e-05

cpu0->cpu0_STLB TOTAL        ACCESS:     104991 HIT:       1385 MISS:     103606 MSHR_MERGE:          0
cpu0->cpu0_STLB LOAD         ACCESS:     104991 HIT:       1385 MISS:     103606 MSHR_MERGE:          0
cpu0->cpu0_STLB RFO          ACCESS:          0 HIT:          0 MISS:          0 MSHR_MERGE:          0
cpu0->cpu0_STLB PREFETCH     ACCESS:          0 HIT:          0 MISS:          0 MSHR_MERGE:          0
cpu0->cpu0_STLB WRITE        ACCESS:          0 HIT:          0 MISS:          0 MSHR_MERGE:          0
cpu0->cpu0_STLB TRANSLATION  ACCESS:          0 HIT:          0 MISS:          0 MSHR_MERGE:          0
cpu0->cpu0_STLB PREFETCH REQUESTED:          0 ISSUED:          0 USEFUL:          0 USELESS:          0
cpu0->cpu0_STLB AVERAGE MISS LATENCY: 42.75 cycles
cpu0->cpu0_L2C TOTAL        ACCESS:    6782924 HIT:     147327 MISS:    6635597 MSHR_MERGE:          0
cpu0->cpu0_L2C LOAD         ACCESS:    6671980 HIT:      72431 MISS:    6599549 MSHR_MERGE:          0
cpu0->cpu0_L2C RFO          ACCESS:      23760 HIT:       2212 MISS:      21548 MSHR_MERGE:          0
cpu0->cpu0_L2C PREFETCH     ACCESS:          0 HIT:          0 MISS:          0 MSHR_MERGE:          0
cpu0->cpu0_L2C WRITE        ACCESS:      73276 HIT:      72352 MISS:        924 MSHR_MERGE:          0
cpu0->cpu0_L2C TRANSLATION  ACCESS:      13908 HIT:        332 MISS:      13576 MSHR_MERGE:          0
cpu0->cpu0_L2C PREFETCH REQUESTED:          0 ISSUED:          0 USEFUL:          0 USELESS:          0
cpu0->cpu0_L2C AVERAGE MISS LATENCY: 209.9 cycles
cpu0->cpu0_L1I TOTAL        ACCESS:   17924983 HIT:   17924983 MISS:          0 MSHR_MERGE:          0
cpu0->cpu0_L1I LOAD         ACCESS:   17924983 HIT:   17924983 MISS:          0 MSHR_MERGE:          0
cpu0->cpu0_L1I RFO          ACCESS:          0 HIT:          0 MISS:          0 MSHR_MERGE:          0
cpu0->cpu0_L1I PREFETCH     ACCESS:          0 HIT:          0 MISS:          0 MSHR_MERGE:          0
cpu0->cpu0_L1I WRITE        ACCESS:          0 HIT:          0 MISS:          0 MSHR_MERGE:          0
cpu0->cpu0_L1I TRANSLATION  ACCESS:          0 HIT:          0 MISS:          0 MSHR_MERGE:          0
cpu0->cpu0_L1I PREFETCH REQUESTED:          0 ISSUED:          0 USEFUL:          0 USELESS:          0
cpu0->cpu0_L1I AVERAGE MISS LATENCY: - cycles
cpu0->cpu0_L1D TOTAL        ACCESS:   39955354 HIT:   21550581 MISS:   18404773 MSHR_MERGE:   11695123
cpu0->cpu0_L1D LOAD         ACCESS:   38837466 HIT:   20472592 MISS:   18364874 MSHR_MERGE:   11692893
cpu0->cpu0_L1D RFO          ACCESS:          0 HIT:          0 MISS:          0 MSHR_MERGE:          0
cpu0->cpu0_L1D PREFETCH     ACCESS:          0 HIT:          0 MISS:          0 MSHR_MERGE:          0
cpu0->cpu0_L1D WRITE        ACCESS:     910516 HIT:     884528 MISS:      25988 MSHR_MERGE:       2227
cpu0->cpu0_L1D TRANSLATION  ACCESS:     207372 HIT:     193461 MISS:      13911 MSHR_MERGE:          3
cpu0->cpu0_L1D PREFETCH REQUESTED:          0 ISSUED:          0 USEFUL:          0 USELESS:          0
cpu0->cpu0_L1D AVERAGE MISS LATENCY: 216.6 cycles
cpu0->cpu0_ITLB TOTAL        ACCESS:   16914220 HIT:   16914220 MISS:          0 MSHR_MERGE:          0
cpu0->cpu0_ITLB LOAD         ACCESS:   16914220 HIT:   16914220 MISS:          0 MSHR_MERGE:          0
cpu0->cpu0_ITLB RFO          ACCESS:          0 HIT:          0 MISS:          0 MSHR_MERGE:          0
cpu0->cpu0_ITLB PREFETCH     ACCESS:          0 HIT:          0 MISS:          0 MSHR_MERGE:          0
cpu0->cpu0_ITLB WRITE        ACCESS:          0 HIT:          0 MISS:          0 MSHR_MERGE:          0
cpu0->cpu0_ITLB TRANSLATION  ACCESS:          0 HIT:          0 MISS:          0 MSHR_MERGE:          0
cpu0->cpu0_ITLB PREFETCH REQUESTED:          0 ISSUED:          0 USEFUL:          0 USELESS:          0
cpu0->cpu0_ITLB AVERAGE MISS LATENCY: - cycles
cpu0->cpu0_DTLB TOTAL        ACCESS:   39653536 HIT:   39039874 MISS:     613662 MSHR_MERGE:     508671
cpu0->cpu0_DTLB LOAD         ACCESS:   39653536 HIT:   39039874 MISS:     613662 MSHR_MERGE:     508671
cpu0->cpu0_DTLB RFO          ACCESS:          0 HIT:          0 MISS:          0 MSHR_MERGE:          0
cpu0->cpu0_DTLB PREFETCH     ACCESS:          0 HIT:          0 MISS:          0 MSHR_MERGE:          0
cpu0->cpu0_DTLB WRITE        ACCESS:          0 HIT:          0 MISS:          0 MSHR_MERGE:          0
cpu0->cpu0_DTLB TRANSLATION  ACCESS:          0 HIT:          0 MISS:          0 MSHR_MERGE:          0
cpu0->cpu0_DTLB PREFETCH REQUESTED:          0 ISSUED:          0 USEFUL:          0 USELESS:          0
cpu0->cpu0_DTLB AVERAGE MISS LATENCY: 48.17 cycles
cpu0->LLC TOTAL        ACCESS:    6671470 HIT:     221899 MISS:    6449571 MSHR_MERGE:          0
cpu0->LLC LOAD         ACCESS:    6599549 HIT:     183397 MISS:    6416152 MSHR_MERGE:          0
cpu0->LLC RFO          ACCESS:      21548 HIT:      11153 MISS:      10395 MSHR_MERGE:          0
cpu0->LLC PREFETCH     ACCESS:          0 HIT:          0 MISS:          0 MSHR_MERGE:          0
cpu0->LLC WRITE        ACCESS:      36797 HIT:      26733 MISS:      10064 MSHR_MERGE:          0
cpu0->LLC TRANSLATION  ACCESS:      13576 HIT:        616 MISS:      12960 MSHR_MERGE:          0
cpu0->LLC PREFETCH REQUESTED:          0 ISSUED:          0 USEFUL:          0 USELESS:          0
cpu0->LLC AVERAGE MISS LATENCY: 192.4 cycles

DRAM Statistics

Channel 0 RQ ROW_BUFFER_HIT:    1789118
  ROW_BUFFER_MISS:    4649851
  AVG DBUS CONGESTED CYCLE: 24.45
Channel 0 WQ ROW_BUFFER_HIT:       2758
  ROW_BUFFER_MISS:      10768
  FULL:          0
Channel 0 REFRESHES ISSUED:      20151
