[VMEM] WARNING: physical memory size is smaller than virtual memory size.

*** ChampSim Multicore Out-of-Order Simulator ***
Warmup Instructions: 50000000
Simulation Instructions: 200000000
Number of CPUs: 1
Page size: 4096
Core 0: /local-ssd/ben/dpc4-traces/ai-ml/biogpt.cpp-ggml-model-tocilizumab.1.champsimtrace.gz
Off-chip DRAM Size: 64 GiB Channels: 1 Width: 64-bit Data Rate: 4807 MT/s
Heartbeat CPU 0 instructions: 500002 cycles: 345646 heartbeat IPC: 1.447 cumulative IPC: 1.447 (Simulation time: 00 hr 00 min 07 sec)
Heartbeat CPU 0 instructions: 1000007 cycles: 688989 heartbeat IPC: 1.456 cumulative IPC: 1.451 (Simulation time: 00 hr 00 min 12 sec)
Heartbeat CPU 0 instructions: 1500013 cycles: 1053365 heartbeat IPC: 1.372 cumulative IPC: 1.424 (Simulation time: 00 hr 00 min 18 sec)
Heartbeat CPU 0 instructions: 2000020 cycles: 1448163 heartbeat IPC: 1.266 cumulative IPC: 1.381 (Simulation time: 00 hr 00 min 23 sec)
Heartbeat CPU 0 instructions: 2500022 cycles: 1844200 heartbeat IPC: 1.263 cumulative IPC: 1.356 (Simulation time: 00 hr 00 min 29 sec)
Heartbeat CPU 0 instructions: 3000029 cycles: 2209174 heartbeat IPC: 1.37 cumulative IPC: 1.358 (Simulation time: 00 hr 00 min 34 sec)
Heartbeat CPU 0 instructions: 3500031 cycles: 2552200 heartbeat IPC: 1.458 cumulative IPC: 1.371 (Simulation time: 00 hr 00 min 40 sec)
Heartbeat CPU 0 instructions: 4000034 cycles: 2803738 heartbeat IPC: 1.988 cumulative IPC: 1.427 (Simulation time: 00 hr 00 min 43 sec)
Heartbeat CPU 0 instructions: 4500036 cycles: 3109055 heartbeat IPC: 1.638 cumulative IPC: 1.447 (Simulation time: 00 hr 00 min 48 sec)
Heartbeat CPU 0 instructions: 5000038 cycles: 3401670 heartbeat IPC: 1.709 cumulative IPC: 1.47 (Simulation time: 00 hr 00 min 52 sec)
Heartbeat CPU 0 instructions: 5500042 cycles: 3734984 heartbeat IPC: 1.5 cumulative IPC: 1.473 (Simulation time: 00 hr 00 min 57 sec)
Heartbeat CPU 0 instructions: 6000042 cycles: 4077910 heartbeat IPC: 1.458 cumulative IPC: 1.471 (Simulation time: 00 hr 01 min 02 sec)
Heartbeat CPU 0 instructions: 6500043 cycles: 4420801 heartbeat IPC: 1.458 cumulative IPC: 1.47 (Simulation time: 00 hr 01 min 07 sec)
Heartbeat CPU 0 instructions: 7000049 cycles: 4758122 heartbeat IPC: 1.482 cumulative IPC: 1.471 (Simulation time: 00 hr 01 min 12 sec)
Heartbeat CPU 0 instructions: 7500053 cycles: 5151706 heartbeat IPC: 1.27 cumulative IPC: 1.456 (Simulation time: 00 hr 01 min 18 sec)
Heartbeat CPU 0 instructions: 8000055 cycles: 5547347 heartbeat IPC: 1.264 cumulative IPC: 1.442 (Simulation time: 00 hr 01 min 24 sec)
Heartbeat CPU 0 instructions: 8500059 cycles: 5942083 heartbeat IPC: 1.267 cumulative IPC: 1.43 (Simulation time: 00 hr 01 min 29 sec)
Heartbeat CPU 0 instructions: 9000063 cycles: 6274998 heartbeat IPC: 1.502 cumulative IPC: 1.434 (Simulation time: 00 hr 01 min 34 sec)
Heartbeat CPU 0 instructions: 9500064 cycles: 6588164 heartbeat IPC: 1.597 cumulative IPC: 1.442 (Simulation time: 00 hr 01 min 39 sec)
Heartbeat CPU 0 instructions: 10000065 cycles: 6862332 heartbeat IPC: 1.824 cumulative IPC: 1.457 (Simulation time: 00 hr 01 min 43 sec)
Heartbeat CPU 0 instructions: 10500067 cycles: 7117516 heartbeat IPC: 1.959 cumulative IPC: 1.475 (Simulation time: 00 hr 01 min 47 sec)
Heartbeat CPU 0 instructions: 11000069 cycles: 7450290 heartbeat IPC: 1.503 cumulative IPC: 1.476 (Simulation time: 00 hr 01 min 52 sec)
Heartbeat CPU 0 instructions: 11500072 cycles: 7792871 heartbeat IPC: 1.46 cumulative IPC: 1.476 (Simulation time: 00 hr 01 min 57 sec)
Heartbeat CPU 0 instructions: 12000072 cycles: 8134963 heartbeat IPC: 1.462 cumulative IPC: 1.475 (Simulation time: 00 hr 02 min 02 sec)
Heartbeat CPU 0 instructions: 12500076 cycles: 8477042 heartbeat IPC: 1.462 cumulative IPC: 1.475 (Simulation time: 00 hr 02 min 07 sec)
Heartbeat CPU 0 instructions: 13000078 cycles: 8844210 heartbeat IPC: 1.362 cumulative IPC: 1.47 (Simulation time: 00 hr 02 min 12 sec)
Heartbeat CPU 0 instructions: 13500078 cycles: 9240292 heartbeat IPC: 1.262 cumulative IPC: 1.461 (Simulation time: 00 hr 02 min 18 sec)
Heartbeat CPU 0 instructions: 14000078 cycles: 9635312 heartbeat IPC: 1.266 cumulative IPC: 1.453 (Simulation time: 00 hr 02 min 24 sec)
Heartbeat CPU 0 instructions: 14500082 cycles: 9991378 heartbeat IPC: 1.404 cumulative IPC: 1.451 (Simulation time: 00 hr 02 min 29 sec)
Heartbeat CPU 0 instructions: 15000087 cycles: 10333960 heartbeat IPC: 1.46 cumulative IPC: 1.452 (Simulation time: 00 hr 02 min 34 sec)
Heartbeat CPU 0 instructions: 15500091 cycles: 10676181 heartbeat IPC: 1.461 cumulative IPC: 1.452 (Simulation time: 00 hr 02 min 40 sec)
Heartbeat CPU 0 instructions: 16000091 cycles: 11018671 heartbeat IPC: 1.46 cumulative IPC: 1.452 (Simulation time: 00 hr 02 min 45 sec)
Heartbeat CPU 0 instructions: 16500092 cycles: 11361187 heartbeat IPC: 1.46 cumulative IPC: 1.452 (Simulation time: 00 hr 02 min 50 sec)
Heartbeat CPU 0 instructions: 17000098 cycles: 11703701 heartbeat IPC: 1.46 cumulative IPC: 1.453 (Simulation time: 00 hr 02 min 55 sec)
Heartbeat CPU 0 instructions: 17500100 cycles: 12046285 heartbeat IPC: 1.46 cumulative IPC: 1.453 (Simulation time: 00 hr 03 min 00 sec)
Heartbeat CPU 0 instructions: 18000101 cycles: 12388540 heartbeat IPC: 1.461 cumulative IPC: 1.453 (Simulation time: 00 hr 03 min 05 sec)
Heartbeat CPU 0 instructions: 18500105 cycles: 12731157 heartbeat IPC: 1.459 cumulative IPC: 1.453 (Simulation time: 00 hr 03 min 10 sec)
Heartbeat CPU 0 instructions: 19000109 cycles: 13073652 heartbeat IPC: 1.46 cumulative IPC: 1.453 (Simulation time: 00 hr 03 min 15 sec)
Heartbeat CPU 0 instructions: 19500112 cycles: 13415882 heartbeat IPC: 1.461 cumulative IPC: 1.454 (Simulation time: 00 hr 03 min 20 sec)
Heartbeat CPU 0 instructions: 20000114 cycles: 13758275 heartbeat IPC: 1.46 cumulative IPC: 1.454 (Simulation time: 00 hr 03 min 25 sec)
Heartbeat CPU 0 instructions: 20500114 cycles: 14101126 heartbeat IPC: 1.458 cumulative IPC: 1.454 (Simulation time: 00 hr 03 min 31 sec)
Heartbeat CPU 0 instructions: 21000119 cycles: 14443265 heartbeat IPC: 1.461 cumulative IPC: 1.454 (Simulation time: 00 hr 03 min 36 sec)
Heartbeat CPU 0 instructions: 21500123 cycles: 14785919 heartbeat IPC: 1.459 cumulative IPC: 1.454 (Simulation time: 00 hr 03 min 41 sec)
Heartbeat CPU 0 instructions: 22000127 cycles: 15128203 heartbeat IPC: 1.461 cumulative IPC: 1.454 (Simulation time: 00 hr 03 min 46 sec)
Heartbeat CPU 0 instructions: 22500128 cycles: 15470852 heartbeat IPC: 1.459 cumulative IPC: 1.454 (Simulation time: 00 hr 03 min 51 sec)
Heartbeat CPU 0 instructions: 23000132 cycles: 15813549 heartbeat IPC: 1.459 cumulative IPC: 1.454 (Simulation time: 00 hr 03 min 56 sec)
Heartbeat CPU 0 instructions: 23500136 cycles: 16155723 heartbeat IPC: 1.461 cumulative IPC: 1.455 (Simulation time: 00 hr 04 min 01 sec)
Heartbeat CPU 0 instructions: 24000137 cycles: 16498620 heartbeat IPC: 1.458 cumulative IPC: 1.455 (Simulation time: 00 hr 04 min 06 sec)
Heartbeat CPU 0 instructions: 24500137 cycles: 16840950 heartbeat IPC: 1.461 cumulative IPC: 1.455 (Simulation time: 00 hr 04 min 12 sec)
Heartbeat CPU 0 instructions: 25000143 cycles: 17183503 heartbeat IPC: 1.46 cumulative IPC: 1.455 (Simulation time: 00 hr 04 min 17 sec)
Heartbeat CPU 0 instructions: 25500146 cycles: 17525961 heartbeat IPC: 1.46 cumulative IPC: 1.455 (Simulation time: 00 hr 04 min 22 sec)
Heartbeat CPU 0 instructions: 26000146 cycles: 17868500 heartbeat IPC: 1.46 cumulative IPC: 1.455 (Simulation time: 00 hr 04 min 27 sec)
Heartbeat CPU 0 instructions: 26500150 cycles: 18210966 heartbeat IPC: 1.46 cumulative IPC: 1.455 (Simulation time: 00 hr 04 min 32 sec)
Heartbeat CPU 0 instructions: 27000155 cycles: 18553477 heartbeat IPC: 1.46 cumulative IPC: 1.455 (Simulation time: 00 hr 04 min 37 sec)
Heartbeat CPU 0 instructions: 27500157 cycles: 18895699 heartbeat IPC: 1.461 cumulative IPC: 1.455 (Simulation time: 00 hr 04 min 42 sec)
Heartbeat CPU 0 instructions: 28000159 cycles: 19238353 heartbeat IPC: 1.459 cumulative IPC: 1.455 (Simulation time: 00 hr 04 min 47 sec)
Heartbeat CPU 0 instructions: 28500164 cycles: 19580615 heartbeat IPC: 1.461 cumulative IPC: 1.456 (Simulation time: 00 hr 04 min 53 sec)
Heartbeat CPU 0 instructions: 29000164 cycles: 19923063 heartbeat IPC: 1.46 cumulative IPC: 1.456 (Simulation time: 00 hr 04 min 58 sec)
Heartbeat CPU 0 instructions: 29500168 cycles: 20265761 heartbeat IPC: 1.459 cumulative IPC: 1.456 (Simulation time: 00 hr 05 min 03 sec)
Heartbeat CPU 0 instructions: 30000169 cycles: 20607567 heartbeat IPC: 1.463 cumulative IPC: 1.456 (Simulation time: 00 hr 05 min 08 sec)
Heartbeat CPU 0 instructions: 30500173 cycles: 20950076 heartbeat IPC: 1.46 cumulative IPC: 1.456 (Simulation time: 00 hr 05 min 13 sec)
Heartbeat CPU 0 instructions: 31000177 cycles: 21292585 heartbeat IPC: 1.46 cumulative IPC: 1.456 (Simulation time: 00 hr 05 min 18 sec)
Heartbeat CPU 0 instructions: 31500180 cycles: 21634803 heartbeat IPC: 1.461 cumulative IPC: 1.456 (Simulation time: 00 hr 05 min 23 sec)
Heartbeat CPU 0 instructions: 32000182 cycles: 21977447 heartbeat IPC: 1.459 cumulative IPC: 1.456 (Simulation time: 00 hr 05 min 28 sec)
Heartbeat CPU 0 instructions: 32500182 cycles: 22319842 heartbeat IPC: 1.46 cumulative IPC: 1.456 (Simulation time: 00 hr 05 min 33 sec)
Heartbeat CPU 0 instructions: 33000185 cycles: 22695086 heartbeat IPC: 1.332 cumulative IPC: 1.454 (Simulation time: 00 hr 05 min 37 sec)
Heartbeat CPU 0 instructions: 33500186 cycles: 22820817 heartbeat IPC: 3.977 cumulative IPC: 1.468 (Simulation time: 00 hr 05 min 38 sec)
Heartbeat CPU 0 instructions: 34000188 cycles: 22936857 heartbeat IPC: 4.309 cumulative IPC: 1.482 (Simulation time: 00 hr 05 min 40 sec)
Heartbeat CPU 0 instructions: 34500195 cycles: 23045225 heartbeat IPC: 4.614 cumulative IPC: 1.497 (Simulation time: 00 hr 05 min 42 sec)
Heartbeat CPU 0 instructions: 35000195 cycles: 23154776 heartbeat IPC: 4.564 cumulative IPC: 1.512 (Simulation time: 00 hr 05 min 45 sec)
Heartbeat CPU 0 instructions: 35500195 cycles: 23639667 heartbeat IPC: 1.031 cumulative IPC: 1.502 (Simulation time: 00 hr 05 min 49 sec)
Heartbeat CPU 0 instructions: 36000200 cycles: 23928511 heartbeat IPC: 1.731 cumulative IPC: 1.504 (Simulation time: 00 hr 05 min 52 sec)
Heartbeat CPU 0 instructions: 36500205 cycles: 24047272 heartbeat IPC: 4.21 cumulative IPC: 1.518 (Simulation time: 00 hr 05 min 54 sec)
Heartbeat CPU 0 instructions: 37000210 cycles: 24168302 heartbeat IPC: 4.131 cumulative IPC: 1.531 (Simulation time: 00 hr 05 min 56 sec)
Heartbeat CPU 0 instructions: 37500211 cycles: 24285335 heartbeat IPC: 4.272 cumulative IPC: 1.544 (Simulation time: 00 hr 05 min 58 sec)
Heartbeat CPU 0 instructions: 38000211 cycles: 24775458 heartbeat IPC: 1.02 cumulative IPC: 1.534 (Simulation time: 00 hr 06 min 02 sec)
Heartbeat CPU 0 instructions: 38500214 cycles: 24932127 heartbeat IPC: 3.191 cumulative IPC: 1.544 (Simulation time: 00 hr 06 min 04 sec)
Heartbeat CPU 0 instructions: 39000214 cycles: 25327736 heartbeat IPC: 1.264 cumulative IPC: 1.54 (Simulation time: 00 hr 06 min 08 sec)
Heartbeat CPU 0 instructions: 39500216 cycles: 25669391 heartbeat IPC: 1.463 cumulative IPC: 1.539 (Simulation time: 00 hr 06 min 13 sec)
Heartbeat CPU 0 instructions: 40000221 cycles: 25908583 heartbeat IPC: 2.09 cumulative IPC: 1.544 (Simulation time: 00 hr 06 min 17 sec)
Heartbeat CPU 0 instructions: 40500222 cycles: 26186913 heartbeat IPC: 1.796 cumulative IPC: 1.547 (Simulation time: 00 hr 06 min 21 sec)
Heartbeat CPU 0 instructions: 41000227 cycles: 26501550 heartbeat IPC: 1.589 cumulative IPC: 1.547 (Simulation time: 00 hr 06 min 26 sec)
Heartbeat CPU 0 instructions: 41500234 cycles: 26835603 heartbeat IPC: 1.497 cumulative IPC: 1.546 (Simulation time: 00 hr 06 min 31 sec)
Heartbeat CPU 0 instructions: 42000238 cycles: 27178578 heartbeat IPC: 1.458 cumulative IPC: 1.545 (Simulation time: 00 hr 06 min 36 sec)
Heartbeat CPU 0 instructions: 42500239 cycles: 27521186 heartbeat IPC: 1.459 cumulative IPC: 1.544 (Simulation time: 00 hr 06 min 41 sec)
Heartbeat CPU 0 instructions: 43000242 cycles: 27863622 heartbeat IPC: 1.46 cumulative IPC: 1.543 (Simulation time: 00 hr 06 min 46 sec)
Heartbeat CPU 0 instructions: 43500242 cycles: 28258967 heartbeat IPC: 1.265 cumulative IPC: 1.539 (Simulation time: 00 hr 06 min 52 sec)
Heartbeat CPU 0 instructions: 44000245 cycles: 28655136 heartbeat IPC: 1.262 cumulative IPC: 1.536 (Simulation time: 00 hr 06 min 58 sec)
Heartbeat CPU 0 instructions: 44500249 cycles: 29035307 heartbeat IPC: 1.315 cumulative IPC: 1.533 (Simulation time: 00 hr 07 min 03 sec)
Heartbeat CPU 0 instructions: 45000250 cycles: 29377350 heartbeat IPC: 1.462 cumulative IPC: 1.532 (Simulation time: 00 hr 07 min 08 sec)
Heartbeat CPU 0 instructions: 45500256 cycles: 29670332 heartbeat IPC: 1.707 cumulative IPC: 1.534 (Simulation time: 00 hr 07 min 13 sec)
Heartbeat CPU 0 instructions: 46000263 cycles: 29959228 heartbeat IPC: 1.731 cumulative IPC: 1.535 (Simulation time: 00 hr 07 min 17 sec)
Heartbeat CPU 0 instructions: 46500268 cycles: 30210767 heartbeat IPC: 1.988 cumulative IPC: 1.539 (Simulation time: 00 hr 07 min 21 sec)
Heartbeat CPU 0 instructions: 47000268 cycles: 30543570 heartbeat IPC: 1.502 cumulative IPC: 1.539 (Simulation time: 00 hr 07 min 26 sec)
Heartbeat CPU 0 instructions: 47500272 cycles: 30886440 heartbeat IPC: 1.458 cumulative IPC: 1.538 (Simulation time: 00 hr 07 min 31 sec)
Heartbeat CPU 0 instructions: 48000275 cycles: 31228880 heartbeat IPC: 1.46 cumulative IPC: 1.537 (Simulation time: 00 hr 07 min 36 sec)
Heartbeat CPU 0 instructions: 48500277 cycles: 31571574 heartbeat IPC: 1.459 cumulative IPC: 1.536 (Simulation time: 00 hr 07 min 41 sec)
Heartbeat CPU 0 instructions: 49000282 cycles: 31942169 heartbeat IPC: 1.349 cumulative IPC: 1.534 (Simulation time: 00 hr 07 min 47 sec)
Heartbeat CPU 0 instructions: 49500282 cycles: 32337265 heartbeat IPC: 1.266 cumulative IPC: 1.531 (Simulation time: 00 hr 07 min 52 sec)
Warmup finished CPU 0 instructions: 50000003 cycles: 32731593 cumulative IPC: 1.528 (Simulation time: 00 hr 07 min 58 sec)
Warmup complete CPU 0 instructions: 50000003 cycles: 32731593 cumulative IPC: 1.528 (Simulation time: 00 hr 07 min 58 sec)
Heartbeat CPU 0 instructions: 50000287 cycles: 32731639 heartbeat IPC: 1.268 cumulative IPC: 6.174 (Simulation time: 00 hr 07 min 58 sec)
Heartbeat CPU 0 instructions: 50500287 cycles: 33922132 heartbeat IPC: 0.42 cumulative IPC: 0.4202 (Simulation time: 00 hr 08 min 10 sec)
Heartbeat CPU 0 instructions: 51000291 cycles: 35119110 heartbeat IPC: 0.4177 cumulative IPC: 0.419 (Simulation time: 00 hr 08 min 21 sec)
Heartbeat CPU 0 instructions: 51500298 cycles: 35827822 heartbeat IPC: 0.7055 cumulative IPC: 0.4846 (Simulation time: 00 hr 08 min 28 sec)
Heartbeat CPU 0 instructions: 52000304 cycles: 36745482 heartbeat IPC: 0.5449 cumulative IPC: 0.4983 (Simulation time: 00 hr 08 min 37 sec)
Heartbeat CPU 0 instructions: 52500306 cycles: 37894559 heartbeat IPC: 0.4351 cumulative IPC: 0.4843 (Simulation time: 00 hr 08 min 48 sec)
Heartbeat CPU 0 instructions: 53000307 cycles: 39094926 heartbeat IPC: 0.4165 cumulative IPC: 0.4715 (Simulation time: 00 hr 08 min 59 sec)
Heartbeat CPU 0 instructions: 53500310 cycles: 40295841 heartbeat IPC: 0.4164 cumulative IPC: 0.4627 (Simulation time: 00 hr 09 min 10 sec)
Heartbeat CPU 0 instructions: 54000315 cycles: 41501937 heartbeat IPC: 0.4146 cumulative IPC: 0.4561 (Simulation time: 00 hr 09 min 21 sec)
Heartbeat CPU 0 instructions: 54500318 cycles: 42692975 heartbeat IPC: 0.4198 cumulative IPC: 0.4518 (Simulation time: 00 hr 09 min 33 sec)
Heartbeat CPU 0 instructions: 55000320 cycles: 43980491 heartbeat IPC: 0.3883 cumulative IPC: 0.4445 (Simulation time: 00 hr 09 min 45 sec)
Heartbeat CPU 0 instructions: 55500323 cycles: 45268803 heartbeat IPC: 0.3881 cumulative IPC: 0.4387 (Simulation time: 00 hr 09 min 58 sec)
Heartbeat CPU 0 instructions: 56000329 cycles: 46509775 heartbeat IPC: 0.4029 cumulative IPC: 0.4355 (Simulation time: 00 hr 10 min 10 sec)
Heartbeat CPU 0 instructions: 56500329 cycles: 47719787 heartbeat IPC: 0.4132 cumulative IPC: 0.4337 (Simulation time: 00 hr 10 min 21 sec)
Heartbeat CPU 0 instructions: 57000331 cycles: 48613856 heartbeat IPC: 0.5592 cumulative IPC: 0.4408 (Simulation time: 00 hr 10 min 30 sec)
Heartbeat CPU 0 instructions: 57500334 cycles: 49635298 heartbeat IPC: 0.4895 cumulative IPC: 0.4437 (Simulation time: 00 hr 10 min 39 sec)
Heartbeat CPU 0 instructions: 58000335 cycles: 50552777 heartbeat IPC: 0.545 cumulative IPC: 0.4489 (Simulation time: 00 hr 10 min 48 sec)
Heartbeat CPU 0 instructions: 58500335 cycles: 51725805 heartbeat IPC: 0.4262 cumulative IPC: 0.4475 (Simulation time: 00 hr 10 min 59 sec)
Heartbeat CPU 0 instructions: 59000335 cycles: 52930209 heartbeat IPC: 0.4151 cumulative IPC: 0.4456 (Simulation time: 00 hr 11 min 11 sec)
Heartbeat CPU 0 instructions: 59500335 cycles: 54141523 heartbeat IPC: 0.4128 cumulative IPC: 0.4437 (Simulation time: 00 hr 11 min 22 sec)
Heartbeat CPU 0 instructions: 60000341 cycles: 55326269 heartbeat IPC: 0.422 cumulative IPC: 0.4426 (Simulation time: 00 hr 11 min 33 sec)
Heartbeat CPU 0 instructions: 60500346 cycles: 56590759 heartbeat IPC: 0.3954 cumulative IPC: 0.4401 (Simulation time: 00 hr 11 min 46 sec)
Heartbeat CPU 0 instructions: 61000347 cycles: 57877327 heartbeat IPC: 0.3886 cumulative IPC: 0.4375 (Simulation time: 00 hr 11 min 58 sec)
Heartbeat CPU 0 instructions: 61500349 cycles: 59166514 heartbeat IPC: 0.3878 cumulative IPC: 0.435 (Simulation time: 00 hr 12 min 11 sec)
Heartbeat CPU 0 instructions: 62000350 cycles: 60361988 heartbeat IPC: 0.4182 cumulative IPC: 0.4343 (Simulation time: 00 hr 12 min 22 sec)
Heartbeat CPU 0 instructions: 62500350 cycles: 61575666 heartbeat IPC: 0.412 cumulative IPC: 0.4334 (Simulation time: 00 hr 12 min 33 sec)
Heartbeat CPU 0 instructions: 63000352 cycles: 62289856 heartbeat IPC: 0.7001 cumulative IPC: 0.4398 (Simulation time: 00 hr 12 min 40 sec)
Heartbeat CPU 0 instructions: 63500359 cycles: 63202393 heartbeat IPC: 0.5479 cumulative IPC: 0.4431 (Simulation time: 00 hr 12 min 49 sec)
Heartbeat CPU 0 instructions: 64000359 cycles: 64374696 heartbeat IPC: 0.4265 cumulative IPC: 0.4424 (Simulation time: 00 hr 13 min 00 sec)
Heartbeat CPU 0 instructions: 64500359 cycles: 65576982 heartbeat IPC: 0.4159 cumulative IPC: 0.4415 (Simulation time: 00 hr 13 min 11 sec)
Heartbeat CPU 0 instructions: 65000360 cycles: 66787106 heartbeat IPC: 0.4132 cumulative IPC: 0.4405 (Simulation time: 00 hr 13 min 23 sec)
Heartbeat CPU 0 instructions: 65500362 cycles: 67995391 heartbeat IPC: 0.4138 cumulative IPC: 0.4396 (Simulation time: 00 hr 13 min 34 sec)
Heartbeat CPU 0 instructions: 66000364 cycles: 69195117 heartbeat IPC: 0.4168 cumulative IPC: 0.4388 (Simulation time: 00 hr 13 min 46 sec)
Heartbeat CPU 0 instructions: 66500368 cycles: 70479678 heartbeat IPC: 0.3892 cumulative IPC: 0.4371 (Simulation time: 00 hr 13 min 58 sec)
Heartbeat CPU 0 instructions: 67000369 cycles: 71766972 heartbeat IPC: 0.3884 cumulative IPC: 0.4355 (Simulation time: 00 hr 14 min 11 sec)
Heartbeat CPU 0 instructions: 67500372 cycles: 72999464 heartbeat IPC: 0.4057 cumulative IPC: 0.4346 (Simulation time: 00 hr 14 min 23 sec)
Heartbeat CPU 0 instructions: 68000377 cycles: 74212233 heartbeat IPC: 0.4123 cumulative IPC: 0.4339 (Simulation time: 00 hr 14 min 34 sec)
Heartbeat CPU 0 instructions: 68500379 cycles: 75024010 heartbeat IPC: 0.6159 cumulative IPC: 0.4374 (Simulation time: 00 hr 14 min 42 sec)
Heartbeat CPU 0 instructions: 69000380 cycles: 76127719 heartbeat IPC: 0.453 cumulative IPC: 0.4378 (Simulation time: 00 hr 14 min 52 sec)
Heartbeat CPU 0 instructions: 69500380 cycles: 77051062 heartbeat IPC: 0.5415 cumulative IPC: 0.44 (Simulation time: 00 hr 15 min 01 sec)
Heartbeat CPU 0 instructions: 70000380 cycles: 78222394 heartbeat IPC: 0.4269 cumulative IPC: 0.4397 (Simulation time: 00 hr 15 min 12 sec)
Heartbeat CPU 0 instructions: 70500380 cycles: 79425912 heartbeat IPC: 0.4154 cumulative IPC: 0.439 (Simulation time: 00 hr 15 min 23 sec)
Heartbeat CPU 0 instructions: 71000385 cycles: 80638622 heartbeat IPC: 0.4123 cumulative IPC: 0.4384 (Simulation time: 00 hr 15 min 34 sec)
Heartbeat CPU 0 instructions: 71500388 cycles: 81803322 heartbeat IPC: 0.4293 cumulative IPC: 0.4381 (Simulation time: 00 hr 15 min 45 sec)
Heartbeat CPU 0 instructions: 72000391 cycles: 83090651 heartbeat IPC: 0.3884 cumulative IPC: 0.4369 (Simulation time: 00 hr 15 min 58 sec)
Heartbeat CPU 0 instructions: 72500395 cycles: 84377398 heartbeat IPC: 0.3886 cumulative IPC: 0.4357 (Simulation time: 00 hr 16 min 10 sec)
Heartbeat CPU 0 instructions: 73000397 cycles: 85664867 heartbeat IPC: 0.3884 cumulative IPC: 0.4345 (Simulation time: 00 hr 16 min 23 sec)
Heartbeat CPU 0 instructions: 73500397 cycles: 86854967 heartbeat IPC: 0.4201 cumulative IPC: 0.4342 (Simulation time: 00 hr 16 min 34 sec)
Heartbeat CPU 0 instructions: 74000404 cycles: 88063724 heartbeat IPC: 0.4137 cumulative IPC: 0.4338 (Simulation time: 00 hr 16 min 45 sec)
Heartbeat CPU 0 instructions: 74500409 cycles: 88777830 heartbeat IPC: 0.7002 cumulative IPC: 0.4371 (Simulation time: 00 hr 16 min 52 sec)
Heartbeat CPU 0 instructions: 75000414 cycles: 89684237 heartbeat IPC: 0.5516 cumulative IPC: 0.439 (Simulation time: 00 hr 17 min 01 sec)
Heartbeat CPU 0 instructions: 75500416 cycles: 90855095 heartbeat IPC: 0.427 cumulative IPC: 0.4387 (Simulation time: 00 hr 17 min 12 sec)
Heartbeat CPU 0 instructions: 76000422 cycles: 92059369 heartbeat IPC: 0.4152 cumulative IPC: 0.4383 (Simulation time: 00 hr 17 min 23 sec)
Heartbeat CPU 0 instructions: 76500425 cycles: 93268408 heartbeat IPC: 0.4136 cumulative IPC: 0.4378 (Simulation time: 00 hr 17 min 34 sec)
Heartbeat CPU 0 instructions: 77000430 cycles: 94480581 heartbeat IPC: 0.4125 cumulative IPC: 0.4373 (Simulation time: 00 hr 17 min 46 sec)
Heartbeat CPU 0 instructions: 77500432 cycles: 95686819 heartbeat IPC: 0.4145 cumulative IPC: 0.4368 (Simulation time: 00 hr 17 min 57 sec)
Heartbeat CPU 0 instructions: 78000435 cycles: 96975864 heartbeat IPC: 0.3879 cumulative IPC: 0.4358 (Simulation time: 00 hr 18 min 10 sec)
Heartbeat CPU 0 instructions: 78500435 cycles: 98264394 heartbeat IPC: 0.388 cumulative IPC: 0.4349 (Simulation time: 00 hr 18 min 22 sec)
Heartbeat CPU 0 instructions: 79000436 cycles: 99490984 heartbeat IPC: 0.4076 cumulative IPC: 0.4344 (Simulation time: 00 hr 18 min 34 sec)
Heartbeat CPU 0 instructions: 79500441 cycles: 100701712 heartbeat IPC: 0.413 cumulative IPC: 0.434 (Simulation time: 00 hr 18 min 45 sec)
Heartbeat CPU 0 instructions: 80000445 cycles: 101424160 heartbeat IPC: 0.6921 cumulative IPC: 0.4367 (Simulation time: 00 hr 18 min 52 sec)
Heartbeat CPU 0 instructions: 80500448 cycles: 102581588 heartbeat IPC: 0.432 cumulative IPC: 0.4367 (Simulation time: 00 hr 19 min 02 sec)
Heartbeat CPU 0 instructions: 81000450 cycles: 103533882 heartbeat IPC: 0.5251 cumulative IPC: 0.4378 (Simulation time: 00 hr 19 min 11 sec)
Heartbeat CPU 0 instructions: 81500451 cycles: 104707952 heartbeat IPC: 0.4259 cumulative IPC: 0.4376 (Simulation time: 00 hr 19 min 22 sec)
Heartbeat CPU 0 instructions: 82000455 cycles: 105916795 heartbeat IPC: 0.4136 cumulative IPC: 0.4373 (Simulation time: 00 hr 19 min 33 sec)
Heartbeat CPU 0 instructions: 82500455 cycles: 107127788 heartbeat IPC: 0.4129 cumulative IPC: 0.4369 (Simulation time: 00 hr 19 min 44 sec)
Heartbeat CPU 0 instructions: 83000456 cycles: 108300199 heartbeat IPC: 0.4265 cumulative IPC: 0.4367 (Simulation time: 00 hr 19 min 55 sec)
Heartbeat CPU 0 instructions: 83500463 cycles: 109589558 heartbeat IPC: 0.3878 cumulative IPC: 0.4359 (Simulation time: 00 hr 20 min 08 sec)
Heartbeat CPU 0 instructions: 84000463 cycles: 110878043 heartbeat IPC: 0.3881 cumulative IPC: 0.4351 (Simulation time: 00 hr 20 min 20 sec)
Heartbeat CPU 0 instructions: 84500470 cycles: 112165945 heartbeat IPC: 0.3882 cumulative IPC: 0.4343 (Simulation time: 00 hr 20 min 32 sec)
Heartbeat CPU 0 instructions: 85000470 cycles: 113350118 heartbeat IPC: 0.4222 cumulative IPC: 0.4341 (Simulation time: 00 hr 20 min 43 sec)
Heartbeat CPU 0 instructions: 85500474 cycles: 114495948 heartbeat IPC: 0.4364 cumulative IPC: 0.4342 (Simulation time: 00 hr 20 min 54 sec)
Heartbeat CPU 0 instructions: 86000474 cycles: 115274168 heartbeat IPC: 0.6425 cumulative IPC: 0.4361 (Simulation time: 00 hr 21 min 01 sec)
Heartbeat CPU 0 instructions: 86500481 cycles: 116188464 heartbeat IPC: 0.5469 cumulative IPC: 0.4374 (Simulation time: 00 hr 21 min 10 sec)
Heartbeat CPU 0 instructions: 87000483 cycles: 117360310 heartbeat IPC: 0.4267 cumulative IPC: 0.4372 (Simulation time: 00 hr 21 min 20 sec)
Heartbeat CPU 0 instructions: 87500489 cycles: 118564525 heartbeat IPC: 0.4152 cumulative IPC: 0.4369 (Simulation time: 00 hr 21 min 31 sec)
Heartbeat CPU 0 instructions: 88000491 cycles: 119773580 heartbeat IPC: 0.4135 cumulative IPC: 0.4366 (Simulation time: 00 hr 21 min 42 sec)
Heartbeat CPU 0 instructions: 88500492 cycles: 120984572 heartbeat IPC: 0.4129 cumulative IPC: 0.4363 (Simulation time: 00 hr 21 min 53 sec)
Heartbeat CPU 0 instructions: 89000493 cycles: 122198658 heartbeat IPC: 0.4118 cumulative IPC: 0.4359 (Simulation time: 00 hr 22 min 05 sec)
Heartbeat CPU 0 instructions: 89500493 cycles: 123484991 heartbeat IPC: 0.3887 cumulative IPC: 0.4353 (Simulation time: 00 hr 22 min 17 sec)
Heartbeat CPU 0 instructions: 90000493 cycles: 124774698 heartbeat IPC: 0.3877 cumulative IPC: 0.4346 (Simulation time: 00 hr 22 min 29 sec)
Heartbeat CPU 0 instructions: 90500494 cycles: 125991009 heartbeat IPC: 0.4111 cumulative IPC: 0.4343 (Simulation time: 00 hr 22 min 40 sec)
Heartbeat CPU 0 instructions: 91000496 cycles: 127204586 heartbeat IPC: 0.412 cumulative IPC: 0.434 (Simulation time: 00 hr 22 min 51 sec)
Heartbeat CPU 0 instructions: 91500496 cycles: 127917443 heartbeat IPC: 0.7014 cumulative IPC: 0.436 (Simulation time: 00 hr 22 min 58 sec)
Heartbeat CPU 0 instructions: 92000499 cycles: 129006968 heartbeat IPC: 0.4589 cumulative IPC: 0.4363 (Simulation time: 00 hr 23 min 08 sec)
Heartbeat CPU 0 instructions: 92500501 cycles: 130041559 heartbeat IPC: 0.4833 cumulative IPC: 0.4368 (Simulation time: 00 hr 23 min 17 sec)
Heartbeat CPU 0 instructions: 93000503 cycles: 131211160 heartbeat IPC: 0.4275 cumulative IPC: 0.4366 (Simulation time: 00 hr 23 min 28 sec)
Heartbeat CPU 0 instructions: 93500510 cycles: 132416210 heartbeat IPC: 0.4149 cumulative IPC: 0.4364 (Simulation time: 00 hr 23 min 39 sec)
Heartbeat CPU 0 instructions: 94000512 cycles: 133626016 heartbeat IPC: 0.4133 cumulative IPC: 0.4361 (Simulation time: 00 hr 23 min 50 sec)
Heartbeat CPU 0 instructions: 94500519 cycles: 134806221 heartbeat IPC: 0.4237 cumulative IPC: 0.436 (Simulation time: 00 hr 24 min 00 sec)
Heartbeat CPU 0 instructions: 95000519 cycles: 136094838 heartbeat IPC: 0.388 cumulative IPC: 0.4354 (Simulation time: 00 hr 24 min 12 sec)
Heartbeat CPU 0 instructions: 95500521 cycles: 137384161 heartbeat IPC: 0.3878 cumulative IPC: 0.4348 (Simulation time: 00 hr 24 min 24 sec)
Heartbeat CPU 0 instructions: 96000525 cycles: 138667233 heartbeat IPC: 0.3897 cumulative IPC: 0.4342 (Simulation time: 00 hr 24 min 36 sec)
Heartbeat CPU 0 instructions: 96500530 cycles: 139847108 heartbeat IPC: 0.4238 cumulative IPC: 0.4341 (Simulation time: 00 hr 24 min 47 sec)
Heartbeat CPU 0 instructions: 97000530 cycles: 140899535 heartbeat IPC: 0.4751 cumulative IPC: 0.4345 (Simulation time: 00 hr 24 min 56 sec)
Heartbeat CPU 0 instructions: 97500533 cycles: 141765309 heartbeat IPC: 0.5775 cumulative IPC: 0.4356 (Simulation time: 00 hr 25 min 04 sec)
Heartbeat CPU 0 instructions: 98000537 cycles: 142690644 heartbeat IPC: 0.5403 cumulative IPC: 0.4365 (Simulation time: 00 hr 25 min 12 sec)
Heartbeat CPU 0 instructions: 98500538 cycles: 143862853 heartbeat IPC: 0.4265 cumulative IPC: 0.4364 (Simulation time: 00 hr 25 min 23 sec)
Heartbeat CPU 0 instructions: 99000544 cycles: 145065074 heartbeat IPC: 0.4159 cumulative IPC: 0.4362 (Simulation time: 00 hr 25 min 34 sec)
Heartbeat CPU 0 instructions: 99500546 cycles: 146277178 heartbeat IPC: 0.4125 cumulative IPC: 0.436 (Simulation time: 00 hr 25 min 45 sec)
Heartbeat CPU 0 instructions: 100000553 cycles: 147486564 heartbeat IPC: 0.4134 cumulative IPC: 0.4357 (Simulation time: 00 hr 25 min 55 sec)
Heartbeat CPU 0 instructions: 100500559 cycles: 148711050 heartbeat IPC: 0.4083 cumulative IPC: 0.4354 (Simulation time: 00 hr 26 min 07 sec)
Heartbeat CPU 0 instructions: 101000561 cycles: 150000917 heartbeat IPC: 0.3876 cumulative IPC: 0.4349 (Simulation time: 00 hr 26 min 19 sec)
Heartbeat CPU 0 instructions: 101500565 cycles: 151289529 heartbeat IPC: 0.388 cumulative IPC: 0.4344 (Simulation time: 00 hr 26 min 31 sec)
Heartbeat CPU 0 instructions: 102000567 cycles: 152498472 heartbeat IPC: 0.4136 cumulative IPC: 0.4342 (Simulation time: 00 hr 26 min 41 sec)
Heartbeat CPU 0 instructions: 102500574 cycles: 153710147 heartbeat IPC: 0.4127 cumulative IPC: 0.434 (Simulation time: 00 hr 26 min 52 sec)
Heartbeat CPU 0 instructions: 103000576 cycles: 154423821 heartbeat IPC: 0.7006 cumulative IPC: 0.4355 (Simulation time: 00 hr 26 min 59 sec)
Heartbeat CPU 0 instructions: 103500581 cycles: 155425141 heartbeat IPC: 0.4993 cumulative IPC: 0.4361 (Simulation time: 00 hr 27 min 08 sec)
Heartbeat CPU 0 instructions: 104000583 cycles: 156525630 heartbeat IPC: 0.4543 cumulative IPC: 0.4362 (Simulation time: 00 hr 27 min 18 sec)
Heartbeat CPU 0 instructions: 104500590 cycles: 157711709 heartbeat IPC: 0.4216 cumulative IPC: 0.4361 (Simulation time: 00 hr 27 min 28 sec)
Heartbeat CPU 0 instructions: 105000592 cycles: 158918149 heartbeat IPC: 0.4144 cumulative IPC: 0.4359 (Simulation time: 00 hr 27 min 39 sec)
Heartbeat CPU 0 instructions: 105500599 cycles: 160129308 heartbeat IPC: 0.4128 cumulative IPC: 0.4356 (Simulation time: 00 hr 27 min 50 sec)
Heartbeat CPU 0 instructions: 106000599 cycles: 161317851 heartbeat IPC: 0.4207 cumulative IPC: 0.4355 (Simulation time: 00 hr 28 min 00 sec)
Heartbeat CPU 0 instructions: 106500601 cycles: 162606466 heartbeat IPC: 0.388 cumulative IPC: 0.435 (Simulation time: 00 hr 28 min 12 sec)
Heartbeat CPU 0 instructions: 107000605 cycles: 163896654 heartbeat IPC: 0.3875 cumulative IPC: 0.4346 (Simulation time: 00 hr 28 min 24 sec)
Heartbeat CPU 0 instructions: 107500605 cycles: 165140054 heartbeat IPC: 0.4021 cumulative IPC: 0.4343 (Simulation time: 00 hr 28 min 35 sec)
Heartbeat CPU 0 instructions: 108000609 cycles: 166356152 heartbeat IPC: 0.4112 cumulative IPC: 0.4341 (Simulation time: 00 hr 28 min 46 sec)
Heartbeat CPU 0 instructions: 108500614 cycles: 167323061 heartbeat IPC: 0.5171 cumulative IPC: 0.4347 (Simulation time: 00 hr 28 min 55 sec)
Heartbeat CPU 0 instructions: 109000614 cycles: 168274556 heartbeat IPC: 0.5255 cumulative IPC: 0.4353 (Simulation time: 00 hr 29 min 03 sec)
Heartbeat CPU 0 instructions: 109500614 cycles: 169188883 heartbeat IPC: 0.5469 cumulative IPC: 0.436 (Simulation time: 00 hr 29 min 11 sec)
Heartbeat CPU 0 instructions: 110000616 cycles: 170358633 heartbeat IPC: 0.4274 cumulative IPC: 0.436 (Simulation time: 00 hr 29 min 22 sec)
Heartbeat CPU 0 instructions: 110500623 cycles: 171560078 heartbeat IPC: 0.4162 cumulative IPC: 0.4358 (Simulation time: 00 hr 29 min 32 sec)
Heartbeat CPU 0 instructions: 111000625 cycles: 172769517 heartbeat IPC: 0.4134 cumulative IPC: 0.4356 (Simulation time: 00 hr 29 min 43 sec)
Heartbeat CPU 0 instructions: 111500629 cycles: 173980692 heartbeat IPC: 0.4128 cumulative IPC: 0.4354 (Simulation time: 00 hr 29 min 53 sec)
Heartbeat CPU 0 instructions: 112000629 cycles: 175209137 heartbeat IPC: 0.407 cumulative IPC: 0.4352 (Simulation time: 00 hr 30 min 04 sec)
Heartbeat CPU 0 instructions: 112500633 cycles: 176496545 heartbeat IPC: 0.3884 cumulative IPC: 0.4347 (Simulation time: 00 hr 30 min 16 sec)
Heartbeat CPU 0 instructions: 113000633 cycles: 177784313 heartbeat IPC: 0.3883 cumulative IPC: 0.4343 (Simulation time: 00 hr 30 min 27 sec)
Heartbeat CPU 0 instructions: 113500633 cycles: 178988362 heartbeat IPC: 0.4153 cumulative IPC: 0.4342 (Simulation time: 00 hr 30 min 38 sec)
Heartbeat CPU 0 instructions: 114000633 cycles: 180200709 heartbeat IPC: 0.4124 cumulative IPC: 0.434 (Simulation time: 00 hr 30 min 48 sec)
Heartbeat CPU 0 instructions: 114500638 cycles: 180912853 heartbeat IPC: 0.7021 cumulative IPC: 0.4353 (Simulation time: 00 hr 30 min 55 sec)
Heartbeat CPU 0 instructions: 115000645 cycles: 181825583 heartbeat IPC: 0.5478 cumulative IPC: 0.436 (Simulation time: 00 hr 31 min 03 sec)
Heartbeat CPU 0 instructions: 115500645 cycles: 182996902 heartbeat IPC: 0.4269 cumulative IPC: 0.4359 (Simulation time: 00 hr 31 min 13 sec)
Heartbeat CPU 0 instructions: 116000646 cycles: 184203412 heartbeat IPC: 0.4144 cumulative IPC: 0.4357 (Simulation time: 00 hr 31 min 23 sec)
Heartbeat CPU 0 instructions: 116500647 cycles: 185407975 heartbeat IPC: 0.4151 cumulative IPC: 0.4356 (Simulation time: 00 hr 31 min 34 sec)
Heartbeat CPU 0 instructions: 117000654 cycles: 186617236 heartbeat IPC: 0.4135 cumulative IPC: 0.4354 (Simulation time: 00 hr 31 min 44 sec)
Heartbeat CPU 0 instructions: 117500657 cycles: 187810225 heartbeat IPC: 0.4191 cumulative IPC: 0.4353 (Simulation time: 00 hr 31 min 55 sec)
Heartbeat CPU 0 instructions: 118000661 cycles: 189100323 heartbeat IPC: 0.3876 cumulative IPC: 0.4349 (Simulation time: 00 hr 32 min 06 sec)
Heartbeat CPU 0 instructions: 118500661 cycles: 190388484 heartbeat IPC: 0.3882 cumulative IPC: 0.4345 (Simulation time: 00 hr 32 min 18 sec)
Heartbeat CPU 0 instructions: 119000668 cycles: 191626189 heartbeat IPC: 0.404 cumulative IPC: 0.4343 (Simulation time: 00 hr 32 min 29 sec)
Heartbeat CPU 0 instructions: 119500670 cycles: 192837392 heartbeat IPC: 0.4128 cumulative IPC: 0.4341 (Simulation time: 00 hr 32 min 39 sec)
Heartbeat CPU 0 instructions: 120000674 cycles: 193715736 heartbeat IPC: 0.5693 cumulative IPC: 0.4348 (Simulation time: 00 hr 32 min 47 sec)
Heartbeat CPU 0 instructions: 120500675 cycles: 194753548 heartbeat IPC: 0.4818 cumulative IPC: 0.4351 (Simulation time: 00 hr 32 min 56 sec)
Heartbeat CPU 0 instructions: 121000681 cycles: 195678589 heartbeat IPC: 0.5405 cumulative IPC: 0.4357 (Simulation time: 00 hr 33 min 04 sec)
Heartbeat CPU 0 instructions: 121500687 cycles: 196851768 heartbeat IPC: 0.4262 cumulative IPC: 0.4357 (Simulation time: 00 hr 33 min 14 sec)
Heartbeat CPU 0 instructions: 122000690 cycles: 198058056 heartbeat IPC: 0.4145 cumulative IPC: 0.4355 (Simulation time: 00 hr 33 min 24 sec)
Heartbeat CPU 0 instructions: 122500692 cycles: 199268161 heartbeat IPC: 0.4132 cumulative IPC: 0.4353 (Simulation time: 00 hr 33 min 34 sec)
Heartbeat CPU 0 instructions: 123000695 cycles: 200434448 heartbeat IPC: 0.4287 cumulative IPC: 0.4353 (Simulation time: 00 hr 33 min 44 sec)
Heartbeat CPU 0 instructions: 123500701 cycles: 201714979 heartbeat IPC: 0.3905 cumulative IPC: 0.435 (Simulation time: 00 hr 33 min 55 sec)
Heartbeat CPU 0 instructions: 124000701 cycles: 203004431 heartbeat IPC: 0.3878 cumulative IPC: 0.4346 (Simulation time: 00 hr 34 min 07 sec)
Heartbeat CPU 0 instructions: 124500702 cycles: 204291519 heartbeat IPC: 0.3885 cumulative IPC: 0.4343 (Simulation time: 00 hr 34 min 18 sec)
Heartbeat CPU 0 instructions: 125000704 cycles: 205485606 heartbeat IPC: 0.4187 cumulative IPC: 0.4341 (Simulation time: 00 hr 34 min 29 sec)
Heartbeat CPU 0 instructions: 125500708 cycles: 206697138 heartbeat IPC: 0.4127 cumulative IPC: 0.434 (Simulation time: 00 hr 34 min 39 sec)
Heartbeat CPU 0 instructions: 126000709 cycles: 207406617 heartbeat IPC: 0.7047 cumulative IPC: 0.4351 (Simulation time: 00 hr 34 min 45 sec)
Heartbeat CPU 0 instructions: 126500712 cycles: 208318921 heartbeat IPC: 0.5481 cumulative IPC: 0.4357 (Simulation time: 00 hr 34 min 53 sec)
Heartbeat CPU 0 instructions: 127000713 cycles: 209492073 heartbeat IPC: 0.4262 cumulative IPC: 0.4356 (Simulation time: 00 hr 35 min 03 sec)
Heartbeat CPU 0 instructions: 127500720 cycles: 210698699 heartbeat IPC: 0.4144 cumulative IPC: 0.4355 (Simulation time: 00 hr 35 min 13 sec)
Heartbeat CPU 0 instructions: 128000722 cycles: 211907106 heartbeat IPC: 0.4138 cumulative IPC: 0.4353 (Simulation time: 00 hr 35 min 24 sec)
Heartbeat CPU 0 instructions: 128500724 cycles: 213119665 heartbeat IPC: 0.4124 cumulative IPC: 0.4352 (Simulation time: 00 hr 35 min 34 sec)
Heartbeat CPU 0 instructions: 129000729 cycles: 214318014 heartbeat IPC: 0.4172 cumulative IPC: 0.4351 (Simulation time: 00 hr 35 min 44 sec)
Heartbeat CPU 0 instructions: 129500729 cycles: 215609119 heartbeat IPC: 0.3873 cumulative IPC: 0.4347 (Simulation time: 00 hr 35 min 56 sec)
Heartbeat CPU 0 instructions: 130000731 cycles: 216898992 heartbeat IPC: 0.3876 cumulative IPC: 0.4344 (Simulation time: 00 hr 36 min 07 sec)
Heartbeat CPU 0 instructions: 130500737 cycles: 218127426 heartbeat IPC: 0.407 cumulative IPC: 0.4342 (Simulation time: 00 hr 36 min 18 sec)
Heartbeat CPU 0 instructions: 131000742 cycles: 219337970 heartbeat IPC: 0.413 cumulative IPC: 0.4341 (Simulation time: 00 hr 36 min 28 sec)
Heartbeat CPU 0 instructions: 131500742 cycles: 220145096 heartbeat IPC: 0.6195 cumulative IPC: 0.4349 (Simulation time: 00 hr 36 min 35 sec)
Heartbeat CPU 0 instructions: 132000745 cycles: 221265468 heartbeat IPC: 0.4463 cumulative IPC: 0.4349 (Simulation time: 00 hr 36 min 45 sec)
Heartbeat CPU 0 instructions: 132500745 cycles: 222189423 heartbeat IPC: 0.5412 cumulative IPC: 0.4355 (Simulation time: 00 hr 36 min 53 sec)
Heartbeat CPU 0 instructions: 133000750 cycles: 223361057 heartbeat IPC: 0.4268 cumulative IPC: 0.4354 (Simulation time: 00 hr 37 min 02 sec)
Heartbeat CPU 0 instructions: 133500756 cycles: 224564911 heartbeat IPC: 0.4153 cumulative IPC: 0.4353 (Simulation time: 00 hr 37 min 13 sec)
Heartbeat CPU 0 instructions: 134000759 cycles: 225776140 heartbeat IPC: 0.4128 cumulative IPC: 0.4351 (Simulation time: 00 hr 37 min 23 sec)
Heartbeat CPU 0 instructions: 134500759 cycles: 226937514 heartbeat IPC: 0.4305 cumulative IPC: 0.4351 (Simulation time: 00 hr 37 min 33 sec)
Heartbeat CPU 0 instructions: 135000761 cycles: 228226664 heartbeat IPC: 0.3879 cumulative IPC: 0.4348 (Simulation time: 00 hr 37 min 44 sec)
Heartbeat CPU 0 instructions: 135500761 cycles: 229515938 heartbeat IPC: 0.3878 cumulative IPC: 0.4345 (Simulation time: 00 hr 37 min 56 sec)
Heartbeat CPU 0 instructions: 136000762 cycles: 230804195 heartbeat IPC: 0.3881 cumulative IPC: 0.4342 (Simulation time: 00 hr 38 min 07 sec)
Heartbeat CPU 0 instructions: 136500767 cycles: 231989936 heartbeat IPC: 0.4217 cumulative IPC: 0.4341 (Simulation time: 00 hr 38 min 17 sec)
Heartbeat CPU 0 instructions: 137000773 cycles: 233205772 heartbeat IPC: 0.4112 cumulative IPC: 0.434 (Simulation time: 00 hr 38 min 27 sec)
Heartbeat CPU 0 instructions: 137500773 cycles: 233911419 heartbeat IPC: 0.7086 cumulative IPC: 0.4349 (Simulation time: 00 hr 38 min 33 sec)
Heartbeat CPU 0 instructions: 138000776 cycles: 234824794 heartbeat IPC: 0.5474 cumulative IPC: 0.4354 (Simulation time: 00 hr 38 min 41 sec)
Heartbeat CPU 0 instructions: 138500778 cycles: 235993927 heartbeat IPC: 0.4277 cumulative IPC: 0.4354 (Simulation time: 00 hr 38 min 51 sec)
Heartbeat CPU 0 instructions: 139000779 cycles: 237194394 heartbeat IPC: 0.4165 cumulative IPC: 0.4353 (Simulation time: 00 hr 39 min 01 sec)
Heartbeat CPU 0 instructions: 139500781 cycles: 238399435 heartbeat IPC: 0.4149 cumulative IPC: 0.4352 (Simulation time: 00 hr 39 min 11 sec)
Heartbeat CPU 0 instructions: 140000787 cycles: 239605915 heartbeat IPC: 0.4144 cumulative IPC: 0.4351 (Simulation time: 00 hr 39 min 21 sec)
Heartbeat CPU 0 instructions: 140500787 cycles: 240810417 heartbeat IPC: 0.4151 cumulative IPC: 0.4349 (Simulation time: 00 hr 39 min 31 sec)
Heartbeat CPU 0 instructions: 141000787 cycles: 242098870 heartbeat IPC: 0.3881 cumulative IPC: 0.4346 (Simulation time: 00 hr 39 min 42 sec)
Heartbeat CPU 0 instructions: 141500790 cycles: 243385601 heartbeat IPC: 0.3886 cumulative IPC: 0.4344 (Simulation time: 00 hr 39 min 53 sec)
Heartbeat CPU 0 instructions: 142000793 cycles: 244607747 heartbeat IPC: 0.4091 cumulative IPC: 0.4342 (Simulation time: 00 hr 40 min 04 sec)
Heartbeat CPU 0 instructions: 142500797 cycles: 245818643 heartbeat IPC: 0.4129 cumulative IPC: 0.4341 (Simulation time: 00 hr 40 min 14 sec)
Heartbeat CPU 0 instructions: 143000804 cycles: 246529126 heartbeat IPC: 0.7038 cumulative IPC: 0.435 (Simulation time: 00 hr 40 min 20 sec)
Heartbeat CPU 0 instructions: 143500811 cycles: 247700586 heartbeat IPC: 0.4268 cumulative IPC: 0.435 (Simulation time: 00 hr 40 min 30 sec)
Heartbeat CPU 0 instructions: 144000811 cycles: 248662437 heartbeat IPC: 0.5198 cumulative IPC: 0.4353 (Simulation time: 00 hr 40 min 38 sec)
Heartbeat CPU 0 instructions: 144500811 cycles: 249834073 heartbeat IPC: 0.4268 cumulative IPC: 0.4353 (Simulation time: 00 hr 40 min 48 sec)
Heartbeat CPU 0 instructions: 145000811 cycles: 251038958 heartbeat IPC: 0.415 cumulative IPC: 0.4352 (Simulation time: 00 hr 40 min 58 sec)
Heartbeat CPU 0 instructions: 145500811 cycles: 252249711 heartbeat IPC: 0.413 cumulative IPC: 0.435 (Simulation time: 00 hr 41 min 08 sec)
Heartbeat CPU 0 instructions: 146000813 cycles: 253419947 heartbeat IPC: 0.4273 cumulative IPC: 0.435 (Simulation time: 00 hr 41 min 18 sec)
Heartbeat CPU 0 instructions: 146500815 cycles: 254707759 heartbeat IPC: 0.3883 cumulative IPC: 0.4347 (Simulation time: 00 hr 41 min 29 sec)
Heartbeat CPU 0 instructions: 147000818 cycles: 255995874 heartbeat IPC: 0.3882 cumulative IPC: 0.4345 (Simulation time: 00 hr 41 min 40 sec)
Heartbeat CPU 0 instructions: 147500818 cycles: 257285728 heartbeat IPC: 0.3876 cumulative IPC: 0.4342 (Simulation time: 00 hr 41 min 51 sec)
Heartbeat CPU 0 instructions: 148000818 cycles: 258466236 heartbeat IPC: 0.4235 cumulative IPC: 0.4341 (Simulation time: 00 hr 42 min 01 sec)
Heartbeat CPU 0 instructions: 148500819 cycles: 259590971 heartbeat IPC: 0.4446 cumulative IPC: 0.4342 (Simulation time: 00 hr 42 min 10 sec)
Heartbeat CPU 0 instructions: 149000824 cycles: 260385516 heartbeat IPC: 0.6293 cumulative IPC: 0.4349 (Simulation time: 00 hr 42 min 17 sec)
Heartbeat CPU 0 instructions: 149500825 cycles: 261301441 heartbeat IPC: 0.5459 cumulative IPC: 0.4353 (Simulation time: 00 hr 42 min 25 sec)
Heartbeat CPU 0 instructions: 150000829 cycles: 262470964 heartbeat IPC: 0.4275 cumulative IPC: 0.4353 (Simulation time: 00 hr 42 min 34 sec)
Heartbeat CPU 0 instructions: 150500829 cycles: 263676981 heartbeat IPC: 0.4146 cumulative IPC: 0.4352 (Simulation time: 00 hr 42 min 44 sec)
Heartbeat CPU 0 instructions: 151000832 cycles: 264888368 heartbeat IPC: 0.4128 cumulative IPC: 0.4351 (Simulation time: 00 hr 42 min 54 sec)
Heartbeat CPU 0 instructions: 151500834 cycles: 266100848 heartbeat IPC: 0.4124 cumulative IPC: 0.4349 (Simulation time: 00 hr 43 min 04 sec)
Heartbeat CPU 0 instructions: 152000841 cycles: 267313055 heartbeat IPC: 0.4125 cumulative IPC: 0.4348 (Simulation time: 00 hr 43 min 15 sec)
Heartbeat CPU 0 instructions: 152500842 cycles: 268601277 heartbeat IPC: 0.3881 cumulative IPC: 0.4346 (Simulation time: 00 hr 43 min 26 sec)
Heartbeat CPU 0 instructions: 153000846 cycles: 269890715 heartbeat IPC: 0.3878 cumulative IPC: 0.4343 (Simulation time: 00 hr 43 min 37 sec)
Heartbeat CPU 0 instructions: 153500848 cycles: 271104753 heartbeat IPC: 0.4119 cumulative IPC: 0.4342 (Simulation time: 00 hr 43 min 47 sec)
Heartbeat CPU 0 instructions: 154000849 cycles: 272317090 heartbeat IPC: 0.4124 cumulative IPC: 0.4341 (Simulation time: 00 hr 43 min 57 sec)
Heartbeat CPU 0 instructions: 154500849 cycles: 273031153 heartbeat IPC: 0.7002 cumulative IPC: 0.4349 (Simulation time: 00 hr 44 min 03 sec)
Heartbeat CPU 0 instructions: 155000855 cycles: 274105355 heartbeat IPC: 0.4655 cumulative IPC: 0.435 (Simulation time: 00 hr 44 min 12 sec)
Heartbeat CPU 0 instructions: 155500855 cycles: 275147695 heartbeat IPC: 0.4797 cumulative IPC: 0.4352 (Simulation time: 00 hr 44 min 21 sec)
Heartbeat CPU 0 instructions: 156000862 cycles: 276319236 heartbeat IPC: 0.4268 cumulative IPC: 0.4352 (Simulation time: 00 hr 44 min 31 sec)
Heartbeat CPU 0 instructions: 156500862 cycles: 277525383 heartbeat IPC: 0.4145 cumulative IPC: 0.4351 (Simulation time: 00 hr 44 min 41 sec)
Heartbeat CPU 0 instructions: 157000864 cycles: 278736176 heartbeat IPC: 0.413 cumulative IPC: 0.435 (Simulation time: 00 hr 44 min 51 sec)
Heartbeat CPU 0 instructions: 157500869 cycles: 279914761 heartbeat IPC: 0.4242 cumulative IPC: 0.4349 (Simulation time: 00 hr 45 min 00 sec)
Heartbeat CPU 0 instructions: 158000875 cycles: 281200662 heartbeat IPC: 0.3888 cumulative IPC: 0.4347 (Simulation time: 00 hr 45 min 11 sec)
Heartbeat CPU 0 instructions: 158500876 cycles: 282489703 heartbeat IPC: 0.3879 cumulative IPC: 0.4344 (Simulation time: 00 hr 45 min 23 sec)
Heartbeat CPU 0 instructions: 159000876 cycles: 283751670 heartbeat IPC: 0.3962 cumulative IPC: 0.4342 (Simulation time: 00 hr 45 min 33 sec)
Heartbeat CPU 0 instructions: 159500882 cycles: 284950909 heartbeat IPC: 0.4169 cumulative IPC: 0.4341 (Simulation time: 00 hr 45 min 43 sec)
Heartbeat CPU 0 instructions: 160000882 cycles: 285984886 heartbeat IPC: 0.4836 cumulative IPC: 0.4344 (Simulation time: 00 hr 45 min 52 sec)
Heartbeat CPU 0 instructions: 160500883 cycles: 286866423 heartbeat IPC: 0.5672 cumulative IPC: 0.4348 (Simulation time: 00 hr 45 min 59 sec)
Heartbeat CPU 0 instructions: 161000886 cycles: 287782888 heartbeat IPC: 0.5456 cumulative IPC: 0.4352 (Simulation time: 00 hr 46 min 07 sec)
Heartbeat CPU 0 instructions: 161500888 cycles: 288952613 heartbeat IPC: 0.4275 cumulative IPC: 0.4352 (Simulation time: 00 hr 46 min 17 sec)
Heartbeat CPU 0 instructions: 162000894 cycles: 290118162 heartbeat IPC: 0.429 cumulative IPC: 0.4351 (Simulation time: 00 hr 46 min 27 sec)
Heartbeat CPU 0 instructions: 162500894 cycles: 291090537 heartbeat IPC: 0.5142 cumulative IPC: 0.4354 (Simulation time: 00 hr 46 min 35 sec)
Heartbeat CPU 0 instructions: 163000894 cycles: 292062718 heartbeat IPC: 0.5143 cumulative IPC: 0.4357 (Simulation time: 00 hr 46 min 43 sec)
Heartbeat CPU 0 instructions: 163500895 cycles: 293057769 heartbeat IPC: 0.5025 cumulative IPC: 0.436 (Simulation time: 00 hr 46 min 52 sec)
Heartbeat CPU 0 instructions: 164000902 cycles: 294096628 heartbeat IPC: 0.4813 cumulative IPC: 0.4362 (Simulation time: 00 hr 47 min 02 sec)
Heartbeat CPU 0 instructions: 164500902 cycles: 295134214 heartbeat IPC: 0.4819 cumulative IPC: 0.4364 (Simulation time: 00 hr 47 min 11 sec)
Heartbeat CPU 0 instructions: 165000908 cycles: 296110790 heartbeat IPC: 0.512 cumulative IPC: 0.4366 (Simulation time: 00 hr 47 min 19 sec)
Heartbeat CPU 0 instructions: 165500915 cycles: 297086903 heartbeat IPC: 0.5122 cumulative IPC: 0.4369 (Simulation time: 00 hr 47 min 28 sec)
Heartbeat CPU 0 instructions: 166000915 cycles: 297689178 heartbeat IPC: 0.8302 cumulative IPC: 0.4378 (Simulation time: 00 hr 47 min 33 sec)
Heartbeat CPU 0 instructions: 166500919 cycles: 298516544 heartbeat IPC: 0.6043 cumulative IPC: 0.4383 (Simulation time: 00 hr 47 min 40 sec)
Heartbeat CPU 0 instructions: 167000919 cycles: 299411613 heartbeat IPC: 0.5586 cumulative IPC: 0.4387 (Simulation time: 00 hr 47 min 48 sec)
Heartbeat CPU 0 instructions: 167500920 cycles: 300384679 heartbeat IPC: 0.5138 cumulative IPC: 0.439 (Simulation time: 00 hr 47 min 56 sec)
Heartbeat CPU 0 instructions: 168000927 cycles: 301359129 heartbeat IPC: 0.5131 cumulative IPC: 0.4393 (Simulation time: 00 hr 48 min 05 sec)
Heartbeat CPU 0 instructions: 168500929 cycles: 302334200 heartbeat IPC: 0.5128 cumulative IPC: 0.4395 (Simulation time: 00 hr 48 min 13 sec)
Heartbeat CPU 0 instructions: 169000929 cycles: 303301372 heartbeat IPC: 0.517 cumulative IPC: 0.4398 (Simulation time: 00 hr 48 min 21 sec)
Heartbeat CPU 0 instructions: 169500932 cycles: 304341716 heartbeat IPC: 0.4806 cumulative IPC: 0.44 (Simulation time: 00 hr 48 min 31 sec)
Heartbeat CPU 0 instructions: 170000932 cycles: 305380498 heartbeat IPC: 0.4813 cumulative IPC: 0.4401 (Simulation time: 00 hr 48 min 40 sec)
Heartbeat CPU 0 instructions: 170500939 cycles: 306386543 heartbeat IPC: 0.497 cumulative IPC: 0.4403 (Simulation time: 00 hr 48 min 49 sec)
Heartbeat CPU 0 instructions: 171000939 cycles: 307360152 heartbeat IPC: 0.5136 cumulative IPC: 0.4406 (Simulation time: 00 hr 48 min 57 sec)
Heartbeat CPU 0 instructions: 171500941 cycles: 308139369 heartbeat IPC: 0.6417 cumulative IPC: 0.4412 (Simulation time: 00 hr 49 min 04 sec)
Heartbeat CPU 0 instructions: 172000941 cycles: 308937690 heartbeat IPC: 0.6263 cumulative IPC: 0.4417 (Simulation time: 00 hr 49 min 11 sec)
Heartbeat CPU 0 instructions: 172500948 cycles: 309701163 heartbeat IPC: 0.6549 cumulative IPC: 0.4423 (Simulation time: 00 hr 49 min 17 sec)
Heartbeat CPU 0 instructions: 173000948 cycles: 310646870 heartbeat IPC: 0.5287 cumulative IPC: 0.4426 (Simulation time: 00 hr 49 min 25 sec)
Heartbeat CPU 0 instructions: 173500954 cycles: 311622825 heartbeat IPC: 0.5123 cumulative IPC: 0.4428 (Simulation time: 00 hr 49 min 34 sec)
Heartbeat CPU 0 instructions: 174000959 cycles: 312600118 heartbeat IPC: 0.5116 cumulative IPC: 0.4431 (Simulation time: 00 hr 49 min 42 sec)
Heartbeat CPU 0 instructions: 174500964 cycles: 313577229 heartbeat IPC: 0.5117 cumulative IPC: 0.4433 (Simulation time: 00 hr 49 min 51 sec)
Heartbeat CPU 0 instructions: 175000970 cycles: 314578811 heartbeat IPC: 0.4992 cumulative IPC: 0.4435 (Simulation time: 00 hr 49 min 59 sec)
Heartbeat CPU 0 instructions: 175500973 cycles: 315616717 heartbeat IPC: 0.4817 cumulative IPC: 0.4436 (Simulation time: 00 hr 50 min 09 sec)
Heartbeat CPU 0 instructions: 176000975 cycles: 316656628 heartbeat IPC: 0.4808 cumulative IPC: 0.4438 (Simulation time: 00 hr 50 min 18 sec)
Heartbeat CPU 0 instructions: 176500975 cycles: 317625989 heartbeat IPC: 0.5158 cumulative IPC: 0.444 (Simulation time: 00 hr 50 min 26 sec)
Heartbeat CPU 0 instructions: 177000981 cycles: 318600629 heartbeat IPC: 0.513 cumulative IPC: 0.4443 (Simulation time: 00 hr 50 min 35 sec)
Heartbeat CPU 0 instructions: 177500984 cycles: 319576180 heartbeat IPC: 0.5125 cumulative IPC: 0.4445 (Simulation time: 00 hr 50 min 43 sec)
Heartbeat CPU 0 instructions: 178000990 cycles: 320550809 heartbeat IPC: 0.513 cumulative IPC: 0.4447 (Simulation time: 00 hr 50 min 52 sec)
Heartbeat CPU 0 instructions: 178500994 cycles: 321524170 heartbeat IPC: 0.5137 cumulative IPC: 0.445 (Simulation time: 00 hr 51 min 00 sec)
Heartbeat CPU 0 instructions: 179000997 cycles: 322500465 heartbeat IPC: 0.5121 cumulative IPC: 0.4452 (Simulation time: 00 hr 51 min 08 sec)
Heartbeat CPU 0 instructions: 179501003 cycles: 323473997 heartbeat IPC: 0.5136 cumulative IPC: 0.4454 (Simulation time: 00 hr 51 min 17 sec)
Heartbeat CPU 0 instructions: 180001004 cycles: 324447322 heartbeat IPC: 0.5137 cumulative IPC: 0.4456 (Simulation time: 00 hr 51 min 25 sec)
Heartbeat CPU 0 instructions: 180501004 cycles: 325422820 heartbeat IPC: 0.5126 cumulative IPC: 0.4459 (Simulation time: 00 hr 51 min 33 sec)
Heartbeat CPU 0 instructions: 181001004 cycles: 326396955 heartbeat IPC: 0.5133 cumulative IPC: 0.4461 (Simulation time: 00 hr 51 min 42 sec)
Heartbeat CPU 0 instructions: 181501004 cycles: 327372505 heartbeat IPC: 0.5125 cumulative IPC: 0.4463 (Simulation time: 00 hr 51 min 50 sec)
Heartbeat CPU 0 instructions: 182001004 cycles: 328347437 heartbeat IPC: 0.5129 cumulative IPC: 0.4465 (Simulation time: 00 hr 51 min 58 sec)
Heartbeat CPU 0 instructions: 182501005 cycles: 329321763 heartbeat IPC: 0.5132 cumulative IPC: 0.4467 (Simulation time: 00 hr 52 min 07 sec)
Heartbeat CPU 0 instructions: 183001005 cycles: 330296656 heartbeat IPC: 0.5129 cumulative IPC: 0.447 (Simulation time: 00 hr 52 min 15 sec)
Heartbeat CPU 0 instructions: 183501005 cycles: 331272159 heartbeat IPC: 0.5126 cumulative IPC: 0.4472 (Simulation time: 00 hr 52 min 24 sec)
Heartbeat CPU 0 instructions: 184001006 cycles: 332245876 heartbeat IPC: 0.5135 cumulative IPC: 0.4474 (Simulation time: 00 hr 52 min 32 sec)
Heartbeat CPU 0 instructions: 184501008 cycles: 333221456 heartbeat IPC: 0.5125 cumulative IPC: 0.4476 (Simulation time: 00 hr 52 min 40 sec)
Heartbeat CPU 0 instructions: 185001012 cycles: 334195369 heartbeat IPC: 0.5134 cumulative IPC: 0.4478 (Simulation time: 00 hr 52 min 49 sec)
Heartbeat CPU 0 instructions: 185501013 cycles: 335169465 heartbeat IPC: 0.5133 cumulative IPC: 0.448 (Simulation time: 00 hr 52 min 57 sec)
Heartbeat CPU 0 instructions: 186001015 cycles: 336145051 heartbeat IPC: 0.5125 cumulative IPC: 0.4482 (Simulation time: 00 hr 53 min 05 sec)
Heartbeat CPU 0 instructions: 186501017 cycles: 337119442 heartbeat IPC: 0.5131 cumulative IPC: 0.4484 (Simulation time: 00 hr 53 min 14 sec)
Heartbeat CPU 0 instructions: 187001018 cycles: 338093966 heartbeat IPC: 0.5131 cumulative IPC: 0.4487 (Simulation time: 00 hr 53 min 22 sec)
Heartbeat CPU 0 instructions: 187501024 cycles: 339069743 heartbeat IPC: 0.5124 cumulative IPC: 0.4489 (Simulation time: 00 hr 53 min 30 sec)
Heartbeat CPU 0 instructions: 188001026 cycles: 340046735 heartbeat IPC: 0.5118 cumulative IPC: 0.4491 (Simulation time: 00 hr 53 min 39 sec)
Heartbeat CPU 0 instructions: 188501028 cycles: 341021085 heartbeat IPC: 0.5132 cumulative IPC: 0.4493 (Simulation time: 00 hr 53 min 47 sec)
Heartbeat CPU 0 instructions: 189001029 cycles: 341996565 heartbeat IPC: 0.5126 cumulative IPC: 0.4495 (Simulation time: 00 hr 53 min 55 sec)
Heartbeat CPU 0 instructions: 189501035 cycles: 342973370 heartbeat IPC: 0.5119 cumulative IPC: 0.4497 (Simulation time: 00 hr 54 min 04 sec)
Heartbeat CPU 0 instructions: 190001038 cycles: 343947430 heartbeat IPC: 0.5133 cumulative IPC: 0.4499 (Simulation time: 00 hr 54 min 12 sec)
Heartbeat CPU 0 instructions: 190501038 cycles: 344922332 heartbeat IPC: 0.5129 cumulative IPC: 0.45 (Simulation time: 00 hr 54 min 20 sec)
Heartbeat CPU 0 instructions: 191001038 cycles: 345898081 heartbeat IPC: 0.5124 cumulative IPC: 0.4502 (Simulation time: 00 hr 54 min 29 sec)
Heartbeat CPU 0 instructions: 191501039 cycles: 346873826 heartbeat IPC: 0.5124 cumulative IPC: 0.4504 (Simulation time: 00 hr 54 min 37 sec)
Heartbeat CPU 0 instructions: 192001039 cycles: 347848461 heartbeat IPC: 0.513 cumulative IPC: 0.4506 (Simulation time: 00 hr 54 min 46 sec)
Heartbeat CPU 0 instructions: 192501041 cycles: 348823120 heartbeat IPC: 0.513 cumulative IPC: 0.4508 (Simulation time: 00 hr 54 min 54 sec)
Heartbeat CPU 0 instructions: 193001042 cycles: 349799628 heartbeat IPC: 0.512 cumulative IPC: 0.451 (Simulation time: 00 hr 55 min 02 sec)
Heartbeat CPU 0 instructions: 193501046 cycles: 350773931 heartbeat IPC: 0.5132 cumulative IPC: 0.4512 (Simulation time: 00 hr 55 min 11 sec)
Heartbeat CPU 0 instructions: 194001048 cycles: 351748592 heartbeat IPC: 0.513 cumulative IPC: 0.4514 (Simulation time: 00 hr 55 min 19 sec)
Heartbeat CPU 0 instructions: 194501048 cycles: 352736261 heartbeat IPC: 0.5062 cumulative IPC: 0.4516 (Simulation time: 00 hr 55 min 28 sec)
Heartbeat CPU 0 instructions: 195001050 cycles: 354191933 heartbeat IPC: 0.3435 cumulative IPC: 0.4511 (Simulation time: 00 hr 55 min 38 sec)
Heartbeat CPU 0 instructions: 195501051 cycles: 354511360 heartbeat IPC: 1.565 cumulative IPC: 0.4522 (Simulation time: 00 hr 55 min 41 sec)
Heartbeat CPU 0 instructions: 196001053 cycles: 354865596 heartbeat IPC: 1.411 cumulative IPC: 0.4532 (Simulation time: 00 hr 55 min 44 sec)
Heartbeat CPU 0 instructions: 196501055 cycles: 355153161 heartbeat IPC: 1.739 cumulative IPC: 0.4544 (Simulation time: 00 hr 55 min 47 sec)
Heartbeat CPU 0 instructions: 197001055 cycles: 355405511 heartbeat IPC: 1.981 cumulative IPC: 0.4556 (Simulation time: 00 hr 55 min 49 sec)
Heartbeat CPU 0 instructions: 197501055 cycles: 355925243 heartbeat IPC: 0.962 cumulative IPC: 0.4564 (Simulation time: 00 hr 55 min 53 sec)
Heartbeat CPU 0 instructions: 198001061 cycles: 356360096 heartbeat IPC: 1.15 cumulative IPC: 0.4573 (Simulation time: 00 hr 55 min 57 sec)
Heartbeat CPU 0 instructions: 198501066 cycles: 356649902 heartbeat IPC: 1.725 cumulative IPC: 0.4585 (Simulation time: 00 hr 55 min 59 sec)
Heartbeat CPU 0 instructions: 199001066 cycles: 356929145 heartbeat IPC: 1.791 cumulative IPC: 0.4596 (Simulation time: 00 hr 56 min 02 sec)
Heartbeat CPU 0 instructions: 199501067 cycles: 357220349 heartbeat IPC: 1.717 cumulative IPC: 0.4607 (Simulation time: 00 hr 56 min 04 sec)
Heartbeat CPU 0 instructions: 200001067 cycles: 357719248 heartbeat IPC: 1.002 cumulative IPC: 0.4616 (Simulation time: 00 hr 56 min 08 sec)
Heartbeat CPU 0 instructions: 200501073 cycles: 358191275 heartbeat IPC: 1.059 cumulative IPC: 0.4624 (Simulation time: 00 hr 56 min 11 sec)
Heartbeat CPU 0 instructions: 201001077 cycles: 359401400 heartbeat IPC: 0.4132 cumulative IPC: 0.4622 (Simulation time: 00 hr 56 min 21 sec)
Heartbeat CPU 0 instructions: 201501077 cycles: 360513923 heartbeat IPC: 0.4494 cumulative IPC: 0.4622 (Simulation time: 00 hr 56 min 31 sec)
Heartbeat CPU 0 instructions: 202001077 cycles: 361126206 heartbeat IPC: 0.8166 cumulative IPC: 0.4629 (Simulation time: 00 hr 56 min 36 sec)
Heartbeat CPU 0 instructions: 202501077 cycles: 362020373 heartbeat IPC: 0.5592 cumulative IPC: 0.4631 (Simulation time: 00 hr 56 min 44 sec)
Heartbeat CPU 0 instructions: 203001078 cycles: 362944660 heartbeat IPC: 0.541 cumulative IPC: 0.4633 (Simulation time: 00 hr 56 min 52 sec)
Heartbeat CPU 0 instructions: 203501079 cycles: 363946801 heartbeat IPC: 0.4989 cumulative IPC: 0.4634 (Simulation time: 00 hr 57 min 01 sec)
Heartbeat CPU 0 instructions: 204001080 cycles: 364973766 heartbeat IPC: 0.4869 cumulative IPC: 0.4635 (Simulation time: 00 hr 57 min 09 sec)
Heartbeat CPU 0 instructions: 204501083 cycles: 365996637 heartbeat IPC: 0.4888 cumulative IPC: 0.4636 (Simulation time: 00 hr 57 min 18 sec)
Heartbeat CPU 0 instructions: 205001090 cycles: 367019383 heartbeat IPC: 0.4889 cumulative IPC: 0.4637 (Simulation time: 00 hr 57 min 27 sec)
Heartbeat CPU 0 instructions: 205501090 cycles: 368116650 heartbeat IPC: 0.4557 cumulative IPC: 0.4636 (Simulation time: 00 hr 57 min 37 sec)
Heartbeat CPU 0 instructions: 206001092 cycles: 369212802 heartbeat IPC: 0.4561 cumulative IPC: 0.4636 (Simulation time: 00 hr 57 min 47 sec)
Heartbeat CPU 0 instructions: 206501097 cycles: 370274993 heartbeat IPC: 0.4707 cumulative IPC: 0.4636 (Simulation time: 00 hr 57 min 57 sec)
Heartbeat CPU 0 instructions: 207001098 cycles: 371299923 heartbeat IPC: 0.4878 cumulative IPC: 0.4637 (Simulation time: 00 hr 58 min 06 sec)
Heartbeat CPU 0 instructions: 207501099 cycles: 372131796 heartbeat IPC: 0.6011 cumulative IPC: 0.4641 (Simulation time: 00 hr 58 min 13 sec)
Heartbeat CPU 0 instructions: 208001104 cycles: 372946157 heartbeat IPC: 0.614 cumulative IPC: 0.4644 (Simulation time: 00 hr 58 min 20 sec)
Heartbeat CPU 0 instructions: 208501106 cycles: 373756109 heartbeat IPC: 0.6173 cumulative IPC: 0.4648 (Simulation time: 00 hr 58 min 27 sec)
Heartbeat CPU 0 instructions: 209001108 cycles: 374737753 heartbeat IPC: 0.5094 cumulative IPC: 0.4649 (Simulation time: 00 hr 58 min 35 sec)
Heartbeat CPU 0 instructions: 209501114 cycles: 375746314 heartbeat IPC: 0.4958 cumulative IPC: 0.465 (Simulation time: 00 hr 58 min 44 sec)
Heartbeat CPU 0 instructions: 210001117 cycles: 376741552 heartbeat IPC: 0.5024 cumulative IPC: 0.4651 (Simulation time: 00 hr 58 min 52 sec)
Heartbeat CPU 0 instructions: 210501123 cycles: 377732441 heartbeat IPC: 0.5046 cumulative IPC: 0.4652 (Simulation time: 00 hr 59 min 01 sec)
Heartbeat CPU 0 instructions: 211001126 cycles: 378759803 heartbeat IPC: 0.4867 cumulative IPC: 0.4653 (Simulation time: 00 hr 59 min 10 sec)
Heartbeat CPU 0 instructions: 211501126 cycles: 379813582 heartbeat IPC: 0.4745 cumulative IPC: 0.4653 (Simulation time: 00 hr 59 min 20 sec)
Heartbeat CPU 0 instructions: 212001129 cycles: 380865053 heartbeat IPC: 0.4755 cumulative IPC: 0.4653 (Simulation time: 00 hr 59 min 29 sec)
Heartbeat CPU 0 instructions: 212501129 cycles: 381846727 heartbeat IPC: 0.5093 cumulative IPC: 0.4655 (Simulation time: 00 hr 59 min 37 sec)
Heartbeat CPU 0 instructions: 213001133 cycles: 382831214 heartbeat IPC: 0.5079 cumulative IPC: 0.4656 (Simulation time: 00 hr 59 min 46 sec)
Heartbeat CPU 0 instructions: 213501139 cycles: 383430568 heartbeat IPC: 0.8342 cumulative IPC: 0.4662 (Simulation time: 00 hr 59 min 51 sec)
Heartbeat CPU 0 instructions: 214001141 cycles: 384238210 heartbeat IPC: 0.6191 cumulative IPC: 0.4666 (Simulation time: 00 hr 59 min 58 sec)
Heartbeat CPU 0 instructions: 214501143 cycles: 385165945 heartbeat IPC: 0.5389 cumulative IPC: 0.4668 (Simulation time: 01 hr 00 min 06 sec)
Heartbeat CPU 0 instructions: 215001149 cycles: 386146852 heartbeat IPC: 0.5097 cumulative IPC: 0.4669 (Simulation time: 01 hr 00 min 14 sec)
Heartbeat CPU 0 instructions: 215501155 cycles: 387126022 heartbeat IPC: 0.5106 cumulative IPC: 0.467 (Simulation time: 01 hr 00 min 23 sec)
Heartbeat CPU 0 instructions: 216001156 cycles: 388101893 heartbeat IPC: 0.5124 cumulative IPC: 0.4671 (Simulation time: 01 hr 00 min 31 sec)
Heartbeat CPU 0 instructions: 216501161 cycles: 389079520 heartbeat IPC: 0.5114 cumulative IPC: 0.4672 (Simulation time: 01 hr 00 min 39 sec)
Heartbeat CPU 0 instructions: 217001163 cycles: 390124364 heartbeat IPC: 0.4785 cumulative IPC: 0.4673 (Simulation time: 01 hr 00 min 49 sec)
Heartbeat CPU 0 instructions: 217501167 cycles: 391165234 heartbeat IPC: 0.4804 cumulative IPC: 0.4673 (Simulation time: 01 hr 00 min 58 sec)
Heartbeat CPU 0 instructions: 218001170 cycles: 392173207 heartbeat IPC: 0.496 cumulative IPC: 0.4674 (Simulation time: 01 hr 01 min 07 sec)
Heartbeat CPU 0 instructions: 218501174 cycles: 393150017 heartbeat IPC: 0.5119 cumulative IPC: 0.4675 (Simulation time: 01 hr 01 min 15 sec)
Heartbeat CPU 0 instructions: 219001175 cycles: 393905651 heartbeat IPC: 0.6617 cumulative IPC: 0.4679 (Simulation time: 01 hr 01 min 21 sec)
Heartbeat CPU 0 instructions: 219501178 cycles: 394722191 heartbeat IPC: 0.6123 cumulative IPC: 0.4682 (Simulation time: 01 hr 01 min 28 sec)
Heartbeat CPU 0 instructions: 220001180 cycles: 395503392 heartbeat IPC: 0.64 cumulative IPC: 0.4686 (Simulation time: 01 hr 01 min 35 sec)
Heartbeat CPU 0 instructions: 220501182 cycles: 396453765 heartbeat IPC: 0.5261 cumulative IPC: 0.4688 (Simulation time: 01 hr 01 min 43 sec)
Heartbeat CPU 0 instructions: 221001188 cycles: 397431561 heartbeat IPC: 0.5114 cumulative IPC: 0.4689 (Simulation time: 01 hr 01 min 51 sec)
Heartbeat CPU 0 instructions: 221501191 cycles: 398407566 heartbeat IPC: 0.5123 cumulative IPC: 0.469 (Simulation time: 01 hr 02 min 00 sec)
Heartbeat CPU 0 instructions: 222001191 cycles: 399384546 heartbeat IPC: 0.5118 cumulative IPC: 0.4691 (Simulation time: 01 hr 02 min 08 sec)
Heartbeat CPU 0 instructions: 222501191 cycles: 400392722 heartbeat IPC: 0.4959 cumulative IPC: 0.4692 (Simulation time: 01 hr 02 min 17 sec)
Heartbeat CPU 0 instructions: 223001191 cycles: 401434374 heartbeat IPC: 0.48 cumulative IPC: 0.4692 (Simulation time: 01 hr 02 min 26 sec)
Heartbeat CPU 0 instructions: 223501192 cycles: 402474400 heartbeat IPC: 0.4808 cumulative IPC: 0.4692 (Simulation time: 01 hr 02 min 35 sec)
Heartbeat CPU 0 instructions: 224001193 cycles: 403444629 heartbeat IPC: 0.5153 cumulative IPC: 0.4694 (Simulation time: 01 hr 02 min 43 sec)
Heartbeat CPU 0 instructions: 224501198 cycles: 404423343 heartbeat IPC: 0.5109 cumulative IPC: 0.4695 (Simulation time: 01 hr 02 min 52 sec)
Heartbeat CPU 0 instructions: 225001204 cycles: 405019682 heartbeat IPC: 0.8385 cumulative IPC: 0.4701 (Simulation time: 01 hr 02 min 57 sec)
Heartbeat CPU 0 instructions: 225501209 cycles: 405804378 heartbeat IPC: 0.6372 cumulative IPC: 0.4704 (Simulation time: 01 hr 03 min 03 sec)
Heartbeat CPU 0 instructions: 226001213 cycles: 406756369 heartbeat IPC: 0.5252 cumulative IPC: 0.4706 (Simulation time: 01 hr 03 min 11 sec)
Heartbeat CPU 0 instructions: 226501217 cycles: 407732559 heartbeat IPC: 0.5122 cumulative IPC: 0.4707 (Simulation time: 01 hr 03 min 20 sec)
Heartbeat CPU 0 instructions: 227001220 cycles: 408708588 heartbeat IPC: 0.5123 cumulative IPC: 0.4708 (Simulation time: 01 hr 03 min 28 sec)
Heartbeat CPU 0 instructions: 227501226 cycles: 409684385 heartbeat IPC: 0.5124 cumulative IPC: 0.4709 (Simulation time: 01 hr 03 min 36 sec)
Heartbeat CPU 0 instructions: 228001229 cycles: 410665502 heartbeat IPC: 0.5096 cumulative IPC: 0.471 (Simulation time: 01 hr 03 min 45 sec)
Heartbeat CPU 0 instructions: 228501230 cycles: 411706605 heartbeat IPC: 0.4803 cumulative IPC: 0.471 (Simulation time: 01 hr 03 min 54 sec)
Heartbeat CPU 0 instructions: 229001230 cycles: 412746389 heartbeat IPC: 0.4809 cumulative IPC: 0.471 (Simulation time: 01 hr 04 min 03 sec)
Heartbeat CPU 0 instructions: 229501232 cycles: 413746528 heartbeat IPC: 0.4999 cumulative IPC: 0.4711 (Simulation time: 01 hr 04 min 12 sec)
Heartbeat CPU 0 instructions: 230001238 cycles: 414724606 heartbeat IPC: 0.5112 cumulative IPC: 0.4712 (Simulation time: 01 hr 04 min 20 sec)
Heartbeat CPU 0 instructions: 230501239 cycles: 415440296 heartbeat IPC: 0.6986 cumulative IPC: 0.4716 (Simulation time: 01 hr 04 min 26 sec)
Heartbeat CPU 0 instructions: 231001240 cycles: 416297092 heartbeat IPC: 0.5836 cumulative IPC: 0.4719 (Simulation time: 01 hr 04 min 33 sec)
Heartbeat CPU 0 instructions: 231501242 cycles: 417079945 heartbeat IPC: 0.6387 cumulative IPC: 0.4722 (Simulation time: 01 hr 04 min 40 sec)
Heartbeat CPU 0 instructions: 232001244 cycles: 418029392 heartbeat IPC: 0.5266 cumulative IPC: 0.4724 (Simulation time: 01 hr 04 min 48 sec)
Heartbeat CPU 0 instructions: 232501248 cycles: 419006853 heartbeat IPC: 0.5115 cumulative IPC: 0.4725 (Simulation time: 01 hr 04 min 56 sec)
Heartbeat CPU 0 instructions: 233001249 cycles: 419982911 heartbeat IPC: 0.5123 cumulative IPC: 0.4726 (Simulation time: 01 hr 05 min 05 sec)
Heartbeat CPU 0 instructions: 233501252 cycles: 420935671 heartbeat IPC: 0.5248 cumulative IPC: 0.4727 (Simulation time: 01 hr 05 min 13 sec)
Heartbeat CPU 0 instructions: 234001254 cycles: 421969723 heartbeat IPC: 0.4835 cumulative IPC: 0.4727 (Simulation time: 01 hr 05 min 22 sec)
Heartbeat CPU 0 instructions: 234501260 cycles: 423011334 heartbeat IPC: 0.48 cumulative IPC: 0.4727 (Simulation time: 01 hr 05 min 31 sec)
Heartbeat CPU 0 instructions: 235001267 cycles: 424050620 heartbeat IPC: 0.4811 cumulative IPC: 0.4728 (Simulation time: 01 hr 05 min 40 sec)
Heartbeat CPU 0 instructions: 235501267 cycles: 425016248 heartbeat IPC: 0.5178 cumulative IPC: 0.4729 (Simulation time: 01 hr 05 min 48 sec)
Heartbeat CPU 0 instructions: 236001269 cycles: 425992996 heartbeat IPC: 0.5119 cumulative IPC: 0.473 (Simulation time: 01 hr 05 min 56 sec)
Heartbeat CPU 0 instructions: 236501269 cycles: 426586335 heartbeat IPC: 0.8427 cumulative IPC: 0.4735 (Simulation time: 01 hr 06 min 02 sec)
Heartbeat CPU 0 instructions: 237001271 cycles: 427361476 heartbeat IPC: 0.645 cumulative IPC: 0.4739 (Simulation time: 01 hr 06 min 08 sec)
Heartbeat CPU 0 instructions: 237501273 cycles: 428309301 heartbeat IPC: 0.5275 cumulative IPC: 0.474 (Simulation time: 01 hr 06 min 16 sec)
Heartbeat CPU 0 instructions: 238001273 cycles: 429283294 heartbeat IPC: 0.5134 cumulative IPC: 0.4741 (Simulation time: 01 hr 06 min 24 sec)
Heartbeat CPU 0 instructions: 238501278 cycles: 430258647 heartbeat IPC: 0.5126 cumulative IPC: 0.4742 (Simulation time: 01 hr 06 min 33 sec)
Heartbeat CPU 0 instructions: 239001278 cycles: 431233763 heartbeat IPC: 0.5128 cumulative IPC: 0.4743 (Simulation time: 01 hr 06 min 41 sec)
Heartbeat CPU 0 instructions: 239501278 cycles: 432215380 heartbeat IPC: 0.5094 cumulative IPC: 0.4744 (Simulation time: 01 hr 06 min 49 sec)
Heartbeat CPU 0 instructions: 240001283 cycles: 433257049 heartbeat IPC: 0.48 cumulative IPC: 0.4744 (Simulation time: 01 hr 06 min 58 sec)
Heartbeat CPU 0 instructions: 240501283 cycles: 434298790 heartbeat IPC: 0.48 cumulative IPC: 0.4744 (Simulation time: 01 hr 07 min 08 sec)
Heartbeat CPU 0 instructions: 241001288 cycles: 435294964 heartbeat IPC: 0.5019 cumulative IPC: 0.4745 (Simulation time: 01 hr 07 min 16 sec)
Heartbeat CPU 0 instructions: 241501290 cycles: 436271811 heartbeat IPC: 0.5119 cumulative IPC: 0.4746 (Simulation time: 01 hr 07 min 24 sec)
Heartbeat CPU 0 instructions: 242001293 cycles: 436954841 heartbeat IPC: 0.732 cumulative IPC: 0.475 (Simulation time: 01 hr 07 min 30 sec)
Heartbeat CPU 0 instructions: 242501296 cycles: 437848172 heartbeat IPC: 0.5597 cumulative IPC: 0.4752 (Simulation time: 01 hr 07 min 38 sec)
Heartbeat CPU 0 instructions: 243001298 cycles: 438626462 heartbeat IPC: 0.6424 cumulative IPC: 0.4755 (Simulation time: 01 hr 07 min 44 sec)
Heartbeat CPU 0 instructions: 243501305 cycles: 439575231 heartbeat IPC: 0.527 cumulative IPC: 0.4756 (Simulation time: 01 hr 07 min 52 sec)
Heartbeat CPU 0 instructions: 244001306 cycles: 440554831 heartbeat IPC: 0.5104 cumulative IPC: 0.4757 (Simulation time: 01 hr 08 min 00 sec)
Heartbeat CPU 0 instructions: 244501309 cycles: 441531440 heartbeat IPC: 0.512 cumulative IPC: 0.4758 (Simulation time: 01 hr 08 min 09 sec)
Heartbeat CPU 0 instructions: 245001309 cycles: 442482782 heartbeat IPC: 0.5256 cumulative IPC: 0.4759 (Simulation time: 01 hr 08 min 17 sec)
Heartbeat CPU 0 instructions: 245501311 cycles: 443521320 heartbeat IPC: 0.4814 cumulative IPC: 0.4759 (Simulation time: 01 hr 08 min 26 sec)
Heartbeat CPU 0 instructions: 246001315 cycles: 444560735 heartbeat IPC: 0.481 cumulative IPC: 0.4759 (Simulation time: 01 hr 08 min 35 sec)
Heartbeat CPU 0 instructions: 246501315 cycles: 445599560 heartbeat IPC: 0.4813 cumulative IPC: 0.4759 (Simulation time: 01 hr 08 min 44 sec)
Heartbeat CPU 0 instructions: 247001317 cycles: 446561986 heartbeat IPC: 0.5195 cumulative IPC: 0.476 (Simulation time: 01 hr 08 min 52 sec)
Heartbeat CPU 0 instructions: 247501317 cycles: 447539324 heartbeat IPC: 0.5116 cumulative IPC: 0.4761 (Simulation time: 01 hr 09 min 00 sec)
Heartbeat CPU 0 instructions: 248001319 cycles: 448132725 heartbeat IPC: 0.8426 cumulative IPC: 0.4767 (Simulation time: 01 hr 09 min 06 sec)
Heartbeat CPU 0 instructions: 248501321 cycles: 448908971 heartbeat IPC: 0.6441 cumulative IPC: 0.477 (Simulation time: 01 hr 09 min 12 sec)
Heartbeat CPU 0 instructions: 249001323 cycles: 449857802 heartbeat IPC: 0.527 cumulative IPC: 0.4771 (Simulation time: 01 hr 09 min 20 sec)
Heartbeat CPU 0 instructions: 249501329 cycles: 450836473 heartbeat IPC: 0.5109 cumulative IPC: 0.4772 (Simulation time: 01 hr 09 min 28 sec)
Simulation finished CPU 0 instructions: 200000001 cycles: 419079338 cumulative IPC: 0.4772 (Simulation time: 01 hr 09 min 36 sec)
Simulation complete CPU 0 instructions: 200000001 cycles: 419079338 cumulative IPC: 0.4772 (Simulation time: 01 hr 09 min 36 sec)

ChampSim completed all CPUs

=== Simulation ===
CPU 0 runs /local-ssd/ben/dpc4-traces/ai-ml/biogpt.cpp-ggml-model-tocilizumab.1.champsimtrace.gz

Region of Interest Statistics

CPU 0 cumulative IPC: 0.4772 instructions: 200000001 cycles: 419079338
CPU 0 Branch Prediction Accuracy: 97.8% MPKI: 2.083 Average ROB Occupancy at Mispredict: 354.1
Branch type MPKI
BRANCH_DIRECT_JUMP: 8e-05
BRANCH_INDIRECT: 0.00608
BRANCH_CONDITIONAL: 2.071
BRANCH_DIRECT_CALL: 0
BRANCH_INDIRECT_CALL: 0.001105
BRANCH_RETURN: 0.005355

cpu0->cpu0_STLB TOTAL        ACCESS:     453490 HIT:      25590 MISS:     427900 MSHR_MERGE:          0
cpu0->cpu0_STLB LOAD         ACCESS:     453490 HIT:      25590 MISS:     427900 MSHR_MERGE:          0
cpu0->cpu0_STLB RFO          ACCESS:          0 HIT:          0 MISS:          0 MSHR_MERGE:          0
cpu0->cpu0_STLB PREFETCH     ACCESS:          0 HIT:          0 MISS:          0 MSHR_MERGE:          0
cpu0->cpu0_STLB WRITE        ACCESS:          0 HIT:          0 MISS:          0 MSHR_MERGE:          0
cpu0->cpu0_STLB TRANSLATION  ACCESS:          0 HIT:          0 MISS:          0 MSHR_MERGE:          0
cpu0->cpu0_STLB PREFETCH REQUESTED:          0 ISSUED:          0 USEFUL:          0 USELESS:          0
cpu0->cpu0_STLB AVERAGE MISS LATENCY: 160.1 cycles
cpu0->cpu0_L2C TOTAL        ACCESS:   29248834 HIT:    1877626 MISS:   27371208 MSHR_MERGE:          0
cpu0->cpu0_L2C LOAD         ACCESS:   28650910 HIT:    1503764 MISS:   27147146 MSHR_MERGE:          0
cpu0->cpu0_L2C RFO          ACCESS:     205192 HIT:      45367 MISS:     159825 MSHR_MERGE:          0
cpu0->cpu0_L2C PREFETCH     ACCESS:          0 HIT:          0 MISS:          0 MSHR_MERGE:          0
cpu0->cpu0_L2C WRITE        ACCESS:     336168 HIT:     327706 MISS:       8462 MSHR_MERGE:          0
cpu0->cpu0_L2C TRANSLATION  ACCESS:      56564 HIT:        789 MISS:      55775 MSHR_MERGE:          0
cpu0->cpu0_L2C PREFETCH REQUESTED:          0 ISSUED:          0 USEFUL:          0 USELESS:          0
cpu0->cpu0_L2C AVERAGE MISS LATENCY: 193.9 cycles
cpu0->cpu0_L1I TOTAL        ACCESS:   29760146 HIT:   29758246 MISS:       1900 MSHR_MERGE:        525
cpu0->cpu0_L1I LOAD         ACCESS:   29760146 HIT:   29758246 MISS:       1900 MSHR_MERGE:        525
cpu0->cpu0_L1I RFO          ACCESS:          0 HIT:          0 MISS:          0 MSHR_MERGE:          0
cpu0->cpu0_L1I PREFETCH     ACCESS:          0 HIT:          0 MISS:          0 MSHR_MERGE:          0
cpu0->cpu0_L1I WRITE        ACCESS:          0 HIT:          0 MISS:          0 MSHR_MERGE:          0
cpu0->cpu0_L1I TRANSLATION  ACCESS:          0 HIT:          0 MISS:          0 MSHR_MERGE:          0
cpu0->cpu0_L1I PREFETCH REQUESTED:          0 ISSUED:          0 USEFUL:          0 USELESS:          0
cpu0->cpu0_L1I AVERAGE MISS LATENCY: 240.7 cycles
cpu0->cpu0_L1D TOTAL        ACCESS:   66661714 HIT:   33612052 MISS:   33049662 MSHR_MERGE:    4138345
cpu0->cpu0_L1D LOAD         ACCESS:   60573699 HIT:   30393706 MISS:   30179993 MSHR_MERGE:    1530456
cpu0->cpu0_L1D RFO          ACCESS:          0 HIT:          0 MISS:          0 MSHR_MERGE:          0
cpu0->cpu0_L1D PREFETCH     ACCESS:          0 HIT:          0 MISS:          0 MSHR_MERGE:          0
cpu0->cpu0_L1D WRITE        ACCESS:    5232932 HIT:    2420708 MISS:    2812224 MSHR_MERGE:    2607008
cpu0->cpu0_L1D TRANSLATION  ACCESS:     855083 HIT:     797638 MISS:      57445 MSHR_MERGE:        881
cpu0->cpu0_L1D PREFETCH REQUESTED:          0 ISSUED:          0 USEFUL:          0 USELESS:          0
cpu0->cpu0_L1D AVERAGE MISS LATENCY: 193 cycles
cpu0->cpu0_ITLB TOTAL        ACCESS:   19443626 HIT:   19443193 MISS:        433 MSHR_MERGE:        206
cpu0->cpu0_ITLB LOAD         ACCESS:   19443626 HIT:   19443193 MISS:        433 MSHR_MERGE:        206
cpu0->cpu0_ITLB RFO          ACCESS:          0 HIT:          0 MISS:          0 MSHR_MERGE:          0
cpu0->cpu0_ITLB PREFETCH     ACCESS:          0 HIT:          0 MISS:          0 MSHR_MERGE:          0
cpu0->cpu0_ITLB WRITE        ACCESS:          0 HIT:          0 MISS:          0 MSHR_MERGE:          0
cpu0->cpu0_ITLB TRANSLATION  ACCESS:          0 HIT:          0 MISS:          0 MSHR_MERGE:          0
cpu0->cpu0_ITLB PREFETCH REQUESTED:          0 ISSUED:          0 USEFUL:          0 USELESS:          0
cpu0->cpu0_ITLB AVERAGE MISS LATENCY: 84.21 cycles
cpu0->cpu0_DTLB TOTAL        ACCESS:   65336943 HIT:   60872436 MISS:    4464507 MSHR_MERGE:    4011244
cpu0->cpu0_DTLB LOAD         ACCESS:   65336943 HIT:   60872436 MISS:    4464507 MSHR_MERGE:    4011244
cpu0->cpu0_DTLB RFO          ACCESS:          0 HIT:          0 MISS:          0 MSHR_MERGE:          0
cpu0->cpu0_DTLB PREFETCH     ACCESS:          0 HIT:          0 MISS:          0 MSHR_MERGE:          0
cpu0->cpu0_DTLB WRITE        ACCESS:          0 HIT:          0 MISS:          0 MSHR_MERGE:          0
cpu0->cpu0_DTLB TRANSLATION  ACCESS:          0 HIT:          0 MISS:          0 MSHR_MERGE:          0
cpu0->cpu0_DTLB PREFETCH REQUESTED:          0 ISSUED:          0 USEFUL:          0 USELESS:          0
cpu0->cpu0_DTLB AVERAGE MISS LATENCY: 157.1 cycles
cpu0->LLC TOTAL        ACCESS:   27556388 HIT:     375169 MISS:   27181219 MSHR_MERGE:          0
cpu0->LLC LOAD         ACCESS:   27147143 HIT:     129333 MISS:   27017810 MSHR_MERGE:          0
cpu0->LLC RFO          ACCESS:     159825 HIT:      98686 MISS:      61139 MSHR_MERGE:          0
cpu0->LLC PREFETCH     ACCESS:          0 HIT:          0 MISS:          0 MSHR_MERGE:          0
cpu0->LLC WRITE        ACCESS:     193645 HIT:     146122 MISS:      47523 MSHR_MERGE:          0
cpu0->LLC TRANSLATION  ACCESS:      55775 HIT:       1028 MISS:      54747 MSHR_MERGE:          0
cpu0->LLC PREFETCH REQUESTED:          0 ISSUED:          0 USEFUL:          0 USELESS:          0
cpu0->LLC AVERAGE MISS LATENCY: 172.1 cycles

DRAM Statistics

Channel 0 RQ ROW_BUFFER_HIT:   12860709
  ROW_BUFFER_MISS:   14272764
  AVG DBUS CONGESTED CYCLE: 4.143
Channel 0 WQ ROW_BUFFER_HIT:       1439
  ROW_BUFFER_MISS:      68018
  FULL:          0
Channel 0 REFRESHES ISSUED:      34921
