[VMEM] WARNING: physical memory size is smaller than virtual memory size.

*** ChampSim Multicore Out-of-Order Simulator ***
Warmup Instructions: 50000000
Simulation Instructions: 200000000
Number of CPUs: 1
Page size: 4096
Core 0: /local-ssd/ben/dpc4-traces/Graph/GMS/gms.triangle_count.soc-pokec-relationships.slice-360.champsimtrace.gz
Off-chip DRAM Size: 64 GiB Channels: 1 Width: 64-bit Data Rate: 4807 MT/s
Heartbeat CPU 0 instructions: 500001 cycles: 197695 heartbeat IPC: 2.529 cumulative IPC: 2.529 (Simulation time: 00 hr 00 min 04 sec)
Heartbeat CPU 0 instructions: 1000007 cycles: 362869 heartbeat IPC: 3.027 cumulative IPC: 2.756 (Simulation time: 00 hr 00 min 07 sec)
Heartbeat CPU 0 instructions: 1500008 cycles: 519019 heartbeat IPC: 3.202 cumulative IPC: 2.89 (Simulation time: 00 hr 00 min 09 sec)
Heartbeat CPU 0 instructions: 2000014 cycles: 674077 heartbeat IPC: 3.225 cumulative IPC: 2.967 (Simulation time: 00 hr 00 min 12 sec)
Heartbeat CPU 0 instructions: 2500021 cycles: 825656 heartbeat IPC: 3.299 cumulative IPC: 3.028 (Simulation time: 00 hr 00 min 14 sec)
Heartbeat CPU 0 instructions: 3000027 cycles: 975556 heartbeat IPC: 3.336 cumulative IPC: 3.075 (Simulation time: 00 hr 00 min 17 sec)
Heartbeat CPU 0 instructions: 3500033 cycles: 1124415 heartbeat IPC: 3.359 cumulative IPC: 3.113 (Simulation time: 00 hr 00 min 19 sec)
Heartbeat CPU 0 instructions: 4000034 cycles: 1272353 heartbeat IPC: 3.38 cumulative IPC: 3.144 (Simulation time: 00 hr 00 min 21 sec)
Heartbeat CPU 0 instructions: 4500038 cycles: 1420516 heartbeat IPC: 3.375 cumulative IPC: 3.168 (Simulation time: 00 hr 00 min 24 sec)
Heartbeat CPU 0 instructions: 5000040 cycles: 1567953 heartbeat IPC: 3.391 cumulative IPC: 3.189 (Simulation time: 00 hr 00 min 26 sec)
Heartbeat CPU 0 instructions: 5500045 cycles: 1715942 heartbeat IPC: 3.379 cumulative IPC: 3.205 (Simulation time: 00 hr 00 min 29 sec)
Heartbeat CPU 0 instructions: 6000047 cycles: 1865124 heartbeat IPC: 3.352 cumulative IPC: 3.217 (Simulation time: 00 hr 00 min 31 sec)
Heartbeat CPU 0 instructions: 6500051 cycles: 2012073 heartbeat IPC: 3.403 cumulative IPC: 3.231 (Simulation time: 00 hr 00 min 33 sec)
Heartbeat CPU 0 instructions: 7000053 cycles: 2157924 heartbeat IPC: 3.428 cumulative IPC: 3.244 (Simulation time: 00 hr 00 min 36 sec)
Heartbeat CPU 0 instructions: 7500058 cycles: 2305050 heartbeat IPC: 3.398 cumulative IPC: 3.254 (Simulation time: 00 hr 00 min 38 sec)
Heartbeat CPU 0 instructions: 8000061 cycles: 2449827 heartbeat IPC: 3.454 cumulative IPC: 3.266 (Simulation time: 00 hr 00 min 40 sec)
Heartbeat CPU 0 instructions: 8500064 cycles: 2598495 heartbeat IPC: 3.363 cumulative IPC: 3.271 (Simulation time: 00 hr 00 min 43 sec)
Heartbeat CPU 0 instructions: 9000066 cycles: 2747673 heartbeat IPC: 3.352 cumulative IPC: 3.276 (Simulation time: 00 hr 00 min 45 sec)
Heartbeat CPU 0 instructions: 9500071 cycles: 2894665 heartbeat IPC: 3.402 cumulative IPC: 3.282 (Simulation time: 00 hr 00 min 47 sec)
Heartbeat CPU 0 instructions: 10000074 cycles: 3041591 heartbeat IPC: 3.403 cumulative IPC: 3.288 (Simulation time: 00 hr 00 min 50 sec)
Heartbeat CPU 0 instructions: 10500079 cycles: 3186955 heartbeat IPC: 3.44 cumulative IPC: 3.295 (Simulation time: 00 hr 00 min 52 sec)
Heartbeat CPU 0 instructions: 11000084 cycles: 3332363 heartbeat IPC: 3.439 cumulative IPC: 3.301 (Simulation time: 00 hr 00 min 54 sec)
Heartbeat CPU 0 instructions: 11500088 cycles: 3478978 heartbeat IPC: 3.41 cumulative IPC: 3.306 (Simulation time: 00 hr 00 min 57 sec)
Heartbeat CPU 0 instructions: 12000090 cycles: 3625304 heartbeat IPC: 3.417 cumulative IPC: 3.31 (Simulation time: 00 hr 00 min 59 sec)
Heartbeat CPU 0 instructions: 12500094 cycles: 3771393 heartbeat IPC: 3.423 cumulative IPC: 3.314 (Simulation time: 00 hr 01 min 01 sec)
Heartbeat CPU 0 instructions: 13000100 cycles: 3914794 heartbeat IPC: 3.487 cumulative IPC: 3.321 (Simulation time: 00 hr 01 min 04 sec)
Heartbeat CPU 0 instructions: 13500106 cycles: 4062246 heartbeat IPC: 3.391 cumulative IPC: 3.323 (Simulation time: 00 hr 01 min 06 sec)
Heartbeat CPU 0 instructions: 14000109 cycles: 4208181 heartbeat IPC: 3.426 cumulative IPC: 3.327 (Simulation time: 00 hr 01 min 08 sec)
Heartbeat CPU 0 instructions: 14500114 cycles: 4351261 heartbeat IPC: 3.495 cumulative IPC: 3.332 (Simulation time: 00 hr 01 min 11 sec)
Heartbeat CPU 0 instructions: 15000120 cycles: 4495633 heartbeat IPC: 3.463 cumulative IPC: 3.337 (Simulation time: 00 hr 01 min 13 sec)
Heartbeat CPU 0 instructions: 15500122 cycles: 4640208 heartbeat IPC: 3.458 cumulative IPC: 3.34 (Simulation time: 00 hr 01 min 15 sec)
Heartbeat CPU 0 instructions: 16000126 cycles: 4781937 heartbeat IPC: 3.528 cumulative IPC: 3.346 (Simulation time: 00 hr 01 min 18 sec)
Heartbeat CPU 0 instructions: 16500126 cycles: 4926576 heartbeat IPC: 3.457 cumulative IPC: 3.349 (Simulation time: 00 hr 01 min 20 sec)
Heartbeat CPU 0 instructions: 17000131 cycles: 5072015 heartbeat IPC: 3.438 cumulative IPC: 3.352 (Simulation time: 00 hr 01 min 22 sec)
Heartbeat CPU 0 instructions: 17500133 cycles: 5217148 heartbeat IPC: 3.445 cumulative IPC: 3.354 (Simulation time: 00 hr 01 min 25 sec)
Heartbeat CPU 0 instructions: 18000137 cycles: 5360701 heartbeat IPC: 3.483 cumulative IPC: 3.358 (Simulation time: 00 hr 01 min 27 sec)
Heartbeat CPU 0 instructions: 18500139 cycles: 5505394 heartbeat IPC: 3.456 cumulative IPC: 3.36 (Simulation time: 00 hr 01 min 29 sec)
Heartbeat CPU 0 instructions: 19000141 cycles: 5651436 heartbeat IPC: 3.424 cumulative IPC: 3.362 (Simulation time: 00 hr 01 min 32 sec)
Heartbeat CPU 0 instructions: 19500142 cycles: 5795724 heartbeat IPC: 3.465 cumulative IPC: 3.365 (Simulation time: 00 hr 01 min 34 sec)
Heartbeat CPU 0 instructions: 20000148 cycles: 5938037 heartbeat IPC: 3.513 cumulative IPC: 3.368 (Simulation time: 00 hr 01 min 36 sec)
Heartbeat CPU 0 instructions: 20500150 cycles: 6083807 heartbeat IPC: 3.43 cumulative IPC: 3.37 (Simulation time: 00 hr 01 min 38 sec)
Heartbeat CPU 0 instructions: 21000151 cycles: 6228826 heartbeat IPC: 3.448 cumulative IPC: 3.371 (Simulation time: 00 hr 01 min 41 sec)
Heartbeat CPU 0 instructions: 21500157 cycles: 6373459 heartbeat IPC: 3.457 cumulative IPC: 3.373 (Simulation time: 00 hr 01 min 43 sec)
Heartbeat CPU 0 instructions: 22000157 cycles: 6518716 heartbeat IPC: 3.442 cumulative IPC: 3.375 (Simulation time: 00 hr 01 min 45 sec)
Heartbeat CPU 0 instructions: 22500159 cycles: 6660315 heartbeat IPC: 3.531 cumulative IPC: 3.378 (Simulation time: 00 hr 01 min 48 sec)
Heartbeat CPU 0 instructions: 23000164 cycles: 6806667 heartbeat IPC: 3.416 cumulative IPC: 3.379 (Simulation time: 00 hr 01 min 50 sec)
Heartbeat CPU 0 instructions: 23500166 cycles: 6949003 heartbeat IPC: 3.513 cumulative IPC: 3.382 (Simulation time: 00 hr 01 min 52 sec)
Heartbeat CPU 0 instructions: 24000167 cycles: 7092583 heartbeat IPC: 3.482 cumulative IPC: 3.384 (Simulation time: 00 hr 01 min 55 sec)
Heartbeat CPU 0 instructions: 24500167 cycles: 7236039 heartbeat IPC: 3.485 cumulative IPC: 3.386 (Simulation time: 00 hr 01 min 57 sec)
Heartbeat CPU 0 instructions: 25000173 cycles: 7376817 heartbeat IPC: 3.552 cumulative IPC: 3.389 (Simulation time: 00 hr 01 min 59 sec)
Heartbeat CPU 0 instructions: 25500180 cycles: 7520181 heartbeat IPC: 3.488 cumulative IPC: 3.391 (Simulation time: 00 hr 02 min 02 sec)
Heartbeat CPU 0 instructions: 26000186 cycles: 7661636 heartbeat IPC: 3.535 cumulative IPC: 3.394 (Simulation time: 00 hr 02 min 04 sec)
Heartbeat CPU 0 instructions: 26500187 cycles: 7801812 heartbeat IPC: 3.567 cumulative IPC: 3.397 (Simulation time: 00 hr 02 min 06 sec)
Heartbeat CPU 0 instructions: 27000194 cycles: 7941536 heartbeat IPC: 3.579 cumulative IPC: 3.4 (Simulation time: 00 hr 02 min 08 sec)
Heartbeat CPU 0 instructions: 27500195 cycles: 8082935 heartbeat IPC: 3.536 cumulative IPC: 3.402 (Simulation time: 00 hr 02 min 10 sec)
Heartbeat CPU 0 instructions: 28000197 cycles: 8224392 heartbeat IPC: 3.535 cumulative IPC: 3.405 (Simulation time: 00 hr 02 min 13 sec)
Heartbeat CPU 0 instructions: 28500199 cycles: 8363246 heartbeat IPC: 3.601 cumulative IPC: 3.408 (Simulation time: 00 hr 02 min 15 sec)
Heartbeat CPU 0 instructions: 29000205 cycles: 8504265 heartbeat IPC: 3.546 cumulative IPC: 3.41 (Simulation time: 00 hr 02 min 17 sec)
Heartbeat CPU 0 instructions: 29500205 cycles: 8642799 heartbeat IPC: 3.609 cumulative IPC: 3.413 (Simulation time: 00 hr 02 min 19 sec)
Heartbeat CPU 0 instructions: 30000205 cycles: 8782188 heartbeat IPC: 3.587 cumulative IPC: 3.416 (Simulation time: 00 hr 02 min 22 sec)
Heartbeat CPU 0 instructions: 30500210 cycles: 8921657 heartbeat IPC: 3.585 cumulative IPC: 3.419 (Simulation time: 00 hr 02 min 24 sec)
Heartbeat CPU 0 instructions: 31000214 cycles: 9062125 heartbeat IPC: 3.56 cumulative IPC: 3.421 (Simulation time: 00 hr 02 min 26 sec)
Heartbeat CPU 0 instructions: 31500221 cycles: 9202476 heartbeat IPC: 3.563 cumulative IPC: 3.423 (Simulation time: 00 hr 02 min 28 sec)
Heartbeat CPU 0 instructions: 32000222 cycles: 9342314 heartbeat IPC: 3.576 cumulative IPC: 3.425 (Simulation time: 00 hr 02 min 31 sec)
Heartbeat CPU 0 instructions: 32500222 cycles: 9484155 heartbeat IPC: 3.525 cumulative IPC: 3.427 (Simulation time: 00 hr 02 min 33 sec)
Heartbeat CPU 0 instructions: 33000228 cycles: 9623901 heartbeat IPC: 3.578 cumulative IPC: 3.429 (Simulation time: 00 hr 02 min 35 sec)
Heartbeat CPU 0 instructions: 33500231 cycles: 9759418 heartbeat IPC: 3.69 cumulative IPC: 3.433 (Simulation time: 00 hr 02 min 37 sec)
Heartbeat CPU 0 instructions: 34000232 cycles: 9895544 heartbeat IPC: 3.673 cumulative IPC: 3.436 (Simulation time: 00 hr 02 min 39 sec)
Heartbeat CPU 0 instructions: 34500232 cycles: 10033531 heartbeat IPC: 3.624 cumulative IPC: 3.438 (Simulation time: 00 hr 02 min 42 sec)
Heartbeat CPU 0 instructions: 35000239 cycles: 10170635 heartbeat IPC: 3.647 cumulative IPC: 3.441 (Simulation time: 00 hr 02 min 44 sec)
Heartbeat CPU 0 instructions: 35500239 cycles: 10309812 heartbeat IPC: 3.593 cumulative IPC: 3.443 (Simulation time: 00 hr 02 min 46 sec)
Heartbeat CPU 0 instructions: 36000245 cycles: 10446898 heartbeat IPC: 3.647 cumulative IPC: 3.446 (Simulation time: 00 hr 02 min 48 sec)
Heartbeat CPU 0 instructions: 36500246 cycles: 10582763 heartbeat IPC: 3.68 cumulative IPC: 3.449 (Simulation time: 00 hr 02 min 50 sec)
Heartbeat CPU 0 instructions: 37000248 cycles: 10722624 heartbeat IPC: 3.575 cumulative IPC: 3.451 (Simulation time: 00 hr 02 min 53 sec)
Heartbeat CPU 0 instructions: 37500250 cycles: 10863008 heartbeat IPC: 3.562 cumulative IPC: 3.452 (Simulation time: 00 hr 02 min 55 sec)
Heartbeat CPU 0 instructions: 38000256 cycles: 10997353 heartbeat IPC: 3.722 cumulative IPC: 3.455 (Simulation time: 00 hr 02 min 57 sec)
Heartbeat CPU 0 instructions: 38500262 cycles: 11134181 heartbeat IPC: 3.654 cumulative IPC: 3.458 (Simulation time: 00 hr 02 min 59 sec)
Heartbeat CPU 0 instructions: 39000263 cycles: 11269646 heartbeat IPC: 3.691 cumulative IPC: 3.461 (Simulation time: 00 hr 03 min 01 sec)
Heartbeat CPU 0 instructions: 39500268 cycles: 11404501 heartbeat IPC: 3.708 cumulative IPC: 3.464 (Simulation time: 00 hr 03 min 03 sec)
Heartbeat CPU 0 instructions: 40000270 cycles: 11538759 heartbeat IPC: 3.724 cumulative IPC: 3.467 (Simulation time: 00 hr 03 min 05 sec)
Heartbeat CPU 0 instructions: 40500272 cycles: 11674352 heartbeat IPC: 3.688 cumulative IPC: 3.469 (Simulation time: 00 hr 03 min 08 sec)
Heartbeat CPU 0 instructions: 41000277 cycles: 11810844 heartbeat IPC: 3.663 cumulative IPC: 3.471 (Simulation time: 00 hr 03 min 10 sec)
Heartbeat CPU 0 instructions: 41500278 cycles: 11947466 heartbeat IPC: 3.66 cumulative IPC: 3.474 (Simulation time: 00 hr 03 min 12 sec)
Heartbeat CPU 0 instructions: 42000280 cycles: 12085675 heartbeat IPC: 3.618 cumulative IPC: 3.475 (Simulation time: 00 hr 03 min 14 sec)
Heartbeat CPU 0 instructions: 42500283 cycles: 12217844 heartbeat IPC: 3.783 cumulative IPC: 3.479 (Simulation time: 00 hr 03 min 16 sec)
Heartbeat CPU 0 instructions: 43000289 cycles: 12354809 heartbeat IPC: 3.651 cumulative IPC: 3.48 (Simulation time: 00 hr 03 min 18 sec)
Heartbeat CPU 0 instructions: 43500292 cycles: 12491697 heartbeat IPC: 3.653 cumulative IPC: 3.482 (Simulation time: 00 hr 03 min 21 sec)
Heartbeat CPU 0 instructions: 44000296 cycles: 12627124 heartbeat IPC: 3.692 cumulative IPC: 3.485 (Simulation time: 00 hr 03 min 23 sec)
Heartbeat CPU 0 instructions: 44500297 cycles: 12760966 heartbeat IPC: 3.736 cumulative IPC: 3.487 (Simulation time: 00 hr 03 min 25 sec)
Heartbeat CPU 0 instructions: 45000302 cycles: 12898063 heartbeat IPC: 3.647 cumulative IPC: 3.489 (Simulation time: 00 hr 03 min 27 sec)
Heartbeat CPU 0 instructions: 45500306 cycles: 13033405 heartbeat IPC: 3.694 cumulative IPC: 3.491 (Simulation time: 00 hr 03 min 29 sec)
Heartbeat CPU 0 instructions: 46000312 cycles: 13169928 heartbeat IPC: 3.662 cumulative IPC: 3.493 (Simulation time: 00 hr 03 min 31 sec)
Heartbeat CPU 0 instructions: 46500317 cycles: 13305392 heartbeat IPC: 3.691 cumulative IPC: 3.495 (Simulation time: 00 hr 03 min 33 sec)
Heartbeat CPU 0 instructions: 47000323 cycles: 13438254 heartbeat IPC: 3.763 cumulative IPC: 3.498 (Simulation time: 00 hr 03 min 36 sec)
Heartbeat CPU 0 instructions: 47500324 cycles: 13573201 heartbeat IPC: 3.705 cumulative IPC: 3.5 (Simulation time: 00 hr 03 min 38 sec)
Heartbeat CPU 0 instructions: 48000325 cycles: 13708699 heartbeat IPC: 3.69 cumulative IPC: 3.501 (Simulation time: 00 hr 03 min 40 sec)
Heartbeat CPU 0 instructions: 48500325 cycles: 13846470 heartbeat IPC: 3.629 cumulative IPC: 3.503 (Simulation time: 00 hr 03 min 42 sec)
Heartbeat CPU 0 instructions: 49000329 cycles: 13981695 heartbeat IPC: 3.698 cumulative IPC: 3.505 (Simulation time: 00 hr 03 min 44 sec)
Heartbeat CPU 0 instructions: 49500333 cycles: 14121414 heartbeat IPC: 3.579 cumulative IPC: 3.505 (Simulation time: 00 hr 03 min 46 sec)
Warmup finished CPU 0 instructions: 50000002 cycles: 14255566 cumulative IPC: 3.507 (Simulation time: 00 hr 03 min 48 sec)
Warmup complete CPU 0 instructions: 50000002 cycles: 14255566 cumulative IPC: 3.507 (Simulation time: 00 hr 03 min 48 sec)
Heartbeat CPU 0 instructions: 50000339 cycles: 14255850 heartbeat IPC: 3.719 cumulative IPC: 1.187 (Simulation time: 00 hr 03 min 48 sec)
Heartbeat CPU 0 instructions: 50500340 cycles: 15724811 heartbeat IPC: 0.3404 cumulative IPC: 0.3405 (Simulation time: 00 hr 03 min 58 sec)
Heartbeat CPU 0 instructions: 51000342 cycles: 17189622 heartbeat IPC: 0.3413 cumulative IPC: 0.3409 (Simulation time: 00 hr 04 min 07 sec)
Heartbeat CPU 0 instructions: 51500345 cycles: 18672599 heartbeat IPC: 0.3372 cumulative IPC: 0.3397 (Simulation time: 00 hr 04 min 17 sec)
Heartbeat CPU 0 instructions: 52000345 cycles: 20129935 heartbeat IPC: 0.3431 cumulative IPC: 0.3405 (Simulation time: 00 hr 04 min 26 sec)
Heartbeat CPU 0 instructions: 52500345 cycles: 21583943 heartbeat IPC: 0.3439 cumulative IPC: 0.3412 (Simulation time: 00 hr 04 min 35 sec)
Heartbeat CPU 0 instructions: 53000349 cycles: 23024926 heartbeat IPC: 0.347 cumulative IPC: 0.3421 (Simulation time: 00 hr 04 min 44 sec)
Heartbeat CPU 0 instructions: 53500351 cycles: 24459485 heartbeat IPC: 0.3485 cumulative IPC: 0.343 (Simulation time: 00 hr 04 min 53 sec)
Heartbeat CPU 0 instructions: 54000358 cycles: 25934854 heartbeat IPC: 0.3389 cumulative IPC: 0.3425 (Simulation time: 00 hr 05 min 03 sec)
Heartbeat CPU 0 instructions: 54500358 cycles: 27368510 heartbeat IPC: 0.3488 cumulative IPC: 0.3432 (Simulation time: 00 hr 05 min 12 sec)
Heartbeat CPU 0 instructions: 55000358 cycles: 28848602 heartbeat IPC: 0.3378 cumulative IPC: 0.3427 (Simulation time: 00 hr 05 min 21 sec)
Heartbeat CPU 0 instructions: 55500365 cycles: 30267331 heartbeat IPC: 0.3524 cumulative IPC: 0.3435 (Simulation time: 00 hr 05 min 30 sec)
Heartbeat CPU 0 instructions: 56000368 cycles: 31678578 heartbeat IPC: 0.3543 cumulative IPC: 0.3444 (Simulation time: 00 hr 05 min 39 sec)
Heartbeat CPU 0 instructions: 56500374 cycles: 33070157 heartbeat IPC: 0.3593 cumulative IPC: 0.3455 (Simulation time: 00 hr 05 min 48 sec)
Heartbeat CPU 0 instructions: 57000379 cycles: 34489852 heartbeat IPC: 0.3522 cumulative IPC: 0.346 (Simulation time: 00 hr 05 min 57 sec)
Heartbeat CPU 0 instructions: 57500386 cycles: 35906272 heartbeat IPC: 0.353 cumulative IPC: 0.3464 (Simulation time: 00 hr 06 min 06 sec)
Heartbeat CPU 0 instructions: 58000386 cycles: 37301766 heartbeat IPC: 0.3583 cumulative IPC: 0.3471 (Simulation time: 00 hr 06 min 15 sec)
Heartbeat CPU 0 instructions: 58500387 cycles: 38676671 heartbeat IPC: 0.3637 cumulative IPC: 0.3481 (Simulation time: 00 hr 06 min 24 sec)
Heartbeat CPU 0 instructions: 59000392 cycles: 40136891 heartbeat IPC: 0.3424 cumulative IPC: 0.3478 (Simulation time: 00 hr 06 min 33 sec)
Heartbeat CPU 0 instructions: 59500397 cycles: 41580473 heartbeat IPC: 0.3464 cumulative IPC: 0.3477 (Simulation time: 00 hr 06 min 42 sec)
Heartbeat CPU 0 instructions: 60000397 cycles: 42990173 heartbeat IPC: 0.3547 cumulative IPC: 0.348 (Simulation time: 00 hr 06 min 51 sec)
Heartbeat CPU 0 instructions: 60500400 cycles: 44422628 heartbeat IPC: 0.3491 cumulative IPC: 0.3481 (Simulation time: 00 hr 07 min 00 sec)
Heartbeat CPU 0 instructions: 61000404 cycles: 45778310 heartbeat IPC: 0.3688 cumulative IPC: 0.349 (Simulation time: 00 hr 07 min 09 sec)
Heartbeat CPU 0 instructions: 61500409 cycles: 47110541 heartbeat IPC: 0.3753 cumulative IPC: 0.35 (Simulation time: 00 hr 07 min 17 sec)
Heartbeat CPU 0 instructions: 62000416 cycles: 48836600 heartbeat IPC: 0.2897 cumulative IPC: 0.347 (Simulation time: 00 hr 07 min 28 sec)
Heartbeat CPU 0 instructions: 62500416 cycles: 50460552 heartbeat IPC: 0.3079 cumulative IPC: 0.3453 (Simulation time: 00 hr 07 min 38 sec)
Heartbeat CPU 0 instructions: 63000416 cycles: 52061254 heartbeat IPC: 0.3124 cumulative IPC: 0.3439 (Simulation time: 00 hr 07 min 48 sec)
Heartbeat CPU 0 instructions: 63500419 cycles: 53649742 heartbeat IPC: 0.3148 cumulative IPC: 0.3427 (Simulation time: 00 hr 07 min 58 sec)
Heartbeat CPU 0 instructions: 64000422 cycles: 55246193 heartbeat IPC: 0.3132 cumulative IPC: 0.3416 (Simulation time: 00 hr 08 min 08 sec)
Heartbeat CPU 0 instructions: 64500425 cycles: 56851613 heartbeat IPC: 0.3114 cumulative IPC: 0.3404 (Simulation time: 00 hr 08 min 18 sec)
Heartbeat CPU 0 instructions: 65000425 cycles: 58398673 heartbeat IPC: 0.3232 cumulative IPC: 0.3398 (Simulation time: 00 hr 08 min 28 sec)
Heartbeat CPU 0 instructions: 65500425 cycles: 60001060 heartbeat IPC: 0.312 cumulative IPC: 0.3388 (Simulation time: 00 hr 08 min 38 sec)
Heartbeat CPU 0 instructions: 66000425 cycles: 61571256 heartbeat IPC: 0.3184 cumulative IPC: 0.3382 (Simulation time: 00 hr 08 min 48 sec)
Heartbeat CPU 0 instructions: 66500426 cycles: 63187652 heartbeat IPC: 0.3093 cumulative IPC: 0.3372 (Simulation time: 00 hr 08 min 58 sec)
Heartbeat CPU 0 instructions: 67000429 cycles: 64786919 heartbeat IPC: 0.3126 cumulative IPC: 0.3364 (Simulation time: 00 hr 09 min 08 sec)
Heartbeat CPU 0 instructions: 67500430 cycles: 66375732 heartbeat IPC: 0.3147 cumulative IPC: 0.3358 (Simulation time: 00 hr 09 min 18 sec)
Heartbeat CPU 0 instructions: 68000432 cycles: 67975443 heartbeat IPC: 0.3126 cumulative IPC: 0.3351 (Simulation time: 00 hr 09 min 28 sec)
Heartbeat CPU 0 instructions: 68500438 cycles: 69535877 heartbeat IPC: 0.3204 cumulative IPC: 0.3347 (Simulation time: 00 hr 09 min 38 sec)
Heartbeat CPU 0 instructions: 69000438 cycles: 71097847 heartbeat IPC: 0.3201 cumulative IPC: 0.3343 (Simulation time: 00 hr 09 min 48 sec)
Heartbeat CPU 0 instructions: 69500444 cycles: 72632490 heartbeat IPC: 0.3258 cumulative IPC: 0.334 (Simulation time: 00 hr 09 min 58 sec)
Heartbeat CPU 0 instructions: 70000444 cycles: 74209672 heartbeat IPC: 0.317 cumulative IPC: 0.3336 (Simulation time: 00 hr 10 min 08 sec)
Heartbeat CPU 0 instructions: 70500444 cycles: 75810281 heartbeat IPC: 0.3124 cumulative IPC: 0.333 (Simulation time: 00 hr 10 min 18 sec)
Heartbeat CPU 0 instructions: 71000450 cycles: 77363051 heartbeat IPC: 0.322 cumulative IPC: 0.3328 (Simulation time: 00 hr 10 min 28 sec)
Heartbeat CPU 0 instructions: 71500451 cycles: 78912483 heartbeat IPC: 0.3227 cumulative IPC: 0.3325 (Simulation time: 00 hr 10 min 37 sec)
Heartbeat CPU 0 instructions: 72000454 cycles: 80487267 heartbeat IPC: 0.3175 cumulative IPC: 0.3322 (Simulation time: 00 hr 10 min 47 sec)
Heartbeat CPU 0 instructions: 72500460 cycles: 82014708 heartbeat IPC: 0.3273 cumulative IPC: 0.3321 (Simulation time: 00 hr 10 min 57 sec)
Heartbeat CPU 0 instructions: 73000464 cycles: 83539980 heartbeat IPC: 0.3278 cumulative IPC: 0.332 (Simulation time: 00 hr 11 min 07 sec)
Heartbeat CPU 0 instructions: 73500467 cycles: 85076316 heartbeat IPC: 0.3255 cumulative IPC: 0.3318 (Simulation time: 00 hr 11 min 16 sec)
Heartbeat CPU 0 instructions: 74000467 cycles: 86572771 heartbeat IPC: 0.3341 cumulative IPC: 0.3319 (Simulation time: 00 hr 11 min 26 sec)
Heartbeat CPU 0 instructions: 74500469 cycles: 88123342 heartbeat IPC: 0.3225 cumulative IPC: 0.3317 (Simulation time: 00 hr 11 min 36 sec)
Heartbeat CPU 0 instructions: 75000476 cycles: 89627028 heartbeat IPC: 0.3325 cumulative IPC: 0.3317 (Simulation time: 00 hr 11 min 45 sec)
Heartbeat CPU 0 instructions: 75500476 cycles: 91159976 heartbeat IPC: 0.3262 cumulative IPC: 0.3316 (Simulation time: 00 hr 11 min 55 sec)
Heartbeat CPU 0 instructions: 76000479 cycles: 92683127 heartbeat IPC: 0.3283 cumulative IPC: 0.3315 (Simulation time: 00 hr 12 min 05 sec)
Heartbeat CPU 0 instructions: 76500481 cycles: 94222156 heartbeat IPC: 0.3249 cumulative IPC: 0.3314 (Simulation time: 00 hr 12 min 14 sec)
Heartbeat CPU 0 instructions: 77000485 cycles: 95746447 heartbeat IPC: 0.328 cumulative IPC: 0.3313 (Simulation time: 00 hr 12 min 24 sec)
Heartbeat CPU 0 instructions: 77500486 cycles: 97296064 heartbeat IPC: 0.3227 cumulative IPC: 0.3312 (Simulation time: 00 hr 12 min 34 sec)
Heartbeat CPU 0 instructions: 78000488 cycles: 98819546 heartbeat IPC: 0.3282 cumulative IPC: 0.3311 (Simulation time: 00 hr 12 min 43 sec)
Heartbeat CPU 0 instructions: 78500489 cycles: 100406486 heartbeat IPC: 0.3151 cumulative IPC: 0.3308 (Simulation time: 00 hr 12 min 53 sec)
Heartbeat CPU 0 instructions: 79000490 cycles: 101920864 heartbeat IPC: 0.3302 cumulative IPC: 0.3308 (Simulation time: 00 hr 13 min 03 sec)
Heartbeat CPU 0 instructions: 79500490 cycles: 103475847 heartbeat IPC: 0.3215 cumulative IPC: 0.3306 (Simulation time: 00 hr 13 min 13 sec)
Heartbeat CPU 0 instructions: 80000490 cycles: 105022097 heartbeat IPC: 0.3234 cumulative IPC: 0.3305 (Simulation time: 00 hr 13 min 23 sec)
Heartbeat CPU 0 instructions: 80500495 cycles: 106586900 heartbeat IPC: 0.3195 cumulative IPC: 0.3303 (Simulation time: 00 hr 13 min 33 sec)
Heartbeat CPU 0 instructions: 81000495 cycles: 108095487 heartbeat IPC: 0.3314 cumulative IPC: 0.3304 (Simulation time: 00 hr 13 min 42 sec)
Heartbeat CPU 0 instructions: 81500499 cycles: 109646623 heartbeat IPC: 0.3223 cumulative IPC: 0.3302 (Simulation time: 00 hr 13 min 52 sec)
Heartbeat CPU 0 instructions: 82000500 cycles: 111191324 heartbeat IPC: 0.3237 cumulative IPC: 0.3301 (Simulation time: 00 hr 14 min 02 sec)
Heartbeat CPU 0 instructions: 82500500 cycles: 112676796 heartbeat IPC: 0.3366 cumulative IPC: 0.3302 (Simulation time: 00 hr 14 min 11 sec)
Heartbeat CPU 0 instructions: 83000501 cycles: 114217712 heartbeat IPC: 0.3245 cumulative IPC: 0.3301 (Simulation time: 00 hr 14 min 21 sec)
Heartbeat CPU 0 instructions: 83500506 cycles: 115767760 heartbeat IPC: 0.3226 cumulative IPC: 0.33 (Simulation time: 00 hr 14 min 31 sec)
Heartbeat CPU 0 instructions: 84000510 cycles: 117288260 heartbeat IPC: 0.3288 cumulative IPC: 0.33 (Simulation time: 00 hr 14 min 40 sec)
Heartbeat CPU 0 instructions: 84500512 cycles: 118764332 heartbeat IPC: 0.3387 cumulative IPC: 0.3301 (Simulation time: 00 hr 14 min 50 sec)
Heartbeat CPU 0 instructions: 85000513 cycles: 120270755 heartbeat IPC: 0.3319 cumulative IPC: 0.3301 (Simulation time: 00 hr 14 min 59 sec)
Heartbeat CPU 0 instructions: 85500519 cycles: 121778216 heartbeat IPC: 0.3317 cumulative IPC: 0.3302 (Simulation time: 00 hr 15 min 09 sec)
Heartbeat CPU 0 instructions: 86000521 cycles: 123247449 heartbeat IPC: 0.3403 cumulative IPC: 0.3303 (Simulation time: 00 hr 15 min 18 sec)
Heartbeat CPU 0 instructions: 86500528 cycles: 124765795 heartbeat IPC: 0.3293 cumulative IPC: 0.3303 (Simulation time: 00 hr 15 min 28 sec)
Heartbeat CPU 0 instructions: 87000529 cycles: 126318767 heartbeat IPC: 0.322 cumulative IPC: 0.3302 (Simulation time: 00 hr 15 min 38 sec)
Heartbeat CPU 0 instructions: 87500529 cycles: 127762922 heartbeat IPC: 0.3462 cumulative IPC: 0.3304 (Simulation time: 00 hr 15 min 47 sec)
Heartbeat CPU 0 instructions: 88000530 cycles: 129301569 heartbeat IPC: 0.325 cumulative IPC: 0.3303 (Simulation time: 00 hr 15 min 57 sec)
Heartbeat CPU 0 instructions: 88500534 cycles: 130775091 heartbeat IPC: 0.3393 cumulative IPC: 0.3304 (Simulation time: 00 hr 16 min 06 sec)
Heartbeat CPU 0 instructions: 89000541 cycles: 132305019 heartbeat IPC: 0.3268 cumulative IPC: 0.3304 (Simulation time: 00 hr 16 min 16 sec)
Heartbeat CPU 0 instructions: 89500541 cycles: 133801723 heartbeat IPC: 0.3341 cumulative IPC: 0.3304 (Simulation time: 00 hr 16 min 25 sec)
Heartbeat CPU 0 instructions: 90000547 cycles: 135307399 heartbeat IPC: 0.3321 cumulative IPC: 0.3304 (Simulation time: 00 hr 16 min 35 sec)
Heartbeat CPU 0 instructions: 90500548 cycles: 136809955 heartbeat IPC: 0.3328 cumulative IPC: 0.3305 (Simulation time: 00 hr 16 min 44 sec)
Heartbeat CPU 0 instructions: 91000551 cycles: 138288801 heartbeat IPC: 0.3381 cumulative IPC: 0.3306 (Simulation time: 00 hr 16 min 53 sec)
Heartbeat CPU 0 instructions: 91500555 cycles: 139802487 heartbeat IPC: 0.3303 cumulative IPC: 0.3306 (Simulation time: 00 hr 17 min 03 sec)
Heartbeat CPU 0 instructions: 92000561 cycles: 141276704 heartbeat IPC: 0.3392 cumulative IPC: 0.3307 (Simulation time: 00 hr 17 min 12 sec)
Heartbeat CPU 0 instructions: 92500564 cycles: 142763132 heartbeat IPC: 0.3364 cumulative IPC: 0.3307 (Simulation time: 00 hr 17 min 22 sec)
Heartbeat CPU 0 instructions: 93000568 cycles: 144301652 heartbeat IPC: 0.325 cumulative IPC: 0.3307 (Simulation time: 00 hr 17 min 31 sec)
Heartbeat CPU 0 instructions: 93500573 cycles: 145824499 heartbeat IPC: 0.3283 cumulative IPC: 0.3306 (Simulation time: 00 hr 17 min 41 sec)
Heartbeat CPU 0 instructions: 94000574 cycles: 147331701 heartbeat IPC: 0.3317 cumulative IPC: 0.3306 (Simulation time: 00 hr 17 min 51 sec)
Heartbeat CPU 0 instructions: 94500580 cycles: 148851578 heartbeat IPC: 0.329 cumulative IPC: 0.3306 (Simulation time: 00 hr 18 min 00 sec)
Heartbeat CPU 0 instructions: 95000580 cycles: 150374505 heartbeat IPC: 0.3283 cumulative IPC: 0.3306 (Simulation time: 00 hr 18 min 10 sec)
Heartbeat CPU 0 instructions: 95500587 cycles: 151924176 heartbeat IPC: 0.3227 cumulative IPC: 0.3305 (Simulation time: 00 hr 18 min 19 sec)
Heartbeat CPU 0 instructions: 96000594 cycles: 153471210 heartbeat IPC: 0.3232 cumulative IPC: 0.3304 (Simulation time: 00 hr 18 min 29 sec)
Heartbeat CPU 0 instructions: 96500598 cycles: 154981773 heartbeat IPC: 0.331 cumulative IPC: 0.3304 (Simulation time: 00 hr 18 min 39 sec)
Heartbeat CPU 0 instructions: 97000600 cycles: 156491983 heartbeat IPC: 0.3311 cumulative IPC: 0.3304 (Simulation time: 00 hr 18 min 48 sec)
Heartbeat CPU 0 instructions: 97500600 cycles: 157991584 heartbeat IPC: 0.3334 cumulative IPC: 0.3305 (Simulation time: 00 hr 18 min 57 sec)
Heartbeat CPU 0 instructions: 98000600 cycles: 159522885 heartbeat IPC: 0.3265 cumulative IPC: 0.3304 (Simulation time: 00 hr 19 min 07 sec)
Heartbeat CPU 0 instructions: 98500607 cycles: 161082546 heartbeat IPC: 0.3206 cumulative IPC: 0.3303 (Simulation time: 00 hr 19 min 17 sec)
Heartbeat CPU 0 instructions: 99000608 cycles: 162557306 heartbeat IPC: 0.339 cumulative IPC: 0.3304 (Simulation time: 00 hr 19 min 26 sec)
Heartbeat CPU 0 instructions: 99500611 cycles: 164045025 heartbeat IPC: 0.3361 cumulative IPC: 0.3305 (Simulation time: 00 hr 19 min 35 sec)
Heartbeat CPU 0 instructions: 100000616 cycles: 165533141 heartbeat IPC: 0.336 cumulative IPC: 0.3305 (Simulation time: 00 hr 19 min 44 sec)
Heartbeat CPU 0 instructions: 100500617 cycles: 167006475 heartbeat IPC: 0.3394 cumulative IPC: 0.3306 (Simulation time: 00 hr 19 min 54 sec)
Heartbeat CPU 0 instructions: 101000619 cycles: 168484357 heartbeat IPC: 0.3383 cumulative IPC: 0.3307 (Simulation time: 00 hr 20 min 03 sec)
Heartbeat CPU 0 instructions: 101500620 cycles: 169942418 heartbeat IPC: 0.3429 cumulative IPC: 0.3308 (Simulation time: 00 hr 20 min 12 sec)
Heartbeat CPU 0 instructions: 102000625 cycles: 171434178 heartbeat IPC: 0.3352 cumulative IPC: 0.3308 (Simulation time: 00 hr 20 min 21 sec)
Heartbeat CPU 0 instructions: 102500629 cycles: 172932452 heartbeat IPC: 0.3337 cumulative IPC: 0.3309 (Simulation time: 00 hr 20 min 31 sec)
Heartbeat CPU 0 instructions: 103000629 cycles: 174397407 heartbeat IPC: 0.3413 cumulative IPC: 0.331 (Simulation time: 00 hr 20 min 40 sec)
Heartbeat CPU 0 instructions: 103500632 cycles: 175901820 heartbeat IPC: 0.3324 cumulative IPC: 0.331 (Simulation time: 00 hr 20 min 49 sec)
Heartbeat CPU 0 instructions: 104000638 cycles: 177432920 heartbeat IPC: 0.3266 cumulative IPC: 0.3309 (Simulation time: 00 hr 20 min 58 sec)
Heartbeat CPU 0 instructions: 104500640 cycles: 178965534 heartbeat IPC: 0.3262 cumulative IPC: 0.3309 (Simulation time: 00 hr 21 min 08 sec)
Heartbeat CPU 0 instructions: 105000644 cycles: 180490020 heartbeat IPC: 0.328 cumulative IPC: 0.3309 (Simulation time: 00 hr 21 min 17 sec)
Heartbeat CPU 0 instructions: 105500650 cycles: 181995272 heartbeat IPC: 0.3322 cumulative IPC: 0.3309 (Simulation time: 00 hr 21 min 27 sec)
Heartbeat CPU 0 instructions: 106000654 cycles: 183449971 heartbeat IPC: 0.3437 cumulative IPC: 0.331 (Simulation time: 00 hr 21 min 36 sec)
Heartbeat CPU 0 instructions: 106500655 cycles: 184969474 heartbeat IPC: 0.3291 cumulative IPC: 0.331 (Simulation time: 00 hr 21 min 45 sec)
Heartbeat CPU 0 instructions: 107000659 cycles: 186491246 heartbeat IPC: 0.3286 cumulative IPC: 0.3309 (Simulation time: 00 hr 21 min 55 sec)
Heartbeat CPU 0 instructions: 107500660 cycles: 188002617 heartbeat IPC: 0.3308 cumulative IPC: 0.3309 (Simulation time: 00 hr 22 min 04 sec)
Heartbeat CPU 0 instructions: 108000660 cycles: 189483147 heartbeat IPC: 0.3377 cumulative IPC: 0.331 (Simulation time: 00 hr 22 min 13 sec)
Heartbeat CPU 0 instructions: 108500667 cycles: 190967131 heartbeat IPC: 0.3369 cumulative IPC: 0.3311 (Simulation time: 00 hr 22 min 22 sec)
Heartbeat CPU 0 instructions: 109000667 cycles: 192478704 heartbeat IPC: 0.3308 cumulative IPC: 0.331 (Simulation time: 00 hr 22 min 32 sec)
Heartbeat CPU 0 instructions: 109500667 cycles: 193951626 heartbeat IPC: 0.3395 cumulative IPC: 0.3311 (Simulation time: 00 hr 22 min 41 sec)
Heartbeat CPU 0 instructions: 110000669 cycles: 195404392 heartbeat IPC: 0.3442 cumulative IPC: 0.3312 (Simulation time: 00 hr 22 min 49 sec)
Heartbeat CPU 0 instructions: 110500670 cycles: 196902370 heartbeat IPC: 0.3338 cumulative IPC: 0.3312 (Simulation time: 00 hr 22 min 59 sec)
Heartbeat CPU 0 instructions: 111000675 cycles: 198353566 heartbeat IPC: 0.3445 cumulative IPC: 0.3313 (Simulation time: 00 hr 23 min 08 sec)
Heartbeat CPU 0 instructions: 111500679 cycles: 199859158 heartbeat IPC: 0.3321 cumulative IPC: 0.3314 (Simulation time: 00 hr 23 min 17 sec)
Heartbeat CPU 0 instructions: 112000686 cycles: 201362289 heartbeat IPC: 0.3326 cumulative IPC: 0.3314 (Simulation time: 00 hr 23 min 26 sec)
Heartbeat CPU 0 instructions: 112500690 cycles: 202830195 heartbeat IPC: 0.3406 cumulative IPC: 0.3314 (Simulation time: 00 hr 23 min 35 sec)
Heartbeat CPU 0 instructions: 113000691 cycles: 204300197 heartbeat IPC: 0.3401 cumulative IPC: 0.3315 (Simulation time: 00 hr 23 min 43 sec)
Heartbeat CPU 0 instructions: 113500692 cycles: 205800930 heartbeat IPC: 0.3332 cumulative IPC: 0.3315 (Simulation time: 00 hr 23 min 53 sec)
Heartbeat CPU 0 instructions: 114000693 cycles: 207254722 heartbeat IPC: 0.3439 cumulative IPC: 0.3316 (Simulation time: 00 hr 24 min 01 sec)
Heartbeat CPU 0 instructions: 114500698 cycles: 208746530 heartbeat IPC: 0.3352 cumulative IPC: 0.3316 (Simulation time: 00 hr 24 min 10 sec)
Heartbeat CPU 0 instructions: 115000700 cycles: 210252664 heartbeat IPC: 0.332 cumulative IPC: 0.3316 (Simulation time: 00 hr 24 min 19 sec)
Heartbeat CPU 0 instructions: 115500702 cycles: 211740756 heartbeat IPC: 0.336 cumulative IPC: 0.3317 (Simulation time: 00 hr 24 min 28 sec)
Heartbeat CPU 0 instructions: 116000709 cycles: 213224525 heartbeat IPC: 0.337 cumulative IPC: 0.3317 (Simulation time: 00 hr 24 min 37 sec)
Heartbeat CPU 0 instructions: 116500715 cycles: 214759703 heartbeat IPC: 0.3257 cumulative IPC: 0.3317 (Simulation time: 00 hr 24 min 47 sec)
Heartbeat CPU 0 instructions: 117000718 cycles: 216237725 heartbeat IPC: 0.3383 cumulative IPC: 0.3317 (Simulation time: 00 hr 24 min 56 sec)
Heartbeat CPU 0 instructions: 117500720 cycles: 217721086 heartbeat IPC: 0.3371 cumulative IPC: 0.3318 (Simulation time: 00 hr 25 min 05 sec)
Heartbeat CPU 0 instructions: 118000721 cycles: 219225393 heartbeat IPC: 0.3324 cumulative IPC: 0.3318 (Simulation time: 00 hr 25 min 14 sec)
Heartbeat CPU 0 instructions: 118500721 cycles: 220735252 heartbeat IPC: 0.3312 cumulative IPC: 0.3318 (Simulation time: 00 hr 25 min 23 sec)
Heartbeat CPU 0 instructions: 119000723 cycles: 222232369 heartbeat IPC: 0.334 cumulative IPC: 0.3318 (Simulation time: 00 hr 25 min 32 sec)
Heartbeat CPU 0 instructions: 119500724 cycles: 223733808 heartbeat IPC: 0.333 cumulative IPC: 0.3318 (Simulation time: 00 hr 25 min 41 sec)
Heartbeat CPU 0 instructions: 120000730 cycles: 225288271 heartbeat IPC: 0.3217 cumulative IPC: 0.3317 (Simulation time: 00 hr 25 min 50 sec)
Heartbeat CPU 0 instructions: 120500733 cycles: 226807456 heartbeat IPC: 0.3291 cumulative IPC: 0.3317 (Simulation time: 00 hr 25 min 59 sec)
Heartbeat CPU 0 instructions: 121000737 cycles: 228264894 heartbeat IPC: 0.3431 cumulative IPC: 0.3318 (Simulation time: 00 hr 26 min 08 sec)
Heartbeat CPU 0 instructions: 121500737 cycles: 229760456 heartbeat IPC: 0.3343 cumulative IPC: 0.3318 (Simulation time: 00 hr 26 min 17 sec)
Heartbeat CPU 0 instructions: 122000742 cycles: 231281826 heartbeat IPC: 0.3287 cumulative IPC: 0.3318 (Simulation time: 00 hr 26 min 26 sec)
Heartbeat CPU 0 instructions: 122500748 cycles: 232736834 heartbeat IPC: 0.3436 cumulative IPC: 0.3318 (Simulation time: 00 hr 26 min 35 sec)
Heartbeat CPU 0 instructions: 123000749 cycles: 234257504 heartbeat IPC: 0.3288 cumulative IPC: 0.3318 (Simulation time: 00 hr 26 min 44 sec)
Heartbeat CPU 0 instructions: 123500749 cycles: 235701546 heartbeat IPC: 0.3463 cumulative IPC: 0.3319 (Simulation time: 00 hr 26 min 53 sec)
Heartbeat CPU 0 instructions: 124000754 cycles: 237202535 heartbeat IPC: 0.3331 cumulative IPC: 0.3319 (Simulation time: 00 hr 27 min 02 sec)
Heartbeat CPU 0 instructions: 124500754 cycles: 238623155 heartbeat IPC: 0.352 cumulative IPC: 0.332 (Simulation time: 00 hr 27 min 11 sec)
Heartbeat CPU 0 instructions: 125000754 cycles: 240095744 heartbeat IPC: 0.3395 cumulative IPC: 0.3321 (Simulation time: 00 hr 27 min 19 sec)
Heartbeat CPU 0 instructions: 125500760 cycles: 241608188 heartbeat IPC: 0.3306 cumulative IPC: 0.3321 (Simulation time: 00 hr 27 min 28 sec)
Heartbeat CPU 0 instructions: 126000766 cycles: 243060035 heartbeat IPC: 0.3444 cumulative IPC: 0.3322 (Simulation time: 00 hr 27 min 37 sec)
Heartbeat CPU 0 instructions: 126500766 cycles: 244545952 heartbeat IPC: 0.3365 cumulative IPC: 0.3322 (Simulation time: 00 hr 27 min 46 sec)
Heartbeat CPU 0 instructions: 127000766 cycles: 245990321 heartbeat IPC: 0.3462 cumulative IPC: 0.3323 (Simulation time: 00 hr 27 min 55 sec)
Heartbeat CPU 0 instructions: 127500768 cycles: 247458342 heartbeat IPC: 0.3406 cumulative IPC: 0.3323 (Simulation time: 00 hr 28 min 03 sec)
Heartbeat CPU 0 instructions: 128000775 cycles: 248916069 heartbeat IPC: 0.343 cumulative IPC: 0.3324 (Simulation time: 00 hr 28 min 12 sec)
Heartbeat CPU 0 instructions: 128500778 cycles: 250390396 heartbeat IPC: 0.3391 cumulative IPC: 0.3324 (Simulation time: 00 hr 28 min 21 sec)
Heartbeat CPU 0 instructions: 129000781 cycles: 251825885 heartbeat IPC: 0.3483 cumulative IPC: 0.3325 (Simulation time: 00 hr 28 min 30 sec)
Heartbeat CPU 0 instructions: 129500786 cycles: 253297827 heartbeat IPC: 0.3397 cumulative IPC: 0.3326 (Simulation time: 00 hr 28 min 38 sec)
Heartbeat CPU 0 instructions: 130000789 cycles: 254790995 heartbeat IPC: 0.3349 cumulative IPC: 0.3326 (Simulation time: 00 hr 28 min 47 sec)
Heartbeat CPU 0 instructions: 130500790 cycles: 256294183 heartbeat IPC: 0.3326 cumulative IPC: 0.3326 (Simulation time: 00 hr 28 min 56 sec)
Heartbeat CPU 0 instructions: 131000794 cycles: 257778713 heartbeat IPC: 0.3368 cumulative IPC: 0.3326 (Simulation time: 00 hr 29 min 05 sec)
Heartbeat CPU 0 instructions: 131500794 cycles: 259243388 heartbeat IPC: 0.3414 cumulative IPC: 0.3327 (Simulation time: 00 hr 29 min 14 sec)
Heartbeat CPU 0 instructions: 132000794 cycles: 260763089 heartbeat IPC: 0.329 cumulative IPC: 0.3327 (Simulation time: 00 hr 29 min 23 sec)
Heartbeat CPU 0 instructions: 132500795 cycles: 262280387 heartbeat IPC: 0.3295 cumulative IPC: 0.3326 (Simulation time: 00 hr 29 min 32 sec)
Heartbeat CPU 0 instructions: 133000795 cycles: 263757218 heartbeat IPC: 0.3386 cumulative IPC: 0.3327 (Simulation time: 00 hr 29 min 40 sec)
Heartbeat CPU 0 instructions: 133500795 cycles: 265213577 heartbeat IPC: 0.3433 cumulative IPC: 0.3327 (Simulation time: 00 hr 29 min 49 sec)
Heartbeat CPU 0 instructions: 134000799 cycles: 266725341 heartbeat IPC: 0.3307 cumulative IPC: 0.3327 (Simulation time: 00 hr 29 min 58 sec)
Heartbeat CPU 0 instructions: 134500799 cycles: 268244268 heartbeat IPC: 0.3292 cumulative IPC: 0.3327 (Simulation time: 00 hr 30 min 07 sec)
Heartbeat CPU 0 instructions: 135000801 cycles: 269723494 heartbeat IPC: 0.338 cumulative IPC: 0.3327 (Simulation time: 00 hr 30 min 16 sec)
Heartbeat CPU 0 instructions: 135500806 cycles: 271202035 heartbeat IPC: 0.3382 cumulative IPC: 0.3328 (Simulation time: 00 hr 30 min 24 sec)
Heartbeat CPU 0 instructions: 136000807 cycles: 272681372 heartbeat IPC: 0.338 cumulative IPC: 0.3328 (Simulation time: 00 hr 30 min 33 sec)
Heartbeat CPU 0 instructions: 136500813 cycles: 274183700 heartbeat IPC: 0.3328 cumulative IPC: 0.3328 (Simulation time: 00 hr 30 min 42 sec)
Heartbeat CPU 0 instructions: 137000814 cycles: 275698130 heartbeat IPC: 0.3302 cumulative IPC: 0.3328 (Simulation time: 00 hr 30 min 51 sec)
Heartbeat CPU 0 instructions: 137500821 cycles: 277193189 heartbeat IPC: 0.3344 cumulative IPC: 0.3328 (Simulation time: 00 hr 30 min 59 sec)
Heartbeat CPU 0 instructions: 138000824 cycles: 278693224 heartbeat IPC: 0.3333 cumulative IPC: 0.3328 (Simulation time: 00 hr 31 min 08 sec)
Heartbeat CPU 0 instructions: 138500828 cycles: 280173349 heartbeat IPC: 0.3378 cumulative IPC: 0.3328 (Simulation time: 00 hr 31 min 17 sec)
Heartbeat CPU 0 instructions: 139000834 cycles: 281609533 heartbeat IPC: 0.3481 cumulative IPC: 0.3329 (Simulation time: 00 hr 31 min 25 sec)
Heartbeat CPU 0 instructions: 139500835 cycles: 283061367 heartbeat IPC: 0.3444 cumulative IPC: 0.333 (Simulation time: 00 hr 31 min 34 sec)
Heartbeat CPU 0 instructions: 140000837 cycles: 284522708 heartbeat IPC: 0.3422 cumulative IPC: 0.333 (Simulation time: 00 hr 31 min 42 sec)
Heartbeat CPU 0 instructions: 140500840 cycles: 285998675 heartbeat IPC: 0.3388 cumulative IPC: 0.333 (Simulation time: 00 hr 31 min 51 sec)
Heartbeat CPU 0 instructions: 141000843 cycles: 287517455 heartbeat IPC: 0.3292 cumulative IPC: 0.333 (Simulation time: 00 hr 32 min 00 sec)
Heartbeat CPU 0 instructions: 141500844 cycles: 288980925 heartbeat IPC: 0.3417 cumulative IPC: 0.3331 (Simulation time: 00 hr 32 min 08 sec)
Heartbeat CPU 0 instructions: 142000846 cycles: 290462718 heartbeat IPC: 0.3374 cumulative IPC: 0.3331 (Simulation time: 00 hr 32 min 17 sec)
Heartbeat CPU 0 instructions: 142500849 cycles: 291944552 heartbeat IPC: 0.3374 cumulative IPC: 0.3331 (Simulation time: 00 hr 32 min 25 sec)
Heartbeat CPU 0 instructions: 143000854 cycles: 293442551 heartbeat IPC: 0.3338 cumulative IPC: 0.3331 (Simulation time: 00 hr 32 min 34 sec)
Heartbeat CPU 0 instructions: 143500860 cycles: 294947420 heartbeat IPC: 0.3323 cumulative IPC: 0.3331 (Simulation time: 00 hr 32 min 43 sec)
Heartbeat CPU 0 instructions: 144000867 cycles: 296402644 heartbeat IPC: 0.3436 cumulative IPC: 0.3332 (Simulation time: 00 hr 32 min 51 sec)
Heartbeat CPU 0 instructions: 144500867 cycles: 297805685 heartbeat IPC: 0.3564 cumulative IPC: 0.3333 (Simulation time: 00 hr 33 min 00 sec)
Heartbeat CPU 0 instructions: 145000870 cycles: 299217348 heartbeat IPC: 0.3542 cumulative IPC: 0.3334 (Simulation time: 00 hr 33 min 08 sec)
Heartbeat CPU 0 instructions: 145500870 cycles: 300650725 heartbeat IPC: 0.3488 cumulative IPC: 0.3335 (Simulation time: 00 hr 33 min 16 sec)
Heartbeat CPU 0 instructions: 146000871 cycles: 302075465 heartbeat IPC: 0.3509 cumulative IPC: 0.3335 (Simulation time: 00 hr 33 min 24 sec)
Heartbeat CPU 0 instructions: 146500871 cycles: 303506048 heartbeat IPC: 0.3495 cumulative IPC: 0.3336 (Simulation time: 00 hr 33 min 33 sec)
Heartbeat CPU 0 instructions: 147000878 cycles: 304987384 heartbeat IPC: 0.3375 cumulative IPC: 0.3336 (Simulation time: 00 hr 33 min 41 sec)
Heartbeat CPU 0 instructions: 147500881 cycles: 306457107 heartbeat IPC: 0.3402 cumulative IPC: 0.3337 (Simulation time: 00 hr 33 min 50 sec)
Heartbeat CPU 0 instructions: 148000882 cycles: 307930533 heartbeat IPC: 0.3393 cumulative IPC: 0.3337 (Simulation time: 00 hr 33 min 58 sec)
Heartbeat CPU 0 instructions: 148500887 cycles: 309393022 heartbeat IPC: 0.3419 cumulative IPC: 0.3337 (Simulation time: 00 hr 34 min 06 sec)
Heartbeat CPU 0 instructions: 149000888 cycles: 310822128 heartbeat IPC: 0.3499 cumulative IPC: 0.3338 (Simulation time: 00 hr 34 min 15 sec)
Heartbeat CPU 0 instructions: 149500895 cycles: 312252360 heartbeat IPC: 0.3496 cumulative IPC: 0.3339 (Simulation time: 00 hr 34 min 23 sec)
Heartbeat CPU 0 instructions: 150000896 cycles: 313680267 heartbeat IPC: 0.3502 cumulative IPC: 0.334 (Simulation time: 00 hr 34 min 31 sec)
Heartbeat CPU 0 instructions: 150500898 cycles: 315154004 heartbeat IPC: 0.3393 cumulative IPC: 0.334 (Simulation time: 00 hr 34 min 40 sec)
Heartbeat CPU 0 instructions: 151000898 cycles: 316611882 heartbeat IPC: 0.343 cumulative IPC: 0.334 (Simulation time: 00 hr 34 min 48 sec)
Heartbeat CPU 0 instructions: 151500901 cycles: 318062790 heartbeat IPC: 0.3446 cumulative IPC: 0.3341 (Simulation time: 00 hr 34 min 57 sec)
Heartbeat CPU 0 instructions: 152000906 cycles: 319507178 heartbeat IPC: 0.3462 cumulative IPC: 0.3342 (Simulation time: 00 hr 35 min 05 sec)
Heartbeat CPU 0 instructions: 152500908 cycles: 320945326 heartbeat IPC: 0.3477 cumulative IPC: 0.3342 (Simulation time: 00 hr 35 min 13 sec)
Heartbeat CPU 0 instructions: 153000910 cycles: 322388029 heartbeat IPC: 0.3466 cumulative IPC: 0.3343 (Simulation time: 00 hr 35 min 21 sec)
Heartbeat CPU 0 instructions: 153500917 cycles: 323806525 heartbeat IPC: 0.3525 cumulative IPC: 0.3344 (Simulation time: 00 hr 35 min 30 sec)
Heartbeat CPU 0 instructions: 154000923 cycles: 325289218 heartbeat IPC: 0.3372 cumulative IPC: 0.3344 (Simulation time: 00 hr 35 min 38 sec)
Heartbeat CPU 0 instructions: 154500925 cycles: 326714001 heartbeat IPC: 0.3509 cumulative IPC: 0.3344 (Simulation time: 00 hr 35 min 46 sec)
Heartbeat CPU 0 instructions: 155000926 cycles: 328160812 heartbeat IPC: 0.3456 cumulative IPC: 0.3345 (Simulation time: 00 hr 35 min 55 sec)
Heartbeat CPU 0 instructions: 155500926 cycles: 329648704 heartbeat IPC: 0.336 cumulative IPC: 0.3345 (Simulation time: 00 hr 36 min 03 sec)
Heartbeat CPU 0 instructions: 156000931 cycles: 331098402 heartbeat IPC: 0.3449 cumulative IPC: 0.3346 (Simulation time: 00 hr 36 min 11 sec)
Heartbeat CPU 0 instructions: 156500938 cycles: 332563856 heartbeat IPC: 0.3412 cumulative IPC: 0.3346 (Simulation time: 00 hr 36 min 20 sec)
Heartbeat CPU 0 instructions: 157000938 cycles: 334014175 heartbeat IPC: 0.3448 cumulative IPC: 0.3346 (Simulation time: 00 hr 36 min 28 sec)
Heartbeat CPU 0 instructions: 157500944 cycles: 335499526 heartbeat IPC: 0.3366 cumulative IPC: 0.3346 (Simulation time: 00 hr 36 min 37 sec)
Heartbeat CPU 0 instructions: 158000946 cycles: 337005663 heartbeat IPC: 0.332 cumulative IPC: 0.3346 (Simulation time: 00 hr 36 min 45 sec)
Heartbeat CPU 0 instructions: 158500950 cycles: 338462718 heartbeat IPC: 0.3432 cumulative IPC: 0.3347 (Simulation time: 00 hr 36 min 53 sec)
Heartbeat CPU 0 instructions: 159000956 cycles: 339925006 heartbeat IPC: 0.3419 cumulative IPC: 0.3347 (Simulation time: 00 hr 37 min 02 sec)
Heartbeat CPU 0 instructions: 159500956 cycles: 341394282 heartbeat IPC: 0.3403 cumulative IPC: 0.3347 (Simulation time: 00 hr 37 min 10 sec)
Heartbeat CPU 0 instructions: 160000963 cycles: 342845126 heartbeat IPC: 0.3446 cumulative IPC: 0.3348 (Simulation time: 00 hr 37 min 19 sec)
Heartbeat CPU 0 instructions: 160500969 cycles: 344291432 heartbeat IPC: 0.3457 cumulative IPC: 0.3348 (Simulation time: 00 hr 37 min 27 sec)
Heartbeat CPU 0 instructions: 161000970 cycles: 345738734 heartbeat IPC: 0.3455 cumulative IPC: 0.3349 (Simulation time: 00 hr 37 min 35 sec)
Heartbeat CPU 0 instructions: 161500975 cycles: 347208129 heartbeat IPC: 0.3403 cumulative IPC: 0.3349 (Simulation time: 00 hr 37 min 44 sec)
Heartbeat CPU 0 instructions: 162000975 cycles: 348680924 heartbeat IPC: 0.3395 cumulative IPC: 0.3349 (Simulation time: 00 hr 37 min 52 sec)
Heartbeat CPU 0 instructions: 162500975 cycles: 350135816 heartbeat IPC: 0.3437 cumulative IPC: 0.3349 (Simulation time: 00 hr 38 min 00 sec)
Heartbeat CPU 0 instructions: 163000975 cycles: 351611734 heartbeat IPC: 0.3388 cumulative IPC: 0.335 (Simulation time: 00 hr 38 min 09 sec)
Heartbeat CPU 0 instructions: 163500976 cycles: 353066008 heartbeat IPC: 0.3438 cumulative IPC: 0.335 (Simulation time: 00 hr 38 min 17 sec)
Heartbeat CPU 0 instructions: 164000980 cycles: 354534555 heartbeat IPC: 0.3405 cumulative IPC: 0.335 (Simulation time: 00 hr 38 min 25 sec)
Heartbeat CPU 0 instructions: 164500982 cycles: 356013257 heartbeat IPC: 0.3381 cumulative IPC: 0.335 (Simulation time: 00 hr 38 min 33 sec)
Heartbeat CPU 0 instructions: 165000983 cycles: 357453490 heartbeat IPC: 0.3472 cumulative IPC: 0.3351 (Simulation time: 00 hr 38 min 42 sec)
Heartbeat CPU 0 instructions: 165500986 cycles: 358902647 heartbeat IPC: 0.345 cumulative IPC: 0.3351 (Simulation time: 00 hr 38 min 50 sec)
Heartbeat CPU 0 instructions: 166000987 cycles: 360325106 heartbeat IPC: 0.3515 cumulative IPC: 0.3352 (Simulation time: 00 hr 38 min 58 sec)
Heartbeat CPU 0 instructions: 166500990 cycles: 361741142 heartbeat IPC: 0.3531 cumulative IPC: 0.3353 (Simulation time: 00 hr 39 min 06 sec)
Heartbeat CPU 0 instructions: 167000997 cycles: 363209618 heartbeat IPC: 0.3405 cumulative IPC: 0.3353 (Simulation time: 00 hr 39 min 14 sec)
Heartbeat CPU 0 instructions: 167501000 cycles: 364667621 heartbeat IPC: 0.3429 cumulative IPC: 0.3353 (Simulation time: 00 hr 39 min 22 sec)
Heartbeat CPU 0 instructions: 168001000 cycles: 366128691 heartbeat IPC: 0.3422 cumulative IPC: 0.3354 (Simulation time: 00 hr 39 min 31 sec)
Heartbeat CPU 0 instructions: 168501001 cycles: 367564865 heartbeat IPC: 0.3481 cumulative IPC: 0.3354 (Simulation time: 00 hr 39 min 39 sec)
Heartbeat CPU 0 instructions: 169001002 cycles: 369040058 heartbeat IPC: 0.3389 cumulative IPC: 0.3354 (Simulation time: 00 hr 39 min 47 sec)
Heartbeat CPU 0 instructions: 169501002 cycles: 370521837 heartbeat IPC: 0.3374 cumulative IPC: 0.3354 (Simulation time: 00 hr 39 min 55 sec)
Heartbeat CPU 0 instructions: 170001002 cycles: 371970421 heartbeat IPC: 0.3452 cumulative IPC: 0.3355 (Simulation time: 00 hr 40 min 04 sec)
Heartbeat CPU 0 instructions: 170501002 cycles: 373423021 heartbeat IPC: 0.3442 cumulative IPC: 0.3355 (Simulation time: 00 hr 40 min 12 sec)
Heartbeat CPU 0 instructions: 171001008 cycles: 374901546 heartbeat IPC: 0.3382 cumulative IPC: 0.3355 (Simulation time: 00 hr 40 min 20 sec)
Heartbeat CPU 0 instructions: 171501010 cycles: 376385179 heartbeat IPC: 0.337 cumulative IPC: 0.3355 (Simulation time: 00 hr 40 min 28 sec)
Heartbeat CPU 0 instructions: 172001012 cycles: 377813706 heartbeat IPC: 0.35 cumulative IPC: 0.3356 (Simulation time: 00 hr 40 min 36 sec)
Heartbeat CPU 0 instructions: 172501017 cycles: 379286589 heartbeat IPC: 0.3395 cumulative IPC: 0.3356 (Simulation time: 00 hr 40 min 45 sec)
Heartbeat CPU 0 instructions: 173001022 cycles: 380756633 heartbeat IPC: 0.3401 cumulative IPC: 0.3356 (Simulation time: 00 hr 40 min 53 sec)
Heartbeat CPU 0 instructions: 173501022 cycles: 382240101 heartbeat IPC: 0.337 cumulative IPC: 0.3356 (Simulation time: 00 hr 41 min 01 sec)
Heartbeat CPU 0 instructions: 174001026 cycles: 383690256 heartbeat IPC: 0.3448 cumulative IPC: 0.3357 (Simulation time: 00 hr 41 min 10 sec)
Heartbeat CPU 0 instructions: 174501032 cycles: 385159539 heartbeat IPC: 0.3403 cumulative IPC: 0.3357 (Simulation time: 00 hr 41 min 18 sec)
Heartbeat CPU 0 instructions: 175001033 cycles: 386599867 heartbeat IPC: 0.3471 cumulative IPC: 0.3357 (Simulation time: 00 hr 41 min 26 sec)
Heartbeat CPU 0 instructions: 175501037 cycles: 388101984 heartbeat IPC: 0.3329 cumulative IPC: 0.3357 (Simulation time: 00 hr 41 min 34 sec)
Heartbeat CPU 0 instructions: 176001039 cycles: 389534492 heartbeat IPC: 0.349 cumulative IPC: 0.3358 (Simulation time: 00 hr 41 min 42 sec)
Heartbeat CPU 0 instructions: 176501040 cycles: 390984657 heartbeat IPC: 0.3448 cumulative IPC: 0.3358 (Simulation time: 00 hr 41 min 51 sec)
Heartbeat CPU 0 instructions: 177001044 cycles: 392471711 heartbeat IPC: 0.3362 cumulative IPC: 0.3358 (Simulation time: 00 hr 41 min 59 sec)
Heartbeat CPU 0 instructions: 177501051 cycles: 393948790 heartbeat IPC: 0.3385 cumulative IPC: 0.3358 (Simulation time: 00 hr 42 min 07 sec)
Heartbeat CPU 0 instructions: 178001058 cycles: 395392685 heartbeat IPC: 0.3463 cumulative IPC: 0.3358 (Simulation time: 00 hr 42 min 15 sec)
Heartbeat CPU 0 instructions: 178501058 cycles: 396841147 heartbeat IPC: 0.3452 cumulative IPC: 0.3359 (Simulation time: 00 hr 42 min 23 sec)
Heartbeat CPU 0 instructions: 179001058 cycles: 398276809 heartbeat IPC: 0.3483 cumulative IPC: 0.3359 (Simulation time: 00 hr 42 min 31 sec)
Heartbeat CPU 0 instructions: 179501060 cycles: 399744480 heartbeat IPC: 0.3407 cumulative IPC: 0.3359 (Simulation time: 00 hr 42 min 40 sec)
Heartbeat CPU 0 instructions: 180001065 cycles: 401203977 heartbeat IPC: 0.3426 cumulative IPC: 0.336 (Simulation time: 00 hr 42 min 48 sec)
Heartbeat CPU 0 instructions: 180501068 cycles: 402673079 heartbeat IPC: 0.3403 cumulative IPC: 0.336 (Simulation time: 00 hr 42 min 56 sec)
Heartbeat CPU 0 instructions: 181001073 cycles: 404159634 heartbeat IPC: 0.3364 cumulative IPC: 0.336 (Simulation time: 00 hr 43 min 04 sec)
Heartbeat CPU 0 instructions: 181501077 cycles: 405603347 heartbeat IPC: 0.3463 cumulative IPC: 0.336 (Simulation time: 00 hr 43 min 12 sec)
Heartbeat CPU 0 instructions: 182001078 cycles: 407079454 heartbeat IPC: 0.3387 cumulative IPC: 0.336 (Simulation time: 00 hr 43 min 21 sec)
Heartbeat CPU 0 instructions: 182501079 cycles: 408574322 heartbeat IPC: 0.3345 cumulative IPC: 0.336 (Simulation time: 00 hr 43 min 29 sec)
Heartbeat CPU 0 instructions: 183001082 cycles: 410034227 heartbeat IPC: 0.3425 cumulative IPC: 0.336 (Simulation time: 00 hr 43 min 37 sec)
Heartbeat CPU 0 instructions: 183501087 cycles: 411508210 heartbeat IPC: 0.3392 cumulative IPC: 0.3361 (Simulation time: 00 hr 43 min 45 sec)
Heartbeat CPU 0 instructions: 184001087 cycles: 412972368 heartbeat IPC: 0.3415 cumulative IPC: 0.3361 (Simulation time: 00 hr 43 min 54 sec)
Heartbeat CPU 0 instructions: 184501087 cycles: 414438311 heartbeat IPC: 0.3411 cumulative IPC: 0.3361 (Simulation time: 00 hr 44 min 02 sec)
Heartbeat CPU 0 instructions: 185001087 cycles: 415933458 heartbeat IPC: 0.3344 cumulative IPC: 0.3361 (Simulation time: 00 hr 44 min 10 sec)
Heartbeat CPU 0 instructions: 185501089 cycles: 417381261 heartbeat IPC: 0.3454 cumulative IPC: 0.3361 (Simulation time: 00 hr 44 min 18 sec)
Heartbeat CPU 0 instructions: 186001093 cycles: 418812376 heartbeat IPC: 0.3494 cumulative IPC: 0.3362 (Simulation time: 00 hr 44 min 27 sec)
Heartbeat CPU 0 instructions: 186501100 cycles: 420273845 heartbeat IPC: 0.3421 cumulative IPC: 0.3362 (Simulation time: 00 hr 44 min 35 sec)
Heartbeat CPU 0 instructions: 187001103 cycles: 421711136 heartbeat IPC: 0.3479 cumulative IPC: 0.3362 (Simulation time: 00 hr 44 min 43 sec)
Heartbeat CPU 0 instructions: 187501104 cycles: 423161102 heartbeat IPC: 0.3448 cumulative IPC: 0.3363 (Simulation time: 00 hr 44 min 51 sec)
Heartbeat CPU 0 instructions: 188001109 cycles: 424603512 heartbeat IPC: 0.3466 cumulative IPC: 0.3363 (Simulation time: 00 hr 44 min 59 sec)
Heartbeat CPU 0 instructions: 188501116 cycles: 426046813 heartbeat IPC: 0.3464 cumulative IPC: 0.3363 (Simulation time: 00 hr 45 min 07 sec)
Heartbeat CPU 0 instructions: 189001117 cycles: 427490314 heartbeat IPC: 0.3464 cumulative IPC: 0.3364 (Simulation time: 00 hr 45 min 15 sec)
Heartbeat CPU 0 instructions: 189501121 cycles: 428928491 heartbeat IPC: 0.3477 cumulative IPC: 0.3364 (Simulation time: 00 hr 45 min 24 sec)
Heartbeat CPU 0 instructions: 190001123 cycles: 430341791 heartbeat IPC: 0.3538 cumulative IPC: 0.3365 (Simulation time: 00 hr 45 min 31 sec)
Heartbeat CPU 0 instructions: 190501124 cycles: 431791358 heartbeat IPC: 0.3449 cumulative IPC: 0.3365 (Simulation time: 00 hr 45 min 40 sec)
Heartbeat CPU 0 instructions: 191001128 cycles: 433222861 heartbeat IPC: 0.3493 cumulative IPC: 0.3365 (Simulation time: 00 hr 45 min 48 sec)
Heartbeat CPU 0 instructions: 191501135 cycles: 434684655 heartbeat IPC: 0.3421 cumulative IPC: 0.3366 (Simulation time: 00 hr 45 min 56 sec)
Heartbeat CPU 0 instructions: 192001142 cycles: 436121107 heartbeat IPC: 0.3481 cumulative IPC: 0.3366 (Simulation time: 00 hr 46 min 04 sec)
Heartbeat CPU 0 instructions: 192501146 cycles: 437575077 heartbeat IPC: 0.3439 cumulative IPC: 0.3366 (Simulation time: 00 hr 46 min 12 sec)
Heartbeat CPU 0 instructions: 193001148 cycles: 439014528 heartbeat IPC: 0.3474 cumulative IPC: 0.3367 (Simulation time: 00 hr 46 min 20 sec)
Heartbeat CPU 0 instructions: 193501148 cycles: 440473586 heartbeat IPC: 0.3427 cumulative IPC: 0.3367 (Simulation time: 00 hr 46 min 29 sec)
Heartbeat CPU 0 instructions: 194001153 cycles: 441932728 heartbeat IPC: 0.3427 cumulative IPC: 0.3367 (Simulation time: 00 hr 46 min 37 sec)
Heartbeat CPU 0 instructions: 194501158 cycles: 443412932 heartbeat IPC: 0.3378 cumulative IPC: 0.3367 (Simulation time: 00 hr 46 min 45 sec)
Heartbeat CPU 0 instructions: 195001163 cycles: 444844593 heartbeat IPC: 0.3492 cumulative IPC: 0.3368 (Simulation time: 00 hr 46 min 53 sec)
Heartbeat CPU 0 instructions: 195501168 cycles: 446345957 heartbeat IPC: 0.333 cumulative IPC: 0.3367 (Simulation time: 00 hr 47 min 02 sec)
Heartbeat CPU 0 instructions: 196001175 cycles: 447829880 heartbeat IPC: 0.3369 cumulative IPC: 0.3367 (Simulation time: 00 hr 47 min 10 sec)
Heartbeat CPU 0 instructions: 196501175 cycles: 449263645 heartbeat IPC: 0.3487 cumulative IPC: 0.3368 (Simulation time: 00 hr 47 min 18 sec)
Heartbeat CPU 0 instructions: 197001177 cycles: 450752019 heartbeat IPC: 0.3359 cumulative IPC: 0.3368 (Simulation time: 00 hr 47 min 26 sec)
Heartbeat CPU 0 instructions: 197501177 cycles: 452213117 heartbeat IPC: 0.3422 cumulative IPC: 0.3368 (Simulation time: 00 hr 47 min 34 sec)
Heartbeat CPU 0 instructions: 198001178 cycles: 453631344 heartbeat IPC: 0.3526 cumulative IPC: 0.3368 (Simulation time: 00 hr 47 min 42 sec)
Heartbeat CPU 0 instructions: 198501179 cycles: 455049470 heartbeat IPC: 0.3526 cumulative IPC: 0.3369 (Simulation time: 00 hr 47 min 50 sec)
Heartbeat CPU 0 instructions: 199001180 cycles: 456497092 heartbeat IPC: 0.3454 cumulative IPC: 0.3369 (Simulation time: 00 hr 47 min 59 sec)
Heartbeat CPU 0 instructions: 199501181 cycles: 457977353 heartbeat IPC: 0.3378 cumulative IPC: 0.3369 (Simulation time: 00 hr 48 min 07 sec)
Heartbeat CPU 0 instructions: 200001182 cycles: 459449362 heartbeat IPC: 0.3397 cumulative IPC: 0.3369 (Simulation time: 00 hr 48 min 15 sec)
Heartbeat CPU 0 instructions: 200501184 cycles: 460894135 heartbeat IPC: 0.3461 cumulative IPC: 0.337 (Simulation time: 00 hr 48 min 23 sec)
Heartbeat CPU 0 instructions: 201001185 cycles: 462373167 heartbeat IPC: 0.3381 cumulative IPC: 0.337 (Simulation time: 00 hr 48 min 32 sec)
Heartbeat CPU 0 instructions: 201501187 cycles: 463837292 heartbeat IPC: 0.3415 cumulative IPC: 0.337 (Simulation time: 00 hr 48 min 40 sec)
Heartbeat CPU 0 instructions: 202001191 cycles: 465274685 heartbeat IPC: 0.3479 cumulative IPC: 0.337 (Simulation time: 00 hr 48 min 48 sec)
Heartbeat CPU 0 instructions: 202501191 cycles: 466736539 heartbeat IPC: 0.342 cumulative IPC: 0.337 (Simulation time: 00 hr 48 min 56 sec)
Heartbeat CPU 0 instructions: 203001192 cycles: 468168994 heartbeat IPC: 0.3491 cumulative IPC: 0.3371 (Simulation time: 00 hr 49 min 04 sec)
Heartbeat CPU 0 instructions: 203501193 cycles: 469607575 heartbeat IPC: 0.3476 cumulative IPC: 0.3371 (Simulation time: 00 hr 49 min 12 sec)
Heartbeat CPU 0 instructions: 204001194 cycles: 471044462 heartbeat IPC: 0.348 cumulative IPC: 0.3371 (Simulation time: 00 hr 49 min 20 sec)
Heartbeat CPU 0 instructions: 204501199 cycles: 472506275 heartbeat IPC: 0.342 cumulative IPC: 0.3372 (Simulation time: 00 hr 49 min 28 sec)
Heartbeat CPU 0 instructions: 205001199 cycles: 473954367 heartbeat IPC: 0.3453 cumulative IPC: 0.3372 (Simulation time: 00 hr 49 min 36 sec)
Heartbeat CPU 0 instructions: 205501200 cycles: 475412763 heartbeat IPC: 0.3428 cumulative IPC: 0.3372 (Simulation time: 00 hr 49 min 44 sec)
Heartbeat CPU 0 instructions: 206001200 cycles: 476840888 heartbeat IPC: 0.3501 cumulative IPC: 0.3372 (Simulation time: 00 hr 49 min 52 sec)
Heartbeat CPU 0 instructions: 206501201 cycles: 478273354 heartbeat IPC: 0.349 cumulative IPC: 0.3373 (Simulation time: 00 hr 50 min 00 sec)
Heartbeat CPU 0 instructions: 207001203 cycles: 479693391 heartbeat IPC: 0.3521 cumulative IPC: 0.3373 (Simulation time: 00 hr 50 min 08 sec)
Heartbeat CPU 0 instructions: 207501203 cycles: 481145577 heartbeat IPC: 0.3443 cumulative IPC: 0.3373 (Simulation time: 00 hr 50 min 16 sec)
Heartbeat CPU 0 instructions: 208001203 cycles: 482588814 heartbeat IPC: 0.3464 cumulative IPC: 0.3374 (Simulation time: 00 hr 50 min 24 sec)
Heartbeat CPU 0 instructions: 208501205 cycles: 484062724 heartbeat IPC: 0.3392 cumulative IPC: 0.3374 (Simulation time: 00 hr 50 min 33 sec)
Heartbeat CPU 0 instructions: 209001206 cycles: 485497957 heartbeat IPC: 0.3484 cumulative IPC: 0.3374 (Simulation time: 00 hr 50 min 41 sec)
Heartbeat CPU 0 instructions: 209501208 cycles: 486950273 heartbeat IPC: 0.3443 cumulative IPC: 0.3374 (Simulation time: 00 hr 50 min 49 sec)
Heartbeat CPU 0 instructions: 210001214 cycles: 488393783 heartbeat IPC: 0.3464 cumulative IPC: 0.3375 (Simulation time: 00 hr 50 min 57 sec)
Heartbeat CPU 0 instructions: 210501218 cycles: 489855386 heartbeat IPC: 0.3421 cumulative IPC: 0.3375 (Simulation time: 00 hr 51 min 05 sec)
Heartbeat CPU 0 instructions: 211001225 cycles: 491261764 heartbeat IPC: 0.3555 cumulative IPC: 0.3375 (Simulation time: 00 hr 51 min 13 sec)
Heartbeat CPU 0 instructions: 211501226 cycles: 492696785 heartbeat IPC: 0.3484 cumulative IPC: 0.3376 (Simulation time: 00 hr 51 min 21 sec)
Heartbeat CPU 0 instructions: 212001226 cycles: 494165129 heartbeat IPC: 0.3405 cumulative IPC: 0.3376 (Simulation time: 00 hr 51 min 29 sec)
Heartbeat CPU 0 instructions: 212501228 cycles: 495639046 heartbeat IPC: 0.3392 cumulative IPC: 0.3376 (Simulation time: 00 hr 51 min 37 sec)
Heartbeat CPU 0 instructions: 213001233 cycles: 497113001 heartbeat IPC: 0.3392 cumulative IPC: 0.3376 (Simulation time: 00 hr 51 min 45 sec)
Heartbeat CPU 0 instructions: 213501233 cycles: 498526182 heartbeat IPC: 0.3538 cumulative IPC: 0.3376 (Simulation time: 00 hr 51 min 53 sec)
Heartbeat CPU 0 instructions: 214001236 cycles: 499983272 heartbeat IPC: 0.3432 cumulative IPC: 0.3376 (Simulation time: 00 hr 52 min 01 sec)
Heartbeat CPU 0 instructions: 214501238 cycles: 501399904 heartbeat IPC: 0.353 cumulative IPC: 0.3377 (Simulation time: 00 hr 52 min 09 sec)
Heartbeat CPU 0 instructions: 215001243 cycles: 502800908 heartbeat IPC: 0.3569 cumulative IPC: 0.3377 (Simulation time: 00 hr 52 min 17 sec)
Heartbeat CPU 0 instructions: 215501246 cycles: 504240837 heartbeat IPC: 0.3472 cumulative IPC: 0.3378 (Simulation time: 00 hr 52 min 25 sec)
Heartbeat CPU 0 instructions: 216001247 cycles: 505671417 heartbeat IPC: 0.3495 cumulative IPC: 0.3378 (Simulation time: 00 hr 52 min 33 sec)
Heartbeat CPU 0 instructions: 216501253 cycles: 507083391 heartbeat IPC: 0.3541 cumulative IPC: 0.3378 (Simulation time: 00 hr 52 min 41 sec)
Heartbeat CPU 0 instructions: 217001259 cycles: 508499737 heartbeat IPC: 0.353 cumulative IPC: 0.3379 (Simulation time: 00 hr 52 min 49 sec)
Heartbeat CPU 0 instructions: 217501261 cycles: 509946979 heartbeat IPC: 0.3455 cumulative IPC: 0.3379 (Simulation time: 00 hr 52 min 57 sec)
Heartbeat CPU 0 instructions: 218001263 cycles: 511384891 heartbeat IPC: 0.3477 cumulative IPC: 0.3379 (Simulation time: 00 hr 53 min 05 sec)
Heartbeat CPU 0 instructions: 218501264 cycles: 512811762 heartbeat IPC: 0.3504 cumulative IPC: 0.338 (Simulation time: 00 hr 53 min 13 sec)
Heartbeat CPU 0 instructions: 219001270 cycles: 514223403 heartbeat IPC: 0.3542 cumulative IPC: 0.338 (Simulation time: 00 hr 53 min 20 sec)
Heartbeat CPU 0 instructions: 219501270 cycles: 515677619 heartbeat IPC: 0.3438 cumulative IPC: 0.338 (Simulation time: 00 hr 53 min 29 sec)
Heartbeat CPU 0 instructions: 220001270 cycles: 517109940 heartbeat IPC: 0.3491 cumulative IPC: 0.3381 (Simulation time: 00 hr 53 min 37 sec)
Heartbeat CPU 0 instructions: 220501271 cycles: 518538096 heartbeat IPC: 0.3501 cumulative IPC: 0.3381 (Simulation time: 00 hr 53 min 45 sec)
Heartbeat CPU 0 instructions: 221001271 cycles: 519963544 heartbeat IPC: 0.3508 cumulative IPC: 0.3381 (Simulation time: 00 hr 53 min 53 sec)
Heartbeat CPU 0 instructions: 221501273 cycles: 521388401 heartbeat IPC: 0.3509 cumulative IPC: 0.3382 (Simulation time: 00 hr 54 min 01 sec)
Heartbeat CPU 0 instructions: 222001277 cycles: 522793648 heartbeat IPC: 0.3558 cumulative IPC: 0.3382 (Simulation time: 00 hr 54 min 08 sec)
Heartbeat CPU 0 instructions: 222501279 cycles: 524232073 heartbeat IPC: 0.3476 cumulative IPC: 0.3383 (Simulation time: 00 hr 54 min 16 sec)
Heartbeat CPU 0 instructions: 223001284 cycles: 525653870 heartbeat IPC: 0.3517 cumulative IPC: 0.3383 (Simulation time: 00 hr 54 min 24 sec)
Heartbeat CPU 0 instructions: 223501286 cycles: 527067801 heartbeat IPC: 0.3536 cumulative IPC: 0.3383 (Simulation time: 00 hr 54 min 32 sec)
Heartbeat CPU 0 instructions: 224001293 cycles: 528448255 heartbeat IPC: 0.3622 cumulative IPC: 0.3384 (Simulation time: 00 hr 54 min 40 sec)
Heartbeat CPU 0 instructions: 224501296 cycles: 529887800 heartbeat IPC: 0.3473 cumulative IPC: 0.3384 (Simulation time: 00 hr 54 min 48 sec)
Heartbeat CPU 0 instructions: 225001296 cycles: 531283077 heartbeat IPC: 0.3584 cumulative IPC: 0.3385 (Simulation time: 00 hr 54 min 56 sec)
Heartbeat CPU 0 instructions: 225501301 cycles: 532692186 heartbeat IPC: 0.3548 cumulative IPC: 0.3385 (Simulation time: 00 hr 55 min 04 sec)
Heartbeat CPU 0 instructions: 226001308 cycles: 534144011 heartbeat IPC: 0.3444 cumulative IPC: 0.3385 (Simulation time: 00 hr 55 min 12 sec)
Heartbeat CPU 0 instructions: 226501313 cycles: 535583566 heartbeat IPC: 0.3473 cumulative IPC: 0.3386 (Simulation time: 00 hr 55 min 20 sec)
Heartbeat CPU 0 instructions: 227001314 cycles: 537019665 heartbeat IPC: 0.3482 cumulative IPC: 0.3386 (Simulation time: 00 hr 55 min 28 sec)
Heartbeat CPU 0 instructions: 227501316 cycles: 538431434 heartbeat IPC: 0.3542 cumulative IPC: 0.3386 (Simulation time: 00 hr 55 min 36 sec)
Heartbeat CPU 0 instructions: 228001316 cycles: 539886211 heartbeat IPC: 0.3437 cumulative IPC: 0.3386 (Simulation time: 00 hr 55 min 44 sec)
Heartbeat CPU 0 instructions: 228501317 cycles: 541279475 heartbeat IPC: 0.3589 cumulative IPC: 0.3387 (Simulation time: 00 hr 55 min 52 sec)
Heartbeat CPU 0 instructions: 229001323 cycles: 542684868 heartbeat IPC: 0.3558 cumulative IPC: 0.3387 (Simulation time: 00 hr 56 min 00 sec)
Heartbeat CPU 0 instructions: 229501330 cycles: 544090954 heartbeat IPC: 0.3556 cumulative IPC: 0.3388 (Simulation time: 00 hr 56 min 08 sec)
Heartbeat CPU 0 instructions: 230001334 cycles: 545521203 heartbeat IPC: 0.3496 cumulative IPC: 0.3388 (Simulation time: 00 hr 56 min 16 sec)
Heartbeat CPU 0 instructions: 230501335 cycles: 546989077 heartbeat IPC: 0.3406 cumulative IPC: 0.3388 (Simulation time: 00 hr 56 min 24 sec)
Heartbeat CPU 0 instructions: 231001339 cycles: 548400538 heartbeat IPC: 0.3542 cumulative IPC: 0.3389 (Simulation time: 00 hr 56 min 32 sec)
Heartbeat CPU 0 instructions: 231501339 cycles: 549857480 heartbeat IPC: 0.3432 cumulative IPC: 0.3389 (Simulation time: 00 hr 56 min 40 sec)
Heartbeat CPU 0 instructions: 232001339 cycles: 551261155 heartbeat IPC: 0.3562 cumulative IPC: 0.3389 (Simulation time: 00 hr 56 min 48 sec)
Heartbeat CPU 0 instructions: 232501343 cycles: 552665994 heartbeat IPC: 0.3559 cumulative IPC: 0.339 (Simulation time: 00 hr 56 min 56 sec)
Heartbeat CPU 0 instructions: 233001344 cycles: 554098821 heartbeat IPC: 0.349 cumulative IPC: 0.339 (Simulation time: 00 hr 57 min 04 sec)
Heartbeat CPU 0 instructions: 233501345 cycles: 555564759 heartbeat IPC: 0.3411 cumulative IPC: 0.339 (Simulation time: 00 hr 57 min 12 sec)
Heartbeat CPU 0 instructions: 234001350 cycles: 557007738 heartbeat IPC: 0.3465 cumulative IPC: 0.339 (Simulation time: 00 hr 57 min 20 sec)
Heartbeat CPU 0 instructions: 234501352 cycles: 558435922 heartbeat IPC: 0.3501 cumulative IPC: 0.339 (Simulation time: 00 hr 57 min 28 sec)
Heartbeat CPU 0 instructions: 235001355 cycles: 559871410 heartbeat IPC: 0.3483 cumulative IPC: 0.3391 (Simulation time: 00 hr 57 min 36 sec)
Heartbeat CPU 0 instructions: 235501355 cycles: 561295205 heartbeat IPC: 0.3512 cumulative IPC: 0.3391 (Simulation time: 00 hr 57 min 45 sec)
Heartbeat CPU 0 instructions: 236001358 cycles: 562729213 heartbeat IPC: 0.3487 cumulative IPC: 0.3391 (Simulation time: 00 hr 57 min 53 sec)
Heartbeat CPU 0 instructions: 236501359 cycles: 564131771 heartbeat IPC: 0.3565 cumulative IPC: 0.3392 (Simulation time: 00 hr 58 min 00 sec)
Heartbeat CPU 0 instructions: 237001363 cycles: 565582533 heartbeat IPC: 0.3446 cumulative IPC: 0.3392 (Simulation time: 00 hr 58 min 09 sec)
Heartbeat CPU 0 instructions: 237501365 cycles: 566978037 heartbeat IPC: 0.3583 cumulative IPC: 0.3392 (Simulation time: 00 hr 58 min 16 sec)
Heartbeat CPU 0 instructions: 238001367 cycles: 568402954 heartbeat IPC: 0.3509 cumulative IPC: 0.3393 (Simulation time: 00 hr 58 min 24 sec)
Heartbeat CPU 0 instructions: 238501367 cycles: 569786725 heartbeat IPC: 0.3613 cumulative IPC: 0.3393 (Simulation time: 00 hr 58 min 32 sec)
Heartbeat CPU 0 instructions: 239001367 cycles: 571198973 heartbeat IPC: 0.354 cumulative IPC: 0.3394 (Simulation time: 00 hr 58 min 40 sec)
Heartbeat CPU 0 instructions: 239501372 cycles: 572596597 heartbeat IPC: 0.3578 cumulative IPC: 0.3394 (Simulation time: 00 hr 58 min 48 sec)
Heartbeat CPU 0 instructions: 240001372 cycles: 573945367 heartbeat IPC: 0.3707 cumulative IPC: 0.3395 (Simulation time: 00 hr 58 min 56 sec)
Heartbeat CPU 0 instructions: 240501373 cycles: 575382132 heartbeat IPC: 0.348 cumulative IPC: 0.3395 (Simulation time: 00 hr 59 min 04 sec)
Heartbeat CPU 0 instructions: 241001373 cycles: 576789050 heartbeat IPC: 0.3554 cumulative IPC: 0.3395 (Simulation time: 00 hr 59 min 12 sec)
Heartbeat CPU 0 instructions: 241501379 cycles: 578188284 heartbeat IPC: 0.3573 cumulative IPC: 0.3396 (Simulation time: 00 hr 59 min 20 sec)
Heartbeat CPU 0 instructions: 242001380 cycles: 579554355 heartbeat IPC: 0.366 cumulative IPC: 0.3396 (Simulation time: 00 hr 59 min 27 sec)
Heartbeat CPU 0 instructions: 242501383 cycles: 580904914 heartbeat IPC: 0.3702 cumulative IPC: 0.3397 (Simulation time: 00 hr 59 min 35 sec)
Heartbeat CPU 0 instructions: 243001383 cycles: 582245267 heartbeat IPC: 0.373 cumulative IPC: 0.3398 (Simulation time: 00 hr 59 min 43 sec)
Heartbeat CPU 0 instructions: 243501389 cycles: 583629442 heartbeat IPC: 0.3612 cumulative IPC: 0.3398 (Simulation time: 00 hr 59 min 50 sec)
Heartbeat CPU 0 instructions: 244001393 cycles: 584999189 heartbeat IPC: 0.365 cumulative IPC: 0.3399 (Simulation time: 00 hr 59 min 58 sec)
Heartbeat CPU 0 instructions: 244501396 cycles: 586365543 heartbeat IPC: 0.3659 cumulative IPC: 0.34 (Simulation time: 01 hr 00 min 06 sec)
Heartbeat CPU 0 instructions: 245001399 cycles: 587746530 heartbeat IPC: 0.3621 cumulative IPC: 0.34 (Simulation time: 01 hr 00 min 13 sec)
Heartbeat CPU 0 instructions: 245501406 cycles: 589092660 heartbeat IPC: 0.3714 cumulative IPC: 0.3401 (Simulation time: 01 hr 00 min 21 sec)
Heartbeat CPU 0 instructions: 246001409 cycles: 590468189 heartbeat IPC: 0.3635 cumulative IPC: 0.3402 (Simulation time: 01 hr 00 min 29 sec)
Heartbeat CPU 0 instructions: 246501411 cycles: 591824377 heartbeat IPC: 0.3687 cumulative IPC: 0.3402 (Simulation time: 01 hr 00 min 36 sec)
Heartbeat CPU 0 instructions: 247001415 cycles: 593117279 heartbeat IPC: 0.3867 cumulative IPC: 0.3403 (Simulation time: 01 hr 00 min 43 sec)
Heartbeat CPU 0 instructions: 247501422 cycles: 594665391 heartbeat IPC: 0.323 cumulative IPC: 0.3403 (Simulation time: 01 hr 00 min 52 sec)
Heartbeat CPU 0 instructions: 248001424 cycles: 596228654 heartbeat IPC: 0.3198 cumulative IPC: 0.3402 (Simulation time: 01 hr 01 min 01 sec)
Heartbeat CPU 0 instructions: 248501424 cycles: 597778765 heartbeat IPC: 0.3226 cumulative IPC: 0.3402 (Simulation time: 01 hr 01 min 09 sec)
Heartbeat CPU 0 instructions: 249001427 cycles: 599330533 heartbeat IPC: 0.3222 cumulative IPC: 0.3401 (Simulation time: 01 hr 01 min 18 sec)
Heartbeat CPU 0 instructions: 249501429 cycles: 600850742 heartbeat IPC: 0.3289 cumulative IPC: 0.3401 (Simulation time: 01 hr 01 min 26 sec)
Simulation finished CPU 0 instructions: 200000001 cycles: 588100772 cumulative IPC: 0.3401 (Simulation time: 01 hr 01 min 34 sec)
Simulation complete CPU 0 instructions: 200000001 cycles: 588100772 cumulative IPC: 0.3401 (Simulation time: 01 hr 01 min 34 sec)

ChampSim completed all CPUs

=== Simulation ===
CPU 0 runs /local-ssd/ben/dpc4-traces/Graph/GMS/gms.triangle_count.soc-pokec-relationships.slice-360.champsimtrace.gz

Region of Interest Statistics

CPU 0 cumulative IPC: 0.3401 instructions: 200000001 cycles: 588100772
CPU 0 Branch Prediction Accuracy: 86.25% MPKI: 37.63 Average ROB Occupancy at Mispredict: 47.43
Branch type MPKI
BRANCH_DIRECT_JUMP: 0.02726
BRANCH_INDIRECT: 0.002405
BRANCH_CONDITIONAL: 37.6
BRANCH_DIRECT_CALL: 5e-06
BRANCH_INDIRECT_CALL: 0
BRANCH_RETURN: 1e-05

cpu0->cpu0_STLB TOTAL        ACCESS:     556885 HIT:      93848 MISS:     463037 MSHR_MERGE:          0
cpu0->cpu0_STLB LOAD         ACCESS:     556885 HIT:      93848 MISS:     463037 MSHR_MERGE:          0
cpu0->cpu0_STLB RFO          ACCESS:          0 HIT:          0 MISS:          0 MSHR_MERGE:          0
cpu0->cpu0_STLB PREFETCH     ACCESS:          0 HIT:          0 MISS:          0 MSHR_MERGE:          0
cpu0->cpu0_STLB WRITE        ACCESS:          0 HIT:          0 MISS:          0 MSHR_MERGE:          0
cpu0->cpu0_STLB TRANSLATION  ACCESS:          0 HIT:          0 MISS:          0 MSHR_MERGE:          0
cpu0->cpu0_STLB PREFETCH REQUESTED:          0 ISSUED:          0 USEFUL:          0 USELESS:          0
cpu0->cpu0_STLB AVERAGE MISS LATENCY: 134.9 cycles
cpu0->cpu0_L2C TOTAL        ACCESS:    3370510 HIT:     500682 MISS:    2869828 MSHR_MERGE:          0
cpu0->cpu0_L2C LOAD         ACCESS:    2715860 HIT:      31746 MISS:    2684114 MSHR_MERGE:          0
cpu0->cpu0_L2C RFO          ACCESS:         91 HIT:         57 MISS:         34 MSHR_MERGE:          0
cpu0->cpu0_L2C PREFETCH     ACCESS:          0 HIT:          0 MISS:          0 MSHR_MERGE:          0
cpu0->cpu0_L2C WRITE        ACCESS:     169861 HIT:     169861 MISS:          0 MSHR_MERGE:          0
cpu0->cpu0_L2C TRANSLATION  ACCESS:     484698 HIT:     299018 MISS:     185680 MSHR_MERGE:          0
cpu0->cpu0_L2C PREFETCH REQUESTED:          0 ISSUED:          0 USEFUL:          0 USELESS:          0
cpu0->cpu0_L2C AVERAGE MISS LATENCY: 216.3 cycles
cpu0->cpu0_L1I TOTAL        ACCESS:      56647 HIT:      56640 MISS:          7 MSHR_MERGE:          1
cpu0->cpu0_L1I LOAD         ACCESS:      56647 HIT:      56640 MISS:          7 MSHR_MERGE:          1
cpu0->cpu0_L1I RFO          ACCESS:          0 HIT:          0 MISS:          0 MSHR_MERGE:          0
cpu0->cpu0_L1I PREFETCH     ACCESS:          0 HIT:          0 MISS:          0 MSHR_MERGE:          0
cpu0->cpu0_L1I WRITE        ACCESS:          0 HIT:          0 MISS:          0 MSHR_MERGE:          0
cpu0->cpu0_L1I TRANSLATION  ACCESS:          0 HIT:          0 MISS:          0 MSHR_MERGE:          0
cpu0->cpu0_L1I PREFETCH REQUESTED:          0 ISSUED:          0 USEFUL:          0 USELESS:          0
cpu0->cpu0_L1I AVERAGE MISS LATENCY: 236.3 cycles
cpu0->cpu0_L1D TOTAL        ACCESS:   50162833 HIT:   44546837 MISS:    5615996 MSHR_MERGE:    2415353
cpu0->cpu0_L1D LOAD         ACCESS:   38699547 HIT:   33571783 MISS:    5127764 MSHR_MERGE:    2411910
cpu0->cpu0_L1D RFO          ACCESS:          0 HIT:          0 MISS:          0 MSHR_MERGE:          0
cpu0->cpu0_L1D PREFETCH     ACCESS:          0 HIT:          0 MISS:          0 MSHR_MERGE:          0
cpu0->cpu0_L1D WRITE        ACCESS:   10314032 HIT:   10313935 MISS:         97 MSHR_MERGE:          6
cpu0->cpu0_L1D TRANSLATION  ACCESS:    1149254 HIT:     661119 MISS:     488135 MSHR_MERGE:       3437
cpu0->cpu0_L1D PREFETCH REQUESTED:          0 ISSUED:          0 USEFUL:          0 USELESS:          0
cpu0->cpu0_L1D AVERAGE MISS LATENCY: 202.9 cycles
cpu0->cpu0_ITLB TOTAL        ACCESS:      55959 HIT:      55957 MISS:          2 MSHR_MERGE:          1
cpu0->cpu0_ITLB LOAD         ACCESS:      55959 HIT:      55957 MISS:          2 MSHR_MERGE:          1
cpu0->cpu0_ITLB RFO          ACCESS:          0 HIT:          0 MISS:          0 MSHR_MERGE:          0
cpu0->cpu0_ITLB PREFETCH     ACCESS:          0 HIT:          0 MISS:          0 MSHR_MERGE:          0
cpu0->cpu0_ITLB WRITE        ACCESS:          0 HIT:          0 MISS:          0 MSHR_MERGE:          0
cpu0->cpu0_ITLB TRANSLATION  ACCESS:          0 HIT:          0 MISS:          0 MSHR_MERGE:          0
cpu0->cpu0_ITLB PREFETCH REQUESTED:          0 ISSUED:          0 USEFUL:          0 USELESS:          0
cpu0->cpu0_ITLB AVERAGE MISS LATENCY: 634 cycles
cpu0->cpu0_DTLB TOTAL        ACCESS:   48274474 HIT:   47165501 MISS:    1108973 MSHR_MERGE:     552089
cpu0->cpu0_DTLB LOAD         ACCESS:   48274474 HIT:   47165501 MISS:    1108973 MSHR_MERGE:     552089
cpu0->cpu0_DTLB RFO          ACCESS:          0 HIT:          0 MISS:          0 MSHR_MERGE:          0
cpu0->cpu0_DTLB PREFETCH     ACCESS:          0 HIT:          0 MISS:          0 MSHR_MERGE:          0
cpu0->cpu0_DTLB WRITE        ACCESS:          0 HIT:          0 MISS:          0 MSHR_MERGE:          0
cpu0->cpu0_DTLB TRANSLATION  ACCESS:          0 HIT:          0 MISS:          0 MSHR_MERGE:          0
cpu0->cpu0_DTLB PREFETCH REQUESTED:          0 ISSUED:          0 USEFUL:          0 USELESS:          0
cpu0->cpu0_DTLB AVERAGE MISS LATENCY: 118 cycles
cpu0->LLC TOTAL        ACCESS:    3032382 HIT:     153072 MISS:    2879310 MSHR_MERGE:          0
cpu0->LLC LOAD         ACCESS:    2684114 HIT:      47253 MISS:    2636861 MSHR_MERGE:          0
cpu0->LLC RFO          ACCESS:         34 HIT:         33 MISS:          1 MSHR_MERGE:          0
cpu0->LLC PREFETCH     ACCESS:          0 HIT:          0 MISS:          0 MSHR_MERGE:          0
cpu0->LLC WRITE        ACCESS:     162554 HIT:      63151 MISS:      99403 MSHR_MERGE:          0
cpu0->LLC TRANSLATION  ACCESS:     185680 HIT:      42635 MISS:     143045 MSHR_MERGE:          0
cpu0->LLC PREFETCH REQUESTED:          0 ISSUED:          0 USEFUL:          0 USELESS:          0
cpu0->LLC AVERAGE MISS LATENCY: 193.3 cycles

DRAM Statistics

Channel 0 RQ ROW_BUFFER_HIT:       1937
  ROW_BUFFER_MISS:    2777970
  AVG DBUS CONGESTED CYCLE: 28.24
Channel 0 WQ ROW_BUFFER_HIT:      42381
  ROW_BUFFER_MISS:      78077
  FULL:          0
Channel 0 REFRESHES ISSUED:      49006
