[VMEM] WARNING: physical memory size is smaller than virtual memory size.

*** ChampSim Multicore Out-of-Order Simulator ***
Warmup Instructions: 50000000
Simulation Instructions: 200000000
Number of CPUs: 1
Page size: 4096
Core 0: /local-ssd/ben/dpc4-traces/Graph/GAP/bfs-14.trace.gz
Off-chip DRAM Size: 64 GiB Channels: 1 Width: 64-bit Data Rate: 4807 MT/s
Heartbeat CPU 0 instructions: 500006 cycles: 116732 heartbeat IPC: 4.283 cumulative IPC: 4.283 (Simulation time: 00 hr 00 min 03 sec)
Heartbeat CPU 0 instructions: 1000009 cycles: 228974 heartbeat IPC: 4.455 cumulative IPC: 4.367 (Simulation time: 00 hr 00 min 05 sec)
Heartbeat CPU 0 instructions: 1500014 cycles: 341184 heartbeat IPC: 4.456 cumulative IPC: 4.396 (Simulation time: 00 hr 00 min 06 sec)
Heartbeat CPU 0 instructions: 2000018 cycles: 453216 heartbeat IPC: 4.463 cumulative IPC: 4.413 (Simulation time: 00 hr 00 min 08 sec)
Heartbeat CPU 0 instructions: 2500022 cycles: 565712 heartbeat IPC: 4.445 cumulative IPC: 4.419 (Simulation time: 00 hr 00 min 10 sec)
Heartbeat CPU 0 instructions: 3000028 cycles: 678077 heartbeat IPC: 4.45 cumulative IPC: 4.424 (Simulation time: 00 hr 00 min 11 sec)
Heartbeat CPU 0 instructions: 3500032 cycles: 789940 heartbeat IPC: 4.47 cumulative IPC: 4.431 (Simulation time: 00 hr 00 min 13 sec)
Heartbeat CPU 0 instructions: 4000039 cycles: 902735 heartbeat IPC: 4.433 cumulative IPC: 4.431 (Simulation time: 00 hr 00 min 14 sec)
Heartbeat CPU 0 instructions: 4500045 cycles: 1015049 heartbeat IPC: 4.452 cumulative IPC: 4.433 (Simulation time: 00 hr 00 min 16 sec)
Heartbeat CPU 0 instructions: 5000047 cycles: 1127249 heartbeat IPC: 4.456 cumulative IPC: 4.436 (Simulation time: 00 hr 00 min 18 sec)
Heartbeat CPU 0 instructions: 5500054 cycles: 1239537 heartbeat IPC: 4.453 cumulative IPC: 4.437 (Simulation time: 00 hr 00 min 19 sec)
Heartbeat CPU 0 instructions: 6000055 cycles: 1352001 heartbeat IPC: 4.446 cumulative IPC: 4.438 (Simulation time: 00 hr 00 min 21 sec)
Heartbeat CPU 0 instructions: 6500060 cycles: 1464047 heartbeat IPC: 4.462 cumulative IPC: 4.44 (Simulation time: 00 hr 00 min 22 sec)
Heartbeat CPU 0 instructions: 7000065 cycles: 1576314 heartbeat IPC: 4.454 cumulative IPC: 4.441 (Simulation time: 00 hr 00 min 24 sec)
Heartbeat CPU 0 instructions: 7500067 cycles: 1688640 heartbeat IPC: 4.451 cumulative IPC: 4.441 (Simulation time: 00 hr 00 min 26 sec)
Heartbeat CPU 0 instructions: 8000073 cycles: 1800735 heartbeat IPC: 4.461 cumulative IPC: 4.443 (Simulation time: 00 hr 00 min 27 sec)
Heartbeat CPU 0 instructions: 8500073 cycles: 1913327 heartbeat IPC: 4.441 cumulative IPC: 4.443 (Simulation time: 00 hr 00 min 29 sec)
Heartbeat CPU 0 instructions: 9000073 cycles: 2025649 heartbeat IPC: 4.451 cumulative IPC: 4.443 (Simulation time: 00 hr 00 min 30 sec)
Heartbeat CPU 0 instructions: 9500080 cycles: 2138068 heartbeat IPC: 4.448 cumulative IPC: 4.443 (Simulation time: 00 hr 00 min 32 sec)
Heartbeat CPU 0 instructions: 10000085 cycles: 2250203 heartbeat IPC: 4.459 cumulative IPC: 4.444 (Simulation time: 00 hr 00 min 34 sec)
Heartbeat CPU 0 instructions: 10500092 cycles: 2385692 heartbeat IPC: 3.69 cumulative IPC: 4.401 (Simulation time: 00 hr 00 min 35 sec)
Heartbeat CPU 0 instructions: 11000096 cycles: 2506220 heartbeat IPC: 4.148 cumulative IPC: 4.389 (Simulation time: 00 hr 00 min 37 sec)
Heartbeat CPU 0 instructions: 11500102 cycles: 2643610 heartbeat IPC: 3.639 cumulative IPC: 4.35 (Simulation time: 00 hr 00 min 39 sec)
Heartbeat CPU 0 instructions: 12000105 cycles: 2781208 heartbeat IPC: 3.634 cumulative IPC: 4.315 (Simulation time: 00 hr 00 min 41 sec)
Heartbeat CPU 0 instructions: 12500106 cycles: 2919174 heartbeat IPC: 3.624 cumulative IPC: 4.282 (Simulation time: 00 hr 00 min 44 sec)
Heartbeat CPU 0 instructions: 13000111 cycles: 3055981 heartbeat IPC: 3.655 cumulative IPC: 4.254 (Simulation time: 00 hr 00 min 46 sec)
Heartbeat CPU 0 instructions: 13500112 cycles: 3194380 heartbeat IPC: 3.613 cumulative IPC: 4.226 (Simulation time: 00 hr 00 min 48 sec)
Heartbeat CPU 0 instructions: 14000118 cycles: 3331764 heartbeat IPC: 3.639 cumulative IPC: 4.202 (Simulation time: 00 hr 00 min 50 sec)
Heartbeat CPU 0 instructions: 14500122 cycles: 3469916 heartbeat IPC: 3.619 cumulative IPC: 4.179 (Simulation time: 00 hr 00 min 52 sec)
Heartbeat CPU 0 instructions: 15000128 cycles: 3607383 heartbeat IPC: 3.637 cumulative IPC: 4.158 (Simulation time: 00 hr 00 min 55 sec)
Heartbeat CPU 0 instructions: 15500133 cycles: 3744885 heartbeat IPC: 3.636 cumulative IPC: 4.139 (Simulation time: 00 hr 00 min 57 sec)
Heartbeat CPU 0 instructions: 16000135 cycles: 3880291 heartbeat IPC: 3.693 cumulative IPC: 4.123 (Simulation time: 00 hr 00 min 59 sec)
Heartbeat CPU 0 instructions: 16500135 cycles: 4017167 heartbeat IPC: 3.653 cumulative IPC: 4.107 (Simulation time: 00 hr 01 min 01 sec)
Heartbeat CPU 0 instructions: 17000140 cycles: 4155729 heartbeat IPC: 3.609 cumulative IPC: 4.091 (Simulation time: 00 hr 01 min 03 sec)
Heartbeat CPU 0 instructions: 17500146 cycles: 4292771 heartbeat IPC: 3.649 cumulative IPC: 4.077 (Simulation time: 00 hr 01 min 06 sec)
Heartbeat CPU 0 instructions: 18000150 cycles: 4429367 heartbeat IPC: 3.66 cumulative IPC: 4.064 (Simulation time: 00 hr 01 min 08 sec)
Heartbeat CPU 0 instructions: 18500151 cycles: 4566452 heartbeat IPC: 3.647 cumulative IPC: 4.051 (Simulation time: 00 hr 01 min 10 sec)
Heartbeat CPU 0 instructions: 19000156 cycles: 4703404 heartbeat IPC: 3.651 cumulative IPC: 4.04 (Simulation time: 00 hr 01 min 12 sec)
Heartbeat CPU 0 instructions: 19500159 cycles: 4840721 heartbeat IPC: 3.641 cumulative IPC: 4.028 (Simulation time: 00 hr 01 min 14 sec)
Heartbeat CPU 0 instructions: 20000162 cycles: 4978479 heartbeat IPC: 3.63 cumulative IPC: 4.017 (Simulation time: 00 hr 01 min 16 sec)
Heartbeat CPU 0 instructions: 20500165 cycles: 5116632 heartbeat IPC: 3.619 cumulative IPC: 4.007 (Simulation time: 00 hr 01 min 19 sec)
Heartbeat CPU 0 instructions: 21000166 cycles: 5255852 heartbeat IPC: 3.591 cumulative IPC: 3.996 (Simulation time: 00 hr 01 min 21 sec)
Heartbeat CPU 0 instructions: 21500170 cycles: 5393929 heartbeat IPC: 3.621 cumulative IPC: 3.986 (Simulation time: 00 hr 01 min 23 sec)
Heartbeat CPU 0 instructions: 22000173 cycles: 5531572 heartbeat IPC: 3.633 cumulative IPC: 3.977 (Simulation time: 00 hr 01 min 25 sec)
Heartbeat CPU 0 instructions: 22500178 cycles: 5669973 heartbeat IPC: 3.613 cumulative IPC: 3.968 (Simulation time: 00 hr 01 min 27 sec)
Heartbeat CPU 0 instructions: 23000179 cycles: 5808221 heartbeat IPC: 3.617 cumulative IPC: 3.96 (Simulation time: 00 hr 01 min 30 sec)
Heartbeat CPU 0 instructions: 23500180 cycles: 5945891 heartbeat IPC: 3.632 cumulative IPC: 3.952 (Simulation time: 00 hr 01 min 32 sec)
Heartbeat CPU 0 instructions: 24000184 cycles: 6082706 heartbeat IPC: 3.655 cumulative IPC: 3.946 (Simulation time: 00 hr 01 min 34 sec)
Heartbeat CPU 0 instructions: 24500185 cycles: 6221561 heartbeat IPC: 3.601 cumulative IPC: 3.938 (Simulation time: 00 hr 01 min 36 sec)
Heartbeat CPU 0 instructions: 25000189 cycles: 6357494 heartbeat IPC: 3.678 cumulative IPC: 3.932 (Simulation time: 00 hr 01 min 38 sec)
Heartbeat CPU 0 instructions: 25500190 cycles: 6494605 heartbeat IPC: 3.647 cumulative IPC: 3.926 (Simulation time: 00 hr 01 min 41 sec)
Heartbeat CPU 0 instructions: 26000196 cycles: 6630829 heartbeat IPC: 3.67 cumulative IPC: 3.921 (Simulation time: 00 hr 01 min 43 sec)
Heartbeat CPU 0 instructions: 26500200 cycles: 6768968 heartbeat IPC: 3.62 cumulative IPC: 3.915 (Simulation time: 00 hr 01 min 45 sec)
Heartbeat CPU 0 instructions: 27000202 cycles: 6905149 heartbeat IPC: 3.672 cumulative IPC: 3.91 (Simulation time: 00 hr 01 min 47 sec)
Heartbeat CPU 0 instructions: 27500208 cycles: 7042110 heartbeat IPC: 3.651 cumulative IPC: 3.905 (Simulation time: 00 hr 01 min 49 sec)
Heartbeat CPU 0 instructions: 28000215 cycles: 7179733 heartbeat IPC: 3.633 cumulative IPC: 3.9 (Simulation time: 00 hr 01 min 52 sec)
Heartbeat CPU 0 instructions: 28500217 cycles: 7317379 heartbeat IPC: 3.633 cumulative IPC: 3.895 (Simulation time: 00 hr 01 min 54 sec)
Heartbeat CPU 0 instructions: 29000221 cycles: 7454092 heartbeat IPC: 3.657 cumulative IPC: 3.891 (Simulation time: 00 hr 01 min 56 sec)
Heartbeat CPU 0 instructions: 29500227 cycles: 7592099 heartbeat IPC: 3.623 cumulative IPC: 3.886 (Simulation time: 00 hr 01 min 58 sec)
Heartbeat CPU 0 instructions: 30000233 cycles: 7729067 heartbeat IPC: 3.651 cumulative IPC: 3.881 (Simulation time: 00 hr 02 min 00 sec)
Heartbeat CPU 0 instructions: 30500233 cycles: 7866404 heartbeat IPC: 3.641 cumulative IPC: 3.877 (Simulation time: 00 hr 02 min 03 sec)
Heartbeat CPU 0 instructions: 31000238 cycles: 8004979 heartbeat IPC: 3.608 cumulative IPC: 3.873 (Simulation time: 00 hr 02 min 05 sec)
Heartbeat CPU 0 instructions: 31500241 cycles: 8141778 heartbeat IPC: 3.655 cumulative IPC: 3.869 (Simulation time: 00 hr 02 min 07 sec)
Heartbeat CPU 0 instructions: 32000244 cycles: 8278527 heartbeat IPC: 3.656 cumulative IPC: 3.865 (Simulation time: 00 hr 02 min 09 sec)
Heartbeat CPU 0 instructions: 32500245 cycles: 8415510 heartbeat IPC: 3.65 cumulative IPC: 3.862 (Simulation time: 00 hr 02 min 11 sec)
Heartbeat CPU 0 instructions: 33000250 cycles: 8552600 heartbeat IPC: 3.647 cumulative IPC: 3.859 (Simulation time: 00 hr 02 min 14 sec)
Heartbeat CPU 0 instructions: 33500250 cycles: 8691069 heartbeat IPC: 3.611 cumulative IPC: 3.855 (Simulation time: 00 hr 02 min 16 sec)
Heartbeat CPU 0 instructions: 34000252 cycles: 8829251 heartbeat IPC: 3.618 cumulative IPC: 3.851 (Simulation time: 00 hr 02 min 18 sec)
Heartbeat CPU 0 instructions: 34500257 cycles: 8966849 heartbeat IPC: 3.634 cumulative IPC: 3.848 (Simulation time: 00 hr 02 min 20 sec)
Heartbeat CPU 0 instructions: 35000258 cycles: 9102214 heartbeat IPC: 3.694 cumulative IPC: 3.845 (Simulation time: 00 hr 02 min 23 sec)
Heartbeat CPU 0 instructions: 35500262 cycles: 9237674 heartbeat IPC: 3.691 cumulative IPC: 3.843 (Simulation time: 00 hr 02 min 25 sec)
Heartbeat CPU 0 instructions: 36000263 cycles: 9374228 heartbeat IPC: 3.662 cumulative IPC: 3.84 (Simulation time: 00 hr 02 min 27 sec)
Heartbeat CPU 0 instructions: 36500263 cycles: 9512258 heartbeat IPC: 3.622 cumulative IPC: 3.837 (Simulation time: 00 hr 02 min 29 sec)
Heartbeat CPU 0 instructions: 37000265 cycles: 9648455 heartbeat IPC: 3.671 cumulative IPC: 3.835 (Simulation time: 00 hr 02 min 31 sec)
Heartbeat CPU 0 instructions: 37500272 cycles: 9784031 heartbeat IPC: 3.688 cumulative IPC: 3.833 (Simulation time: 00 hr 02 min 33 sec)
Heartbeat CPU 0 instructions: 38000275 cycles: 9921158 heartbeat IPC: 3.646 cumulative IPC: 3.83 (Simulation time: 00 hr 02 min 36 sec)
Heartbeat CPU 0 instructions: 38500276 cycles: 10028235 heartbeat IPC: 4.67 cumulative IPC: 3.839 (Simulation time: 00 hr 02 min 37 sec)
Heartbeat CPU 0 instructions: 39000279 cycles: 10128234 heartbeat IPC: 5 cumulative IPC: 3.851 (Simulation time: 00 hr 02 min 39 sec)
Heartbeat CPU 0 instructions: 39500286 cycles: 10228237 heartbeat IPC: 5 cumulative IPC: 3.862 (Simulation time: 00 hr 02 min 40 sec)
Heartbeat CPU 0 instructions: 40000289 cycles: 10328235 heartbeat IPC: 5 cumulative IPC: 3.873 (Simulation time: 00 hr 02 min 41 sec)
Heartbeat CPU 0 instructions: 40500294 cycles: 10428242 heartbeat IPC: 5 cumulative IPC: 3.884 (Simulation time: 00 hr 02 min 43 sec)
Heartbeat CPU 0 instructions: 41000294 cycles: 10528236 heartbeat IPC: 5 cumulative IPC: 3.894 (Simulation time: 00 hr 02 min 44 sec)
Heartbeat CPU 0 instructions: 41500299 cycles: 10628238 heartbeat IPC: 5 cumulative IPC: 3.905 (Simulation time: 00 hr 02 min 46 sec)
Heartbeat CPU 0 instructions: 42000301 cycles: 10728249 heartbeat IPC: 4.999 cumulative IPC: 3.915 (Simulation time: 00 hr 02 min 47 sec)
Heartbeat CPU 0 instructions: 42500304 cycles: 10828242 heartbeat IPC: 5 cumulative IPC: 3.925 (Simulation time: 00 hr 02 min 48 sec)
Heartbeat CPU 0 instructions: 43000307 cycles: 10928238 heartbeat IPC: 5 cumulative IPC: 3.935 (Simulation time: 00 hr 02 min 50 sec)
Heartbeat CPU 0 instructions: 43500307 cycles: 11028242 heartbeat IPC: 5 cumulative IPC: 3.944 (Simulation time: 00 hr 02 min 51 sec)
Heartbeat CPU 0 instructions: 44000310 cycles: 11128244 heartbeat IPC: 5 cumulative IPC: 3.954 (Simulation time: 00 hr 02 min 53 sec)
Heartbeat CPU 0 instructions: 44500311 cycles: 11228239 heartbeat IPC: 5 cumulative IPC: 3.963 (Simulation time: 00 hr 02 min 54 sec)
Heartbeat CPU 0 instructions: 45000313 cycles: 11328242 heartbeat IPC: 5 cumulative IPC: 3.972 (Simulation time: 00 hr 02 min 55 sec)
Heartbeat CPU 0 instructions: 45500316 cycles: 11428243 heartbeat IPC: 5 cumulative IPC: 3.981 (Simulation time: 00 hr 02 min 57 sec)
Heartbeat CPU 0 instructions: 46000320 cycles: 11528244 heartbeat IPC: 5 cumulative IPC: 3.99 (Simulation time: 00 hr 02 min 58 sec)
Heartbeat CPU 0 instructions: 46500322 cycles: 11628240 heartbeat IPC: 5 cumulative IPC: 3.999 (Simulation time: 00 hr 03 min 00 sec)
Heartbeat CPU 0 instructions: 47000328 cycles: 11728243 heartbeat IPC: 5 cumulative IPC: 4.007 (Simulation time: 00 hr 03 min 01 sec)
Heartbeat CPU 0 instructions: 47500330 cycles: 11828244 heartbeat IPC: 5 cumulative IPC: 4.016 (Simulation time: 00 hr 03 min 02 sec)
Heartbeat CPU 0 instructions: 48000331 cycles: 11928245 heartbeat IPC: 5 cumulative IPC: 4.024 (Simulation time: 00 hr 03 min 04 sec)
Heartbeat CPU 0 instructions: 48500331 cycles: 12028251 heartbeat IPC: 5 cumulative IPC: 4.032 (Simulation time: 00 hr 03 min 05 sec)
Heartbeat CPU 0 instructions: 49000337 cycles: 12128248 heartbeat IPC: 5 cumulative IPC: 4.04 (Simulation time: 00 hr 03 min 07 sec)
Heartbeat CPU 0 instructions: 49500341 cycles: 12228246 heartbeat IPC: 5 cumulative IPC: 4.048 (Simulation time: 00 hr 03 min 08 sec)
Warmup finished CPU 0 instructions: 50000000 cycles: 12333477 cumulative IPC: 4.054 (Simulation time: 00 hr 03 min 09 sec)
Warmup complete CPU 0 instructions: 50000000 cycles: 12333477 cumulative IPC: 4.054 (Simulation time: 00 hr 03 min 09 sec)
Heartbeat CPU 0 instructions: 50000341 cycles: 12334652 heartbeat IPC: 4.699 cumulative IPC: 0.2902 (Simulation time: 00 hr 03 min 09 sec)
Heartbeat CPU 0 instructions: 50500343 cycles: 15038176 heartbeat IPC: 0.1849 cumulative IPC: 0.185 (Simulation time: 00 hr 03 min 24 sec)
Heartbeat CPU 0 instructions: 51000343 cycles: 17688223 heartbeat IPC: 0.1887 cumulative IPC: 0.1868 (Simulation time: 00 hr 03 min 38 sec)
Heartbeat CPU 0 instructions: 51500343 cycles: 20311106 heartbeat IPC: 0.1906 cumulative IPC: 0.1881 (Simulation time: 00 hr 03 min 52 sec)
Heartbeat CPU 0 instructions: 52000343 cycles: 22899276 heartbeat IPC: 0.1932 cumulative IPC: 0.1893 (Simulation time: 00 hr 04 min 06 sec)
Heartbeat CPU 0 instructions: 52500345 cycles: 25442849 heartbeat IPC: 0.1966 cumulative IPC: 0.1907 (Simulation time: 00 hr 04 min 20 sec)
Heartbeat CPU 0 instructions: 53000346 cycles: 27947529 heartbeat IPC: 0.1996 cumulative IPC: 0.1922 (Simulation time: 00 hr 04 min 33 sec)
Heartbeat CPU 0 instructions: 53500348 cycles: 30420888 heartbeat IPC: 0.2022 cumulative IPC: 0.1935 (Simulation time: 00 hr 04 min 47 sec)
Heartbeat CPU 0 instructions: 54000350 cycles: 32842809 heartbeat IPC: 0.2064 cumulative IPC: 0.1951 (Simulation time: 00 hr 05 min 00 sec)
Heartbeat CPU 0 instructions: 54500353 cycles: 35239245 heartbeat IPC: 0.2086 cumulative IPC: 0.1965 (Simulation time: 00 hr 05 min 13 sec)
Heartbeat CPU 0 instructions: 55000353 cycles: 37575974 heartbeat IPC: 0.214 cumulative IPC: 0.1981 (Simulation time: 00 hr 05 min 26 sec)
Heartbeat CPU 0 instructions: 55500354 cycles: 39901982 heartbeat IPC: 0.215 cumulative IPC: 0.1995 (Simulation time: 00 hr 05 min 38 sec)
Heartbeat CPU 0 instructions: 56000354 cycles: 42200261 heartbeat IPC: 0.2176 cumulative IPC: 0.2009 (Simulation time: 00 hr 05 min 51 sec)
Heartbeat CPU 0 instructions: 56500356 cycles: 44440056 heartbeat IPC: 0.2232 cumulative IPC: 0.2025 (Simulation time: 00 hr 06 min 03 sec)
Heartbeat CPU 0 instructions: 57000356 cycles: 46700691 heartbeat IPC: 0.2212 cumulative IPC: 0.2037 (Simulation time: 00 hr 06 min 15 sec)
Heartbeat CPU 0 instructions: 57500357 cycles: 48913645 heartbeat IPC: 0.2259 cumulative IPC: 0.205 (Simulation time: 00 hr 06 min 27 sec)
Heartbeat CPU 0 instructions: 58000357 cycles: 51113545 heartbeat IPC: 0.2273 cumulative IPC: 0.2063 (Simulation time: 00 hr 06 min 39 sec)
Heartbeat CPU 0 instructions: 58500357 cycles: 53322142 heartbeat IPC: 0.2264 cumulative IPC: 0.2074 (Simulation time: 00 hr 06 min 51 sec)
Heartbeat CPU 0 instructions: 59000357 cycles: 55531730 heartbeat IPC: 0.2263 cumulative IPC: 0.2084 (Simulation time: 00 hr 07 min 03 sec)
Heartbeat CPU 0 instructions: 59500361 cycles: 56280183 heartbeat IPC: 0.668 cumulative IPC: 0.2162 (Simulation time: 00 hr 07 min 08 sec)
Heartbeat CPU 0 instructions: 60000364 cycles: 56381959 heartbeat IPC: 4.913 cumulative IPC: 0.227 (Simulation time: 00 hr 07 min 09 sec)
Heartbeat CPU 0 instructions: 60500367 cycles: 56484374 heartbeat IPC: 4.882 cumulative IPC: 0.2378 (Simulation time: 00 hr 07 min 11 sec)
Heartbeat CPU 0 instructions: 61000369 cycles: 56586207 heartbeat IPC: 4.91 cumulative IPC: 0.2486 (Simulation time: 00 hr 07 min 12 sec)
Heartbeat CPU 0 instructions: 61500371 cycles: 56688563 heartbeat IPC: 4.885 cumulative IPC: 0.2593 (Simulation time: 00 hr 07 min 14 sec)
Heartbeat CPU 0 instructions: 62000373 cycles: 56790605 heartbeat IPC: 4.9 cumulative IPC: 0.2699 (Simulation time: 00 hr 07 min 15 sec)
Heartbeat CPU 0 instructions: 62500373 cycles: 56893060 heartbeat IPC: 4.88 cumulative IPC: 0.2805 (Simulation time: 00 hr 07 min 16 sec)
Heartbeat CPU 0 instructions: 63000380 cycles: 56995087 heartbeat IPC: 4.901 cumulative IPC: 0.2911 (Simulation time: 00 hr 07 min 18 sec)
Heartbeat CPU 0 instructions: 63500385 cycles: 57097100 heartbeat IPC: 4.901 cumulative IPC: 0.3016 (Simulation time: 00 hr 07 min 19 sec)
Heartbeat CPU 0 instructions: 64000385 cycles: 57199587 heartbeat IPC: 4.879 cumulative IPC: 0.312 (Simulation time: 00 hr 07 min 21 sec)
Heartbeat CPU 0 instructions: 64500390 cycles: 57304944 heartbeat IPC: 4.746 cumulative IPC: 0.3224 (Simulation time: 00 hr 07 min 22 sec)
Heartbeat CPU 0 instructions: 65000392 cycles: 57407430 heartbeat IPC: 4.879 cumulative IPC: 0.3328 (Simulation time: 00 hr 07 min 23 sec)
Heartbeat CPU 0 instructions: 65500398 cycles: 57509822 heartbeat IPC: 4.883 cumulative IPC: 0.3431 (Simulation time: 00 hr 07 min 25 sec)
Heartbeat CPU 0 instructions: 66000403 cycles: 57612340 heartbeat IPC: 4.877 cumulative IPC: 0.3534 (Simulation time: 00 hr 07 min 26 sec)
Heartbeat CPU 0 instructions: 66500404 cycles: 57714389 heartbeat IPC: 4.9 cumulative IPC: 0.3636 (Simulation time: 00 hr 07 min 28 sec)
Heartbeat CPU 0 instructions: 67000405 cycles: 57816512 heartbeat IPC: 4.896 cumulative IPC: 0.3738 (Simulation time: 00 hr 07 min 29 sec)
Heartbeat CPU 0 instructions: 67500406 cycles: 57918356 heartbeat IPC: 4.909 cumulative IPC: 0.3839 (Simulation time: 00 hr 07 min 30 sec)
Heartbeat CPU 0 instructions: 68000408 cycles: 58020457 heartbeat IPC: 4.897 cumulative IPC: 0.394 (Simulation time: 00 hr 07 min 32 sec)
Heartbeat CPU 0 instructions: 68500413 cycles: 58123632 heartbeat IPC: 4.846 cumulative IPC: 0.404 (Simulation time: 00 hr 07 min 33 sec)
Heartbeat CPU 0 instructions: 69000416 cycles: 58225425 heartbeat IPC: 4.912 cumulative IPC: 0.414 (Simulation time: 00 hr 07 min 34 sec)
Heartbeat CPU 0 instructions: 69500418 cycles: 58327691 heartbeat IPC: 4.889 cumulative IPC: 0.424 (Simulation time: 00 hr 07 min 36 sec)
Heartbeat CPU 0 instructions: 70000422 cycles: 58430227 heartbeat IPC: 4.876 cumulative IPC: 0.4339 (Simulation time: 00 hr 07 min 37 sec)
Heartbeat CPU 0 instructions: 70500426 cycles: 58531359 heartbeat IPC: 4.944 cumulative IPC: 0.4438 (Simulation time: 00 hr 07 min 39 sec)
Heartbeat CPU 0 instructions: 71000427 cycles: 58969275 heartbeat IPC: 1.142 cumulative IPC: 0.4503 (Simulation time: 00 hr 07 min 43 sec)
Heartbeat CPU 0 instructions: 71500428 cycles: 59448877 heartbeat IPC: 1.043 cumulative IPC: 0.4563 (Simulation time: 00 hr 07 min 48 sec)
Heartbeat CPU 0 instructions: 72000428 cycles: 59925123 heartbeat IPC: 1.05 cumulative IPC: 0.4623 (Simulation time: 00 hr 07 min 53 sec)
Heartbeat CPU 0 instructions: 72500428 cycles: 60384836 heartbeat IPC: 1.088 cumulative IPC: 0.4683 (Simulation time: 00 hr 07 min 57 sec)
Heartbeat CPU 0 instructions: 73000428 cycles: 60818957 heartbeat IPC: 1.152 cumulative IPC: 0.4744 (Simulation time: 00 hr 08 min 02 sec)
Heartbeat CPU 0 instructions: 73500428 cycles: 61246681 heartbeat IPC: 1.169 cumulative IPC: 0.4805 (Simulation time: 00 hr 08 min 06 sec)
Heartbeat CPU 0 instructions: 74000428 cycles: 61661264 heartbeat IPC: 1.206 cumulative IPC: 0.4865 (Simulation time: 00 hr 08 min 11 sec)
Heartbeat CPU 0 instructions: 74500428 cycles: 62054385 heartbeat IPC: 1.272 cumulative IPC: 0.4928 (Simulation time: 00 hr 08 min 15 sec)
Heartbeat CPU 0 instructions: 75000428 cycles: 62439537 heartbeat IPC: 1.298 cumulative IPC: 0.499 (Simulation time: 00 hr 08 min 19 sec)
Heartbeat CPU 0 instructions: 75500428 cycles: 62818845 heartbeat IPC: 1.318 cumulative IPC: 0.5051 (Simulation time: 00 hr 08 min 23 sec)
Heartbeat CPU 0 instructions: 76000432 cycles: 63322952 heartbeat IPC: 0.9919 cumulative IPC: 0.5099 (Simulation time: 00 hr 08 min 27 sec)
Heartbeat CPU 0 instructions: 76500433 cycles: 65033410 heartbeat IPC: 0.2923 cumulative IPC: 0.5029 (Simulation time: 00 hr 08 min 37 sec)
Heartbeat CPU 0 instructions: 77000434 cycles: 66729309 heartbeat IPC: 0.2948 cumulative IPC: 0.4964 (Simulation time: 00 hr 08 min 46 sec)
Heartbeat CPU 0 instructions: 77500439 cycles: 68435486 heartbeat IPC: 0.2931 cumulative IPC: 0.4902 (Simulation time: 00 hr 08 min 56 sec)
Heartbeat CPU 0 instructions: 78000440 cycles: 70134803 heartbeat IPC: 0.2942 cumulative IPC: 0.4844 (Simulation time: 00 hr 09 min 05 sec)
Heartbeat CPU 0 instructions: 78500443 cycles: 71879917 heartbeat IPC: 0.2865 cumulative IPC: 0.4786 (Simulation time: 00 hr 09 min 15 sec)
Heartbeat CPU 0 instructions: 79000443 cycles: 73646589 heartbeat IPC: 0.283 cumulative IPC: 0.473 (Simulation time: 00 hr 09 min 26 sec)
Heartbeat CPU 0 instructions: 79500445 cycles: 75420407 heartbeat IPC: 0.2819 cumulative IPC: 0.4676 (Simulation time: 00 hr 09 min 36 sec)
Heartbeat CPU 0 instructions: 80000450 cycles: 77209572 heartbeat IPC: 0.2795 cumulative IPC: 0.4624 (Simulation time: 00 hr 09 min 47 sec)
Heartbeat CPU 0 instructions: 80500453 cycles: 79004473 heartbeat IPC: 0.2786 cumulative IPC: 0.4575 (Simulation time: 00 hr 09 min 58 sec)
Heartbeat CPU 0 instructions: 81000458 cycles: 80799225 heartbeat IPC: 0.2786 cumulative IPC: 0.4528 (Simulation time: 00 hr 10 min 10 sec)
Heartbeat CPU 0 instructions: 81500458 cycles: 82586068 heartbeat IPC: 0.2798 cumulative IPC: 0.4484 (Simulation time: 00 hr 10 min 20 sec)
Heartbeat CPU 0 instructions: 82000459 cycles: 84364993 heartbeat IPC: 0.2811 cumulative IPC: 0.4443 (Simulation time: 00 hr 10 min 31 sec)
Heartbeat CPU 0 instructions: 82500462 cycles: 86139805 heartbeat IPC: 0.2817 cumulative IPC: 0.4403 (Simulation time: 00 hr 10 min 42 sec)
Heartbeat CPU 0 instructions: 83000462 cycles: 87925805 heartbeat IPC: 0.28 cumulative IPC: 0.4366 (Simulation time: 00 hr 10 min 52 sec)
Heartbeat CPU 0 instructions: 83500468 cycles: 89699674 heartbeat IPC: 0.2819 cumulative IPC: 0.433 (Simulation time: 00 hr 11 min 03 sec)
Heartbeat CPU 0 instructions: 84000469 cycles: 91456255 heartbeat IPC: 0.2846 cumulative IPC: 0.4297 (Simulation time: 00 hr 11 min 13 sec)
Heartbeat CPU 0 instructions: 84500471 cycles: 93236270 heartbeat IPC: 0.2809 cumulative IPC: 0.4264 (Simulation time: 00 hr 11 min 24 sec)
Heartbeat CPU 0 instructions: 85000471 cycles: 95005523 heartbeat IPC: 0.2826 cumulative IPC: 0.4234 (Simulation time: 00 hr 11 min 34 sec)
Heartbeat CPU 0 instructions: 85500472 cycles: 96788274 heartbeat IPC: 0.2805 cumulative IPC: 0.4203 (Simulation time: 00 hr 11 min 44 sec)
Heartbeat CPU 0 instructions: 86000473 cycles: 98577747 heartbeat IPC: 0.2794 cumulative IPC: 0.4174 (Simulation time: 00 hr 11 min 55 sec)
Heartbeat CPU 0 instructions: 86500473 cycles: 100092312 heartbeat IPC: 0.3301 cumulative IPC: 0.4159 (Simulation time: 00 hr 12 min 06 sec)
Heartbeat CPU 0 instructions: 87000480 cycles: 100905462 heartbeat IPC: 0.6149 cumulative IPC: 0.4177 (Simulation time: 00 hr 12 min 14 sec)
Heartbeat CPU 0 instructions: 87500481 cycles: 101924288 heartbeat IPC: 0.4908 cumulative IPC: 0.4186 (Simulation time: 00 hr 12 min 20 sec)
Heartbeat CPU 0 instructions: 88000482 cycles: 104234186 heartbeat IPC: 0.2165 cumulative IPC: 0.4135 (Simulation time: 00 hr 12 min 33 sec)
Heartbeat CPU 0 instructions: 88500482 cycles: 106552394 heartbeat IPC: 0.2157 cumulative IPC: 0.4086 (Simulation time: 00 hr 12 min 46 sec)
Heartbeat CPU 0 instructions: 89000482 cycles: 108865126 heartbeat IPC: 0.2162 cumulative IPC: 0.404 (Simulation time: 00 hr 12 min 59 sec)
Heartbeat CPU 0 instructions: 89500483 cycles: 111140622 heartbeat IPC: 0.2197 cumulative IPC: 0.3998 (Simulation time: 00 hr 13 min 11 sec)
Heartbeat CPU 0 instructions: 90000484 cycles: 113427418 heartbeat IPC: 0.2186 cumulative IPC: 0.3957 (Simulation time: 00 hr 13 min 24 sec)
Heartbeat CPU 0 instructions: 90500484 cycles: 115710519 heartbeat IPC: 0.219 cumulative IPC: 0.3918 (Simulation time: 00 hr 13 min 37 sec)
Heartbeat CPU 0 instructions: 91000489 cycles: 117997938 heartbeat IPC: 0.2186 cumulative IPC: 0.388 (Simulation time: 00 hr 13 min 50 sec)
Heartbeat CPU 0 instructions: 91500489 cycles: 120253029 heartbeat IPC: 0.2217 cumulative IPC: 0.3846 (Simulation time: 00 hr 14 min 02 sec)
Heartbeat CPU 0 instructions: 92000489 cycles: 122503268 heartbeat IPC: 0.2222 cumulative IPC: 0.3812 (Simulation time: 00 hr 14 min 15 sec)
Heartbeat CPU 0 instructions: 92500495 cycles: 124779388 heartbeat IPC: 0.2197 cumulative IPC: 0.378 (Simulation time: 00 hr 14 min 28 sec)
Heartbeat CPU 0 instructions: 93000495 cycles: 127056546 heartbeat IPC: 0.2196 cumulative IPC: 0.3748 (Simulation time: 00 hr 14 min 40 sec)
Heartbeat CPU 0 instructions: 93500495 cycles: 129331850 heartbeat IPC: 0.2198 cumulative IPC: 0.3718 (Simulation time: 00 hr 14 min 53 sec)
Heartbeat CPU 0 instructions: 94000496 cycles: 131598640 heartbeat IPC: 0.2206 cumulative IPC: 0.3689 (Simulation time: 00 hr 15 min 06 sec)
Heartbeat CPU 0 instructions: 94500499 cycles: 133886204 heartbeat IPC: 0.2186 cumulative IPC: 0.3661 (Simulation time: 00 hr 15 min 19 sec)
Heartbeat CPU 0 instructions: 95000501 cycles: 136195853 heartbeat IPC: 0.2165 cumulative IPC: 0.3633 (Simulation time: 00 hr 15 min 31 sec)
Heartbeat CPU 0 instructions: 95500507 cycles: 138488772 heartbeat IPC: 0.2181 cumulative IPC: 0.3607 (Simulation time: 00 hr 15 min 44 sec)
Heartbeat CPU 0 instructions: 96000507 cycles: 140789587 heartbeat IPC: 0.2173 cumulative IPC: 0.3581 (Simulation time: 00 hr 15 min 57 sec)
Heartbeat CPU 0 instructions: 96500507 cycles: 143077889 heartbeat IPC: 0.2185 cumulative IPC: 0.3557 (Simulation time: 00 hr 16 min 10 sec)
Heartbeat CPU 0 instructions: 97000509 cycles: 145381060 heartbeat IPC: 0.2171 cumulative IPC: 0.3533 (Simulation time: 00 hr 16 min 22 sec)
Heartbeat CPU 0 instructions: 97500516 cycles: 147679560 heartbeat IPC: 0.2175 cumulative IPC: 0.351 (Simulation time: 00 hr 16 min 35 sec)
Heartbeat CPU 0 instructions: 98000516 cycles: 149983391 heartbeat IPC: 0.217 cumulative IPC: 0.3487 (Simulation time: 00 hr 16 min 48 sec)
Heartbeat CPU 0 instructions: 98500516 cycles: 152270836 heartbeat IPC: 0.2186 cumulative IPC: 0.3466 (Simulation time: 00 hr 17 min 01 sec)
Heartbeat CPU 0 instructions: 99000521 cycles: 154575252 heartbeat IPC: 0.217 cumulative IPC: 0.3445 (Simulation time: 00 hr 17 min 13 sec)
Heartbeat CPU 0 instructions: 99500521 cycles: 156863735 heartbeat IPC: 0.2185 cumulative IPC: 0.3425 (Simulation time: 00 hr 17 min 26 sec)
Heartbeat CPU 0 instructions: 100000525 cycles: 159161843 heartbeat IPC: 0.2176 cumulative IPC: 0.3405 (Simulation time: 00 hr 17 min 39 sec)
Heartbeat CPU 0 instructions: 100500525 cycles: 161465227 heartbeat IPC: 0.2171 cumulative IPC: 0.3386 (Simulation time: 00 hr 17 min 52 sec)
Heartbeat CPU 0 instructions: 101000525 cycles: 163747014 heartbeat IPC: 0.2191 cumulative IPC: 0.3368 (Simulation time: 00 hr 18 min 04 sec)
Heartbeat CPU 0 instructions: 101500528 cycles: 166046130 heartbeat IPC: 0.2175 cumulative IPC: 0.335 (Simulation time: 00 hr 18 min 17 sec)
Heartbeat CPU 0 instructions: 102000529 cycles: 168365157 heartbeat IPC: 0.2156 cumulative IPC: 0.3333 (Simulation time: 00 hr 18 min 30 sec)
Heartbeat CPU 0 instructions: 102500530 cycles: 170645846 heartbeat IPC: 0.2192 cumulative IPC: 0.3316 (Simulation time: 00 hr 18 min 42 sec)
Heartbeat CPU 0 instructions: 103000530 cycles: 172950973 heartbeat IPC: 0.2169 cumulative IPC: 0.33 (Simulation time: 00 hr 18 min 55 sec)
Heartbeat CPU 0 instructions: 103500530 cycles: 175245768 heartbeat IPC: 0.2179 cumulative IPC: 0.3284 (Simulation time: 00 hr 19 min 07 sec)
Heartbeat CPU 0 instructions: 104000531 cycles: 177557348 heartbeat IPC: 0.2163 cumulative IPC: 0.3268 (Simulation time: 00 hr 19 min 20 sec)
Heartbeat CPU 0 instructions: 104500531 cycles: 179870303 heartbeat IPC: 0.2162 cumulative IPC: 0.3253 (Simulation time: 00 hr 19 min 33 sec)
Heartbeat CPU 0 instructions: 105000531 cycles: 182177717 heartbeat IPC: 0.2167 cumulative IPC: 0.3238 (Simulation time: 00 hr 19 min 45 sec)
Heartbeat CPU 0 instructions: 105500531 cycles: 184485066 heartbeat IPC: 0.2167 cumulative IPC: 0.3224 (Simulation time: 00 hr 19 min 58 sec)
Heartbeat CPU 0 instructions: 106000531 cycles: 186805195 heartbeat IPC: 0.2155 cumulative IPC: 0.321 (Simulation time: 00 hr 20 min 10 sec)
Heartbeat CPU 0 instructions: 106500531 cycles: 189103976 heartbeat IPC: 0.2175 cumulative IPC: 0.3196 (Simulation time: 00 hr 20 min 23 sec)
Heartbeat CPU 0 instructions: 107000532 cycles: 191393608 heartbeat IPC: 0.2184 cumulative IPC: 0.3183 (Simulation time: 00 hr 20 min 35 sec)
Heartbeat CPU 0 instructions: 107500532 cycles: 193719813 heartbeat IPC: 0.2149 cumulative IPC: 0.317 (Simulation time: 00 hr 20 min 48 sec)
Heartbeat CPU 0 instructions: 108000532 cycles: 196031881 heartbeat IPC: 0.2163 cumulative IPC: 0.3157 (Simulation time: 00 hr 21 min 00 sec)
Heartbeat CPU 0 instructions: 108500534 cycles: 198327644 heartbeat IPC: 0.2178 cumulative IPC: 0.3145 (Simulation time: 00 hr 21 min 13 sec)
Heartbeat CPU 0 instructions: 109000534 cycles: 200664221 heartbeat IPC: 0.214 cumulative IPC: 0.3133 (Simulation time: 00 hr 21 min 26 sec)
Heartbeat CPU 0 instructions: 109500539 cycles: 202946408 heartbeat IPC: 0.2191 cumulative IPC: 0.3122 (Simulation time: 00 hr 21 min 38 sec)
Heartbeat CPU 0 instructions: 110000542 cycles: 205252539 heartbeat IPC: 0.2168 cumulative IPC: 0.311 (Simulation time: 00 hr 21 min 51 sec)
Heartbeat CPU 0 instructions: 110500544 cycles: 207558744 heartbeat IPC: 0.2168 cumulative IPC: 0.3099 (Simulation time: 00 hr 22 min 03 sec)
Heartbeat CPU 0 instructions: 111000544 cycles: 209873418 heartbeat IPC: 0.216 cumulative IPC: 0.3088 (Simulation time: 00 hr 22 min 16 sec)
Heartbeat CPU 0 instructions: 111500544 cycles: 212195999 heartbeat IPC: 0.2153 cumulative IPC: 0.3077 (Simulation time: 00 hr 22 min 29 sec)
Heartbeat CPU 0 instructions: 112000544 cycles: 214505248 heartbeat IPC: 0.2165 cumulative IPC: 0.3067 (Simulation time: 00 hr 22 min 41 sec)
Heartbeat CPU 0 instructions: 112500551 cycles: 216830027 heartbeat IPC: 0.2151 cumulative IPC: 0.3056 (Simulation time: 00 hr 22 min 54 sec)
Heartbeat CPU 0 instructions: 113000551 cycles: 219864470 heartbeat IPC: 0.1648 cumulative IPC: 0.3036 (Simulation time: 00 hr 23 min 10 sec)
Heartbeat CPU 0 instructions: 113500551 cycles: 222992049 heartbeat IPC: 0.1599 cumulative IPC: 0.3014 (Simulation time: 00 hr 23 min 26 sec)
Heartbeat CPU 0 instructions: 114000554 cycles: 226093671 heartbeat IPC: 0.1612 cumulative IPC: 0.2994 (Simulation time: 00 hr 23 min 42 sec)
Heartbeat CPU 0 instructions: 114500554 cycles: 229151703 heartbeat IPC: 0.1635 cumulative IPC: 0.2975 (Simulation time: 00 hr 23 min 58 sec)
Heartbeat CPU 0 instructions: 115000555 cycles: 232207369 heartbeat IPC: 0.1636 cumulative IPC: 0.2956 (Simulation time: 00 hr 24 min 13 sec)
Heartbeat CPU 0 instructions: 115500555 cycles: 235284012 heartbeat IPC: 0.1625 cumulative IPC: 0.2938 (Simulation time: 00 hr 24 min 29 sec)
Heartbeat CPU 0 instructions: 116000559 cycles: 238375299 heartbeat IPC: 0.1617 cumulative IPC: 0.292 (Simulation time: 00 hr 24 min 45 sec)
Heartbeat CPU 0 instructions: 116500559 cycles: 241445356 heartbeat IPC: 0.1629 cumulative IPC: 0.2903 (Simulation time: 00 hr 25 min 01 sec)
Heartbeat CPU 0 instructions: 117000560 cycles: 244523362 heartbeat IPC: 0.1624 cumulative IPC: 0.2886 (Simulation time: 00 hr 25 min 17 sec)
Heartbeat CPU 0 instructions: 117500565 cycles: 247568300 heartbeat IPC: 0.1642 cumulative IPC: 0.2869 (Simulation time: 00 hr 25 min 32 sec)
Heartbeat CPU 0 instructions: 118000565 cycles: 250655893 heartbeat IPC: 0.1619 cumulative IPC: 0.2853 (Simulation time: 00 hr 25 min 48 sec)
Heartbeat CPU 0 instructions: 118500565 cycles: 253704101 heartbeat IPC: 0.164 cumulative IPC: 0.2838 (Simulation time: 00 hr 26 min 04 sec)
Heartbeat CPU 0 instructions: 119000565 cycles: 256773665 heartbeat IPC: 0.1629 cumulative IPC: 0.2823 (Simulation time: 00 hr 26 min 20 sec)
Heartbeat CPU 0 instructions: 119500566 cycles: 259831023 heartbeat IPC: 0.1635 cumulative IPC: 0.2808 (Simulation time: 00 hr 26 min 35 sec)
Heartbeat CPU 0 instructions: 120000567 cycles: 262875132 heartbeat IPC: 0.1643 cumulative IPC: 0.2794 (Simulation time: 00 hr 26 min 51 sec)
Heartbeat CPU 0 instructions: 120500570 cycles: 265921174 heartbeat IPC: 0.1641 cumulative IPC: 0.278 (Simulation time: 00 hr 27 min 06 sec)
Heartbeat CPU 0 instructions: 121000572 cycles: 268970573 heartbeat IPC: 0.164 cumulative IPC: 0.2767 (Simulation time: 00 hr 27 min 22 sec)
Heartbeat CPU 0 instructions: 121500572 cycles: 271985399 heartbeat IPC: 0.1658 cumulative IPC: 0.2754 (Simulation time: 00 hr 27 min 37 sec)
Heartbeat CPU 0 instructions: 122000575 cycles: 275023773 heartbeat IPC: 0.1646 cumulative IPC: 0.2741 (Simulation time: 00 hr 27 min 53 sec)
Heartbeat CPU 0 instructions: 122500578 cycles: 278040211 heartbeat IPC: 0.1658 cumulative IPC: 0.2729 (Simulation time: 00 hr 28 min 08 sec)
Heartbeat CPU 0 instructions: 123000578 cycles: 281054975 heartbeat IPC: 0.1659 cumulative IPC: 0.2717 (Simulation time: 00 hr 28 min 23 sec)
Heartbeat CPU 0 instructions: 123500579 cycles: 284072134 heartbeat IPC: 0.1657 cumulative IPC: 0.2705 (Simulation time: 00 hr 28 min 39 sec)
Heartbeat CPU 0 instructions: 124000579 cycles: 286676457 heartbeat IPC: 0.192 cumulative IPC: 0.2697 (Simulation time: 00 hr 28 min 52 sec)
Heartbeat CPU 0 instructions: 124500579 cycles: 289284835 heartbeat IPC: 0.1917 cumulative IPC: 0.269 (Simulation time: 00 hr 29 min 05 sec)
Heartbeat CPU 0 instructions: 125000580 cycles: 291854304 heartbeat IPC: 0.1946 cumulative IPC: 0.2683 (Simulation time: 00 hr 29 min 18 sec)
Heartbeat CPU 0 instructions: 125500581 cycles: 294431524 heartbeat IPC: 0.194 cumulative IPC: 0.2676 (Simulation time: 00 hr 29 min 31 sec)
Heartbeat CPU 0 instructions: 126000581 cycles: 296957683 heartbeat IPC: 0.1979 cumulative IPC: 0.267 (Simulation time: 00 hr 29 min 44 sec)
Heartbeat CPU 0 instructions: 126500581 cycles: 299451567 heartbeat IPC: 0.2005 cumulative IPC: 0.2664 (Simulation time: 00 hr 29 min 56 sec)
Heartbeat CPU 0 instructions: 127000581 cycles: 301900524 heartbeat IPC: 0.2042 cumulative IPC: 0.2659 (Simulation time: 00 hr 30 min 08 sec)
Heartbeat CPU 0 instructions: 127500583 cycles: 304308274 heartbeat IPC: 0.2077 cumulative IPC: 0.2654 (Simulation time: 00 hr 30 min 20 sec)
Heartbeat CPU 0 instructions: 128000584 cycles: 306717829 heartbeat IPC: 0.2075 cumulative IPC: 0.265 (Simulation time: 00 hr 30 min 32 sec)
Heartbeat CPU 0 instructions: 128500584 cycles: 309047089 heartbeat IPC: 0.2147 cumulative IPC: 0.2646 (Simulation time: 00 hr 30 min 44 sec)
Heartbeat CPU 0 instructions: 129000585 cycles: 311376586 heartbeat IPC: 0.2146 cumulative IPC: 0.2642 (Simulation time: 00 hr 30 min 56 sec)
Heartbeat CPU 0 instructions: 129500588 cycles: 313703501 heartbeat IPC: 0.2149 cumulative IPC: 0.2638 (Simulation time: 00 hr 31 min 07 sec)
Heartbeat CPU 0 instructions: 130000588 cycles: 316007442 heartbeat IPC: 0.217 cumulative IPC: 0.2634 (Simulation time: 00 hr 31 min 19 sec)
Heartbeat CPU 0 instructions: 130500589 cycles: 318299419 heartbeat IPC: 0.2182 cumulative IPC: 0.2631 (Simulation time: 00 hr 31 min 30 sec)
Heartbeat CPU 0 instructions: 131000591 cycles: 320573854 heartbeat IPC: 0.2198 cumulative IPC: 0.2628 (Simulation time: 00 hr 31 min 42 sec)
Heartbeat CPU 0 instructions: 131500593 cycles: 322801714 heartbeat IPC: 0.2244 cumulative IPC: 0.2625 (Simulation time: 00 hr 31 min 53 sec)
Heartbeat CPU 0 instructions: 132000593 cycles: 325063335 heartbeat IPC: 0.2211 cumulative IPC: 0.2622 (Simulation time: 00 hr 32 min 04 sec)
Heartbeat CPU 0 instructions: 132500593 cycles: 327316853 heartbeat IPC: 0.2219 cumulative IPC: 0.2619 (Simulation time: 00 hr 32 min 15 sec)
Heartbeat CPU 0 instructions: 133000595 cycles: 329254405 heartbeat IPC: 0.2581 cumulative IPC: 0.2619 (Simulation time: 00 hr 32 min 25 sec)
Heartbeat CPU 0 instructions: 133500595 cycles: 329356381 heartbeat IPC: 4.903 cumulative IPC: 0.2634 (Simulation time: 00 hr 32 min 26 sec)
Heartbeat CPU 0 instructions: 134000596 cycles: 329458692 heartbeat IPC: 4.887 cumulative IPC: 0.2649 (Simulation time: 00 hr 32 min 27 sec)
Heartbeat CPU 0 instructions: 134500596 cycles: 329561075 heartbeat IPC: 4.884 cumulative IPC: 0.2664 (Simulation time: 00 hr 32 min 29 sec)
Heartbeat CPU 0 instructions: 135000597 cycles: 329663103 heartbeat IPC: 4.901 cumulative IPC: 0.2679 (Simulation time: 00 hr 32 min 30 sec)
Heartbeat CPU 0 instructions: 135500601 cycles: 329765615 heartbeat IPC: 4.878 cumulative IPC: 0.2694 (Simulation time: 00 hr 32 min 31 sec)
Heartbeat CPU 0 instructions: 136000601 cycles: 329867598 heartbeat IPC: 4.903 cumulative IPC: 0.2708 (Simulation time: 00 hr 32 min 32 sec)
Heartbeat CPU 0 instructions: 136500602 cycles: 329969574 heartbeat IPC: 4.903 cumulative IPC: 0.2723 (Simulation time: 00 hr 32 min 34 sec)
Heartbeat CPU 0 instructions: 137000603 cycles: 330071599 heartbeat IPC: 4.901 cumulative IPC: 0.2738 (Simulation time: 00 hr 32 min 35 sec)
Heartbeat CPU 0 instructions: 137500603 cycles: 330174270 heartbeat IPC: 4.87 cumulative IPC: 0.2753 (Simulation time: 00 hr 32 min 36 sec)
Heartbeat CPU 0 instructions: 138000608 cycles: 330277055 heartbeat IPC: 4.865 cumulative IPC: 0.2768 (Simulation time: 00 hr 32 min 37 sec)
Heartbeat CPU 0 instructions: 138500612 cycles: 330378951 heartbeat IPC: 4.907 cumulative IPC: 0.2783 (Simulation time: 00 hr 32 min 39 sec)
Heartbeat CPU 0 instructions: 139000618 cycles: 330480936 heartbeat IPC: 4.903 cumulative IPC: 0.2797 (Simulation time: 00 hr 32 min 40 sec)
Heartbeat CPU 0 instructions: 139500625 cycles: 330582862 heartbeat IPC: 4.906 cumulative IPC: 0.2812 (Simulation time: 00 hr 32 min 41 sec)
Heartbeat CPU 0 instructions: 140000625 cycles: 330685399 heartbeat IPC: 4.876 cumulative IPC: 0.2827 (Simulation time: 00 hr 32 min 42 sec)
Heartbeat CPU 0 instructions: 140500628 cycles: 330787452 heartbeat IPC: 4.899 cumulative IPC: 0.2842 (Simulation time: 00 hr 32 min 44 sec)
Heartbeat CPU 0 instructions: 141000631 cycles: 330890656 heartbeat IPC: 4.845 cumulative IPC: 0.2857 (Simulation time: 00 hr 32 min 45 sec)
Heartbeat CPU 0 instructions: 141500632 cycles: 330992151 heartbeat IPC: 4.926 cumulative IPC: 0.2871 (Simulation time: 00 hr 32 min 46 sec)
Heartbeat CPU 0 instructions: 142000638 cycles: 331094724 heartbeat IPC: 4.875 cumulative IPC: 0.2886 (Simulation time: 00 hr 32 min 47 sec)
Heartbeat CPU 0 instructions: 142500643 cycles: 331196883 heartbeat IPC: 4.894 cumulative IPC: 0.2901 (Simulation time: 00 hr 32 min 49 sec)
Heartbeat CPU 0 instructions: 143000647 cycles: 331298278 heartbeat IPC: 4.931 cumulative IPC: 0.2916 (Simulation time: 00 hr 32 min 50 sec)
Heartbeat CPU 0 instructions: 143500651 cycles: 331399680 heartbeat IPC: 4.931 cumulative IPC: 0.293 (Simulation time: 00 hr 32 min 51 sec)
Heartbeat CPU 0 instructions: 144000653 cycles: 331501810 heartbeat IPC: 4.896 cumulative IPC: 0.2945 (Simulation time: 00 hr 32 min 52 sec)
Heartbeat CPU 0 instructions: 144500653 cycles: 331671903 heartbeat IPC: 2.94 cumulative IPC: 0.2959 (Simulation time: 00 hr 32 min 54 sec)
Heartbeat CPU 0 instructions: 145000653 cycles: 332168166 heartbeat IPC: 1.008 cumulative IPC: 0.297 (Simulation time: 00 hr 32 min 59 sec)
Heartbeat CPU 0 instructions: 145500654 cycles: 332642842 heartbeat IPC: 1.053 cumulative IPC: 0.2982 (Simulation time: 00 hr 33 min 03 sec)
Heartbeat CPU 0 instructions: 146000654 cycles: 333113911 heartbeat IPC: 1.061 cumulative IPC: 0.2993 (Simulation time: 00 hr 33 min 07 sec)
Heartbeat CPU 0 instructions: 146500654 cycles: 333566189 heartbeat IPC: 1.106 cumulative IPC: 0.3004 (Simulation time: 00 hr 33 min 12 sec)
Heartbeat CPU 0 instructions: 147000654 cycles: 334004999 heartbeat IPC: 1.139 cumulative IPC: 0.3016 (Simulation time: 00 hr 33 min 16 sec)
Heartbeat CPU 0 instructions: 147500654 cycles: 334434233 heartbeat IPC: 1.165 cumulative IPC: 0.3027 (Simulation time: 00 hr 33 min 20 sec)
Heartbeat CPU 0 instructions: 148000654 cycles: 334862275 heartbeat IPC: 1.168 cumulative IPC: 0.3039 (Simulation time: 00 hr 33 min 24 sec)
Heartbeat CPU 0 instructions: 148500654 cycles: 335284101 heartbeat IPC: 1.185 cumulative IPC: 0.305 (Simulation time: 00 hr 33 min 28 sec)
Heartbeat CPU 0 instructions: 149000654 cycles: 335683153 heartbeat IPC: 1.253 cumulative IPC: 0.3062 (Simulation time: 00 hr 33 min 31 sec)
Heartbeat CPU 0 instructions: 149500654 cycles: 336087915 heartbeat IPC: 1.235 cumulative IPC: 0.3073 (Simulation time: 00 hr 33 min 35 sec)
Heartbeat CPU 0 instructions: 150000654 cycles: 337214809 heartbeat IPC: 0.4437 cumulative IPC: 0.3078 (Simulation time: 00 hr 33 min 42 sec)
Heartbeat CPU 0 instructions: 150500659 cycles: 338905759 heartbeat IPC: 0.2957 cumulative IPC: 0.3077 (Simulation time: 00 hr 33 min 50 sec)
Heartbeat CPU 0 instructions: 151000659 cycles: 340597319 heartbeat IPC: 0.2956 cumulative IPC: 0.3077 (Simulation time: 00 hr 33 min 59 sec)
Heartbeat CPU 0 instructions: 151500665 cycles: 342285140 heartbeat IPC: 0.2962 cumulative IPC: 0.3076 (Simulation time: 00 hr 34 min 07 sec)
Heartbeat CPU 0 instructions: 152000666 cycles: 343998178 heartbeat IPC: 0.2919 cumulative IPC: 0.3075 (Simulation time: 00 hr 34 min 16 sec)
Heartbeat CPU 0 instructions: 152500668 cycles: 345741152 heartbeat IPC: 0.2869 cumulative IPC: 0.3074 (Simulation time: 00 hr 34 min 25 sec)
Heartbeat CPU 0 instructions: 153000669 cycles: 347499018 heartbeat IPC: 0.2844 cumulative IPC: 0.3073 (Simulation time: 00 hr 34 min 34 sec)
Heartbeat CPU 0 instructions: 153500670 cycles: 349250995 heartbeat IPC: 0.2854 cumulative IPC: 0.3072 (Simulation time: 00 hr 34 min 43 sec)
Heartbeat CPU 0 instructions: 154000671 cycles: 351020457 heartbeat IPC: 0.2826 cumulative IPC: 0.3071 (Simulation time: 00 hr 34 min 53 sec)
Heartbeat CPU 0 instructions: 154500673 cycles: 352798372 heartbeat IPC: 0.2812 cumulative IPC: 0.3069 (Simulation time: 00 hr 35 min 02 sec)
Heartbeat CPU 0 instructions: 155000676 cycles: 354567114 heartbeat IPC: 0.2827 cumulative IPC: 0.3068 (Simulation time: 00 hr 35 min 12 sec)
Heartbeat CPU 0 instructions: 155500679 cycles: 356336103 heartbeat IPC: 0.2826 cumulative IPC: 0.3067 (Simulation time: 00 hr 35 min 21 sec)
Heartbeat CPU 0 instructions: 156000685 cycles: 358097636 heartbeat IPC: 0.2838 cumulative IPC: 0.3066 (Simulation time: 00 hr 35 min 31 sec)
Heartbeat CPU 0 instructions: 156500687 cycles: 359868752 heartbeat IPC: 0.2823 cumulative IPC: 0.3064 (Simulation time: 00 hr 35 min 40 sec)
Heartbeat CPU 0 instructions: 157000687 cycles: 361627933 heartbeat IPC: 0.2842 cumulative IPC: 0.3063 (Simulation time: 00 hr 35 min 49 sec)
Heartbeat CPU 0 instructions: 157500687 cycles: 363394181 heartbeat IPC: 0.2831 cumulative IPC: 0.3062 (Simulation time: 00 hr 35 min 58 sec)
Heartbeat CPU 0 instructions: 158000689 cycles: 365164914 heartbeat IPC: 0.2824 cumulative IPC: 0.3061 (Simulation time: 00 hr 36 min 08 sec)
Heartbeat CPU 0 instructions: 158500692 cycles: 366927335 heartbeat IPC: 0.2837 cumulative IPC: 0.306 (Simulation time: 00 hr 36 min 17 sec)
Heartbeat CPU 0 instructions: 159000693 cycles: 368692206 heartbeat IPC: 0.2833 cumulative IPC: 0.3059 (Simulation time: 00 hr 36 min 26 sec)
Heartbeat CPU 0 instructions: 159500696 cycles: 370468716 heartbeat IPC: 0.2815 cumulative IPC: 0.3058 (Simulation time: 00 hr 36 min 35 sec)
Heartbeat CPU 0 instructions: 160000698 cycles: 372263911 heartbeat IPC: 0.2785 cumulative IPC: 0.3056 (Simulation time: 00 hr 36 min 45 sec)
Heartbeat CPU 0 instructions: 160500698 cycles: 373498282 heartbeat IPC: 0.4051 cumulative IPC: 0.306 (Simulation time: 00 hr 36 min 54 sec)
Heartbeat CPU 0 instructions: 161000698 cycles: 374352252 heartbeat IPC: 0.5855 cumulative IPC: 0.3066 (Simulation time: 00 hr 36 min 59 sec)
Heartbeat CPU 0 instructions: 161500701 cycles: 376684248 heartbeat IPC: 0.2144 cumulative IPC: 0.306 (Simulation time: 00 hr 37 min 11 sec)
Heartbeat CPU 0 instructions: 162000701 cycles: 379021993 heartbeat IPC: 0.2139 cumulative IPC: 0.3054 (Simulation time: 00 hr 37 min 23 sec)
Heartbeat CPU 0 instructions: 162500702 cycles: 381353067 heartbeat IPC: 0.2145 cumulative IPC: 0.3049 (Simulation time: 00 hr 37 min 34 sec)
Heartbeat CPU 0 instructions: 163000702 cycles: 383682668 heartbeat IPC: 0.2146 cumulative IPC: 0.3043 (Simulation time: 00 hr 37 min 46 sec)
Heartbeat CPU 0 instructions: 163500702 cycles: 386010947 heartbeat IPC: 0.2148 cumulative IPC: 0.3037 (Simulation time: 00 hr 37 min 58 sec)
Heartbeat CPU 0 instructions: 164000702 cycles: 388303495 heartbeat IPC: 0.2181 cumulative IPC: 0.3032 (Simulation time: 00 hr 38 min 09 sec)
Heartbeat CPU 0 instructions: 164500702 cycles: 390604008 heartbeat IPC: 0.2173 cumulative IPC: 0.3027 (Simulation time: 00 hr 38 min 20 sec)
Heartbeat CPU 0 instructions: 165000702 cycles: 392926085 heartbeat IPC: 0.2153 cumulative IPC: 0.3022 (Simulation time: 00 hr 38 min 32 sec)
Heartbeat CPU 0 instructions: 165500706 cycles: 395217506 heartbeat IPC: 0.2182 cumulative IPC: 0.3017 (Simulation time: 00 hr 38 min 43 sec)
Heartbeat CPU 0 instructions: 166000707 cycles: 397508662 heartbeat IPC: 0.2182 cumulative IPC: 0.3012 (Simulation time: 00 hr 38 min 54 sec)
Heartbeat CPU 0 instructions: 166500709 cycles: 399820617 heartbeat IPC: 0.2163 cumulative IPC: 0.3007 (Simulation time: 00 hr 39 min 06 sec)
Heartbeat CPU 0 instructions: 167000709 cycles: 402136443 heartbeat IPC: 0.2159 cumulative IPC: 0.3002 (Simulation time: 00 hr 39 min 17 sec)
Heartbeat CPU 0 instructions: 167500716 cycles: 404449271 heartbeat IPC: 0.2162 cumulative IPC: 0.2997 (Simulation time: 00 hr 39 min 29 sec)
Heartbeat CPU 0 instructions: 168000716 cycles: 406765034 heartbeat IPC: 0.2159 cumulative IPC: 0.2992 (Simulation time: 00 hr 39 min 40 sec)
Heartbeat CPU 0 instructions: 168500723 cycles: 409084725 heartbeat IPC: 0.2155 cumulative IPC: 0.2987 (Simulation time: 00 hr 39 min 51 sec)
Heartbeat CPU 0 instructions: 169000723 cycles: 411402302 heartbeat IPC: 0.2157 cumulative IPC: 0.2982 (Simulation time: 00 hr 40 min 03 sec)
Heartbeat CPU 0 instructions: 169500726 cycles: 413729709 heartbeat IPC: 0.2148 cumulative IPC: 0.2977 (Simulation time: 00 hr 40 min 14 sec)
Heartbeat CPU 0 instructions: 170000726 cycles: 416063307 heartbeat IPC: 0.2143 cumulative IPC: 0.2972 (Simulation time: 00 hr 40 min 25 sec)
Heartbeat CPU 0 instructions: 170500727 cycles: 418396260 heartbeat IPC: 0.2143 cumulative IPC: 0.2968 (Simulation time: 00 hr 40 min 37 sec)
Heartbeat CPU 0 instructions: 171000727 cycles: 420721885 heartbeat IPC: 0.215 cumulative IPC: 0.2963 (Simulation time: 00 hr 40 min 48 sec)
Heartbeat CPU 0 instructions: 171500729 cycles: 423044087 heartbeat IPC: 0.2153 cumulative IPC: 0.2958 (Simulation time: 00 hr 41 min 00 sec)
Heartbeat CPU 0 instructions: 172000729 cycles: 425381940 heartbeat IPC: 0.2139 cumulative IPC: 0.2954 (Simulation time: 00 hr 41 min 11 sec)
Heartbeat CPU 0 instructions: 172500729 cycles: 427697377 heartbeat IPC: 0.2159 cumulative IPC: 0.2949 (Simulation time: 00 hr 41 min 22 sec)
Heartbeat CPU 0 instructions: 173000730 cycles: 430017309 heartbeat IPC: 0.2155 cumulative IPC: 0.2945 (Simulation time: 00 hr 41 min 34 sec)
Heartbeat CPU 0 instructions: 173500730 cycles: 432344333 heartbeat IPC: 0.2149 cumulative IPC: 0.294 (Simulation time: 00 hr 41 min 45 sec)
Heartbeat CPU 0 instructions: 174000731 cycles: 434689455 heartbeat IPC: 0.2132 cumulative IPC: 0.2936 (Simulation time: 00 hr 41 min 56 sec)
Heartbeat CPU 0 instructions: 174500731 cycles: 437007414 heartbeat IPC: 0.2157 cumulative IPC: 0.2932 (Simulation time: 00 hr 42 min 08 sec)
Heartbeat CPU 0 instructions: 175000737 cycles: 439333666 heartbeat IPC: 0.2149 cumulative IPC: 0.2927 (Simulation time: 00 hr 42 min 19 sec)
Heartbeat CPU 0 instructions: 175500737 cycles: 441670984 heartbeat IPC: 0.2139 cumulative IPC: 0.2923 (Simulation time: 00 hr 42 min 30 sec)
Heartbeat CPU 0 instructions: 176000740 cycles: 444006389 heartbeat IPC: 0.2141 cumulative IPC: 0.2919 (Simulation time: 00 hr 42 min 42 sec)
Heartbeat CPU 0 instructions: 176500742 cycles: 446334779 heartbeat IPC: 0.2147 cumulative IPC: 0.2915 (Simulation time: 00 hr 42 min 53 sec)
Heartbeat CPU 0 instructions: 177000742 cycles: 448666416 heartbeat IPC: 0.2144 cumulative IPC: 0.2911 (Simulation time: 00 hr 43 min 05 sec)
Heartbeat CPU 0 instructions: 177500742 cycles: 451000795 heartbeat IPC: 0.2142 cumulative IPC: 0.2907 (Simulation time: 00 hr 43 min 16 sec)
Heartbeat CPU 0 instructions: 178000742 cycles: 453339851 heartbeat IPC: 0.2138 cumulative IPC: 0.2902 (Simulation time: 00 hr 43 min 27 sec)
Heartbeat CPU 0 instructions: 178500747 cycles: 455709470 heartbeat IPC: 0.211 cumulative IPC: 0.2898 (Simulation time: 00 hr 43 min 39 sec)
Heartbeat CPU 0 instructions: 179000747 cycles: 458035460 heartbeat IPC: 0.215 cumulative IPC: 0.2894 (Simulation time: 00 hr 43 min 50 sec)
Heartbeat CPU 0 instructions: 179500753 cycles: 460381813 heartbeat IPC: 0.2131 cumulative IPC: 0.289 (Simulation time: 00 hr 44 min 02 sec)
Heartbeat CPU 0 instructions: 180000757 cycles: 462722278 heartbeat IPC: 0.2136 cumulative IPC: 0.2886 (Simulation time: 00 hr 44 min 13 sec)
Heartbeat CPU 0 instructions: 180500757 cycles: 465046968 heartbeat IPC: 0.2151 cumulative IPC: 0.2883 (Simulation time: 00 hr 44 min 25 sec)
Heartbeat CPU 0 instructions: 181000760 cycles: 467356278 heartbeat IPC: 0.2165 cumulative IPC: 0.2879 (Simulation time: 00 hr 44 min 36 sec)
Heartbeat CPU 0 instructions: 181500760 cycles: 469697536 heartbeat IPC: 0.2136 cumulative IPC: 0.2875 (Simulation time: 00 hr 44 min 47 sec)
Heartbeat CPU 0 instructions: 182000761 cycles: 472037200 heartbeat IPC: 0.2137 cumulative IPC: 0.2871 (Simulation time: 00 hr 44 min 59 sec)
Heartbeat CPU 0 instructions: 182500764 cycles: 474381435 heartbeat IPC: 0.2133 cumulative IPC: 0.2868 (Simulation time: 00 hr 45 min 10 sec)
Heartbeat CPU 0 instructions: 183000764 cycles: 476750703 heartbeat IPC: 0.211 cumulative IPC: 0.2864 (Simulation time: 00 hr 45 min 22 sec)
Heartbeat CPU 0 instructions: 183500767 cycles: 479093401 heartbeat IPC: 0.2134 cumulative IPC: 0.286 (Simulation time: 00 hr 45 min 33 sec)
Heartbeat CPU 0 instructions: 184000767 cycles: 481422638 heartbeat IPC: 0.2147 cumulative IPC: 0.2857 (Simulation time: 00 hr 45 min 44 sec)
Heartbeat CPU 0 instructions: 184500767 cycles: 483769538 heartbeat IPC: 0.213 cumulative IPC: 0.2853 (Simulation time: 00 hr 45 min 56 sec)
Heartbeat CPU 0 instructions: 185000767 cycles: 486106195 heartbeat IPC: 0.214 cumulative IPC: 0.2849 (Simulation time: 00 hr 46 min 07 sec)
Heartbeat CPU 0 instructions: 185500767 cycles: 488444680 heartbeat IPC: 0.2138 cumulative IPC: 0.2846 (Simulation time: 00 hr 46 min 19 sec)
Heartbeat CPU 0 instructions: 186000767 cycles: 490781541 heartbeat IPC: 0.214 cumulative IPC: 0.2843 (Simulation time: 00 hr 46 min 30 sec)
Heartbeat CPU 0 instructions: 186500769 cycles: 493126107 heartbeat IPC: 0.2133 cumulative IPC: 0.2839 (Simulation time: 00 hr 46 min 42 sec)
Heartbeat CPU 0 instructions: 187000769 cycles: 495971211 heartbeat IPC: 0.1757 cumulative IPC: 0.2833 (Simulation time: 00 hr 46 min 55 sec)
Heartbeat CPU 0 instructions: 187500769 cycles: 499129563 heartbeat IPC: 0.1583 cumulative IPC: 0.2825 (Simulation time: 00 hr 47 min 10 sec)
Heartbeat CPU 0 instructions: 188000769 cycles: 502248651 heartbeat IPC: 0.1603 cumulative IPC: 0.2817 (Simulation time: 00 hr 47 min 25 sec)
Heartbeat CPU 0 instructions: 188500775 cycles: 505328451 heartbeat IPC: 0.1624 cumulative IPC: 0.2809 (Simulation time: 00 hr 47 min 39 sec)
Heartbeat CPU 0 instructions: 189000775 cycles: 508397298 heartbeat IPC: 0.1629 cumulative IPC: 0.2802 (Simulation time: 00 hr 47 min 54 sec)
Heartbeat CPU 0 instructions: 189500778 cycles: 511490443 heartbeat IPC: 0.1616 cumulative IPC: 0.2795 (Simulation time: 00 hr 48 min 09 sec)
Heartbeat CPU 0 instructions: 190000783 cycles: 514594627 heartbeat IPC: 0.1611 cumulative IPC: 0.2787 (Simulation time: 00 hr 48 min 23 sec)
Heartbeat CPU 0 instructions: 190500783 cycles: 517687591 heartbeat IPC: 0.1617 cumulative IPC: 0.278 (Simulation time: 00 hr 48 min 38 sec)
Heartbeat CPU 0 instructions: 191000783 cycles: 520788891 heartbeat IPC: 0.1612 cumulative IPC: 0.2773 (Simulation time: 00 hr 48 min 52 sec)
Heartbeat CPU 0 instructions: 191500789 cycles: 523851628 heartbeat IPC: 0.1633 cumulative IPC: 0.2766 (Simulation time: 00 hr 49 min 07 sec)
Heartbeat CPU 0 instructions: 192000789 cycles: 526944475 heartbeat IPC: 0.1617 cumulative IPC: 0.2759 (Simulation time: 00 hr 49 min 22 sec)
Heartbeat CPU 0 instructions: 192500789 cycles: 530030487 heartbeat IPC: 0.162 cumulative IPC: 0.2753 (Simulation time: 00 hr 49 min 36 sec)
Heartbeat CPU 0 instructions: 193000791 cycles: 533109750 heartbeat IPC: 0.1624 cumulative IPC: 0.2746 (Simulation time: 00 hr 49 min 51 sec)
Heartbeat CPU 0 instructions: 193500792 cycles: 536184957 heartbeat IPC: 0.1626 cumulative IPC: 0.2739 (Simulation time: 00 hr 50 min 05 sec)
Heartbeat CPU 0 instructions: 194000792 cycles: 539274672 heartbeat IPC: 0.1618 cumulative IPC: 0.2733 (Simulation time: 00 hr 50 min 20 sec)
Heartbeat CPU 0 instructions: 194500792 cycles: 542324945 heartbeat IPC: 0.1639 cumulative IPC: 0.2726 (Simulation time: 00 hr 50 min 34 sec)
Heartbeat CPU 0 instructions: 195000792 cycles: 545405864 heartbeat IPC: 0.1623 cumulative IPC: 0.272 (Simulation time: 00 hr 50 min 49 sec)
Heartbeat CPU 0 instructions: 195500792 cycles: 548461110 heartbeat IPC: 0.1637 cumulative IPC: 0.2714 (Simulation time: 00 hr 51 min 04 sec)
Heartbeat CPU 0 instructions: 196000794 cycles: 551502117 heartbeat IPC: 0.1644 cumulative IPC: 0.2708 (Simulation time: 00 hr 51 min 18 sec)
Heartbeat CPU 0 instructions: 196500796 cycles: 554573026 heartbeat IPC: 0.1628 cumulative IPC: 0.2702 (Simulation time: 00 hr 51 min 33 sec)
Heartbeat CPU 0 instructions: 197000796 cycles: 557639754 heartbeat IPC: 0.163 cumulative IPC: 0.2696 (Simulation time: 00 hr 51 min 47 sec)
Heartbeat CPU 0 instructions: 197500796 cycles: 560677406 heartbeat IPC: 0.1646 cumulative IPC: 0.269 (Simulation time: 00 hr 52 min 02 sec)
Heartbeat CPU 0 instructions: 198000798 cycles: 563522517 heartbeat IPC: 0.1757 cumulative IPC: 0.2685 (Simulation time: 00 hr 52 min 15 sec)
Heartbeat CPU 0 instructions: 198500798 cycles: 566180546 heartbeat IPC: 0.1881 cumulative IPC: 0.2681 (Simulation time: 00 hr 52 min 28 sec)
Heartbeat CPU 0 instructions: 199000800 cycles: 568819897 heartbeat IPC: 0.1894 cumulative IPC: 0.2678 (Simulation time: 00 hr 52 min 40 sec)
Heartbeat CPU 0 instructions: 199500800 cycles: 571413084 heartbeat IPC: 0.1928 cumulative IPC: 0.2674 (Simulation time: 00 hr 52 min 52 sec)
Heartbeat CPU 0 instructions: 200000802 cycles: 573982442 heartbeat IPC: 0.1946 cumulative IPC: 0.2671 (Simulation time: 00 hr 53 min 04 sec)
Heartbeat CPU 0 instructions: 200500802 cycles: 576521474 heartbeat IPC: 0.1969 cumulative IPC: 0.2668 (Simulation time: 00 hr 53 min 16 sec)
Heartbeat CPU 0 instructions: 201000803 cycles: 579012877 heartbeat IPC: 0.2007 cumulative IPC: 0.2665 (Simulation time: 00 hr 53 min 28 sec)
Heartbeat CPU 0 instructions: 201500804 cycles: 581442580 heartbeat IPC: 0.2058 cumulative IPC: 0.2662 (Simulation time: 00 hr 53 min 40 sec)
Heartbeat CPU 0 instructions: 202000804 cycles: 583852702 heartbeat IPC: 0.2075 cumulative IPC: 0.266 (Simulation time: 00 hr 53 min 51 sec)
Heartbeat CPU 0 instructions: 202500805 cycles: 586230978 heartbeat IPC: 0.2102 cumulative IPC: 0.2657 (Simulation time: 00 hr 54 min 03 sec)
Heartbeat CPU 0 instructions: 203000806 cycles: 588562951 heartbeat IPC: 0.2144 cumulative IPC: 0.2655 (Simulation time: 00 hr 54 min 14 sec)
Heartbeat CPU 0 instructions: 203500806 cycles: 590885864 heartbeat IPC: 0.2152 cumulative IPC: 0.2653 (Simulation time: 00 hr 54 min 25 sec)
Heartbeat CPU 0 instructions: 204000807 cycles: 593209012 heartbeat IPC: 0.2152 cumulative IPC: 0.2651 (Simulation time: 00 hr 54 min 36 sec)
Heartbeat CPU 0 instructions: 204500808 cycles: 595458190 heartbeat IPC: 0.2223 cumulative IPC: 0.265 (Simulation time: 00 hr 54 min 46 sec)
Heartbeat CPU 0 instructions: 205000808 cycles: 597731170 heartbeat IPC: 0.22 cumulative IPC: 0.2648 (Simulation time: 00 hr 54 min 57 sec)
Heartbeat CPU 0 instructions: 205500809 cycles: 599971362 heartbeat IPC: 0.2232 cumulative IPC: 0.2646 (Simulation time: 00 hr 55 min 08 sec)
Heartbeat CPU 0 instructions: 206000809 cycles: 602197433 heartbeat IPC: 0.2246 cumulative IPC: 0.2645 (Simulation time: 00 hr 55 min 19 sec)
Heartbeat CPU 0 instructions: 206500809 cycles: 604441884 heartbeat IPC: 0.2228 cumulative IPC: 0.2643 (Simulation time: 00 hr 55 min 29 sec)
Heartbeat CPU 0 instructions: 207000809 cycles: 606670555 heartbeat IPC: 0.2243 cumulative IPC: 0.2642 (Simulation time: 00 hr 55 min 40 sec)
Heartbeat CPU 0 instructions: 207500810 cycles: 607699085 heartbeat IPC: 0.4861 cumulative IPC: 0.2645 (Simulation time: 00 hr 55 min 45 sec)
Heartbeat CPU 0 instructions: 208000812 cycles: 607801398 heartbeat IPC: 4.887 cumulative IPC: 0.2653 (Simulation time: 00 hr 55 min 46 sec)
Heartbeat CPU 0 instructions: 208500815 cycles: 607903592 heartbeat IPC: 4.893 cumulative IPC: 0.2661 (Simulation time: 00 hr 55 min 48 sec)
Heartbeat CPU 0 instructions: 209000815 cycles: 608005786 heartbeat IPC: 4.893 cumulative IPC: 0.2669 (Simulation time: 00 hr 55 min 49 sec)
Heartbeat CPU 0 instructions: 209500816 cycles: 608107093 heartbeat IPC: 4.936 cumulative IPC: 0.2677 (Simulation time: 00 hr 55 min 50 sec)
Heartbeat CPU 0 instructions: 210000822 cycles: 608209802 heartbeat IPC: 4.868 cumulative IPC: 0.2685 (Simulation time: 00 hr 55 min 51 sec)
Heartbeat CPU 0 instructions: 210500822 cycles: 608312402 heartbeat IPC: 4.873 cumulative IPC: 0.2693 (Simulation time: 00 hr 55 min 52 sec)
Heartbeat CPU 0 instructions: 211000828 cycles: 608414306 heartbeat IPC: 4.907 cumulative IPC: 0.2701 (Simulation time: 00 hr 55 min 54 sec)
Heartbeat CPU 0 instructions: 211500828 cycles: 608516538 heartbeat IPC: 4.891 cumulative IPC: 0.2709 (Simulation time: 00 hr 55 min 55 sec)
Heartbeat CPU 0 instructions: 212000828 cycles: 608618146 heartbeat IPC: 4.921 cumulative IPC: 0.2717 (Simulation time: 00 hr 55 min 56 sec)
Heartbeat CPU 0 instructions: 212500830 cycles: 608721005 heartbeat IPC: 4.861 cumulative IPC: 0.2725 (Simulation time: 00 hr 55 min 57 sec)
Heartbeat CPU 0 instructions: 213000830 cycles: 608823659 heartbeat IPC: 4.871 cumulative IPC: 0.2733 (Simulation time: 00 hr 55 min 58 sec)
Heartbeat CPU 0 instructions: 213500834 cycles: 608925609 heartbeat IPC: 4.904 cumulative IPC: 0.2741 (Simulation time: 00 hr 56 min 00 sec)
Heartbeat CPU 0 instructions: 214000834 cycles: 609028285 heartbeat IPC: 4.87 cumulative IPC: 0.2748 (Simulation time: 00 hr 56 min 01 sec)
Heartbeat CPU 0 instructions: 214500838 cycles: 609129871 heartbeat IPC: 4.922 cumulative IPC: 0.2756 (Simulation time: 00 hr 56 min 02 sec)
Heartbeat CPU 0 instructions: 215000838 cycles: 609232581 heartbeat IPC: 4.868 cumulative IPC: 0.2764 (Simulation time: 00 hr 56 min 03 sec)
Heartbeat CPU 0 instructions: 215500838 cycles: 609334900 heartbeat IPC: 4.887 cumulative IPC: 0.2772 (Simulation time: 00 hr 56 min 05 sec)
Heartbeat CPU 0 instructions: 216000845 cycles: 609436880 heartbeat IPC: 4.903 cumulative IPC: 0.278 (Simulation time: 00 hr 56 min 06 sec)
Heartbeat CPU 0 instructions: 216500850 cycles: 609538809 heartbeat IPC: 4.905 cumulative IPC: 0.2788 (Simulation time: 00 hr 56 min 07 sec)
Heartbeat CPU 0 instructions: 217000856 cycles: 609640825 heartbeat IPC: 4.901 cumulative IPC: 0.2796 (Simulation time: 00 hr 56 min 08 sec)
Heartbeat CPU 0 instructions: 217500857 cycles: 609742989 heartbeat IPC: 4.894 cumulative IPC: 0.2804 (Simulation time: 00 hr 56 min 09 sec)
Heartbeat CPU 0 instructions: 218000860 cycles: 609846188 heartbeat IPC: 4.845 cumulative IPC: 0.2812 (Simulation time: 00 hr 56 min 11 sec)
Heartbeat CPU 0 instructions: 218500866 cycles: 609948124 heartbeat IPC: 4.905 cumulative IPC: 0.282 (Simulation time: 00 hr 56 min 12 sec)
Heartbeat CPU 0 instructions: 219000866 cycles: 610314321 heartbeat IPC: 1.365 cumulative IPC: 0.2826 (Simulation time: 00 hr 56 min 15 sec)
Heartbeat CPU 0 instructions: 219500867 cycles: 610802872 heartbeat IPC: 1.023 cumulative IPC: 0.2832 (Simulation time: 00 hr 56 min 19 sec)
Heartbeat CPU 0 instructions: 220000867 cycles: 611287195 heartbeat IPC: 1.032 cumulative IPC: 0.2838 (Simulation time: 00 hr 56 min 24 sec)
Heartbeat CPU 0 instructions: 220500867 cycles: 611750930 heartbeat IPC: 1.078 cumulative IPC: 0.2844 (Simulation time: 00 hr 56 min 28 sec)
Heartbeat CPU 0 instructions: 221000867 cycles: 612197752 heartbeat IPC: 1.119 cumulative IPC: 0.2851 (Simulation time: 00 hr 56 min 32 sec)
Heartbeat CPU 0 instructions: 221500867 cycles: 612626558 heartbeat IPC: 1.166 cumulative IPC: 0.2857 (Simulation time: 00 hr 56 min 36 sec)
Heartbeat CPU 0 instructions: 222000867 cycles: 613055804 heartbeat IPC: 1.165 cumulative IPC: 0.2863 (Simulation time: 00 hr 56 min 40 sec)
Heartbeat CPU 0 instructions: 222500867 cycles: 613472350 heartbeat IPC: 1.2 cumulative IPC: 0.287 (Simulation time: 00 hr 56 min 43 sec)
Heartbeat CPU 0 instructions: 223000867 cycles: 613884524 heartbeat IPC: 1.213 cumulative IPC: 0.2876 (Simulation time: 00 hr 56 min 47 sec)
Heartbeat CPU 0 instructions: 223500867 cycles: 614287025 heartbeat IPC: 1.242 cumulative IPC: 0.2882 (Simulation time: 00 hr 56 min 51 sec)
Heartbeat CPU 0 instructions: 224000867 cycles: 614685158 heartbeat IPC: 1.256 cumulative IPC: 0.2889 (Simulation time: 00 hr 56 min 55 sec)
Heartbeat CPU 0 instructions: 224500870 cycles: 616364065 heartbeat IPC: 0.2978 cumulative IPC: 0.2889 (Simulation time: 00 hr 57 min 03 sec)
Heartbeat CPU 0 instructions: 225000873 cycles: 618056619 heartbeat IPC: 0.2954 cumulative IPC: 0.2889 (Simulation time: 00 hr 57 min 11 sec)
Heartbeat CPU 0 instructions: 225500879 cycles: 619749849 heartbeat IPC: 0.2953 cumulative IPC: 0.2889 (Simulation time: 00 hr 57 min 19 sec)
Heartbeat CPU 0 instructions: 226000879 cycles: 621446429 heartbeat IPC: 0.2947 cumulative IPC: 0.2889 (Simulation time: 00 hr 57 min 28 sec)
Heartbeat CPU 0 instructions: 226500879 cycles: 623191423 heartbeat IPC: 0.2865 cumulative IPC: 0.2889 (Simulation time: 00 hr 57 min 36 sec)
Heartbeat CPU 0 instructions: 227000884 cycles: 624937059 heartbeat IPC: 0.2864 cumulative IPC: 0.2889 (Simulation time: 00 hr 57 min 45 sec)
Heartbeat CPU 0 instructions: 227500886 cycles: 626698055 heartbeat IPC: 0.2839 cumulative IPC: 0.2889 (Simulation time: 00 hr 57 min 54 sec)
Heartbeat CPU 0 instructions: 228000888 cycles: 628465966 heartbeat IPC: 0.2828 cumulative IPC: 0.2889 (Simulation time: 00 hr 58 min 03 sec)
Heartbeat CPU 0 instructions: 228500894 cycles: 630224032 heartbeat IPC: 0.2844 cumulative IPC: 0.2889 (Simulation time: 00 hr 58 min 12 sec)
Heartbeat CPU 0 instructions: 229000896 cycles: 631999309 heartbeat IPC: 0.2816 cumulative IPC: 0.2889 (Simulation time: 00 hr 58 min 22 sec)
Heartbeat CPU 0 instructions: 229500896 cycles: 633756952 heartbeat IPC: 0.2845 cumulative IPC: 0.2889 (Simulation time: 00 hr 58 min 31 sec)
Heartbeat CPU 0 instructions: 230000898 cycles: 635524159 heartbeat IPC: 0.2829 cumulative IPC: 0.2888 (Simulation time: 00 hr 58 min 40 sec)
Heartbeat CPU 0 instructions: 230500900 cycles: 637276688 heartbeat IPC: 0.2853 cumulative IPC: 0.2888 (Simulation time: 00 hr 58 min 49 sec)
Heartbeat CPU 0 instructions: 231000900 cycles: 639046735 heartbeat IPC: 0.2825 cumulative IPC: 0.2888 (Simulation time: 00 hr 58 min 58 sec)
Heartbeat CPU 0 instructions: 231500902 cycles: 640801886 heartbeat IPC: 0.2849 cumulative IPC: 0.2888 (Simulation time: 00 hr 59 min 07 sec)
Heartbeat CPU 0 instructions: 232000902 cycles: 642541246 heartbeat IPC: 0.2875 cumulative IPC: 0.2888 (Simulation time: 00 hr 59 min 16 sec)
Heartbeat CPU 0 instructions: 232500908 cycles: 644314360 heartbeat IPC: 0.282 cumulative IPC: 0.2888 (Simulation time: 00 hr 59 min 25 sec)
Heartbeat CPU 0 instructions: 233000908 cycles: 646083578 heartbeat IPC: 0.2826 cumulative IPC: 0.2888 (Simulation time: 00 hr 59 min 34 sec)
Heartbeat CPU 0 instructions: 233500908 cycles: 647859726 heartbeat IPC: 0.2815 cumulative IPC: 0.2887 (Simulation time: 00 hr 59 min 43 sec)
Heartbeat CPU 0 instructions: 234000908 cycles: 649632740 heartbeat IPC: 0.282 cumulative IPC: 0.2887 (Simulation time: 00 hr 59 min 53 sec)
Heartbeat CPU 0 instructions: 234500908 cycles: 651244674 heartbeat IPC: 0.3102 cumulative IPC: 0.2888 (Simulation time: 01 hr 00 min 02 sec)
Heartbeat CPU 0 instructions: 235000911 cycles: 652744521 heartbeat IPC: 0.3334 cumulative IPC: 0.2889 (Simulation time: 01 hr 00 min 11 sec)
Heartbeat CPU 0 instructions: 235500916 cycles: 654721951 heartbeat IPC: 0.2529 cumulative IPC: 0.2888 (Simulation time: 01 hr 00 min 21 sec)
Heartbeat CPU 0 instructions: 236000919 cycles: 656227703 heartbeat IPC: 0.3321 cumulative IPC: 0.2889 (Simulation time: 01 hr 00 min 29 sec)
Heartbeat CPU 0 instructions: 236500919 cycles: 656695292 heartbeat IPC: 1.069 cumulative IPC: 0.2894 (Simulation time: 01 hr 00 min 32 sec)
Heartbeat CPU 0 instructions: 237000920 cycles: 658916269 heartbeat IPC: 0.2251 cumulative IPC: 0.2892 (Simulation time: 01 hr 00 min 43 sec)
Heartbeat CPU 0 instructions: 237500920 cycles: 661121984 heartbeat IPC: 0.2267 cumulative IPC: 0.289 (Simulation time: 01 hr 00 min 54 sec)
Heartbeat CPU 0 instructions: 238000925 cycles: 663311441 heartbeat IPC: 0.2284 cumulative IPC: 0.2888 (Simulation time: 01 hr 01 min 05 sec)
Heartbeat CPU 0 instructions: 238500925 cycles: 665518347 heartbeat IPC: 0.2266 cumulative IPC: 0.2886 (Simulation time: 01 hr 01 min 16 sec)
Heartbeat CPU 0 instructions: 239000925 cycles: 667696484 heartbeat IPC: 0.2296 cumulative IPC: 0.2884 (Simulation time: 01 hr 01 min 27 sec)
Heartbeat CPU 0 instructions: 239500929 cycles: 669890642 heartbeat IPC: 0.2279 cumulative IPC: 0.2882 (Simulation time: 01 hr 01 min 38 sec)
Heartbeat CPU 0 instructions: 240000929 cycles: 672072318 heartbeat IPC: 0.2292 cumulative IPC: 0.288 (Simulation time: 01 hr 01 min 49 sec)
Heartbeat CPU 0 instructions: 240500930 cycles: 674246445 heartbeat IPC: 0.23 cumulative IPC: 0.2878 (Simulation time: 01 hr 02 min 00 sec)
Heartbeat CPU 0 instructions: 241000930 cycles: 676418120 heartbeat IPC: 0.2302 cumulative IPC: 0.2876 (Simulation time: 01 hr 02 min 10 sec)
Heartbeat CPU 0 instructions: 241500937 cycles: 678613232 heartbeat IPC: 0.2278 cumulative IPC: 0.2874 (Simulation time: 01 hr 02 min 21 sec)
Heartbeat CPU 0 instructions: 242000944 cycles: 680797797 heartbeat IPC: 0.2289 cumulative IPC: 0.2872 (Simulation time: 01 hr 02 min 32 sec)
Heartbeat CPU 0 instructions: 242500944 cycles: 682985961 heartbeat IPC: 0.2285 cumulative IPC: 0.287 (Simulation time: 01 hr 02 min 43 sec)
Heartbeat CPU 0 instructions: 243000944 cycles: 685189510 heartbeat IPC: 0.2269 cumulative IPC: 0.2868 (Simulation time: 01 hr 02 min 54 sec)
Heartbeat CPU 0 instructions: 243500947 cycles: 687389395 heartbeat IPC: 0.2273 cumulative IPC: 0.2866 (Simulation time: 01 hr 03 min 05 sec)
Heartbeat CPU 0 instructions: 244000954 cycles: 689590712 heartbeat IPC: 0.2271 cumulative IPC: 0.2865 (Simulation time: 01 hr 03 min 16 sec)
Heartbeat CPU 0 instructions: 244500958 cycles: 691793368 heartbeat IPC: 0.227 cumulative IPC: 0.2863 (Simulation time: 01 hr 03 min 27 sec)
Heartbeat CPU 0 instructions: 245000962 cycles: 694001343 heartbeat IPC: 0.2265 cumulative IPC: 0.2861 (Simulation time: 01 hr 03 min 38 sec)
Heartbeat CPU 0 instructions: 245500965 cycles: 696220713 heartbeat IPC: 0.2253 cumulative IPC: 0.2859 (Simulation time: 01 hr 03 min 49 sec)
Heartbeat CPU 0 instructions: 246000972 cycles: 698441136 heartbeat IPC: 0.2252 cumulative IPC: 0.2857 (Simulation time: 01 hr 04 min 00 sec)
Heartbeat CPU 0 instructions: 246500973 cycles: 700657425 heartbeat IPC: 0.2256 cumulative IPC: 0.2855 (Simulation time: 01 hr 04 min 11 sec)
Heartbeat CPU 0 instructions: 247000973 cycles: 702864794 heartbeat IPC: 0.2265 cumulative IPC: 0.2853 (Simulation time: 01 hr 04 min 22 sec)
Heartbeat CPU 0 instructions: 247500977 cycles: 705090601 heartbeat IPC: 0.2246 cumulative IPC: 0.2851 (Simulation time: 01 hr 04 min 33 sec)
Heartbeat CPU 0 instructions: 248000980 cycles: 707308649 heartbeat IPC: 0.2254 cumulative IPC: 0.2849 (Simulation time: 01 hr 04 min 44 sec)
Heartbeat CPU 0 instructions: 248500981 cycles: 709513928 heartbeat IPC: 0.2267 cumulative IPC: 0.2847 (Simulation time: 01 hr 04 min 55 sec)
Heartbeat CPU 0 instructions: 249000982 cycles: 711720433 heartbeat IPC: 0.2266 cumulative IPC: 0.2845 (Simulation time: 01 hr 05 min 06 sec)
Heartbeat CPU 0 instructions: 249500982 cycles: 713940701 heartbeat IPC: 0.2252 cumulative IPC: 0.2843 (Simulation time: 01 hr 05 min 17 sec)
Simulation finished CPU 0 instructions: 200000001 cycles: 703829455 cumulative IPC: 0.2842 (Simulation time: 01 hr 05 min 28 sec)
Simulation complete CPU 0 instructions: 200000001 cycles: 703829455 cumulative IPC: 0.2842 (Simulation time: 01 hr 05 min 28 sec)

ChampSim completed all CPUs

=== Simulation ===
CPU 0 runs /local-ssd/ben/dpc4-traces/Graph/GAP/bfs-14.trace.gz

Region of Interest Statistics

CPU 0 cumulative IPC: 0.2842 instructions: 200000001 cycles: 703829455
CPU 0 Branch Prediction Accuracy: 85.72% MPKI: 31.03 Average ROB Occupancy at Mispredict: 5.241
Branch type MPKI
BRANCH_DIRECT_JUMP: 2.5e-05
BRANCH_INDIRECT: 5e-06
BRANCH_CONDITIONAL: 31.03
BRANCH_DIRECT_CALL: 7.5e-05
BRANCH_INDIRECT_CALL: 1e-05
BRANCH_RETURN: 0.000135

cpu0->cpu0_STLB TOTAL        ACCESS:     195240 HIT:      52236 MISS:     143004 MSHR_MERGE:          0
cpu0->cpu0_STLB LOAD         ACCESS:     195240 HIT:      52236 MISS:     143004 MSHR_MERGE:          0
cpu0->cpu0_STLB RFO          ACCESS:          0 HIT:          0 MISS:          0 MSHR_MERGE:          0
cpu0->cpu0_STLB PREFETCH     ACCESS:          0 HIT:          0 MISS:          0 MSHR_MERGE:          0
cpu0->cpu0_STLB WRITE        ACCESS:          0 HIT:          0 MISS:          0 MSHR_MERGE:          0
cpu0->cpu0_STLB TRANSLATION  ACCESS:          0 HIT:          0 MISS:          0 MSHR_MERGE:          0
cpu0->cpu0_STLB PREFETCH REQUESTED:          0 ISSUED:          0 USEFUL:          0 USELESS:          0
cpu0->cpu0_STLB AVERAGE MISS LATENCY: 53.91 cycles
cpu0->cpu0_L2C TOTAL        ACCESS:    5467916 HIT:    2128899 MISS:    3339017 MSHR_MERGE:          0
cpu0->cpu0_L2C LOAD         ACCESS:    4559956 HIT:    1469793 MISS:    3090163 MSHR_MERGE:          0
cpu0->cpu0_L2C RFO          ACCESS:     236254 HIT:      13194 MISS:     223060 MSHR_MERGE:          0
cpu0->cpu0_L2C PREFETCH     ACCESS:          0 HIT:          0 MISS:          0 MSHR_MERGE:          0
cpu0->cpu0_L2C WRITE        ACCESS:     641351 HIT:     641345 MISS:          6 MSHR_MERGE:          0
cpu0->cpu0_L2C TRANSLATION  ACCESS:      30355 HIT:       4567 MISS:      25788 MSHR_MERGE:          0
cpu0->cpu0_L2C PREFETCH REQUESTED:          0 ISSUED:          0 USEFUL:          0 USELESS:          0
cpu0->cpu0_L2C AVERAGE MISS LATENCY: 195 cycles
cpu0->cpu0_L1I TOTAL        ACCESS:    9990594 HIT:    9990578 MISS:         16 MSHR_MERGE:          1
cpu0->cpu0_L1I LOAD         ACCESS:    9990594 HIT:    9990578 MISS:         16 MSHR_MERGE:          1
cpu0->cpu0_L1I RFO          ACCESS:          0 HIT:          0 MISS:          0 MSHR_MERGE:          0
cpu0->cpu0_L1I PREFETCH     ACCESS:          0 HIT:          0 MISS:          0 MSHR_MERGE:          0
cpu0->cpu0_L1I WRITE        ACCESS:          0 HIT:          0 MISS:          0 MSHR_MERGE:          0
cpu0->cpu0_L1I TRANSLATION  ACCESS:          0 HIT:          0 MISS:          0 MSHR_MERGE:          0
cpu0->cpu0_L1I PREFETCH REQUESTED:          0 ISSUED:          0 USEFUL:          0 USELESS:          0
cpu0->cpu0_L1I AVERAGE MISS LATENCY: 259.1 cycles
cpu0->cpu0_L1D TOTAL        ACCESS:   47178668 HIT:   37673667 MISS:    9505001 MSHR_MERGE:    4678450
cpu0->cpu0_L1D LOAD         ACCESS:   40122728 HIT:   31319537 MISS:    8803191 MSHR_MERGE:    4243249
cpu0->cpu0_L1D RFO          ACCESS:          0 HIT:          0 MISS:          0 MSHR_MERGE:          0
cpu0->cpu0_L1D PREFETCH     ACCESS:          0 HIT:          0 MISS:          0 MSHR_MERGE:          0
cpu0->cpu0_L1D WRITE        ACCESS:    6769939 HIT:    6099181 MISS:     670758 MSHR_MERGE:     434504
cpu0->cpu0_L1D TRANSLATION  ACCESS:     286001 HIT:     254949 MISS:      31052 MSHR_MERGE:        697
cpu0->cpu0_L1D PREFETCH REQUESTED:          0 ISSUED:          0 USEFUL:          0 USELESS:          0
cpu0->cpu0_L1D AVERAGE MISS LATENCY: 143.6 cycles
cpu0->cpu0_ITLB TOTAL        ACCESS:    9945160 HIT:    9945160 MISS:          0 MSHR_MERGE:          0
cpu0->cpu0_ITLB LOAD         ACCESS:    9945160 HIT:    9945160 MISS:          0 MSHR_MERGE:          0
cpu0->cpu0_ITLB RFO          ACCESS:          0 HIT:          0 MISS:          0 MSHR_MERGE:          0
cpu0->cpu0_ITLB PREFETCH     ACCESS:          0 HIT:          0 MISS:          0 MSHR_MERGE:          0
cpu0->cpu0_ITLB WRITE        ACCESS:          0 HIT:          0 MISS:          0 MSHR_MERGE:          0
cpu0->cpu0_ITLB TRANSLATION  ACCESS:          0 HIT:          0 MISS:          0 MSHR_MERGE:          0
cpu0->cpu0_ITLB PREFETCH REQUESTED:          0 ISSUED:          0 USEFUL:          0 USELESS:          0
cpu0->cpu0_ITLB AVERAGE MISS LATENCY: - cycles
cpu0->cpu0_DTLB TOTAL        ACCESS:   46725449 HIT:   46443485 MISS:     281964 MSHR_MERGE:      86724
cpu0->cpu0_DTLB LOAD         ACCESS:   46725449 HIT:   46443485 MISS:     281964 MSHR_MERGE:      86724
cpu0->cpu0_DTLB RFO          ACCESS:          0 HIT:          0 MISS:          0 MSHR_MERGE:          0
cpu0->cpu0_DTLB PREFETCH     ACCESS:          0 HIT:          0 MISS:          0 MSHR_MERGE:          0
cpu0->cpu0_DTLB WRITE        ACCESS:          0 HIT:          0 MISS:          0 MSHR_MERGE:          0
cpu0->cpu0_DTLB TRANSLATION  ACCESS:          0 HIT:          0 MISS:          0 MSHR_MERGE:          0
cpu0->cpu0_DTLB PREFETCH REQUESTED:          0 ISSUED:          0 USEFUL:          0 USELESS:          0
cpu0->cpu0_DTLB AVERAGE MISS LATENCY: 45.22 cycles
cpu0->LLC TOTAL        ACCESS:    3919577 HIT:     617613 MISS:    3301964 MSHR_MERGE:          0
cpu0->LLC LOAD         ACCESS:    3090163 HIT:     314885 MISS:    2775278 MSHR_MERGE:          0
cpu0->LLC RFO          ACCESS:     223060 HIT:      73523 MISS:     149537 MSHR_MERGE:          0
cpu0->LLC PREFETCH     ACCESS:          0 HIT:          0 MISS:          0 MSHR_MERGE:          0
cpu0->LLC WRITE        ACCESS:     580566 HIT:     228854 MISS:     351712 MSHR_MERGE:          0
cpu0->LLC TRANSLATION  ACCESS:      25788 HIT:        351 MISS:      25437 MSHR_MERGE:          0
cpu0->LLC PREFETCH REQUESTED:          0 ISSUED:          0 USEFUL:          0 USELESS:          0
cpu0->LLC AVERAGE MISS LATENCY: 175.9 cycles

DRAM Statistics

Channel 0 RQ ROW_BUFFER_HIT:     115145
  ROW_BUFFER_MISS:    2835001
  AVG DBUS CONGESTED CYCLE: 31.33
Channel 0 WQ ROW_BUFFER_HIT:      94316
  ROW_BUFFER_MISS:     324684
  FULL:       1146
Channel 0 REFRESHES ISSUED:      58649
