[VMEM] WARNING: physical memory size is smaller than virtual memory size.

*** ChampSim Multicore Out-of-Order Simulator ***
Warmup Instructions: 50000000
Simulation Instructions: 200000000
Number of CPUs: 1
Page size: 4096
Core 0: /local-ssd/ben/dpc4-traces/gtraces_v2/tango_0004.champsim.gz
Off-chip DRAM Size: 64 GiB Channels: 1 Width: 64-bit Data Rate: 4807 MT/s
[BTB] WARNING: target of return is a lower address than the corresponding call. This is usually a problem with your trace.
[BTB] WARNING: target of return is a lower address than the corresponding call. This is usually a problem with your trace.
[BTB] WARNING: target of return is a lower address than the corresponding call. This is usually a problem with your trace.
[BTB] WARNING: target of return is a lower address than the corresponding call. This is usually a problem with your trace.
[BTB] WARNING: target of return is a lower address than the corresponding call. This is usually a problem with your trace.
[BTB] WARNING: target of return is a lower address than the corresponding call. This is usually a problem with your trace.
[BTB] WARNING: target of return is a lower address than the corresponding call. This is usually a problem with your trace.
Heartbeat CPU 0 instructions: 500002 cycles: 267373 heartbeat IPC: 1.87 cumulative IPC: 1.87 (Simulation time: 00 hr 00 min 05 sec)
[BTB] WARNING: target of return is a lower address than the corresponding call. This is usually a problem with your trace.
[BTB] WARNING: target of return is a lower address than the corresponding call. This is usually a problem with your trace.
[BTB] WARNING: target of return is a lower address than the corresponding call. This is usually a problem with your trace.
Heartbeat CPU 0 instructions: 1000007 cycles: 471738 heartbeat IPC: 2.447 cumulative IPC: 2.12 (Simulation time: 00 hr 00 min 08 sec)
Heartbeat CPU 0 instructions: 1500008 cycles: 605069 heartbeat IPC: 3.75 cumulative IPC: 2.479 (Simulation time: 00 hr 00 min 10 sec)
Heartbeat CPU 0 instructions: 2000008 cycles: 762090 heartbeat IPC: 3.184 cumulative IPC: 2.624 (Simulation time: 00 hr 00 min 12 sec)
Heartbeat CPU 0 instructions: 2500011 cycles: 929654 heartbeat IPC: 2.984 cumulative IPC: 2.689 (Simulation time: 00 hr 00 min 14 sec)
Heartbeat CPU 0 instructions: 3000015 cycles: 1078584 heartbeat IPC: 3.357 cumulative IPC: 2.781 (Simulation time: 00 hr 00 min 17 sec)
Heartbeat CPU 0 instructions: 3500018 cycles: 1250452 heartbeat IPC: 2.909 cumulative IPC: 2.799 (Simulation time: 00 hr 00 min 19 sec)
Heartbeat CPU 0 instructions: 4000020 cycles: 1476257 heartbeat IPC: 2.214 cumulative IPC: 2.71 (Simulation time: 00 hr 00 min 23 sec)
Heartbeat CPU 0 instructions: 4500021 cycles: 1604111 heartbeat IPC: 3.911 cumulative IPC: 2.805 (Simulation time: 00 hr 00 min 25 sec)
Heartbeat CPU 0 instructions: 5000028 cycles: 1758157 heartbeat IPC: 3.246 cumulative IPC: 2.844 (Simulation time: 00 hr 00 min 27 sec)
Heartbeat CPU 0 instructions: 5500030 cycles: 1909947 heartbeat IPC: 3.294 cumulative IPC: 2.88 (Simulation time: 00 hr 00 min 30 sec)
Heartbeat CPU 0 instructions: 6000034 cycles: 2064013 heartbeat IPC: 3.245 cumulative IPC: 2.907 (Simulation time: 00 hr 00 min 32 sec)
Heartbeat CPU 0 instructions: 6500035 cycles: 2217067 heartbeat IPC: 3.267 cumulative IPC: 2.932 (Simulation time: 00 hr 00 min 34 sec)
Heartbeat CPU 0 instructions: 7000040 cycles: 2356600 heartbeat IPC: 3.583 cumulative IPC: 2.97 (Simulation time: 00 hr 00 min 37 sec)
Heartbeat CPU 0 instructions: 7500041 cycles: 2497618 heartbeat IPC: 3.546 cumulative IPC: 3.003 (Simulation time: 00 hr 00 min 39 sec)
Heartbeat CPU 0 instructions: 8000043 cycles: 2656901 heartbeat IPC: 3.139 cumulative IPC: 3.011 (Simulation time: 00 hr 00 min 41 sec)
Heartbeat CPU 0 instructions: 8500049 cycles: 2795909 heartbeat IPC: 3.597 cumulative IPC: 3.04 (Simulation time: 00 hr 00 min 43 sec)
Heartbeat CPU 0 instructions: 9000052 cycles: 2941985 heartbeat IPC: 3.423 cumulative IPC: 3.059 (Simulation time: 00 hr 00 min 46 sec)
Heartbeat CPU 0 instructions: 9500058 cycles: 3101487 heartbeat IPC: 3.135 cumulative IPC: 3.063 (Simulation time: 00 hr 00 min 48 sec)
Heartbeat CPU 0 instructions: 10000060 cycles: 3256515 heartbeat IPC: 3.225 cumulative IPC: 3.071 (Simulation time: 00 hr 00 min 51 sec)
Heartbeat CPU 0 instructions: 10500060 cycles: 3398791 heartbeat IPC: 3.514 cumulative IPC: 3.089 (Simulation time: 00 hr 00 min 53 sec)
Heartbeat CPU 0 instructions: 11000067 cycles: 3505952 heartbeat IPC: 4.666 cumulative IPC: 3.138 (Simulation time: 00 hr 00 min 54 sec)
Heartbeat CPU 0 instructions: 11500070 cycles: 3646437 heartbeat IPC: 3.559 cumulative IPC: 3.154 (Simulation time: 00 hr 00 min 57 sec)
Heartbeat CPU 0 instructions: 12000075 cycles: 3806696 heartbeat IPC: 3.12 cumulative IPC: 3.152 (Simulation time: 00 hr 00 min 59 sec)
Heartbeat CPU 0 instructions: 12500082 cycles: 3986015 heartbeat IPC: 2.788 cumulative IPC: 3.136 (Simulation time: 00 hr 01 min 02 sec)
Heartbeat CPU 0 instructions: 13000085 cycles: 4121170 heartbeat IPC: 3.699 cumulative IPC: 3.154 (Simulation time: 00 hr 01 min 04 sec)
Heartbeat CPU 0 instructions: 13500085 cycles: 4253092 heartbeat IPC: 3.79 cumulative IPC: 3.174 (Simulation time: 00 hr 01 min 06 sec)
Heartbeat CPU 0 instructions: 14000092 cycles: 4386915 heartbeat IPC: 3.736 cumulative IPC: 3.191 (Simulation time: 00 hr 01 min 08 sec)
Heartbeat CPU 0 instructions: 14500096 cycles: 4532742 heartbeat IPC: 3.429 cumulative IPC: 3.199 (Simulation time: 00 hr 01 min 10 sec)
Heartbeat CPU 0 instructions: 15000101 cycles: 4674802 heartbeat IPC: 3.52 cumulative IPC: 3.209 (Simulation time: 00 hr 01 min 12 sec)
Heartbeat CPU 0 instructions: 15500103 cycles: 4801985 heartbeat IPC: 3.931 cumulative IPC: 3.228 (Simulation time: 00 hr 01 min 14 sec)
Heartbeat CPU 0 instructions: 16000103 cycles: 4966195 heartbeat IPC: 3.045 cumulative IPC: 3.222 (Simulation time: 00 hr 01 min 17 sec)
Heartbeat CPU 0 instructions: 16500106 cycles: 5099690 heartbeat IPC: 3.745 cumulative IPC: 3.236 (Simulation time: 00 hr 01 min 19 sec)
Heartbeat CPU 0 instructions: 17000112 cycles: 5239462 heartbeat IPC: 3.577 cumulative IPC: 3.245 (Simulation time: 00 hr 01 min 21 sec)
Heartbeat CPU 0 instructions: 17500118 cycles: 5377804 heartbeat IPC: 3.614 cumulative IPC: 3.254 (Simulation time: 00 hr 01 min 24 sec)
Heartbeat CPU 0 instructions: 18000124 cycles: 5538257 heartbeat IPC: 3.116 cumulative IPC: 3.25 (Simulation time: 00 hr 01 min 26 sec)
Heartbeat CPU 0 instructions: 18500131 cycles: 5682682 heartbeat IPC: 3.462 cumulative IPC: 3.256 (Simulation time: 00 hr 01 min 28 sec)
Heartbeat CPU 0 instructions: 19000137 cycles: 5831082 heartbeat IPC: 3.369 cumulative IPC: 3.258 (Simulation time: 00 hr 01 min 31 sec)
Heartbeat CPU 0 instructions: 19500137 cycles: 5982998 heartbeat IPC: 3.291 cumulative IPC: 3.259 (Simulation time: 00 hr 01 min 33 sec)
Heartbeat CPU 0 instructions: 20000144 cycles: 6123010 heartbeat IPC: 3.571 cumulative IPC: 3.266 (Simulation time: 00 hr 01 min 36 sec)
Heartbeat CPU 0 instructions: 20500149 cycles: 6288505 heartbeat IPC: 3.021 cumulative IPC: 3.26 (Simulation time: 00 hr 01 min 38 sec)
Heartbeat CPU 0 instructions: 21000152 cycles: 6429417 heartbeat IPC: 3.548 cumulative IPC: 3.266 (Simulation time: 00 hr 01 min 40 sec)
Heartbeat CPU 0 instructions: 21500153 cycles: 6575768 heartbeat IPC: 3.416 cumulative IPC: 3.27 (Simulation time: 00 hr 01 min 43 sec)
Heartbeat CPU 0 instructions: 22000160 cycles: 6712827 heartbeat IPC: 3.648 cumulative IPC: 3.277 (Simulation time: 00 hr 01 min 45 sec)
Heartbeat CPU 0 instructions: 22500165 cycles: 6855668 heartbeat IPC: 3.5 cumulative IPC: 3.282 (Simulation time: 00 hr 01 min 47 sec)
Heartbeat CPU 0 instructions: 23000168 cycles: 7017702 heartbeat IPC: 3.086 cumulative IPC: 3.277 (Simulation time: 00 hr 01 min 50 sec)
Heartbeat CPU 0 instructions: 23500173 cycles: 7147789 heartbeat IPC: 3.844 cumulative IPC: 3.288 (Simulation time: 00 hr 01 min 52 sec)
Heartbeat CPU 0 instructions: 24000178 cycles: 7286508 heartbeat IPC: 3.604 cumulative IPC: 3.294 (Simulation time: 00 hr 01 min 54 sec)
Heartbeat CPU 0 instructions: 24500179 cycles: 7416354 heartbeat IPC: 3.851 cumulative IPC: 3.304 (Simulation time: 00 hr 01 min 56 sec)
Heartbeat CPU 0 instructions: 25000185 cycles: 7551019 heartbeat IPC: 3.713 cumulative IPC: 3.311 (Simulation time: 00 hr 01 min 58 sec)
Heartbeat CPU 0 instructions: 25500188 cycles: 7709979 heartbeat IPC: 3.145 cumulative IPC: 3.307 (Simulation time: 00 hr 02 min 01 sec)
Heartbeat CPU 0 instructions: 26000193 cycles: 7819961 heartbeat IPC: 4.546 cumulative IPC: 3.325 (Simulation time: 00 hr 02 min 03 sec)
Heartbeat CPU 0 instructions: 26500198 cycles: 7961635 heartbeat IPC: 3.529 cumulative IPC: 3.328 (Simulation time: 00 hr 02 min 05 sec)
Heartbeat CPU 0 instructions: 27000205 cycles: 8087689 heartbeat IPC: 3.967 cumulative IPC: 3.338 (Simulation time: 00 hr 02 min 07 sec)
Heartbeat CPU 0 instructions: 27500206 cycles: 8224516 heartbeat IPC: 3.654 cumulative IPC: 3.344 (Simulation time: 00 hr 02 min 09 sec)
Heartbeat CPU 0 instructions: 28000212 cycles: 8351508 heartbeat IPC: 3.937 cumulative IPC: 3.353 (Simulation time: 00 hr 02 min 11 sec)
Heartbeat CPU 0 instructions: 28500214 cycles: 8527294 heartbeat IPC: 2.844 cumulative IPC: 3.342 (Simulation time: 00 hr 02 min 14 sec)
Heartbeat CPU 0 instructions: 29000216 cycles: 8687793 heartbeat IPC: 3.115 cumulative IPC: 3.338 (Simulation time: 00 hr 02 min 16 sec)
Heartbeat CPU 0 instructions: 29500222 cycles: 8839365 heartbeat IPC: 3.299 cumulative IPC: 3.337 (Simulation time: 00 hr 02 min 19 sec)
Heartbeat CPU 0 instructions: 30000223 cycles: 8957556 heartbeat IPC: 4.23 cumulative IPC: 3.349 (Simulation time: 00 hr 02 min 21 sec)
Heartbeat CPU 0 instructions: 30500226 cycles: 9094272 heartbeat IPC: 3.657 cumulative IPC: 3.354 (Simulation time: 00 hr 02 min 23 sec)
Heartbeat CPU 0 instructions: 31000231 cycles: 9217574 heartbeat IPC: 4.055 cumulative IPC: 3.363 (Simulation time: 00 hr 02 min 24 sec)
Heartbeat CPU 0 instructions: 31500233 cycles: 9351608 heartbeat IPC: 3.73 cumulative IPC: 3.368 (Simulation time: 00 hr 02 min 26 sec)
Heartbeat CPU 0 instructions: 32000239 cycles: 9493061 heartbeat IPC: 3.535 cumulative IPC: 3.371 (Simulation time: 00 hr 02 min 29 sec)
Heartbeat CPU 0 instructions: 32500245 cycles: 9637834 heartbeat IPC: 3.454 cumulative IPC: 3.372 (Simulation time: 00 hr 02 min 31 sec)
Heartbeat CPU 0 instructions: 33000246 cycles: 9787294 heartbeat IPC: 3.345 cumulative IPC: 3.372 (Simulation time: 00 hr 02 min 34 sec)
Heartbeat CPU 0 instructions: 33500250 cycles: 9938636 heartbeat IPC: 3.304 cumulative IPC: 3.371 (Simulation time: 00 hr 02 min 36 sec)
Heartbeat CPU 0 instructions: 34000255 cycles: 10069847 heartbeat IPC: 3.811 cumulative IPC: 3.376 (Simulation time: 00 hr 02 min 38 sec)
Heartbeat CPU 0 instructions: 34500261 cycles: 10226210 heartbeat IPC: 3.198 cumulative IPC: 3.374 (Simulation time: 00 hr 02 min 40 sec)
Heartbeat CPU 0 instructions: 35000267 cycles: 10360504 heartbeat IPC: 3.723 cumulative IPC: 3.378 (Simulation time: 00 hr 02 min 43 sec)
Heartbeat CPU 0 instructions: 35500271 cycles: 10508092 heartbeat IPC: 3.388 cumulative IPC: 3.378 (Simulation time: 00 hr 02 min 45 sec)
Heartbeat CPU 0 instructions: 36000271 cycles: 10633752 heartbeat IPC: 3.979 cumulative IPC: 3.385 (Simulation time: 00 hr 02 min 47 sec)
Heartbeat CPU 0 instructions: 36500276 cycles: 10773928 heartbeat IPC: 3.567 cumulative IPC: 3.388 (Simulation time: 00 hr 02 min 49 sec)
Heartbeat CPU 0 instructions: 37000277 cycles: 10896728 heartbeat IPC: 4.072 cumulative IPC: 3.396 (Simulation time: 00 hr 02 min 51 sec)
Heartbeat CPU 0 instructions: 37500284 cycles: 11041174 heartbeat IPC: 3.462 cumulative IPC: 3.396 (Simulation time: 00 hr 02 min 53 sec)
Heartbeat CPU 0 instructions: 38000286 cycles: 11176907 heartbeat IPC: 3.684 cumulative IPC: 3.4 (Simulation time: 00 hr 02 min 55 sec)
Heartbeat CPU 0 instructions: 38500292 cycles: 11311323 heartbeat IPC: 3.72 cumulative IPC: 3.404 (Simulation time: 00 hr 02 min 57 sec)
Heartbeat CPU 0 instructions: 39000297 cycles: 11441444 heartbeat IPC: 3.843 cumulative IPC: 3.409 (Simulation time: 00 hr 03 min 00 sec)
Heartbeat CPU 0 instructions: 39500300 cycles: 11563163 heartbeat IPC: 4.108 cumulative IPC: 3.416 (Simulation time: 00 hr 03 min 01 sec)
Heartbeat CPU 0 instructions: 40000304 cycles: 11701395 heartbeat IPC: 3.617 cumulative IPC: 3.418 (Simulation time: 00 hr 03 min 04 sec)
Heartbeat CPU 0 instructions: 40500309 cycles: 11824598 heartbeat IPC: 4.058 cumulative IPC: 3.425 (Simulation time: 00 hr 03 min 06 sec)
Heartbeat CPU 0 instructions: 41000310 cycles: 11977050 heartbeat IPC: 3.28 cumulative IPC: 3.423 (Simulation time: 00 hr 03 min 08 sec)
Heartbeat CPU 0 instructions: 41500312 cycles: 12109654 heartbeat IPC: 3.771 cumulative IPC: 3.427 (Simulation time: 00 hr 03 min 11 sec)
Heartbeat CPU 0 instructions: 42000314 cycles: 12241882 heartbeat IPC: 3.781 cumulative IPC: 3.431 (Simulation time: 00 hr 03 min 13 sec)
Heartbeat CPU 0 instructions: 42500320 cycles: 12373140 heartbeat IPC: 3.809 cumulative IPC: 3.435 (Simulation time: 00 hr 03 min 15 sec)
Heartbeat CPU 0 instructions: 43000324 cycles: 12506968 heartbeat IPC: 3.736 cumulative IPC: 3.438 (Simulation time: 00 hr 03 min 17 sec)
Heartbeat CPU 0 instructions: 43500325 cycles: 12650117 heartbeat IPC: 3.493 cumulative IPC: 3.439 (Simulation time: 00 hr 03 min 19 sec)
Heartbeat CPU 0 instructions: 44000332 cycles: 12767186 heartbeat IPC: 4.271 cumulative IPC: 3.446 (Simulation time: 00 hr 03 min 21 sec)
Heartbeat CPU 0 instructions: 44500334 cycles: 12874862 heartbeat IPC: 4.644 cumulative IPC: 3.456 (Simulation time: 00 hr 03 min 23 sec)
Heartbeat CPU 0 instructions: 45000340 cycles: 12999374 heartbeat IPC: 4.016 cumulative IPC: 3.462 (Simulation time: 00 hr 03 min 25 sec)
Heartbeat CPU 0 instructions: 45500343 cycles: 13125415 heartbeat IPC: 3.967 cumulative IPC: 3.467 (Simulation time: 00 hr 03 min 27 sec)
Heartbeat CPU 0 instructions: 46000343 cycles: 13261025 heartbeat IPC: 3.687 cumulative IPC: 3.469 (Simulation time: 00 hr 03 min 29 sec)
Heartbeat CPU 0 instructions: 46500345 cycles: 13377990 heartbeat IPC: 4.275 cumulative IPC: 3.476 (Simulation time: 00 hr 03 min 31 sec)
Heartbeat CPU 0 instructions: 47000347 cycles: 13494461 heartbeat IPC: 4.293 cumulative IPC: 3.483 (Simulation time: 00 hr 03 min 32 sec)
Heartbeat CPU 0 instructions: 47500354 cycles: 13647870 heartbeat IPC: 3.259 cumulative IPC: 3.48 (Simulation time: 00 hr 03 min 35 sec)
Heartbeat CPU 0 instructions: 48000358 cycles: 13753306 heartbeat IPC: 4.742 cumulative IPC: 3.49 (Simulation time: 00 hr 03 min 37 sec)
Heartbeat CPU 0 instructions: 48500358 cycles: 13881087 heartbeat IPC: 3.913 cumulative IPC: 3.494 (Simulation time: 00 hr 03 min 39 sec)
Heartbeat CPU 0 instructions: 49000359 cycles: 14004362 heartbeat IPC: 4.056 cumulative IPC: 3.499 (Simulation time: 00 hr 03 min 40 sec)
Heartbeat CPU 0 instructions: 49500361 cycles: 14142209 heartbeat IPC: 3.627 cumulative IPC: 3.5 (Simulation time: 00 hr 03 min 43 sec)
Warmup finished CPU 0 instructions: 50000002 cycles: 14279130 cumulative IPC: 3.502 (Simulation time: 00 hr 03 min 45 sec)
Warmup complete CPU 0 instructions: 50000002 cycles: 14279130 cumulative IPC: 3.502 (Simulation time: 00 hr 03 min 45 sec)
Heartbeat CPU 0 instructions: 50000361 cycles: 14279577 heartbeat IPC: 3.64 cumulative IPC: 0.8031 (Simulation time: 00 hr 03 min 45 sec)
Heartbeat CPU 0 instructions: 50500361 cycles: 15058658 heartbeat IPC: 0.6418 cumulative IPC: 0.6419 (Simulation time: 00 hr 03 min 50 sec)
Heartbeat CPU 0 instructions: 51000364 cycles: 15851960 heartbeat IPC: 0.6303 cumulative IPC: 0.636 (Simulation time: 00 hr 03 min 56 sec)
Heartbeat CPU 0 instructions: 51500364 cycles: 17070503 heartbeat IPC: 0.4103 cumulative IPC: 0.5375 (Simulation time: 00 hr 04 min 06 sec)
Heartbeat CPU 0 instructions: 52000364 cycles: 18178422 heartbeat IPC: 0.4513 cumulative IPC: 0.513 (Simulation time: 00 hr 04 min 14 sec)
Heartbeat CPU 0 instructions: 52500365 cycles: 18839433 heartbeat IPC: 0.7564 cumulative IPC: 0.5483 (Simulation time: 00 hr 04 min 19 sec)
Heartbeat CPU 0 instructions: 53000365 cycles: 19420542 heartbeat IPC: 0.8604 cumulative IPC: 0.5836 (Simulation time: 00 hr 04 min 23 sec)
Heartbeat CPU 0 instructions: 53500365 cycles: 20548843 heartbeat IPC: 0.4431 cumulative IPC: 0.5583 (Simulation time: 00 hr 04 min 31 sec)
Heartbeat CPU 0 instructions: 54000371 cycles: 20906091 heartbeat IPC: 1.4 cumulative IPC: 0.6037 (Simulation time: 00 hr 04 min 34 sec)
Heartbeat CPU 0 instructions: 54500375 cycles: 21186381 heartbeat IPC: 1.784 cumulative IPC: 0.6515 (Simulation time: 00 hr 04 min 36 sec)
Heartbeat CPU 0 instructions: 55000379 cycles: 22207107 heartbeat IPC: 0.4899 cumulative IPC: 0.6307 (Simulation time: 00 hr 04 min 43 sec)
Heartbeat CPU 0 instructions: 55500380 cycles: 23034273 heartbeat IPC: 0.6045 cumulative IPC: 0.6282 (Simulation time: 00 hr 04 min 50 sec)
Heartbeat CPU 0 instructions: 56000380 cycles: 24567097 heartbeat IPC: 0.3262 cumulative IPC: 0.5832 (Simulation time: 00 hr 04 min 59 sec)
Heartbeat CPU 0 instructions: 56500380 cycles: 25775426 heartbeat IPC: 0.4138 cumulative IPC: 0.5654 (Simulation time: 00 hr 05 min 07 sec)
Heartbeat CPU 0 instructions: 57000384 cycles: 26469560 heartbeat IPC: 0.7203 cumulative IPC: 0.5743 (Simulation time: 00 hr 05 min 12 sec)
Heartbeat CPU 0 instructions: 57500386 cycles: 28137570 heartbeat IPC: 0.2998 cumulative IPC: 0.5412 (Simulation time: 00 hr 05 min 22 sec)
Heartbeat CPU 0 instructions: 58000387 cycles: 29367356 heartbeat IPC: 0.4066 cumulative IPC: 0.5302 (Simulation time: 00 hr 05 min 31 sec)
Heartbeat CPU 0 instructions: 58500392 cycles: 30088301 heartbeat IPC: 0.6935 cumulative IPC: 0.5377 (Simulation time: 00 hr 05 min 37 sec)
Heartbeat CPU 0 instructions: 59000392 cycles: 30721124 heartbeat IPC: 0.7901 cumulative IPC: 0.5474 (Simulation time: 00 hr 05 min 43 sec)
Heartbeat CPU 0 instructions: 59500393 cycles: 31281293 heartbeat IPC: 0.8926 cumulative IPC: 0.5588 (Simulation time: 00 hr 05 min 48 sec)
Heartbeat CPU 0 instructions: 60000397 cycles: 31798043 heartbeat IPC: 0.9676 cumulative IPC: 0.5708 (Simulation time: 00 hr 05 min 53 sec)
Heartbeat CPU 0 instructions: 60500399 cycles: 32266637 heartbeat IPC: 1.067 cumulative IPC: 0.5838 (Simulation time: 00 hr 05 min 58 sec)
Heartbeat CPU 0 instructions: 61000403 cycles: 32841799 heartbeat IPC: 0.8693 cumulative IPC: 0.5926 (Simulation time: 00 hr 06 min 03 sec)
Heartbeat CPU 0 instructions: 61500403 cycles: 33207103 heartbeat IPC: 1.369 cumulative IPC: 0.6076 (Simulation time: 00 hr 06 min 07 sec)
Heartbeat CPU 0 instructions: 62000410 cycles: 33480313 heartbeat IPC: 1.83 cumulative IPC: 0.625 (Simulation time: 00 hr 06 min 09 sec)
Heartbeat CPU 0 instructions: 62500412 cycles: 33757029 heartbeat IPC: 1.807 cumulative IPC: 0.6418 (Simulation time: 00 hr 06 min 12 sec)
Heartbeat CPU 0 instructions: 63000414 cycles: 34013239 heartbeat IPC: 1.952 cumulative IPC: 0.6588 (Simulation time: 00 hr 06 min 15 sec)
Heartbeat CPU 0 instructions: 63500415 cycles: 34269732 heartbeat IPC: 1.949 cumulative IPC: 0.6753 (Simulation time: 00 hr 06 min 17 sec)
Heartbeat CPU 0 instructions: 64000417 cycles: 34524087 heartbeat IPC: 1.966 cumulative IPC: 0.6916 (Simulation time: 00 hr 06 min 20 sec)
Heartbeat CPU 0 instructions: 64500421 cycles: 34780859 heartbeat IPC: 1.947 cumulative IPC: 0.7073 (Simulation time: 00 hr 06 min 22 sec)
Heartbeat CPU 0 instructions: 65000425 cycles: 35034826 heartbeat IPC: 1.969 cumulative IPC: 0.7227 (Simulation time: 00 hr 06 min 25 sec)
Heartbeat CPU 0 instructions: 65500428 cycles: 35284297 heartbeat IPC: 2.004 cumulative IPC: 0.7379 (Simulation time: 00 hr 06 min 28 sec)
Heartbeat CPU 0 instructions: 66000429 cycles: 35536246 heartbeat IPC: 1.985 cumulative IPC: 0.7527 (Simulation time: 00 hr 06 min 30 sec)
Heartbeat CPU 0 instructions: 66500434 cycles: 35794968 heartbeat IPC: 1.933 cumulative IPC: 0.7669 (Simulation time: 00 hr 06 min 33 sec)
Heartbeat CPU 0 instructions: 67000437 cycles: 36073308 heartbeat IPC: 1.796 cumulative IPC: 0.78 (Simulation time: 00 hr 06 min 36 sec)
Heartbeat CPU 0 instructions: 67500437 cycles: 36452950 heartbeat IPC: 1.317 cumulative IPC: 0.7892 (Simulation time: 00 hr 06 min 40 sec)
Heartbeat CPU 0 instructions: 68000437 cycles: 37667607 heartbeat IPC: 0.4116 cumulative IPC: 0.7696 (Simulation time: 00 hr 06 min 49 sec)
Heartbeat CPU 0 instructions: 68500443 cycles: 38204571 heartbeat IPC: 0.9312 cumulative IPC: 0.7733 (Simulation time: 00 hr 06 min 54 sec)
Heartbeat CPU 0 instructions: 69000444 cycles: 38600834 heartbeat IPC: 1.262 cumulative IPC: 0.7812 (Simulation time: 00 hr 06 min 58 sec)
Heartbeat CPU 0 instructions: 69500450 cycles: 38781888 heartbeat IPC: 2.762 cumulative IPC: 0.7958 (Simulation time: 00 hr 07 min 00 sec)
Heartbeat CPU 0 instructions: 70000452 cycles: 39287774 heartbeat IPC: 0.9884 cumulative IPC: 0.7997 (Simulation time: 00 hr 07 min 04 sec)
Heartbeat CPU 0 instructions: 70500457 cycles: 39709293 heartbeat IPC: 1.186 cumulative IPC: 0.8061 (Simulation time: 00 hr 07 min 08 sec)
Heartbeat CPU 0 instructions: 71000459 cycles: 39994417 heartbeat IPC: 1.754 cumulative IPC: 0.8167 (Simulation time: 00 hr 07 min 11 sec)
Heartbeat CPU 0 instructions: 71500461 cycles: 40586167 heartbeat IPC: 0.845 cumulative IPC: 0.8173 (Simulation time: 00 hr 07 min 17 sec)
Heartbeat CPU 0 instructions: 72000464 cycles: 41413646 heartbeat IPC: 0.6042 cumulative IPC: 0.8108 (Simulation time: 00 hr 07 min 24 sec)
Heartbeat CPU 0 instructions: 72500466 cycles: 42105764 heartbeat IPC: 0.7224 cumulative IPC: 0.8086 (Simulation time: 00 hr 07 min 30 sec)
Heartbeat CPU 0 instructions: 73000466 cycles: 42456002 heartbeat IPC: 1.428 cumulative IPC: 0.8163 (Simulation time: 00 hr 07 min 33 sec)
Heartbeat CPU 0 instructions: 73500473 cycles: 42781092 heartbeat IPC: 1.538 cumulative IPC: 0.8245 (Simulation time: 00 hr 07 min 37 sec)
Heartbeat CPU 0 instructions: 74000473 cycles: 42973387 heartbeat IPC: 2.6 cumulative IPC: 0.8364 (Simulation time: 00 hr 07 min 40 sec)
Heartbeat CPU 0 instructions: 74500474 cycles: 43228612 heartbeat IPC: 1.959 cumulative IPC: 0.8463 (Simulation time: 00 hr 07 min 42 sec)
Heartbeat CPU 0 instructions: 75000476 cycles: 43431968 heartbeat IPC: 2.459 cumulative IPC: 0.8576 (Simulation time: 00 hr 07 min 45 sec)
Heartbeat CPU 0 instructions: 75500483 cycles: 43717567 heartbeat IPC: 1.751 cumulative IPC: 0.8662 (Simulation time: 00 hr 07 min 48 sec)
Heartbeat CPU 0 instructions: 76000485 cycles: 43941566 heartbeat IPC: 2.232 cumulative IPC: 0.8765 (Simulation time: 00 hr 07 min 50 sec)
Heartbeat CPU 0 instructions: 76500485 cycles: 44195438 heartbeat IPC: 1.969 cumulative IPC: 0.8858 (Simulation time: 00 hr 07 min 53 sec)
Heartbeat CPU 0 instructions: 77000492 cycles: 44431171 heartbeat IPC: 2.121 cumulative IPC: 0.8955 (Simulation time: 00 hr 07 min 56 sec)
Heartbeat CPU 0 instructions: 77500492 cycles: 45652131 heartbeat IPC: 0.4095 cumulative IPC: 0.8766 (Simulation time: 00 hr 08 min 05 sec)
Heartbeat CPU 0 instructions: 78000498 cycles: 46663946 heartbeat IPC: 0.4942 cumulative IPC: 0.8646 (Simulation time: 00 hr 08 min 11 sec)
Heartbeat CPU 0 instructions: 78500499 cycles: 47180251 heartbeat IPC: 0.9684 cumulative IPC: 0.8662 (Simulation time: 00 hr 08 min 15 sec)
Heartbeat CPU 0 instructions: 79000504 cycles: 48677733 heartbeat IPC: 0.3339 cumulative IPC: 0.8431 (Simulation time: 00 hr 08 min 25 sec)
Heartbeat CPU 0 instructions: 79500505 cycles: 50091012 heartbeat IPC: 0.3538 cumulative IPC: 0.8238 (Simulation time: 00 hr 08 min 35 sec)
Heartbeat CPU 0 instructions: 80000506 cycles: 51728143 heartbeat IPC: 0.3054 cumulative IPC: 0.8011 (Simulation time: 00 hr 08 min 45 sec)
Heartbeat CPU 0 instructions: 80500506 cycles: 52935726 heartbeat IPC: 0.4141 cumulative IPC: 0.789 (Simulation time: 00 hr 08 min 53 sec)
Heartbeat CPU 0 instructions: 81000506 cycles: 53599114 heartbeat IPC: 0.7537 cumulative IPC: 0.7884 (Simulation time: 00 hr 08 min 58 sec)
Heartbeat CPU 0 instructions: 81500507 cycles: 54491648 heartbeat IPC: 0.5602 cumulative IPC: 0.7834 (Simulation time: 00 hr 09 min 04 sec)
Heartbeat CPU 0 instructions: 82000508 cycles: 54985466 heartbeat IPC: 1.013 cumulative IPC: 0.7861 (Simulation time: 00 hr 09 min 08 sec)
Heartbeat CPU 0 instructions: 82500511 cycles: 55606964 heartbeat IPC: 0.8045 cumulative IPC: 0.7864 (Simulation time: 00 hr 09 min 13 sec)
Heartbeat CPU 0 instructions: 83000514 cycles: 57126786 heartbeat IPC: 0.329 cumulative IPC: 0.7702 (Simulation time: 00 hr 09 min 25 sec)
Heartbeat CPU 0 instructions: 83500514 cycles: 57997245 heartbeat IPC: 0.5744 cumulative IPC: 0.7663 (Simulation time: 00 hr 09 min 31 sec)
Heartbeat CPU 0 instructions: 84000516 cycles: 58630140 heartbeat IPC: 0.79 cumulative IPC: 0.7666 (Simulation time: 00 hr 09 min 36 sec)
Heartbeat CPU 0 instructions: 84500516 cycles: 59693809 heartbeat IPC: 0.4701 cumulative IPC: 0.7597 (Simulation time: 00 hr 09 min 43 sec)
Heartbeat CPU 0 instructions: 85000517 cycles: 61007381 heartbeat IPC: 0.3806 cumulative IPC: 0.749 (Simulation time: 00 hr 09 min 51 sec)
Heartbeat CPU 0 instructions: 85500519 cycles: 62348361 heartbeat IPC: 0.3729 cumulative IPC: 0.7385 (Simulation time: 00 hr 10 min 00 sec)
Heartbeat CPU 0 instructions: 86000519 cycles: 63521575 heartbeat IPC: 0.4262 cumulative IPC: 0.7311 (Simulation time: 00 hr 10 min 08 sec)
Heartbeat CPU 0 instructions: 86500523 cycles: 64743389 heartbeat IPC: 0.4092 cumulative IPC: 0.7233 (Simulation time: 00 hr 10 min 16 sec)
Heartbeat CPU 0 instructions: 87000523 cycles: 65555631 heartbeat IPC: 0.6156 cumulative IPC: 0.7216 (Simulation time: 00 hr 10 min 22 sec)
Heartbeat CPU 0 instructions: 87500524 cycles: 66525532 heartbeat IPC: 0.5155 cumulative IPC: 0.7178 (Simulation time: 00 hr 10 min 28 sec)
Heartbeat CPU 0 instructions: 88000524 cycles: 67518635 heartbeat IPC: 0.5035 cumulative IPC: 0.7138 (Simulation time: 00 hr 10 min 35 sec)
Heartbeat CPU 0 instructions: 88500524 cycles: 68313756 heartbeat IPC: 0.6288 cumulative IPC: 0.7125 (Simulation time: 00 hr 10 min 41 sec)
Heartbeat CPU 0 instructions: 89000524 cycles: 69419651 heartbeat IPC: 0.4521 cumulative IPC: 0.7073 (Simulation time: 00 hr 10 min 49 sec)
Heartbeat CPU 0 instructions: 89500528 cycles: 70687504 heartbeat IPC: 0.3944 cumulative IPC: 0.7003 (Simulation time: 00 hr 10 min 57 sec)
Heartbeat CPU 0 instructions: 90000531 cycles: 71528116 heartbeat IPC: 0.5948 cumulative IPC: 0.6987 (Simulation time: 00 hr 11 min 03 sec)
Heartbeat CPU 0 instructions: 90500531 cycles: 72634066 heartbeat IPC: 0.4521 cumulative IPC: 0.694 (Simulation time: 00 hr 11 min 10 sec)
Heartbeat CPU 0 instructions: 91000532 cycles: 73754085 heartbeat IPC: 0.4464 cumulative IPC: 0.6894 (Simulation time: 00 hr 11 min 18 sec)
Heartbeat CPU 0 instructions: 91500539 cycles: 74686452 heartbeat IPC: 0.5363 cumulative IPC: 0.687 (Simulation time: 00 hr 11 min 24 sec)
Heartbeat CPU 0 instructions: 92000544 cycles: 75742601 heartbeat IPC: 0.4734 cumulative IPC: 0.6833 (Simulation time: 00 hr 11 min 32 sec)
Heartbeat CPU 0 instructions: 92500544 cycles: 76680778 heartbeat IPC: 0.5329 cumulative IPC: 0.6811 (Simulation time: 00 hr 11 min 39 sec)
Heartbeat CPU 0 instructions: 93000546 cycles: 77406894 heartbeat IPC: 0.6886 cumulative IPC: 0.6812 (Simulation time: 00 hr 11 min 44 sec)
Heartbeat CPU 0 instructions: 93500546 cycles: 78275948 heartbeat IPC: 0.5753 cumulative IPC: 0.6797 (Simulation time: 00 hr 11 min 50 sec)
Heartbeat CPU 0 instructions: 94000546 cycles: 79718011 heartbeat IPC: 0.3467 cumulative IPC: 0.6724 (Simulation time: 00 hr 11 min 59 sec)
Heartbeat CPU 0 instructions: 94500546 cycles: 80788863 heartbeat IPC: 0.4669 cumulative IPC: 0.6691 (Simulation time: 00 hr 12 min 07 sec)
Heartbeat CPU 0 instructions: 95000547 cycles: 82104879 heartbeat IPC: 0.3799 cumulative IPC: 0.6635 (Simulation time: 00 hr 12 min 15 sec)
Heartbeat CPU 0 instructions: 95500554 cycles: 82738022 heartbeat IPC: 0.7897 cumulative IPC: 0.6646 (Simulation time: 00 hr 12 min 20 sec)
Heartbeat CPU 0 instructions: 96000554 cycles: 83237198 heartbeat IPC: 1.002 cumulative IPC: 0.6671 (Simulation time: 00 hr 12 min 24 sec)
Heartbeat CPU 0 instructions: 96500556 cycles: 84279679 heartbeat IPC: 0.4796 cumulative IPC: 0.6643 (Simulation time: 00 hr 12 min 31 sec)
Heartbeat CPU 0 instructions: 97000563 cycles: 84730012 heartbeat IPC: 1.11 cumulative IPC: 0.6671 (Simulation time: 00 hr 12 min 35 sec)
Heartbeat CPU 0 instructions: 97500565 cycles: 85097821 heartbeat IPC: 1.359 cumulative IPC: 0.6707 (Simulation time: 00 hr 12 min 38 sec)
Heartbeat CPU 0 instructions: 98000566 cycles: 85339083 heartbeat IPC: 2.072 cumulative IPC: 0.6755 (Simulation time: 00 hr 12 min 40 sec)
Heartbeat CPU 0 instructions: 98500568 cycles: 86244254 heartbeat IPC: 0.5524 cumulative IPC: 0.6739 (Simulation time: 00 hr 12 min 47 sec)
Heartbeat CPU 0 instructions: 99000569 cycles: 87223577 heartbeat IPC: 0.5106 cumulative IPC: 0.6718 (Simulation time: 00 hr 12 min 53 sec)
Heartbeat CPU 0 instructions: 99500569 cycles: 87924863 heartbeat IPC: 0.713 cumulative IPC: 0.6721 (Simulation time: 00 hr 12 min 59 sec)
Heartbeat CPU 0 instructions: 100000569 cycles: 88587386 heartbeat IPC: 0.7547 cumulative IPC: 0.6729 (Simulation time: 00 hr 13 min 04 sec)
Heartbeat CPU 0 instructions: 100500570 cycles: 89104026 heartbeat IPC: 0.9678 cumulative IPC: 0.6749 (Simulation time: 00 hr 13 min 08 sec)
Heartbeat CPU 0 instructions: 101000571 cycles: 90075069 heartbeat IPC: 0.5149 cumulative IPC: 0.6729 (Simulation time: 00 hr 13 min 14 sec)
Heartbeat CPU 0 instructions: 101500575 cycles: 91325443 heartbeat IPC: 0.3999 cumulative IPC: 0.6684 (Simulation time: 00 hr 13 min 22 sec)
Heartbeat CPU 0 instructions: 102000576 cycles: 92340253 heartbeat IPC: 0.4927 cumulative IPC: 0.6662 (Simulation time: 00 hr 13 min 29 sec)
Heartbeat CPU 0 instructions: 102500576 cycles: 92736092 heartbeat IPC: 1.263 cumulative IPC: 0.6692 (Simulation time: 00 hr 13 min 33 sec)
Heartbeat CPU 0 instructions: 103000577 cycles: 94620881 heartbeat IPC: 0.2653 cumulative IPC: 0.6597 (Simulation time: 00 hr 13 min 46 sec)
Heartbeat CPU 0 instructions: 103500583 cycles: 95420815 heartbeat IPC: 0.6251 cumulative IPC: 0.6593 (Simulation time: 00 hr 13 min 52 sec)
Heartbeat CPU 0 instructions: 104000583 cycles: 96071799 heartbeat IPC: 0.7681 cumulative IPC: 0.6602 (Simulation time: 00 hr 13 min 56 sec)
Heartbeat CPU 0 instructions: 104500587 cycles: 97296097 heartbeat IPC: 0.4084 cumulative IPC: 0.6565 (Simulation time: 00 hr 14 min 04 sec)
Heartbeat CPU 0 instructions: 105000591 cycles: 97583552 heartbeat IPC: 1.739 cumulative IPC: 0.6602 (Simulation time: 00 hr 14 min 07 sec)
Heartbeat CPU 0 instructions: 105500591 cycles: 98050531 heartbeat IPC: 1.071 cumulative IPC: 0.6625 (Simulation time: 00 hr 14 min 11 sec)
Heartbeat CPU 0 instructions: 106000597 cycles: 98694003 heartbeat IPC: 0.777 cumulative IPC: 0.6634 (Simulation time: 00 hr 14 min 16 sec)
Heartbeat CPU 0 instructions: 106500599 cycles: 99420512 heartbeat IPC: 0.6882 cumulative IPC: 0.6636 (Simulation time: 00 hr 14 min 21 sec)
Heartbeat CPU 0 instructions: 107000604 cycles: 100628982 heartbeat IPC: 0.4138 cumulative IPC: 0.6601 (Simulation time: 00 hr 14 min 29 sec)
Heartbeat CPU 0 instructions: 107500605 cycles: 101565239 heartbeat IPC: 0.534 cumulative IPC: 0.6588 (Simulation time: 00 hr 14 min 36 sec)
Heartbeat CPU 0 instructions: 108000607 cycles: 102587719 heartbeat IPC: 0.489 cumulative IPC: 0.6568 (Simulation time: 00 hr 14 min 43 sec)
Heartbeat CPU 0 instructions: 108500608 cycles: 103272457 heartbeat IPC: 0.7302 cumulative IPC: 0.6574 (Simulation time: 00 hr 14 min 48 sec)
Heartbeat CPU 0 instructions: 109000610 cycles: 104600771 heartbeat IPC: 0.3764 cumulative IPC: 0.6532 (Simulation time: 00 hr 14 min 56 sec)
Heartbeat CPU 0 instructions: 109500610 cycles: 105360923 heartbeat IPC: 0.6578 cumulative IPC: 0.6533 (Simulation time: 00 hr 15 min 02 sec)
Heartbeat CPU 0 instructions: 110000611 cycles: 106311758 heartbeat IPC: 0.5259 cumulative IPC: 0.6519 (Simulation time: 00 hr 15 min 08 sec)
Heartbeat CPU 0 instructions: 110500614 cycles: 107093638 heartbeat IPC: 0.6395 cumulative IPC: 0.6518 (Simulation time: 00 hr 15 min 14 sec)
Heartbeat CPU 0 instructions: 111000615 cycles: 107898648 heartbeat IPC: 0.6211 cumulative IPC: 0.6516 (Simulation time: 00 hr 15 min 19 sec)
Heartbeat CPU 0 instructions: 111500618 cycles: 108934100 heartbeat IPC: 0.4829 cumulative IPC: 0.6497 (Simulation time: 00 hr 15 min 28 sec)
Heartbeat CPU 0 instructions: 112000618 cycles: 109929377 heartbeat IPC: 0.5024 cumulative IPC: 0.6482 (Simulation time: 00 hr 15 min 35 sec)
Heartbeat CPU 0 instructions: 112500625 cycles: 110808038 heartbeat IPC: 0.5691 cumulative IPC: 0.6475 (Simulation time: 00 hr 15 min 41 sec)
Heartbeat CPU 0 instructions: 113000631 cycles: 111058240 heartbeat IPC: 1.998 cumulative IPC: 0.651 (Simulation time: 00 hr 15 min 43 sec)
Heartbeat CPU 0 instructions: 113500637 cycles: 112216130 heartbeat IPC: 0.4318 cumulative IPC: 0.6484 (Simulation time: 00 hr 15 min 51 sec)
Heartbeat CPU 0 instructions: 114000637 cycles: 113475129 heartbeat IPC: 0.3971 cumulative IPC: 0.6452 (Simulation time: 00 hr 15 min 59 sec)
Heartbeat CPU 0 instructions: 114500642 cycles: 114342830 heartbeat IPC: 0.5762 cumulative IPC: 0.6446 (Simulation time: 00 hr 16 min 05 sec)
Heartbeat CPU 0 instructions: 115000642 cycles: 115325323 heartbeat IPC: 0.5089 cumulative IPC: 0.6433 (Simulation time: 00 hr 16 min 12 sec)
Heartbeat CPU 0 instructions: 115500642 cycles: 116416369 heartbeat IPC: 0.4583 cumulative IPC: 0.6413 (Simulation time: 00 hr 16 min 19 sec)
Heartbeat CPU 0 instructions: 116000643 cycles: 117128738 heartbeat IPC: 0.7019 cumulative IPC: 0.6417 (Simulation time: 00 hr 16 min 25 sec)
Heartbeat CPU 0 instructions: 116500644 cycles: 117869043 heartbeat IPC: 0.6754 cumulative IPC: 0.642 (Simulation time: 00 hr 16 min 30 sec)
Heartbeat CPU 0 instructions: 117000649 cycles: 118240463 heartbeat IPC: 1.346 cumulative IPC: 0.6445 (Simulation time: 00 hr 16 min 34 sec)
Heartbeat CPU 0 instructions: 117500649 cycles: 119190355 heartbeat IPC: 0.5264 cumulative IPC: 0.6434 (Simulation time: 00 hr 16 min 41 sec)
Heartbeat CPU 0 instructions: 118000649 cycles: 120294618 heartbeat IPC: 0.4528 cumulative IPC: 0.6414 (Simulation time: 00 hr 16 min 48 sec)
Heartbeat CPU 0 instructions: 118500649 cycles: 121770519 heartbeat IPC: 0.3388 cumulative IPC: 0.6373 (Simulation time: 00 hr 16 min 58 sec)
Heartbeat CPU 0 instructions: 119000651 cycles: 122932952 heartbeat IPC: 0.4301 cumulative IPC: 0.6351 (Simulation time: 00 hr 17 min 06 sec)
Heartbeat CPU 0 instructions: 119500658 cycles: 123840399 heartbeat IPC: 0.551 cumulative IPC: 0.6344 (Simulation time: 00 hr 17 min 12 sec)
Heartbeat CPU 0 instructions: 120000660 cycles: 124511269 heartbeat IPC: 0.7453 cumulative IPC: 0.635 (Simulation time: 00 hr 17 min 17 sec)
Heartbeat CPU 0 instructions: 120500660 cycles: 125519726 heartbeat IPC: 0.4958 cumulative IPC: 0.6338 (Simulation time: 00 hr 17 min 24 sec)
Heartbeat CPU 0 instructions: 121000663 cycles: 126546916 heartbeat IPC: 0.4868 cumulative IPC: 0.6324 (Simulation time: 00 hr 17 min 31 sec)
Heartbeat CPU 0 instructions: 121500668 cycles: 127065417 heartbeat IPC: 0.9643 cumulative IPC: 0.6339 (Simulation time: 00 hr 17 min 35 sec)
Heartbeat CPU 0 instructions: 122000674 cycles: 127645493 heartbeat IPC: 0.862 cumulative IPC: 0.6351 (Simulation time: 00 hr 17 min 39 sec)
Heartbeat CPU 0 instructions: 122500679 cycles: 128053855 heartbeat IPC: 1.224 cumulative IPC: 0.6372 (Simulation time: 00 hr 17 min 43 sec)
Heartbeat CPU 0 instructions: 123000686 cycles: 128640011 heartbeat IPC: 0.853 cumulative IPC: 0.6383 (Simulation time: 00 hr 17 min 48 sec)
Heartbeat CPU 0 instructions: 123500691 cycles: 130270741 heartbeat IPC: 0.3066 cumulative IPC: 0.6337 (Simulation time: 00 hr 17 min 59 sec)
Heartbeat CPU 0 instructions: 124000696 cycles: 131291855 heartbeat IPC: 0.4897 cumulative IPC: 0.6324 (Simulation time: 00 hr 18 min 07 sec)
Heartbeat CPU 0 instructions: 124500702 cycles: 132200137 heartbeat IPC: 0.5505 cumulative IPC: 0.6318 (Simulation time: 00 hr 18 min 14 sec)
Heartbeat CPU 0 instructions: 125000702 cycles: 132953583 heartbeat IPC: 0.6636 cumulative IPC: 0.632 (Simulation time: 00 hr 18 min 23 sec)
Heartbeat CPU 0 instructions: 125500704 cycles: 133774457 heartbeat IPC: 0.6091 cumulative IPC: 0.6318 (Simulation time: 00 hr 18 min 31 sec)
Heartbeat CPU 0 instructions: 126000710 cycles: 134329463 heartbeat IPC: 0.9009 cumulative IPC: 0.6331 (Simulation time: 00 hr 18 min 36 sec)
Heartbeat CPU 0 instructions: 126500710 cycles: 134847292 heartbeat IPC: 0.9656 cumulative IPC: 0.6345 (Simulation time: 00 hr 18 min 41 sec)
Heartbeat CPU 0 instructions: 127000712 cycles: 135437663 heartbeat IPC: 0.8469 cumulative IPC: 0.6355 (Simulation time: 00 hr 18 min 46 sec)
Heartbeat CPU 0 instructions: 127500718 cycles: 135976725 heartbeat IPC: 0.9275 cumulative IPC: 0.6368 (Simulation time: 00 hr 18 min 51 sec)
Heartbeat CPU 0 instructions: 128000725 cycles: 136548409 heartbeat IPC: 0.8746 cumulative IPC: 0.6379 (Simulation time: 00 hr 18 min 56 sec)
Heartbeat CPU 0 instructions: 128500725 cycles: 136975547 heartbeat IPC: 1.171 cumulative IPC: 0.6398 (Simulation time: 00 hr 19 min 01 sec)
Heartbeat CPU 0 instructions: 129000725 cycles: 137548425 heartbeat IPC: 0.8728 cumulative IPC: 0.6409 (Simulation time: 00 hr 19 min 06 sec)
Heartbeat CPU 0 instructions: 129500731 cycles: 139286962 heartbeat IPC: 0.2876 cumulative IPC: 0.636 (Simulation time: 00 hr 19 min 17 sec)
Heartbeat CPU 0 instructions: 130000732 cycles: 140535581 heartbeat IPC: 0.4004 cumulative IPC: 0.6336 (Simulation time: 00 hr 19 min 26 sec)
Heartbeat CPU 0 instructions: 130500732 cycles: 142298830 heartbeat IPC: 0.2836 cumulative IPC: 0.6288 (Simulation time: 00 hr 19 min 37 sec)
Heartbeat CPU 0 instructions: 131000733 cycles: 143571161 heartbeat IPC: 0.393 cumulative IPC: 0.6265 (Simulation time: 00 hr 19 min 45 sec)
Heartbeat CPU 0 instructions: 131500737 cycles: 144724422 heartbeat IPC: 0.4336 cumulative IPC: 0.6248 (Simulation time: 00 hr 19 min 53 sec)
Heartbeat CPU 0 instructions: 132000737 cycles: 145342539 heartbeat IPC: 0.8089 cumulative IPC: 0.6257 (Simulation time: 00 hr 19 min 57 sec)
Heartbeat CPU 0 instructions: 132500738 cycles: 145925232 heartbeat IPC: 0.8581 cumulative IPC: 0.6267 (Simulation time: 00 hr 20 min 02 sec)
Heartbeat CPU 0 instructions: 133000742 cycles: 146437953 heartbeat IPC: 0.9752 cumulative IPC: 0.628 (Simulation time: 00 hr 20 min 06 sec)
Heartbeat CPU 0 instructions: 133500742 cycles: 147686866 heartbeat IPC: 0.4003 cumulative IPC: 0.6259 (Simulation time: 00 hr 20 min 15 sec)
Heartbeat CPU 0 instructions: 134000743 cycles: 149182981 heartbeat IPC: 0.3342 cumulative IPC: 0.6227 (Simulation time: 00 hr 20 min 24 sec)
Heartbeat CPU 0 instructions: 134500750 cycles: 150170456 heartbeat IPC: 0.5063 cumulative IPC: 0.6218 (Simulation time: 00 hr 20 min 31 sec)
Heartbeat CPU 0 instructions: 135000756 cycles: 151260597 heartbeat IPC: 0.4587 cumulative IPC: 0.6205 (Simulation time: 00 hr 20 min 39 sec)
Heartbeat CPU 0 instructions: 135500756 cycles: 153093724 heartbeat IPC: 0.2728 cumulative IPC: 0.6159 (Simulation time: 00 hr 20 min 49 sec)
Heartbeat CPU 0 instructions: 136000756 cycles: 153959152 heartbeat IPC: 0.5777 cumulative IPC: 0.6157 (Simulation time: 00 hr 20 min 55 sec)
Heartbeat CPU 0 instructions: 136500756 cycles: 154487771 heartbeat IPC: 0.9459 cumulative IPC: 0.6169 (Simulation time: 00 hr 20 min 59 sec)
Heartbeat CPU 0 instructions: 137000756 cycles: 156011696 heartbeat IPC: 0.3281 cumulative IPC: 0.6138 (Simulation time: 00 hr 21 min 09 sec)
Heartbeat CPU 0 instructions: 137500757 cycles: 157147866 heartbeat IPC: 0.4401 cumulative IPC: 0.6125 (Simulation time: 00 hr 21 min 16 sec)
Heartbeat CPU 0 instructions: 138000758 cycles: 157639207 heartbeat IPC: 1.018 cumulative IPC: 0.6138 (Simulation time: 00 hr 21 min 20 sec)
Heartbeat CPU 0 instructions: 138500765 cycles: 157865269 heartbeat IPC: 2.212 cumulative IPC: 0.6164 (Simulation time: 00 hr 21 min 22 sec)
Heartbeat CPU 0 instructions: 139000766 cycles: 158231831 heartbeat IPC: 1.364 cumulative IPC: 0.6183 (Simulation time: 00 hr 21 min 25 sec)
Heartbeat CPU 0 instructions: 139500766 cycles: 158513392 heartbeat IPC: 1.776 cumulative IPC: 0.6205 (Simulation time: 00 hr 21 min 28 sec)
Heartbeat CPU 0 instructions: 140000767 cycles: 159364746 heartbeat IPC: 0.5873 cumulative IPC: 0.6203 (Simulation time: 00 hr 21 min 34 sec)
Heartbeat CPU 0 instructions: 140500770 cycles: 159936351 heartbeat IPC: 0.8747 cumulative IPC: 0.6213 (Simulation time: 00 hr 21 min 39 sec)
Heartbeat CPU 0 instructions: 141000772 cycles: 160458865 heartbeat IPC: 0.9569 cumulative IPC: 0.6225 (Simulation time: 00 hr 21 min 43 sec)
Heartbeat CPU 0 instructions: 141500775 cycles: 161947316 heartbeat IPC: 0.3359 cumulative IPC: 0.6196 (Simulation time: 00 hr 21 min 53 sec)
Heartbeat CPU 0 instructions: 142000775 cycles: 162749209 heartbeat IPC: 0.6235 cumulative IPC: 0.6197 (Simulation time: 00 hr 21 min 58 sec)
Heartbeat CPU 0 instructions: 142500775 cycles: 163670994 heartbeat IPC: 0.5424 cumulative IPC: 0.6192 (Simulation time: 00 hr 22 min 05 sec)
Heartbeat CPU 0 instructions: 143000778 cycles: 164478487 heartbeat IPC: 0.6192 cumulative IPC: 0.6192 (Simulation time: 00 hr 22 min 10 sec)
Heartbeat CPU 0 instructions: 143500784 cycles: 165433577 heartbeat IPC: 0.5235 cumulative IPC: 0.6186 (Simulation time: 00 hr 22 min 17 sec)
Heartbeat CPU 0 instructions: 144000785 cycles: 166518753 heartbeat IPC: 0.4608 cumulative IPC: 0.6175 (Simulation time: 00 hr 22 min 24 sec)
Heartbeat CPU 0 instructions: 144500785 cycles: 167731135 heartbeat IPC: 0.4124 cumulative IPC: 0.6158 (Simulation time: 00 hr 22 min 32 sec)
Heartbeat CPU 0 instructions: 145000790 cycles: 168388831 heartbeat IPC: 0.7602 cumulative IPC: 0.6164 (Simulation time: 00 hr 22 min 37 sec)
Heartbeat CPU 0 instructions: 145500790 cycles: 169564031 heartbeat IPC: 0.4255 cumulative IPC: 0.615 (Simulation time: 00 hr 22 min 44 sec)
Heartbeat CPU 0 instructions: 146000796 cycles: 170321128 heartbeat IPC: 0.6604 cumulative IPC: 0.6152 (Simulation time: 00 hr 22 min 50 sec)
Heartbeat CPU 0 instructions: 146500802 cycles: 170604939 heartbeat IPC: 1.762 cumulative IPC: 0.6173 (Simulation time: 00 hr 22 min 53 sec)
Heartbeat CPU 0 instructions: 147000803 cycles: 171037299 heartbeat IPC: 1.156 cumulative IPC: 0.6188 (Simulation time: 00 hr 22 min 56 sec)
Heartbeat CPU 0 instructions: 147500806 cycles: 171269202 heartbeat IPC: 2.156 cumulative IPC: 0.6211 (Simulation time: 00 hr 22 min 58 sec)
Heartbeat CPU 0 instructions: 148000812 cycles: 171658948 heartbeat IPC: 1.283 cumulative IPC: 0.6227 (Simulation time: 00 hr 23 min 02 sec)
Heartbeat CPU 0 instructions: 148500816 cycles: 172815311 heartbeat IPC: 0.4324 cumulative IPC: 0.6213 (Simulation time: 00 hr 23 min 09 sec)
Heartbeat CPU 0 instructions: 149000820 cycles: 174424484 heartbeat IPC: 0.3107 cumulative IPC: 0.6182 (Simulation time: 00 hr 23 min 20 sec)
Heartbeat CPU 0 instructions: 149500821 cycles: 174868470 heartbeat IPC: 1.126 cumulative IPC: 0.6196 (Simulation time: 00 hr 23 min 24 sec)
Heartbeat CPU 0 instructions: 150000822 cycles: 175168742 heartbeat IPC: 1.665 cumulative IPC: 0.6215 (Simulation time: 00 hr 23 min 26 sec)
Heartbeat CPU 0 instructions: 150500822 cycles: 175939569 heartbeat IPC: 0.6487 cumulative IPC: 0.6217 (Simulation time: 00 hr 23 min 32 sec)
Heartbeat CPU 0 instructions: 151000825 cycles: 176922778 heartbeat IPC: 0.5085 cumulative IPC: 0.621 (Simulation time: 00 hr 23 min 38 sec)
Heartbeat CPU 0 instructions: 151500829 cycles: 177706018 heartbeat IPC: 0.6384 cumulative IPC: 0.6211 (Simulation time: 00 hr 23 min 44 sec)
Heartbeat CPU 0 instructions: 152000830 cycles: 178366758 heartbeat IPC: 0.7567 cumulative IPC: 0.6216 (Simulation time: 00 hr 23 min 48 sec)
Heartbeat CPU 0 instructions: 152500831 cycles: 179533535 heartbeat IPC: 0.4285 cumulative IPC: 0.6203 (Simulation time: 00 hr 23 min 56 sec)
Heartbeat CPU 0 instructions: 153000831 cycles: 180114880 heartbeat IPC: 0.8601 cumulative IPC: 0.6211 (Simulation time: 00 hr 24 min 00 sec)
Heartbeat CPU 0 instructions: 153500835 cycles: 181075473 heartbeat IPC: 0.5205 cumulative IPC: 0.6205 (Simulation time: 00 hr 24 min 07 sec)
Heartbeat CPU 0 instructions: 154000842 cycles: 181818801 heartbeat IPC: 0.6727 cumulative IPC: 0.6208 (Simulation time: 00 hr 24 min 13 sec)
Heartbeat CPU 0 instructions: 154500845 cycles: 182716819 heartbeat IPC: 0.5568 cumulative IPC: 0.6204 (Simulation time: 00 hr 24 min 19 sec)
Heartbeat CPU 0 instructions: 155000852 cycles: 184368625 heartbeat IPC: 0.3027 cumulative IPC: 0.6173 (Simulation time: 00 hr 24 min 30 sec)
Heartbeat CPU 0 instructions: 155500854 cycles: 185513046 heartbeat IPC: 0.4369 cumulative IPC: 0.6161 (Simulation time: 00 hr 24 min 37 sec)
Heartbeat CPU 0 instructions: 156000854 cycles: 186669876 heartbeat IPC: 0.4322 cumulative IPC: 0.6149 (Simulation time: 00 hr 24 min 45 sec)
Heartbeat CPU 0 instructions: 156500854 cycles: 187774416 heartbeat IPC: 0.4527 cumulative IPC: 0.6139 (Simulation time: 00 hr 24 min 52 sec)
Heartbeat CPU 0 instructions: 157000856 cycles: 188879546 heartbeat IPC: 0.4524 cumulative IPC: 0.6128 (Simulation time: 00 hr 24 min 59 sec)
Heartbeat CPU 0 instructions: 157500856 cycles: 190116396 heartbeat IPC: 0.4043 cumulative IPC: 0.6114 (Simulation time: 00 hr 25 min 07 sec)
Heartbeat CPU 0 instructions: 158000856 cycles: 190873933 heartbeat IPC: 0.66 cumulative IPC: 0.6116 (Simulation time: 00 hr 25 min 12 sec)
Heartbeat CPU 0 instructions: 158500856 cycles: 191731070 heartbeat IPC: 0.5833 cumulative IPC: 0.6114 (Simulation time: 00 hr 25 min 18 sec)
Heartbeat CPU 0 instructions: 159000856 cycles: 192653375 heartbeat IPC: 0.5421 cumulative IPC: 0.6111 (Simulation time: 00 hr 25 min 24 sec)
Heartbeat CPU 0 instructions: 159500857 cycles: 193802746 heartbeat IPC: 0.435 cumulative IPC: 0.61 (Simulation time: 00 hr 25 min 31 sec)
Heartbeat CPU 0 instructions: 160000859 cycles: 194617662 heartbeat IPC: 0.6136 cumulative IPC: 0.61 (Simulation time: 00 hr 25 min 37 sec)
Heartbeat CPU 0 instructions: 160500859 cycles: 195549894 heartbeat IPC: 0.5363 cumulative IPC: 0.6096 (Simulation time: 00 hr 25 min 43 sec)
Heartbeat CPU 0 instructions: 161000859 cycles: 195948688 heartbeat IPC: 1.254 cumulative IPC: 0.611 (Simulation time: 00 hr 25 min 46 sec)
Heartbeat CPU 0 instructions: 161500859 cycles: 196888738 heartbeat IPC: 0.5319 cumulative IPC: 0.6106 (Simulation time: 00 hr 25 min 52 sec)
Heartbeat CPU 0 instructions: 162000859 cycles: 198152366 heartbeat IPC: 0.3957 cumulative IPC: 0.6091 (Simulation time: 00 hr 26 min 01 sec)
Heartbeat CPU 0 instructions: 162500859 cycles: 199610297 heartbeat IPC: 0.343 cumulative IPC: 0.607 (Simulation time: 00 hr 26 min 10 sec)
Heartbeat CPU 0 instructions: 163000864 cycles: 200912052 heartbeat IPC: 0.3841 cumulative IPC: 0.6055 (Simulation time: 00 hr 26 min 19 sec)
Heartbeat CPU 0 instructions: 163500864 cycles: 201666131 heartbeat IPC: 0.6631 cumulative IPC: 0.6057 (Simulation time: 00 hr 26 min 24 sec)
Heartbeat CPU 0 instructions: 164000866 cycles: 202632860 heartbeat IPC: 0.5172 cumulative IPC: 0.6052 (Simulation time: 00 hr 26 min 30 sec)
Heartbeat CPU 0 instructions: 164500866 cycles: 204150143 heartbeat IPC: 0.3295 cumulative IPC: 0.603 (Simulation time: 00 hr 26 min 40 sec)
Heartbeat CPU 0 instructions: 165000866 cycles: 204944960 heartbeat IPC: 0.6291 cumulative IPC: 0.6032 (Simulation time: 00 hr 26 min 45 sec)
Heartbeat CPU 0 instructions: 165500866 cycles: 206145115 heartbeat IPC: 0.4166 cumulative IPC: 0.602 (Simulation time: 00 hr 26 min 53 sec)
Heartbeat CPU 0 instructions: 166000868 cycles: 207203667 heartbeat IPC: 0.4723 cumulative IPC: 0.6013 (Simulation time: 00 hr 26 min 59 sec)
Heartbeat CPU 0 instructions: 166500868 cycles: 208317743 heartbeat IPC: 0.4488 cumulative IPC: 0.6004 (Simulation time: 00 hr 27 min 06 sec)
Heartbeat CPU 0 instructions: 167000872 cycles: 208872999 heartbeat IPC: 0.9005 cumulative IPC: 0.6013 (Simulation time: 00 hr 27 min 11 sec)
Heartbeat CPU 0 instructions: 167500872 cycles: 209446930 heartbeat IPC: 0.8712 cumulative IPC: 0.6021 (Simulation time: 00 hr 27 min 15 sec)
Heartbeat CPU 0 instructions: 168000876 cycles: 209750529 heartbeat IPC: 1.647 cumulative IPC: 0.6037 (Simulation time: 00 hr 27 min 18 sec)
Heartbeat CPU 0 instructions: 168500876 cycles: 210627829 heartbeat IPC: 0.5699 cumulative IPC: 0.6035 (Simulation time: 00 hr 27 min 24 sec)
Heartbeat CPU 0 instructions: 169000876 cycles: 211451069 heartbeat IPC: 0.6074 cumulative IPC: 0.6035 (Simulation time: 00 hr 27 min 29 sec)
Heartbeat CPU 0 instructions: 169500881 cycles: 212360152 heartbeat IPC: 0.55 cumulative IPC: 0.6033 (Simulation time: 00 hr 27 min 35 sec)
Heartbeat CPU 0 instructions: 170000883 cycles: 213226906 heartbeat IPC: 0.5769 cumulative IPC: 0.6032 (Simulation time: 00 hr 27 min 41 sec)
Heartbeat CPU 0 instructions: 170500884 cycles: 213929576 heartbeat IPC: 0.7116 cumulative IPC: 0.6036 (Simulation time: 00 hr 27 min 46 sec)
Heartbeat CPU 0 instructions: 171000885 cycles: 214730561 heartbeat IPC: 0.6242 cumulative IPC: 0.6036 (Simulation time: 00 hr 27 min 51 sec)
Heartbeat CPU 0 instructions: 171500892 cycles: 215674102 heartbeat IPC: 0.5299 cumulative IPC: 0.6033 (Simulation time: 00 hr 27 min 57 sec)
Heartbeat CPU 0 instructions: 172000895 cycles: 216728437 heartbeat IPC: 0.4742 cumulative IPC: 0.6026 (Simulation time: 00 hr 28 min 04 sec)
Heartbeat CPU 0 instructions: 172500896 cycles: 217755182 heartbeat IPC: 0.487 cumulative IPC: 0.602 (Simulation time: 00 hr 28 min 10 sec)
Heartbeat CPU 0 instructions: 173000896 cycles: 218967447 heartbeat IPC: 0.4125 cumulative IPC: 0.6009 (Simulation time: 00 hr 28 min 18 sec)
Heartbeat CPU 0 instructions: 173500903 cycles: 219738019 heartbeat IPC: 0.6489 cumulative IPC: 0.6011 (Simulation time: 00 hr 28 min 23 sec)
Heartbeat CPU 0 instructions: 174000904 cycles: 220476929 heartbeat IPC: 0.6767 cumulative IPC: 0.6014 (Simulation time: 00 hr 28 min 28 sec)
Heartbeat CPU 0 instructions: 174500905 cycles: 222059932 heartbeat IPC: 0.3159 cumulative IPC: 0.5992 (Simulation time: 00 hr 28 min 38 sec)
Heartbeat CPU 0 instructions: 175000907 cycles: 223264167 heartbeat IPC: 0.4152 cumulative IPC: 0.5981 (Simulation time: 00 hr 28 min 46 sec)
Heartbeat CPU 0 instructions: 175500909 cycles: 224008080 heartbeat IPC: 0.6721 cumulative IPC: 0.5984 (Simulation time: 00 hr 28 min 51 sec)
Heartbeat CPU 0 instructions: 176000909 cycles: 224966437 heartbeat IPC: 0.5217 cumulative IPC: 0.598 (Simulation time: 00 hr 28 min 57 sec)
Heartbeat CPU 0 instructions: 176500909 cycles: 226109221 heartbeat IPC: 0.4375 cumulative IPC: 0.5972 (Simulation time: 00 hr 29 min 04 sec)
Heartbeat CPU 0 instructions: 177000909 cycles: 227325213 heartbeat IPC: 0.4112 cumulative IPC: 0.5961 (Simulation time: 00 hr 29 min 12 sec)
Heartbeat CPU 0 instructions: 177500911 cycles: 228479225 heartbeat IPC: 0.4333 cumulative IPC: 0.5952 (Simulation time: 00 hr 29 min 20 sec)
Heartbeat CPU 0 instructions: 178000912 cycles: 229530031 heartbeat IPC: 0.4758 cumulative IPC: 0.5947 (Simulation time: 00 hr 29 min 26 sec)
Heartbeat CPU 0 instructions: 178500913 cycles: 230358658 heartbeat IPC: 0.6034 cumulative IPC: 0.5947 (Simulation time: 00 hr 29 min 32 sec)
Heartbeat CPU 0 instructions: 179000919 cycles: 230828855 heartbeat IPC: 1.063 cumulative IPC: 0.5957 (Simulation time: 00 hr 29 min 35 sec)
Heartbeat CPU 0 instructions: 179500926 cycles: 231202143 heartbeat IPC: 1.339 cumulative IPC: 0.597 (Simulation time: 00 hr 29 min 39 sec)
Heartbeat CPU 0 instructions: 180000926 cycles: 231730203 heartbeat IPC: 0.9469 cumulative IPC: 0.5978 (Simulation time: 00 hr 29 min 43 sec)
Heartbeat CPU 0 instructions: 180500928 cycles: 232188261 heartbeat IPC: 1.092 cumulative IPC: 0.5989 (Simulation time: 00 hr 29 min 47 sec)
Heartbeat CPU 0 instructions: 181000929 cycles: 232559653 heartbeat IPC: 1.346 cumulative IPC: 0.6001 (Simulation time: 00 hr 29 min 50 sec)
Heartbeat CPU 0 instructions: 181500934 cycles: 233971076 heartbeat IPC: 0.3543 cumulative IPC: 0.5986 (Simulation time: 00 hr 29 min 59 sec)
Heartbeat CPU 0 instructions: 182000937 cycles: 235057918 heartbeat IPC: 0.4601 cumulative IPC: 0.5979 (Simulation time: 00 hr 30 min 06 sec)
Heartbeat CPU 0 instructions: 182500938 cycles: 235965313 heartbeat IPC: 0.551 cumulative IPC: 0.5977 (Simulation time: 00 hr 30 min 12 sec)
Heartbeat CPU 0 instructions: 183000941 cycles: 237419482 heartbeat IPC: 0.3438 cumulative IPC: 0.596 (Simulation time: 00 hr 30 min 21 sec)
Heartbeat CPU 0 instructions: 183500945 cycles: 238231193 heartbeat IPC: 0.616 cumulative IPC: 0.5961 (Simulation time: 00 hr 30 min 27 sec)
Heartbeat CPU 0 instructions: 184000950 cycles: 239286118 heartbeat IPC: 0.474 cumulative IPC: 0.5955 (Simulation time: 00 hr 30 min 33 sec)
Heartbeat CPU 0 instructions: 184500955 cycles: 240484966 heartbeat IPC: 0.4171 cumulative IPC: 0.5946 (Simulation time: 00 hr 30 min 40 sec)
Heartbeat CPU 0 instructions: 185000956 cycles: 241746313 heartbeat IPC: 0.3964 cumulative IPC: 0.5935 (Simulation time: 00 hr 30 min 48 sec)
Heartbeat CPU 0 instructions: 185500960 cycles: 242387324 heartbeat IPC: 0.78 cumulative IPC: 0.594 (Simulation time: 00 hr 30 min 52 sec)
Heartbeat CPU 0 instructions: 186000961 cycles: 243207445 heartbeat IPC: 0.6097 cumulative IPC: 0.5941 (Simulation time: 00 hr 30 min 58 sec)
Heartbeat CPU 0 instructions: 186500964 cycles: 243935486 heartbeat IPC: 0.6868 cumulative IPC: 0.5944 (Simulation time: 00 hr 31 min 03 sec)
Heartbeat CPU 0 instructions: 187000967 cycles: 244573048 heartbeat IPC: 0.7842 cumulative IPC: 0.5949 (Simulation time: 00 hr 31 min 07 sec)
Heartbeat CPU 0 instructions: 187500970 cycles: 244927390 heartbeat IPC: 1.411 cumulative IPC: 0.5962 (Simulation time: 00 hr 31 min 10 sec)
Heartbeat CPU 0 instructions: 188000971 cycles: 245108437 heartbeat IPC: 2.762 cumulative IPC: 0.5978 (Simulation time: 00 hr 31 min 12 sec)
Heartbeat CPU 0 instructions: 188500972 cycles: 245581630 heartbeat IPC: 1.057 cumulative IPC: 0.5988 (Simulation time: 00 hr 31 min 16 sec)
Heartbeat CPU 0 instructions: 189000973 cycles: 245852828 heartbeat IPC: 1.844 cumulative IPC: 0.6002 (Simulation time: 00 hr 31 min 18 sec)
Heartbeat CPU 0 instructions: 189500973 cycles: 246945691 heartbeat IPC: 0.4575 cumulative IPC: 0.5996 (Simulation time: 00 hr 31 min 25 sec)
Heartbeat CPU 0 instructions: 190000976 cycles: 248219778 heartbeat IPC: 0.3924 cumulative IPC: 0.5984 (Simulation time: 00 hr 31 min 32 sec)
Heartbeat CPU 0 instructions: 190500978 cycles: 249001641 heartbeat IPC: 0.6395 cumulative IPC: 0.5986 (Simulation time: 00 hr 31 min 38 sec)
Heartbeat CPU 0 instructions: 191000980 cycles: 249603852 heartbeat IPC: 0.8303 cumulative IPC: 0.5992 (Simulation time: 00 hr 31 min 43 sec)
Heartbeat CPU 0 instructions: 191500985 cycles: 250747342 heartbeat IPC: 0.4373 cumulative IPC: 0.5984 (Simulation time: 00 hr 31 min 50 sec)
Heartbeat CPU 0 instructions: 192000987 cycles: 251423582 heartbeat IPC: 0.7394 cumulative IPC: 0.5988 (Simulation time: 00 hr 31 min 55 sec)
Heartbeat CPU 0 instructions: 192500987 cycles: 252167149 heartbeat IPC: 0.6724 cumulative IPC: 0.599 (Simulation time: 00 hr 32 min 00 sec)
Heartbeat CPU 0 instructions: 193000987 cycles: 253554903 heartbeat IPC: 0.3603 cumulative IPC: 0.5976 (Simulation time: 00 hr 32 min 08 sec)
Heartbeat CPU 0 instructions: 193500987 cycles: 254779521 heartbeat IPC: 0.4083 cumulative IPC: 0.5967 (Simulation time: 00 hr 32 min 16 sec)
Heartbeat CPU 0 instructions: 194000990 cycles: 256412405 heartbeat IPC: 0.3062 cumulative IPC: 0.5947 (Simulation time: 00 hr 32 min 26 sec)
Heartbeat CPU 0 instructions: 194500990 cycles: 257557686 heartbeat IPC: 0.4366 cumulative IPC: 0.594 (Simulation time: 00 hr 32 min 33 sec)
Heartbeat CPU 0 instructions: 195000991 cycles: 258609026 heartbeat IPC: 0.4756 cumulative IPC: 0.5935 (Simulation time: 00 hr 32 min 39 sec)
Heartbeat CPU 0 instructions: 195500992 cycles: 259005995 heartbeat IPC: 1.26 cumulative IPC: 0.5945 (Simulation time: 00 hr 32 min 42 sec)
Heartbeat CPU 0 instructions: 196000998 cycles: 259415012 heartbeat IPC: 1.222 cumulative IPC: 0.5956 (Simulation time: 00 hr 32 min 45 sec)
Heartbeat CPU 0 instructions: 196500999 cycles: 259811995 heartbeat IPC: 1.26 cumulative IPC: 0.5967 (Simulation time: 00 hr 32 min 49 sec)
Heartbeat CPU 0 instructions: 197001003 cycles: 260161447 heartbeat IPC: 1.431 cumulative IPC: 0.5979 (Simulation time: 00 hr 32 min 51 sec)
Heartbeat CPU 0 instructions: 197501009 cycles: 260518918 heartbeat IPC: 1.399 cumulative IPC: 0.599 (Simulation time: 00 hr 32 min 54 sec)
Heartbeat CPU 0 instructions: 198001009 cycles: 260876495 heartbeat IPC: 1.398 cumulative IPC: 0.6002 (Simulation time: 00 hr 32 min 57 sec)
Heartbeat CPU 0 instructions: 198501015 cycles: 261234759 heartbeat IPC: 1.396 cumulative IPC: 0.6013 (Simulation time: 00 hr 33 min 00 sec)
Heartbeat CPU 0 instructions: 199001015 cycles: 261666965 heartbeat IPC: 1.157 cumulative IPC: 0.6023 (Simulation time: 00 hr 33 min 03 sec)
Heartbeat CPU 0 instructions: 199501015 cycles: 263125058 heartbeat IPC: 0.3429 cumulative IPC: 0.6008 (Simulation time: 00 hr 33 min 13 sec)
Heartbeat CPU 0 instructions: 200001016 cycles: 264430598 heartbeat IPC: 0.383 cumulative IPC: 0.5996 (Simulation time: 00 hr 33 min 21 sec)
Heartbeat CPU 0 instructions: 200501016 cycles: 265443562 heartbeat IPC: 0.4936 cumulative IPC: 0.5992 (Simulation time: 00 hr 33 min 27 sec)
Heartbeat CPU 0 instructions: 201001016 cycles: 266544123 heartbeat IPC: 0.4543 cumulative IPC: 0.5986 (Simulation time: 00 hr 33 min 34 sec)
Heartbeat CPU 0 instructions: 201501019 cycles: 267593796 heartbeat IPC: 0.4763 cumulative IPC: 0.5981 (Simulation time: 00 hr 33 min 40 sec)
Heartbeat CPU 0 instructions: 202001019 cycles: 268319120 heartbeat IPC: 0.6893 cumulative IPC: 0.5983 (Simulation time: 00 hr 33 min 45 sec)
Heartbeat CPU 0 instructions: 202501020 cycles: 269170132 heartbeat IPC: 0.5875 cumulative IPC: 0.5983 (Simulation time: 00 hr 33 min 51 sec)
Heartbeat CPU 0 instructions: 203001020 cycles: 270526493 heartbeat IPC: 0.3686 cumulative IPC: 0.5971 (Simulation time: 00 hr 34 min 01 sec)
Heartbeat CPU 0 instructions: 203501025 cycles: 272017404 heartbeat IPC: 0.3354 cumulative IPC: 0.5956 (Simulation time: 00 hr 34 min 11 sec)
Heartbeat CPU 0 instructions: 204001027 cycles: 273436743 heartbeat IPC: 0.3523 cumulative IPC: 0.5942 (Simulation time: 00 hr 34 min 19 sec)
Heartbeat CPU 0 instructions: 204501029 cycles: 274377485 heartbeat IPC: 0.5315 cumulative IPC: 0.594 (Simulation time: 00 hr 34 min 25 sec)
Heartbeat CPU 0 instructions: 205001032 cycles: 275351859 heartbeat IPC: 0.5132 cumulative IPC: 0.5937 (Simulation time: 00 hr 34 min 31 sec)
Heartbeat CPU 0 instructions: 205501033 cycles: 276509054 heartbeat IPC: 0.4321 cumulative IPC: 0.593 (Simulation time: 00 hr 34 min 38 sec)
Heartbeat CPU 0 instructions: 206001033 cycles: 277771017 heartbeat IPC: 0.3962 cumulative IPC: 0.5921 (Simulation time: 00 hr 34 min 46 sec)
Heartbeat CPU 0 instructions: 206501035 cycles: 278771387 heartbeat IPC: 0.4998 cumulative IPC: 0.5917 (Simulation time: 00 hr 34 min 52 sec)
Heartbeat CPU 0 instructions: 207001036 cycles: 279211884 heartbeat IPC: 1.135 cumulative IPC: 0.5926 (Simulation time: 00 hr 34 min 55 sec)
Heartbeat CPU 0 instructions: 207501037 cycles: 279807062 heartbeat IPC: 0.8401 cumulative IPC: 0.5932 (Simulation time: 00 hr 34 min 59 sec)
Heartbeat CPU 0 instructions: 208001039 cycles: 280154872 heartbeat IPC: 1.438 cumulative IPC: 0.5943 (Simulation time: 00 hr 35 min 03 sec)
Heartbeat CPU 0 instructions: 208501039 cycles: 280854226 heartbeat IPC: 0.7149 cumulative IPC: 0.5946 (Simulation time: 00 hr 35 min 07 sec)
Heartbeat CPU 0 instructions: 209001045 cycles: 281676807 heartbeat IPC: 0.6079 cumulative IPC: 0.5946 (Simulation time: 00 hr 35 min 13 sec)
Heartbeat CPU 0 instructions: 209501046 cycles: 283130918 heartbeat IPC: 0.3439 cumulative IPC: 0.5933 (Simulation time: 00 hr 35 min 22 sec)
Heartbeat CPU 0 instructions: 210001051 cycles: 284006688 heartbeat IPC: 0.5709 cumulative IPC: 0.5932 (Simulation time: 00 hr 35 min 28 sec)
Heartbeat CPU 0 instructions: 210501051 cycles: 285469501 heartbeat IPC: 0.3418 cumulative IPC: 0.5918 (Simulation time: 00 hr 35 min 37 sec)
Heartbeat CPU 0 instructions: 211001051 cycles: 287218546 heartbeat IPC: 0.2859 cumulative IPC: 0.5899 (Simulation time: 00 hr 35 min 47 sec)
Heartbeat CPU 0 instructions: 211501056 cycles: 288103644 heartbeat IPC: 0.5649 cumulative IPC: 0.5898 (Simulation time: 00 hr 35 min 52 sec)
Heartbeat CPU 0 instructions: 212001056 cycles: 289582544 heartbeat IPC: 0.3381 cumulative IPC: 0.5884 (Simulation time: 00 hr 36 min 01 sec)
Heartbeat CPU 0 instructions: 212501057 cycles: 290259178 heartbeat IPC: 0.739 cumulative IPC: 0.5888 (Simulation time: 00 hr 36 min 06 sec)
Heartbeat CPU 0 instructions: 213001062 cycles: 291549830 heartbeat IPC: 0.3874 cumulative IPC: 0.5879 (Simulation time: 00 hr 36 min 13 sec)
Heartbeat CPU 0 instructions: 213501065 cycles: 292552487 heartbeat IPC: 0.4987 cumulative IPC: 0.5876 (Simulation time: 00 hr 36 min 19 sec)
Heartbeat CPU 0 instructions: 214001067 cycles: 293125192 heartbeat IPC: 0.8731 cumulative IPC: 0.5881 (Simulation time: 00 hr 36 min 23 sec)
Heartbeat CPU 0 instructions: 214501067 cycles: 293787627 heartbeat IPC: 0.7548 cumulative IPC: 0.5885 (Simulation time: 00 hr 36 min 28 sec)
Heartbeat CPU 0 instructions: 215001071 cycles: 294387685 heartbeat IPC: 0.8333 cumulative IPC: 0.5891 (Simulation time: 00 hr 36 min 32 sec)
Heartbeat CPU 0 instructions: 215501071 cycles: 295229866 heartbeat IPC: 0.5937 cumulative IPC: 0.5891 (Simulation time: 00 hr 36 min 37 sec)
Heartbeat CPU 0 instructions: 216001076 cycles: 296382998 heartbeat IPC: 0.4336 cumulative IPC: 0.5884 (Simulation time: 00 hr 36 min 44 sec)
Heartbeat CPU 0 instructions: 216501077 cycles: 297548669 heartbeat IPC: 0.4289 cumulative IPC: 0.5878 (Simulation time: 00 hr 36 min 51 sec)
Heartbeat CPU 0 instructions: 217001077 cycles: 298700619 heartbeat IPC: 0.434 cumulative IPC: 0.5872 (Simulation time: 00 hr 36 min 58 sec)
Heartbeat CPU 0 instructions: 217501080 cycles: 299806735 heartbeat IPC: 0.452 cumulative IPC: 0.5866 (Simulation time: 00 hr 37 min 05 sec)
Heartbeat CPU 0 instructions: 218001082 cycles: 301184627 heartbeat IPC: 0.3629 cumulative IPC: 0.5856 (Simulation time: 00 hr 37 min 13 sec)
Heartbeat CPU 0 instructions: 218501087 cycles: 302203643 heartbeat IPC: 0.4907 cumulative IPC: 0.5852 (Simulation time: 00 hr 37 min 19 sec)
Heartbeat CPU 0 instructions: 219001090 cycles: 303358068 heartbeat IPC: 0.4331 cumulative IPC: 0.5846 (Simulation time: 00 hr 37 min 26 sec)
Heartbeat CPU 0 instructions: 219501097 cycles: 304324376 heartbeat IPC: 0.5174 cumulative IPC: 0.5844 (Simulation time: 00 hr 37 min 32 sec)
Heartbeat CPU 0 instructions: 220001098 cycles: 305280945 heartbeat IPC: 0.5227 cumulative IPC: 0.5842 (Simulation time: 00 hr 37 min 37 sec)
Heartbeat CPU 0 instructions: 220501098 cycles: 306125824 heartbeat IPC: 0.5918 cumulative IPC: 0.5842 (Simulation time: 00 hr 37 min 43 sec)
Heartbeat CPU 0 instructions: 221001098 cycles: 307267233 heartbeat IPC: 0.4381 cumulative IPC: 0.5836 (Simulation time: 00 hr 37 min 50 sec)
Heartbeat CPU 0 instructions: 221501102 cycles: 308219482 heartbeat IPC: 0.5251 cumulative IPC: 0.5835 (Simulation time: 00 hr 37 min 55 sec)
Heartbeat CPU 0 instructions: 222001105 cycles: 308842895 heartbeat IPC: 0.802 cumulative IPC: 0.5839 (Simulation time: 00 hr 38 min 00 sec)
Heartbeat CPU 0 instructions: 222501106 cycles: 309459139 heartbeat IPC: 0.8114 cumulative IPC: 0.5844 (Simulation time: 00 hr 38 min 04 sec)
Heartbeat CPU 0 instructions: 223001110 cycles: 310487827 heartbeat IPC: 0.4861 cumulative IPC: 0.5841 (Simulation time: 00 hr 38 min 10 sec)
Heartbeat CPU 0 instructions: 223501111 cycles: 311500316 heartbeat IPC: 0.4938 cumulative IPC: 0.5837 (Simulation time: 00 hr 38 min 16 sec)
Heartbeat CPU 0 instructions: 224001111 cycles: 312732804 heartbeat IPC: 0.4057 cumulative IPC: 0.583 (Simulation time: 00 hr 38 min 24 sec)
Heartbeat CPU 0 instructions: 224501114 cycles: 313548388 heartbeat IPC: 0.6131 cumulative IPC: 0.5831 (Simulation time: 00 hr 38 min 30 sec)
Heartbeat CPU 0 instructions: 225001114 cycles: 315020331 heartbeat IPC: 0.3397 cumulative IPC: 0.5819 (Simulation time: 00 hr 38 min 39 sec)
Heartbeat CPU 0 instructions: 225501117 cycles: 315701275 heartbeat IPC: 0.7343 cumulative IPC: 0.5822 (Simulation time: 00 hr 38 min 45 sec)
Heartbeat CPU 0 instructions: 226001118 cycles: 316297945 heartbeat IPC: 0.838 cumulative IPC: 0.5827 (Simulation time: 00 hr 38 min 50 sec)
Heartbeat CPU 0 instructions: 226501124 cycles: 316840327 heartbeat IPC: 0.9219 cumulative IPC: 0.5834 (Simulation time: 00 hr 38 min 55 sec)
Heartbeat CPU 0 instructions: 227001130 cycles: 317374077 heartbeat IPC: 0.9368 cumulative IPC: 0.584 (Simulation time: 00 hr 39 min 00 sec)
Heartbeat CPU 0 instructions: 227501136 cycles: 317947275 heartbeat IPC: 0.8723 cumulative IPC: 0.5845 (Simulation time: 00 hr 39 min 05 sec)
Heartbeat CPU 0 instructions: 228001137 cycles: 318505203 heartbeat IPC: 0.8962 cumulative IPC: 0.5851 (Simulation time: 00 hr 39 min 10 sec)
Heartbeat CPU 0 instructions: 228501144 cycles: 318951387 heartbeat IPC: 1.121 cumulative IPC: 0.5859 (Simulation time: 00 hr 39 min 14 sec)
Heartbeat CPU 0 instructions: 229001150 cycles: 319297329 heartbeat IPC: 1.445 cumulative IPC: 0.5869 (Simulation time: 00 hr 39 min 16 sec)
Heartbeat CPU 0 instructions: 229501153 cycles: 319644525 heartbeat IPC: 1.44 cumulative IPC: 0.5878 (Simulation time: 00 hr 39 min 20 sec)
Heartbeat CPU 0 instructions: 230001153 cycles: 320353016 heartbeat IPC: 0.7057 cumulative IPC: 0.5881 (Simulation time: 00 hr 39 min 26 sec)
Heartbeat CPU 0 instructions: 230501156 cycles: 320819881 heartbeat IPC: 1.071 cumulative IPC: 0.5888 (Simulation time: 00 hr 39 min 30 sec)
Heartbeat CPU 0 instructions: 231001159 cycles: 321355337 heartbeat IPC: 0.9338 cumulative IPC: 0.5894 (Simulation time: 00 hr 39 min 35 sec)
Heartbeat CPU 0 instructions: 231501159 cycles: 321761662 heartbeat IPC: 1.231 cumulative IPC: 0.5903 (Simulation time: 00 hr 39 min 38 sec)
Heartbeat CPU 0 instructions: 232001160 cycles: 323695689 heartbeat IPC: 0.2585 cumulative IPC: 0.5882 (Simulation time: 00 hr 39 min 49 sec)
Heartbeat CPU 0 instructions: 232501163 cycles: 324555288 heartbeat IPC: 0.5817 cumulative IPC: 0.5882 (Simulation time: 00 hr 39 min 57 sec)
Heartbeat CPU 0 instructions: 233001168 cycles: 324998459 heartbeat IPC: 1.128 cumulative IPC: 0.589 (Simulation time: 00 hr 40 min 02 sec)
Heartbeat CPU 0 instructions: 233501169 cycles: 325384763 heartbeat IPC: 1.294 cumulative IPC: 0.5898 (Simulation time: 00 hr 40 min 06 sec)
Heartbeat CPU 0 instructions: 234001170 cycles: 325738408 heartbeat IPC: 1.414 cumulative IPC: 0.5908 (Simulation time: 00 hr 40 min 10 sec)
Heartbeat CPU 0 instructions: 234501174 cycles: 326161795 heartbeat IPC: 1.181 cumulative IPC: 0.5916 (Simulation time: 00 hr 40 min 13 sec)
Heartbeat CPU 0 instructions: 235001178 cycles: 326358311 heartbeat IPC: 2.544 cumulative IPC: 0.5928 (Simulation time: 00 hr 40 min 16 sec)
Heartbeat CPU 0 instructions: 235501181 cycles: 326552721 heartbeat IPC: 2.572 cumulative IPC: 0.594 (Simulation time: 00 hr 40 min 18 sec)
Heartbeat CPU 0 instructions: 236001185 cycles: 326735817 heartbeat IPC: 2.731 cumulative IPC: 0.5953 (Simulation time: 00 hr 40 min 20 sec)
Heartbeat CPU 0 instructions: 236501189 cycles: 326917026 heartbeat IPC: 2.759 cumulative IPC: 0.5965 (Simulation time: 00 hr 40 min 22 sec)
Heartbeat CPU 0 instructions: 237001190 cycles: 327102000 heartbeat IPC: 2.703 cumulative IPC: 0.5978 (Simulation time: 00 hr 40 min 25 sec)
Heartbeat CPU 0 instructions: 237501190 cycles: 327283204 heartbeat IPC: 2.759 cumulative IPC: 0.599 (Simulation time: 00 hr 40 min 27 sec)
Heartbeat CPU 0 instructions: 238001195 cycles: 327527781 heartbeat IPC: 2.044 cumulative IPC: 0.6002 (Simulation time: 00 hr 40 min 30 sec)
Heartbeat CPU 0 instructions: 238501197 cycles: 328677094 heartbeat IPC: 0.435 cumulative IPC: 0.5996 (Simulation time: 00 hr 40 min 37 sec)
Heartbeat CPU 0 instructions: 239001199 cycles: 328966148 heartbeat IPC: 1.73 cumulative IPC: 0.6006 (Simulation time: 00 hr 40 min 40 sec)
Heartbeat CPU 0 instructions: 239501199 cycles: 329162478 heartbeat IPC: 2.547 cumulative IPC: 0.6018 (Simulation time: 00 hr 40 min 42 sec)
Heartbeat CPU 0 instructions: 240001201 cycles: 329358374 heartbeat IPC: 2.552 cumulative IPC: 0.603 (Simulation time: 00 hr 40 min 44 sec)
Heartbeat CPU 0 instructions: 240501202 cycles: 329546656 heartbeat IPC: 2.656 cumulative IPC: 0.6043 (Simulation time: 00 hr 40 min 46 sec)
Heartbeat CPU 0 instructions: 241001208 cycles: 329732481 heartbeat IPC: 2.691 cumulative IPC: 0.6055 (Simulation time: 00 hr 40 min 49 sec)
Heartbeat CPU 0 instructions: 241501209 cycles: 329916881 heartbeat IPC: 2.712 cumulative IPC: 0.6067 (Simulation time: 00 hr 40 min 51 sec)
Heartbeat CPU 0 instructions: 242001212 cycles: 330100325 heartbeat IPC: 2.726 cumulative IPC: 0.6079 (Simulation time: 00 hr 40 min 53 sec)
Heartbeat CPU 0 instructions: 242501214 cycles: 330536499 heartbeat IPC: 1.146 cumulative IPC: 0.6087 (Simulation time: 00 hr 40 min 57 sec)
Heartbeat CPU 0 instructions: 243001217 cycles: 332212308 heartbeat IPC: 0.2984 cumulative IPC: 0.607 (Simulation time: 00 hr 41 min 07 sec)
Heartbeat CPU 0 instructions: 243501219 cycles: 333330997 heartbeat IPC: 0.447 cumulative IPC: 0.6065 (Simulation time: 00 hr 41 min 14 sec)
Heartbeat CPU 0 instructions: 244001219 cycles: 334686063 heartbeat IPC: 0.369 cumulative IPC: 0.6055 (Simulation time: 00 hr 41 min 22 sec)
Heartbeat CPU 0 instructions: 244501219 cycles: 335628206 heartbeat IPC: 0.5307 cumulative IPC: 0.6053 (Simulation time: 00 hr 41 min 28 sec)
Heartbeat CPU 0 instructions: 245001219 cycles: 336667844 heartbeat IPC: 0.4809 cumulative IPC: 0.6049 (Simulation time: 00 hr 41 min 34 sec)
Heartbeat CPU 0 instructions: 245501219 cycles: 338208637 heartbeat IPC: 0.3245 cumulative IPC: 0.6035 (Simulation time: 00 hr 41 min 42 sec)
Heartbeat CPU 0 instructions: 246001225 cycles: 339471613 heartbeat IPC: 0.3959 cumulative IPC: 0.6027 (Simulation time: 00 hr 41 min 50 sec)
Heartbeat CPU 0 instructions: 246501229 cycles: 340796975 heartbeat IPC: 0.3773 cumulative IPC: 0.6018 (Simulation time: 00 hr 41 min 59 sec)
Heartbeat CPU 0 instructions: 247001229 cycles: 341769723 heartbeat IPC: 0.514 cumulative IPC: 0.6015 (Simulation time: 00 hr 42 min 05 sec)
Heartbeat CPU 0 instructions: 247501230 cycles: 343156076 heartbeat IPC: 0.3607 cumulative IPC: 0.6005 (Simulation time: 00 hr 42 min 13 sec)
Heartbeat CPU 0 instructions: 248001234 cycles: 343986245 heartbeat IPC: 0.6023 cumulative IPC: 0.6005 (Simulation time: 00 hr 42 min 18 sec)
Heartbeat CPU 0 instructions: 248501235 cycles: 345116553 heartbeat IPC: 0.4424 cumulative IPC: 0.6 (Simulation time: 00 hr 42 min 25 sec)
Heartbeat CPU 0 instructions: 249001235 cycles: 345908351 heartbeat IPC: 0.6315 cumulative IPC: 0.6001 (Simulation time: 00 hr 42 min 30 sec)
Heartbeat CPU 0 instructions: 249501236 cycles: 346762615 heartbeat IPC: 0.5853 cumulative IPC: 0.6 (Simulation time: 00 hr 42 min 35 sec)
Simulation finished CPU 0 instructions: 200000000 cycles: 333541752 cumulative IPC: 0.5996 (Simulation time: 00 hr 42 min 41 sec)
Simulation complete CPU 0 instructions: 200000000 cycles: 333541752 cumulative IPC: 0.5996 (Simulation time: 00 hr 42 min 41 sec)

ChampSim completed all CPUs

=== Simulation ===
CPU 0 runs /local-ssd/ben/dpc4-traces/gtraces_v2/tango_0004.champsim.gz

Region of Interest Statistics

CPU 0 cumulative IPC: 0.5996 instructions: 200000000 cycles: 333541752
CPU 0 Branch Prediction Accuracy: 90.34% MPKI: 17.97 Average ROB Occupancy at Mispredict: 25.95
Branch type MPKI
BRANCH_DIRECT_JUMP: 0.5656
BRANCH_INDIRECT: 0.3338
BRANCH_CONDITIONAL: 15.15
BRANCH_DIRECT_CALL: 0.8592
BRANCH_INDIRECT_CALL: 0.362
BRANCH_RETURN: 0.6986

cpu0->cpu0_STLB TOTAL        ACCESS:    2209975 HIT:    1568996 MISS:     640979 MSHR_MERGE:          0
cpu0->cpu0_STLB LOAD         ACCESS:    2209975 HIT:    1568996 MISS:     640979 MSHR_MERGE:          0
cpu0->cpu0_STLB RFO          ACCESS:          0 HIT:          0 MISS:          0 MSHR_MERGE:          0
cpu0->cpu0_STLB PREFETCH     ACCESS:          0 HIT:          0 MISS:          0 MSHR_MERGE:          0
cpu0->cpu0_STLB WRITE        ACCESS:          0 HIT:          0 MISS:          0 MSHR_MERGE:          0
cpu0->cpu0_STLB TRANSLATION  ACCESS:          0 HIT:          0 MISS:          0 MSHR_MERGE:          0
cpu0->cpu0_STLB PREFETCH REQUESTED:          0 ISSUED:          0 USEFUL:          0 USELESS:          0
cpu0->cpu0_STLB AVERAGE MISS LATENCY: 101.4 cycles
cpu0->cpu0_L2C TOTAL        ACCESS:    6625099 HIT:    4890942 MISS:    1734157 MSHR_MERGE:          0
cpu0->cpu0_L2C LOAD         ACCESS:    4145259 HIT:    3146194 MISS:     999065 MSHR_MERGE:          0
cpu0->cpu0_L2C RFO          ACCESS:     713921 HIT:     173336 MISS:     540585 MSHR_MERGE:          0
cpu0->cpu0_L2C PREFETCH     ACCESS:          0 HIT:          0 MISS:          0 MSHR_MERGE:          0
cpu0->cpu0_L2C WRITE        ACCESS:    1094868 HIT:    1094847 MISS:         21 MSHR_MERGE:          0
cpu0->cpu0_L2C TRANSLATION  ACCESS:     671051 HIT:     476565 MISS:     194486 MSHR_MERGE:          0
cpu0->cpu0_L2C PREFETCH REQUESTED:          0 ISSUED:          0 USEFUL:          0 USELESS:          0
cpu0->cpu0_L2C AVERAGE MISS LATENCY: 207.9 cycles
cpu0->cpu0_L1I TOTAL        ACCESS:   17004618 HIT:   13955377 MISS:    3049241 MSHR_MERGE:     658678
cpu0->cpu0_L1I LOAD         ACCESS:   17004618 HIT:   13955377 MISS:    3049241 MSHR_MERGE:     658678
cpu0->cpu0_L1I RFO          ACCESS:          0 HIT:          0 MISS:          0 MSHR_MERGE:          0
cpu0->cpu0_L1I PREFETCH     ACCESS:          0 HIT:          0 MISS:          0 MSHR_MERGE:          0
cpu0->cpu0_L1I WRITE        ACCESS:          0 HIT:          0 MISS:          0 MSHR_MERGE:          0
cpu0->cpu0_L1I TRANSLATION  ACCESS:          0 HIT:          0 MISS:          0 MSHR_MERGE:          0
cpu0->cpu0_L1I PREFETCH REQUESTED:          0 ISSUED:          0 USEFUL:          0 USELESS:          0
cpu0->cpu0_L1I AVERAGE MISS LATENCY: 32.43 cycles
cpu0->cpu0_L1D TOTAL        ACCESS:   59409444 HIT:   53247739 MISS:    6161705 MSHR_MERGE:    3022013
cpu0->cpu0_L1D LOAD         ACCESS:   31468939 HIT:   28959030 MISS:    2509909 MSHR_MERGE:     755210
cpu0->cpu0_L1D RFO          ACCESS:          0 HIT:          0 MISS:          0 MSHR_MERGE:          0
cpu0->cpu0_L1D PREFETCH     ACCESS:          0 HIT:          0 MISS:          0 MSHR_MERGE:          0
cpu0->cpu0_L1D WRITE        ACCESS:   26304023 HIT:   23327957 MISS:    2976066 MSHR_MERGE:    2262124
cpu0->cpu0_L1D TRANSLATION  ACCESS:    1636482 HIT:     960752 MISS:     675730 MSHR_MERGE:       4679
cpu0->cpu0_L1D PREFETCH REQUESTED:          0 ISSUED:          0 USEFUL:          0 USELESS:          0
cpu0->cpu0_L1D AVERAGE MISS LATENCY: 104.2 cycles
cpu0->cpu0_ITLB TOTAL        ACCESS:   14390249 HIT:   13992209 MISS:     398040 MSHR_MERGE:     185511
cpu0->cpu0_ITLB LOAD         ACCESS:   14390249 HIT:   13992209 MISS:     398040 MSHR_MERGE:     185511
cpu0->cpu0_ITLB RFO          ACCESS:          0 HIT:          0 MISS:          0 MSHR_MERGE:          0
cpu0->cpu0_ITLB PREFETCH     ACCESS:          0 HIT:          0 MISS:          0 MSHR_MERGE:          0
cpu0->cpu0_ITLB WRITE        ACCESS:          0 HIT:          0 MISS:          0 MSHR_MERGE:          0
cpu0->cpu0_ITLB TRANSLATION  ACCESS:          0 HIT:          0 MISS:          0 MSHR_MERGE:          0
cpu0->cpu0_ITLB PREFETCH REQUESTED:          0 ISSUED:          0 USEFUL:          0 USELESS:          0
cpu0->cpu0_ITLB AVERAGE MISS LATENCY: 19.36 cycles
cpu0->cpu0_DTLB TOTAL        ACCESS:   55183144 HIT:   51422859 MISS:    3760285 MSHR_MERGE:    1762839
cpu0->cpu0_DTLB LOAD         ACCESS:   55183144 HIT:   51422859 MISS:    3760285 MSHR_MERGE:    1762839
cpu0->cpu0_DTLB RFO          ACCESS:          0 HIT:          0 MISS:          0 MSHR_MERGE:          0
cpu0->cpu0_DTLB PREFETCH     ACCESS:          0 HIT:          0 MISS:          0 MSHR_MERGE:          0
cpu0->cpu0_DTLB WRITE        ACCESS:          0 HIT:          0 MISS:          0 MSHR_MERGE:          0
cpu0->cpu0_DTLB TRANSLATION  ACCESS:          0 HIT:          0 MISS:          0 MSHR_MERGE:          0
cpu0->cpu0_DTLB PREFETCH REQUESTED:          0 ISSUED:          0 USEFUL:          0 USELESS:          0
cpu0->cpu0_DTLB AVERAGE MISS LATENCY: 36.34 cycles
cpu0->LLC TOTAL        ACCESS:    2477201 HIT:     631818 MISS:    1845383 MSHR_MERGE:          0
cpu0->LLC LOAD         ACCESS:     999065 HIT:     204292 MISS:     794773 MSHR_MERGE:          0
cpu0->LLC RFO          ACCESS:     540585 HIT:      15421 MISS:     525164 MSHR_MERGE:          0
cpu0->LLC PREFETCH     ACCESS:          0 HIT:          0 MISS:          0 MSHR_MERGE:          0
cpu0->LLC WRITE        ACCESS:     743065 HIT:     367733 MISS:     375332 MSHR_MERGE:          0
cpu0->LLC TRANSLATION  ACCESS:     194486 HIT:      44372 MISS:     150114 MSHR_MERGE:          0
cpu0->LLC PREFETCH REQUESTED:          0 ISSUED:          0 USEFUL:          0 USELESS:          0
cpu0->LLC AVERAGE MISS LATENCY: 177.4 cycles

DRAM Statistics

Channel 0 RQ ROW_BUFFER_HIT:      14770
  ROW_BUFFER_MISS:    1455272
  AVG DBUS CONGESTED CYCLE: 29.87
Channel 0 WQ ROW_BUFFER_HIT:     167800
  ROW_BUFFER_MISS:     528719
  FULL:         60
Channel 0 REFRESHES ISSUED:      27794
