[VMEM] WARNING: physical memory size is smaller than virtual memory size.

*** ChampSim Multicore Out-of-Order Simulator ***
Warmup Instructions: 50000000
Simulation Instructions: 200000000
Number of CPUs: 1
Page size: 4096
Core 0: /local-ssd/ben/dpc4-traces/gtraces_v2/tango_0000.champsim.gz
Off-chip DRAM Size: 64 GiB Channels: 1 Width: 64-bit Data Rate: 4807 MT/s
Heartbeat CPU 0 instructions: 500002 cycles: 242438 heartbeat IPC: 2.062 cumulative IPC: 2.062 (Simulation time: 00 hr 00 min 05 sec)
[BTB] WARNING: target of return is a lower address than the corresponding call. This is usually a problem with your trace.
[BTB] WARNING: target of return is a lower address than the corresponding call. This is usually a problem with your trace.
[BTB] WARNING: target of return is a lower address than the corresponding call. This is usually a problem with your trace.
[BTB] WARNING: target of return is a lower address than the corresponding call. This is usually a problem with your trace.
[BTB] WARNING: target of return is a lower address than the corresponding call. This is usually a problem with your trace.
[BTB] WARNING: target of return is a lower address than the corresponding call. This is usually a problem with your trace.
[BTB] WARNING: target of return is a lower address than the corresponding call. This is usually a problem with your trace.
[BTB] WARNING: target of return is a lower address than the corresponding call. This is usually a problem with your trace.
[BTB] WARNING: target of return is a lower address than the corresponding call. This is usually a problem with your trace.
[BTB] WARNING: target of return is a lower address than the corresponding call. This is usually a problem with your trace.
Heartbeat CPU 0 instructions: 1000002 cycles: 433982 heartbeat IPC: 2.61 cumulative IPC: 2.304 (Simulation time: 00 hr 00 min 07 sec)
Heartbeat CPU 0 instructions: 1500007 cycles: 578625 heartbeat IPC: 3.457 cumulative IPC: 2.592 (Simulation time: 00 hr 00 min 10 sec)
Heartbeat CPU 0 instructions: 2000009 cycles: 748612 heartbeat IPC: 2.941 cumulative IPC: 2.672 (Simulation time: 00 hr 00 min 12 sec)
Heartbeat CPU 0 instructions: 2500013 cycles: 912019 heartbeat IPC: 3.06 cumulative IPC: 2.741 (Simulation time: 00 hr 00 min 15 sec)
Heartbeat CPU 0 instructions: 3000016 cycles: 1109733 heartbeat IPC: 2.529 cumulative IPC: 2.703 (Simulation time: 00 hr 00 min 18 sec)
Heartbeat CPU 0 instructions: 3500021 cycles: 1278325 heartbeat IPC: 2.966 cumulative IPC: 2.738 (Simulation time: 00 hr 00 min 20 sec)
Heartbeat CPU 0 instructions: 4000023 cycles: 1448012 heartbeat IPC: 2.947 cumulative IPC: 2.762 (Simulation time: 00 hr 00 min 23 sec)
Heartbeat CPU 0 instructions: 4500027 cycles: 1594378 heartbeat IPC: 3.416 cumulative IPC: 2.822 (Simulation time: 00 hr 00 min 25 sec)
Heartbeat CPU 0 instructions: 5000028 cycles: 1778035 heartbeat IPC: 2.722 cumulative IPC: 2.812 (Simulation time: 00 hr 00 min 28 sec)
Heartbeat CPU 0 instructions: 5500033 cycles: 1961535 heartbeat IPC: 2.725 cumulative IPC: 2.804 (Simulation time: 00 hr 00 min 31 sec)
Heartbeat CPU 0 instructions: 6000036 cycles: 2094636 heartbeat IPC: 3.757 cumulative IPC: 2.864 (Simulation time: 00 hr 00 min 33 sec)
Heartbeat CPU 0 instructions: 6500037 cycles: 2200360 heartbeat IPC: 4.729 cumulative IPC: 2.954 (Simulation time: 00 hr 00 min 34 sec)
Heartbeat CPU 0 instructions: 7000041 cycles: 2344504 heartbeat IPC: 3.469 cumulative IPC: 2.986 (Simulation time: 00 hr 00 min 36 sec)
Heartbeat CPU 0 instructions: 7500042 cycles: 2497053 heartbeat IPC: 3.278 cumulative IPC: 3.004 (Simulation time: 00 hr 00 min 39 sec)
Heartbeat CPU 0 instructions: 8000043 cycles: 2623092 heartbeat IPC: 3.967 cumulative IPC: 3.05 (Simulation time: 00 hr 00 min 41 sec)
Heartbeat CPU 0 instructions: 8500048 cycles: 2741763 heartbeat IPC: 4.213 cumulative IPC: 3.1 (Simulation time: 00 hr 00 min 43 sec)
Heartbeat CPU 0 instructions: 9000052 cycles: 2904426 heartbeat IPC: 3.074 cumulative IPC: 3.099 (Simulation time: 00 hr 00 min 45 sec)
Heartbeat CPU 0 instructions: 9500053 cycles: 3079548 heartbeat IPC: 2.855 cumulative IPC: 3.085 (Simulation time: 00 hr 00 min 48 sec)
Heartbeat CPU 0 instructions: 10000060 cycles: 3252142 heartbeat IPC: 2.897 cumulative IPC: 3.075 (Simulation time: 00 hr 00 min 51 sec)
Heartbeat CPU 0 instructions: 10500062 cycles: 3378291 heartbeat IPC: 3.964 cumulative IPC: 3.108 (Simulation time: 00 hr 00 min 53 sec)
Heartbeat CPU 0 instructions: 11000062 cycles: 3535428 heartbeat IPC: 3.182 cumulative IPC: 3.111 (Simulation time: 00 hr 00 min 55 sec)
Heartbeat CPU 0 instructions: 11500065 cycles: 3683961 heartbeat IPC: 3.366 cumulative IPC: 3.122 (Simulation time: 00 hr 00 min 57 sec)
Heartbeat CPU 0 instructions: 12000068 cycles: 3826688 heartbeat IPC: 3.503 cumulative IPC: 3.136 (Simulation time: 00 hr 01 min 00 sec)
Heartbeat CPU 0 instructions: 12500073 cycles: 3943732 heartbeat IPC: 4.272 cumulative IPC: 3.17 (Simulation time: 00 hr 01 min 02 sec)
Heartbeat CPU 0 instructions: 13000079 cycles: 4049760 heartbeat IPC: 4.716 cumulative IPC: 3.21 (Simulation time: 00 hr 01 min 03 sec)
Heartbeat CPU 0 instructions: 13500086 cycles: 4197657 heartbeat IPC: 3.381 cumulative IPC: 3.216 (Simulation time: 00 hr 01 min 05 sec)
Heartbeat CPU 0 instructions: 14000093 cycles: 4342034 heartbeat IPC: 3.463 cumulative IPC: 3.224 (Simulation time: 00 hr 01 min 08 sec)
Heartbeat CPU 0 instructions: 14500097 cycles: 4461935 heartbeat IPC: 4.17 cumulative IPC: 3.25 (Simulation time: 00 hr 01 min 09 sec)
Heartbeat CPU 0 instructions: 15000102 cycles: 4594304 heartbeat IPC: 3.777 cumulative IPC: 3.265 (Simulation time: 00 hr 01 min 11 sec)
Heartbeat CPU 0 instructions: 15500104 cycles: 4736576 heartbeat IPC: 3.514 cumulative IPC: 3.272 (Simulation time: 00 hr 01 min 14 sec)
Heartbeat CPU 0 instructions: 16000111 cycles: 4862675 heartbeat IPC: 3.965 cumulative IPC: 3.29 (Simulation time: 00 hr 01 min 16 sec)
Heartbeat CPU 0 instructions: 16500116 cycles: 5019768 heartbeat IPC: 3.183 cumulative IPC: 3.287 (Simulation time: 00 hr 01 min 18 sec)
Heartbeat CPU 0 instructions: 17000122 cycles: 5205015 heartbeat IPC: 2.699 cumulative IPC: 3.266 (Simulation time: 00 hr 01 min 21 sec)
Heartbeat CPU 0 instructions: 17500128 cycles: 5369754 heartbeat IPC: 3.035 cumulative IPC: 3.259 (Simulation time: 00 hr 01 min 24 sec)
Heartbeat CPU 0 instructions: 18000129 cycles: 5538151 heartbeat IPC: 2.969 cumulative IPC: 3.25 (Simulation time: 00 hr 01 min 26 sec)
Heartbeat CPU 0 instructions: 18500131 cycles: 5682861 heartbeat IPC: 3.455 cumulative IPC: 3.255 (Simulation time: 00 hr 01 min 29 sec)
Heartbeat CPU 0 instructions: 19000136 cycles: 5846833 heartbeat IPC: 3.049 cumulative IPC: 3.25 (Simulation time: 00 hr 01 min 31 sec)
Heartbeat CPU 0 instructions: 19500139 cycles: 6003119 heartbeat IPC: 3.199 cumulative IPC: 3.248 (Simulation time: 00 hr 01 min 34 sec)
Heartbeat CPU 0 instructions: 20000141 cycles: 6132445 heartbeat IPC: 3.866 cumulative IPC: 3.261 (Simulation time: 00 hr 01 min 36 sec)
Heartbeat CPU 0 instructions: 20500142 cycles: 6250144 heartbeat IPC: 4.248 cumulative IPC: 3.28 (Simulation time: 00 hr 01 min 37 sec)
Heartbeat CPU 0 instructions: 21000149 cycles: 6392561 heartbeat IPC: 3.511 cumulative IPC: 3.285 (Simulation time: 00 hr 01 min 39 sec)
Heartbeat CPU 0 instructions: 21500151 cycles: 6521737 heartbeat IPC: 3.871 cumulative IPC: 3.297 (Simulation time: 00 hr 01 min 42 sec)
Heartbeat CPU 0 instructions: 22000156 cycles: 6665848 heartbeat IPC: 3.47 cumulative IPC: 3.3 (Simulation time: 00 hr 01 min 44 sec)
Heartbeat CPU 0 instructions: 22500160 cycles: 6787237 heartbeat IPC: 4.119 cumulative IPC: 3.315 (Simulation time: 00 hr 01 min 46 sec)
Heartbeat CPU 0 instructions: 23000160 cycles: 6896900 heartbeat IPC: 4.559 cumulative IPC: 3.335 (Simulation time: 00 hr 01 min 47 sec)
Heartbeat CPU 0 instructions: 23500161 cycles: 7034257 heartbeat IPC: 3.64 cumulative IPC: 3.341 (Simulation time: 00 hr 01 min 50 sec)
Heartbeat CPU 0 instructions: 24000165 cycles: 7166827 heartbeat IPC: 3.772 cumulative IPC: 3.349 (Simulation time: 00 hr 01 min 52 sec)
Heartbeat CPU 0 instructions: 24500165 cycles: 7310882 heartbeat IPC: 3.471 cumulative IPC: 3.351 (Simulation time: 00 hr 01 min 54 sec)
Heartbeat CPU 0 instructions: 25000166 cycles: 7446474 heartbeat IPC: 3.688 cumulative IPC: 3.357 (Simulation time: 00 hr 01 min 56 sec)
Heartbeat CPU 0 instructions: 25500168 cycles: 7600627 heartbeat IPC: 3.244 cumulative IPC: 3.355 (Simulation time: 00 hr 01 min 59 sec)
Heartbeat CPU 0 instructions: 26000174 cycles: 7764031 heartbeat IPC: 3.06 cumulative IPC: 3.349 (Simulation time: 00 hr 02 min 01 sec)
Heartbeat CPU 0 instructions: 26500178 cycles: 7875567 heartbeat IPC: 4.483 cumulative IPC: 3.365 (Simulation time: 00 hr 02 min 03 sec)
Heartbeat CPU 0 instructions: 27000184 cycles: 8030815 heartbeat IPC: 3.221 cumulative IPC: 3.362 (Simulation time: 00 hr 02 min 06 sec)
Heartbeat CPU 0 instructions: 27500188 cycles: 8185382 heartbeat IPC: 3.235 cumulative IPC: 3.36 (Simulation time: 00 hr 02 min 08 sec)
Heartbeat CPU 0 instructions: 28000195 cycles: 8322065 heartbeat IPC: 3.658 cumulative IPC: 3.365 (Simulation time: 00 hr 02 min 11 sec)
Heartbeat CPU 0 instructions: 28500195 cycles: 8453693 heartbeat IPC: 3.799 cumulative IPC: 3.371 (Simulation time: 00 hr 02 min 13 sec)
Heartbeat CPU 0 instructions: 29000200 cycles: 8608367 heartbeat IPC: 3.233 cumulative IPC: 3.369 (Simulation time: 00 hr 02 min 15 sec)
Heartbeat CPU 0 instructions: 29500202 cycles: 8752403 heartbeat IPC: 3.471 cumulative IPC: 3.371 (Simulation time: 00 hr 02 min 17 sec)
Heartbeat CPU 0 instructions: 30000208 cycles: 8918578 heartbeat IPC: 3.009 cumulative IPC: 3.364 (Simulation time: 00 hr 02 min 20 sec)
Heartbeat CPU 0 instructions: 30500214 cycles: 9034944 heartbeat IPC: 4.297 cumulative IPC: 3.376 (Simulation time: 00 hr 02 min 22 sec)
Heartbeat CPU 0 instructions: 31000220 cycles: 9176623 heartbeat IPC: 3.529 cumulative IPC: 3.378 (Simulation time: 00 hr 02 min 24 sec)
Heartbeat CPU 0 instructions: 31500226 cycles: 9301468 heartbeat IPC: 4.005 cumulative IPC: 3.387 (Simulation time: 00 hr 02 min 26 sec)
Heartbeat CPU 0 instructions: 32000227 cycles: 9449133 heartbeat IPC: 3.386 cumulative IPC: 3.387 (Simulation time: 00 hr 02 min 28 sec)
Heartbeat CPU 0 instructions: 32500231 cycles: 9597866 heartbeat IPC: 3.362 cumulative IPC: 3.386 (Simulation time: 00 hr 02 min 31 sec)
Heartbeat CPU 0 instructions: 33000232 cycles: 9725363 heartbeat IPC: 3.922 cumulative IPC: 3.393 (Simulation time: 00 hr 02 min 33 sec)
Heartbeat CPU 0 instructions: 33500234 cycles: 9850997 heartbeat IPC: 3.98 cumulative IPC: 3.401 (Simulation time: 00 hr 02 min 34 sec)
Heartbeat CPU 0 instructions: 34000235 cycles: 9987818 heartbeat IPC: 3.654 cumulative IPC: 3.404 (Simulation time: 00 hr 02 min 37 sec)
Heartbeat CPU 0 instructions: 34500235 cycles: 10134901 heartbeat IPC: 3.399 cumulative IPC: 3.404 (Simulation time: 00 hr 02 min 39 sec)
Heartbeat CPU 0 instructions: 35000235 cycles: 10262653 heartbeat IPC: 3.914 cumulative IPC: 3.41 (Simulation time: 00 hr 02 min 41 sec)
Heartbeat CPU 0 instructions: 35500240 cycles: 10378045 heartbeat IPC: 4.333 cumulative IPC: 3.421 (Simulation time: 00 hr 02 min 43 sec)
Heartbeat CPU 0 instructions: 36000243 cycles: 10496202 heartbeat IPC: 4.232 cumulative IPC: 3.43 (Simulation time: 00 hr 02 min 45 sec)
Heartbeat CPU 0 instructions: 36500248 cycles: 10602595 heartbeat IPC: 4.7 cumulative IPC: 3.443 (Simulation time: 00 hr 02 min 47 sec)
Heartbeat CPU 0 instructions: 37000253 cycles: 10713425 heartbeat IPC: 4.511 cumulative IPC: 3.454 (Simulation time: 00 hr 02 min 49 sec)
Heartbeat CPU 0 instructions: 37500256 cycles: 10846480 heartbeat IPC: 3.758 cumulative IPC: 3.457 (Simulation time: 00 hr 02 min 51 sec)
Heartbeat CPU 0 instructions: 38000262 cycles: 10962176 heartbeat IPC: 4.322 cumulative IPC: 3.466 (Simulation time: 00 hr 02 min 53 sec)
Heartbeat CPU 0 instructions: 38500265 cycles: 11073623 heartbeat IPC: 4.486 cumulative IPC: 3.477 (Simulation time: 00 hr 02 min 54 sec)
Heartbeat CPU 0 instructions: 39000271 cycles: 11186316 heartbeat IPC: 4.437 cumulative IPC: 3.486 (Simulation time: 00 hr 02 min 56 sec)
Heartbeat CPU 0 instructions: 39500273 cycles: 11300340 heartbeat IPC: 4.385 cumulative IPC: 3.495 (Simulation time: 00 hr 02 min 58 sec)
Heartbeat CPU 0 instructions: 40000277 cycles: 11405987 heartbeat IPC: 4.733 cumulative IPC: 3.507 (Simulation time: 00 hr 03 min 00 sec)
Heartbeat CPU 0 instructions: 40500282 cycles: 11512084 heartbeat IPC: 4.713 cumulative IPC: 3.518 (Simulation time: 00 hr 03 min 02 sec)
Heartbeat CPU 0 instructions: 41000288 cycles: 11631737 heartbeat IPC: 4.179 cumulative IPC: 3.525 (Simulation time: 00 hr 03 min 03 sec)
Heartbeat CPU 0 instructions: 41500292 cycles: 11759873 heartbeat IPC: 3.902 cumulative IPC: 3.529 (Simulation time: 00 hr 03 min 06 sec)
Heartbeat CPU 0 instructions: 42000299 cycles: 11873859 heartbeat IPC: 4.387 cumulative IPC: 3.537 (Simulation time: 00 hr 03 min 07 sec)
Heartbeat CPU 0 instructions: 42500300 cycles: 11983797 heartbeat IPC: 4.548 cumulative IPC: 3.546 (Simulation time: 00 hr 03 min 09 sec)
Heartbeat CPU 0 instructions: 43000302 cycles: 12154291 heartbeat IPC: 2.933 cumulative IPC: 3.538 (Simulation time: 00 hr 03 min 12 sec)
Heartbeat CPU 0 instructions: 43500303 cycles: 12289924 heartbeat IPC: 3.686 cumulative IPC: 3.54 (Simulation time: 00 hr 03 min 14 sec)
Heartbeat CPU 0 instructions: 44000309 cycles: 12425368 heartbeat IPC: 3.692 cumulative IPC: 3.541 (Simulation time: 00 hr 03 min 16 sec)
Heartbeat CPU 0 instructions: 44500315 cycles: 12539484 heartbeat IPC: 4.382 cumulative IPC: 3.549 (Simulation time: 00 hr 03 min 18 sec)
Heartbeat CPU 0 instructions: 45000315 cycles: 12663496 heartbeat IPC: 4.032 cumulative IPC: 3.554 (Simulation time: 00 hr 03 min 20 sec)
Heartbeat CPU 0 instructions: 45500319 cycles: 12795739 heartbeat IPC: 3.781 cumulative IPC: 3.556 (Simulation time: 00 hr 03 min 22 sec)
Heartbeat CPU 0 instructions: 46000320 cycles: 12917864 heartbeat IPC: 4.094 cumulative IPC: 3.561 (Simulation time: 00 hr 03 min 24 sec)
Heartbeat CPU 0 instructions: 46500323 cycles: 13057250 heartbeat IPC: 3.587 cumulative IPC: 3.561 (Simulation time: 00 hr 03 min 27 sec)
Heartbeat CPU 0 instructions: 47000327 cycles: 13193626 heartbeat IPC: 3.666 cumulative IPC: 3.562 (Simulation time: 00 hr 03 min 29 sec)
Heartbeat CPU 0 instructions: 47500327 cycles: 13332171 heartbeat IPC: 3.609 cumulative IPC: 3.563 (Simulation time: 00 hr 03 min 31 sec)
Heartbeat CPU 0 instructions: 48000333 cycles: 13461541 heartbeat IPC: 3.865 cumulative IPC: 3.566 (Simulation time: 00 hr 03 min 33 sec)
Heartbeat CPU 0 instructions: 48500333 cycles: 13582614 heartbeat IPC: 4.13 cumulative IPC: 3.571 (Simulation time: 00 hr 03 min 35 sec)
Heartbeat CPU 0 instructions: 49000333 cycles: 13705246 heartbeat IPC: 4.077 cumulative IPC: 3.575 (Simulation time: 00 hr 03 min 37 sec)
Heartbeat CPU 0 instructions: 49500334 cycles: 13839543 heartbeat IPC: 3.723 cumulative IPC: 3.577 (Simulation time: 00 hr 03 min 39 sec)
Warmup finished CPU 0 instructions: 50000006 cycles: 13948826 cumulative IPC: 3.585 (Simulation time: 00 hr 03 min 41 sec)
Warmup complete CPU 0 instructions: 50000006 cycles: 13948826 cumulative IPC: 3.585 (Simulation time: 00 hr 03 min 41 sec)
Heartbeat CPU 0 instructions: 50000336 cycles: 13948895 heartbeat IPC: 4.572 cumulative IPC: 4.783 (Simulation time: 00 hr 03 min 41 sec)
Heartbeat CPU 0 instructions: 50500336 cycles: 14955246 heartbeat IPC: 0.4968 cumulative IPC: 0.4971 (Simulation time: 00 hr 03 min 48 sec)
Heartbeat CPU 0 instructions: 51000342 cycles: 15824086 heartbeat IPC: 0.5755 cumulative IPC: 0.5334 (Simulation time: 00 hr 03 min 54 sec)
Heartbeat CPU 0 instructions: 51500346 cycles: 16352801 heartbeat IPC: 0.9457 cumulative IPC: 0.6241 (Simulation time: 00 hr 03 min 58 sec)
Heartbeat CPU 0 instructions: 52000352 cycles: 17242076 heartbeat IPC: 0.5623 cumulative IPC: 0.6074 (Simulation time: 00 hr 04 min 04 sec)
Heartbeat CPU 0 instructions: 52500352 cycles: 17688077 heartbeat IPC: 1.121 cumulative IPC: 0.6687 (Simulation time: 00 hr 04 min 07 sec)
Heartbeat CPU 0 instructions: 53000355 cycles: 18030591 heartbeat IPC: 1.46 cumulative IPC: 0.7351 (Simulation time: 00 hr 04 min 11 sec)
Heartbeat CPU 0 instructions: 53500355 cycles: 18551322 heartbeat IPC: 0.9602 cumulative IPC: 0.7605 (Simulation time: 00 hr 04 min 14 sec)
Heartbeat CPU 0 instructions: 54000362 cycles: 19380930 heartbeat IPC: 0.6027 cumulative IPC: 0.7364 (Simulation time: 00 hr 04 min 20 sec)
Heartbeat CPU 0 instructions: 54500366 cycles: 19901845 heartbeat IPC: 0.9599 cumulative IPC: 0.756 (Simulation time: 00 hr 04 min 25 sec)
Heartbeat CPU 0 instructions: 55000366 cycles: 20513537 heartbeat IPC: 0.8174 cumulative IPC: 0.7617 (Simulation time: 00 hr 04 min 29 sec)
Heartbeat CPU 0 instructions: 55500367 cycles: 20853746 heartbeat IPC: 1.47 cumulative IPC: 0.7966 (Simulation time: 00 hr 04 min 33 sec)
Heartbeat CPU 0 instructions: 56000368 cycles: 21527504 heartbeat IPC: 0.7421 cumulative IPC: 0.7917 (Simulation time: 00 hr 04 min 38 sec)
Heartbeat CPU 0 instructions: 56500368 cycles: 23128208 heartbeat IPC: 0.3124 cumulative IPC: 0.7081 (Simulation time: 00 hr 04 min 49 sec)
Heartbeat CPU 0 instructions: 57000368 cycles: 24161299 heartbeat IPC: 0.484 cumulative IPC: 0.6855 (Simulation time: 00 hr 04 min 57 sec)
Heartbeat CPU 0 instructions: 57500369 cycles: 26027850 heartbeat IPC: 0.2679 cumulative IPC: 0.6209 (Simulation time: 00 hr 05 min 08 sec)
Heartbeat CPU 0 instructions: 58000369 cycles: 27450239 heartbeat IPC: 0.3515 cumulative IPC: 0.5926 (Simulation time: 00 hr 05 min 17 sec)
Heartbeat CPU 0 instructions: 58500369 cycles: 28279143 heartbeat IPC: 0.6032 cumulative IPC: 0.5932 (Simulation time: 00 hr 05 min 23 sec)
Heartbeat CPU 0 instructions: 59000371 cycles: 29135067 heartbeat IPC: 0.5842 cumulative IPC: 0.5927 (Simulation time: 00 hr 05 min 29 sec)
Heartbeat CPU 0 instructions: 59500371 cycles: 30072769 heartbeat IPC: 0.5332 cumulative IPC: 0.5892 (Simulation time: 00 hr 05 min 35 sec)
Heartbeat CPU 0 instructions: 60000371 cycles: 30687823 heartbeat IPC: 0.8129 cumulative IPC: 0.5974 (Simulation time: 00 hr 05 min 40 sec)
Heartbeat CPU 0 instructions: 60500372 cycles: 31092285 heartbeat IPC: 1.236 cumulative IPC: 0.6125 (Simulation time: 00 hr 05 min 43 sec)
Heartbeat CPU 0 instructions: 61000378 cycles: 31434079 heartbeat IPC: 1.463 cumulative IPC: 0.6291 (Simulation time: 00 hr 05 min 46 sec)
Heartbeat CPU 0 instructions: 61500380 cycles: 31887925 heartbeat IPC: 1.102 cumulative IPC: 0.6411 (Simulation time: 00 hr 05 min 50 sec)
Heartbeat CPU 0 instructions: 62000385 cycles: 32236933 heartbeat IPC: 1.433 cumulative IPC: 0.6562 (Simulation time: 00 hr 05 min 53 sec)
Heartbeat CPU 0 instructions: 62500390 cycles: 32486070 heartbeat IPC: 2.007 cumulative IPC: 0.6743 (Simulation time: 00 hr 05 min 56 sec)
Heartbeat CPU 0 instructions: 63000394 cycles: 32945575 heartbeat IPC: 1.088 cumulative IPC: 0.6843 (Simulation time: 00 hr 05 min 59 sec)
Heartbeat CPU 0 instructions: 63500394 cycles: 33616613 heartbeat IPC: 0.7451 cumulative IPC: 0.6864 (Simulation time: 00 hr 06 min 06 sec)
Heartbeat CPU 0 instructions: 64000397 cycles: 33827149 heartbeat IPC: 2.375 cumulative IPC: 0.7043 (Simulation time: 00 hr 06 min 08 sec)
Heartbeat CPU 0 instructions: 64500399 cycles: 35161002 heartbeat IPC: 0.3749 cumulative IPC: 0.6836 (Simulation time: 00 hr 06 min 17 sec)
Heartbeat CPU 0 instructions: 65000403 cycles: 36219064 heartbeat IPC: 0.4726 cumulative IPC: 0.6736 (Simulation time: 00 hr 06 min 24 sec)
Heartbeat CPU 0 instructions: 65500403 cycles: 37135631 heartbeat IPC: 0.5455 cumulative IPC: 0.6685 (Simulation time: 00 hr 06 min 30 sec)
Heartbeat CPU 0 instructions: 66000403 cycles: 38245293 heartbeat IPC: 0.4506 cumulative IPC: 0.6585 (Simulation time: 00 hr 06 min 37 sec)
Heartbeat CPU 0 instructions: 66500406 cycles: 39086925 heartbeat IPC: 0.5941 cumulative IPC: 0.6564 (Simulation time: 00 hr 06 min 43 sec)
Heartbeat CPU 0 instructions: 67000408 cycles: 40193052 heartbeat IPC: 0.452 cumulative IPC: 0.6478 (Simulation time: 00 hr 06 min 51 sec)
Heartbeat CPU 0 instructions: 67500410 cycles: 40964623 heartbeat IPC: 0.648 cumulative IPC: 0.6478 (Simulation time: 00 hr 06 min 56 sec)
Heartbeat CPU 0 instructions: 68000414 cycles: 42529499 heartbeat IPC: 0.3195 cumulative IPC: 0.6298 (Simulation time: 00 hr 07 min 06 sec)
Heartbeat CPU 0 instructions: 68500420 cycles: 43613667 heartbeat IPC: 0.4612 cumulative IPC: 0.6236 (Simulation time: 00 hr 07 min 14 sec)
Heartbeat CPU 0 instructions: 69000427 cycles: 44152834 heartbeat IPC: 0.9274 cumulative IPC: 0.6291 (Simulation time: 00 hr 07 min 18 sec)
Heartbeat CPU 0 instructions: 69500427 cycles: 44446222 heartbeat IPC: 1.704 cumulative IPC: 0.6394 (Simulation time: 00 hr 07 min 21 sec)
Heartbeat CPU 0 instructions: 70000429 cycles: 45446434 heartbeat IPC: 0.4999 cumulative IPC: 0.635 (Simulation time: 00 hr 07 min 27 sec)
Heartbeat CPU 0 instructions: 70500432 cycles: 46584798 heartbeat IPC: 0.4392 cumulative IPC: 0.6282 (Simulation time: 00 hr 07 min 35 sec)
Heartbeat CPU 0 instructions: 71000432 cycles: 47658884 heartbeat IPC: 0.4655 cumulative IPC: 0.623 (Simulation time: 00 hr 07 min 42 sec)
Heartbeat CPU 0 instructions: 71500433 cycles: 48593009 heartbeat IPC: 0.5353 cumulative IPC: 0.6206 (Simulation time: 00 hr 07 min 49 sec)
Heartbeat CPU 0 instructions: 72000433 cycles: 49240461 heartbeat IPC: 0.7723 cumulative IPC: 0.6234 (Simulation time: 00 hr 07 min 54 sec)
Heartbeat CPU 0 instructions: 72500439 cycles: 49459633 heartbeat IPC: 2.281 cumulative IPC: 0.6336 (Simulation time: 00 hr 07 min 57 sec)
Heartbeat CPU 0 instructions: 73000441 cycles: 49684184 heartbeat IPC: 2.227 cumulative IPC: 0.6436 (Simulation time: 00 hr 07 min 59 sec)
Heartbeat CPU 0 instructions: 73500445 cycles: 49895100 heartbeat IPC: 2.371 cumulative IPC: 0.6538 (Simulation time: 00 hr 08 min 02 sec)
Heartbeat CPU 0 instructions: 74000445 cycles: 50603522 heartbeat IPC: 0.7058 cumulative IPC: 0.6548 (Simulation time: 00 hr 08 min 07 sec)
Heartbeat CPU 0 instructions: 74500449 cycles: 52031694 heartbeat IPC: 0.3501 cumulative IPC: 0.6433 (Simulation time: 00 hr 08 min 16 sec)
Heartbeat CPU 0 instructions: 75000449 cycles: 52685654 heartbeat IPC: 0.7646 cumulative IPC: 0.6454 (Simulation time: 00 hr 08 min 21 sec)
Heartbeat CPU 0 instructions: 75500452 cycles: 54034372 heartbeat IPC: 0.3707 cumulative IPC: 0.6362 (Simulation time: 00 hr 08 min 30 sec)
Heartbeat CPU 0 instructions: 76000456 cycles: 55165448 heartbeat IPC: 0.4421 cumulative IPC: 0.6308 (Simulation time: 00 hr 08 min 37 sec)
Heartbeat CPU 0 instructions: 76500457 cycles: 55610154 heartbeat IPC: 1.124 cumulative IPC: 0.6361 (Simulation time: 00 hr 08 min 41 sec)
Heartbeat CPU 0 instructions: 77000462 cycles: 56048378 heartbeat IPC: 1.141 cumulative IPC: 0.6413 (Simulation time: 00 hr 08 min 45 sec)
Heartbeat CPU 0 instructions: 77500463 cycles: 56786716 heartbeat IPC: 0.6772 cumulative IPC: 0.642 (Simulation time: 00 hr 08 min 50 sec)
Heartbeat CPU 0 instructions: 78000466 cycles: 57753895 heartbeat IPC: 0.517 cumulative IPC: 0.6392 (Simulation time: 00 hr 08 min 57 sec)
Heartbeat CPU 0 instructions: 78500466 cycles: 58230978 heartbeat IPC: 1.048 cumulative IPC: 0.6436 (Simulation time: 00 hr 09 min 03 sec)
Heartbeat CPU 0 instructions: 79000469 cycles: 58746316 heartbeat IPC: 0.9702 cumulative IPC: 0.6474 (Simulation time: 00 hr 09 min 08 sec)
Heartbeat CPU 0 instructions: 79500469 cycles: 59442125 heartbeat IPC: 0.7186 cumulative IPC: 0.6485 (Simulation time: 00 hr 09 min 14 sec)
Heartbeat CPU 0 instructions: 80000469 cycles: 60426159 heartbeat IPC: 0.5081 cumulative IPC: 0.6455 (Simulation time: 00 hr 09 min 21 sec)
Heartbeat CPU 0 instructions: 80500469 cycles: 61402925 heartbeat IPC: 0.5119 cumulative IPC: 0.6427 (Simulation time: 00 hr 09 min 27 sec)
Heartbeat CPU 0 instructions: 81000469 cycles: 62927465 heartbeat IPC: 0.328 cumulative IPC: 0.6329 (Simulation time: 00 hr 09 min 40 sec)
Heartbeat CPU 0 instructions: 81500469 cycles: 64048916 heartbeat IPC: 0.4459 cumulative IPC: 0.6288 (Simulation time: 00 hr 09 min 48 sec)
Heartbeat CPU 0 instructions: 82000472 cycles: 64827669 heartbeat IPC: 0.6421 cumulative IPC: 0.629 (Simulation time: 00 hr 09 min 53 sec)
Heartbeat CPU 0 instructions: 82500472 cycles: 65465468 heartbeat IPC: 0.7839 cumulative IPC: 0.6309 (Simulation time: 00 hr 09 min 58 sec)
Heartbeat CPU 0 instructions: 83000473 cycles: 66152548 heartbeat IPC: 0.7277 cumulative IPC: 0.6321 (Simulation time: 00 hr 10 min 03 sec)
Heartbeat CPU 0 instructions: 83500477 cycles: 66522575 heartbeat IPC: 1.351 cumulative IPC: 0.6372 (Simulation time: 00 hr 10 min 06 sec)
Heartbeat CPU 0 instructions: 84000478 cycles: 67233846 heartbeat IPC: 0.703 cumulative IPC: 0.6381 (Simulation time: 00 hr 10 min 11 sec)
Heartbeat CPU 0 instructions: 84500480 cycles: 67983259 heartbeat IPC: 0.6672 cumulative IPC: 0.6385 (Simulation time: 00 hr 10 min 17 sec)
Heartbeat CPU 0 instructions: 85000482 cycles: 69049263 heartbeat IPC: 0.469 cumulative IPC: 0.6352 (Simulation time: 00 hr 10 min 24 sec)
Heartbeat CPU 0 instructions: 85500482 cycles: 69491337 heartbeat IPC: 1.131 cumulative IPC: 0.6392 (Simulation time: 00 hr 10 min 27 sec)
Heartbeat CPU 0 instructions: 86000482 cycles: 70391317 heartbeat IPC: 0.5556 cumulative IPC: 0.6378 (Simulation time: 00 hr 10 min 33 sec)
Heartbeat CPU 0 instructions: 86500486 cycles: 70746147 heartbeat IPC: 1.409 cumulative IPC: 0.6426 (Simulation time: 00 hr 10 min 37 sec)
Heartbeat CPU 0 instructions: 87000487 cycles: 71788767 heartbeat IPC: 0.4796 cumulative IPC: 0.6397 (Simulation time: 00 hr 10 min 44 sec)
Heartbeat CPU 0 instructions: 87500492 cycles: 72535002 heartbeat IPC: 0.67 cumulative IPC: 0.6401 (Simulation time: 00 hr 10 min 49 sec)
Heartbeat CPU 0 instructions: 88000492 cycles: 73859720 heartbeat IPC: 0.3774 cumulative IPC: 0.6343 (Simulation time: 00 hr 10 min 58 sec)
Heartbeat CPU 0 instructions: 88500493 cycles: 74745260 heartbeat IPC: 0.5646 cumulative IPC: 0.6333 (Simulation time: 00 hr 11 min 05 sec)
Heartbeat CPU 0 instructions: 89000493 cycles: 75426588 heartbeat IPC: 0.7339 cumulative IPC: 0.6344 (Simulation time: 00 hr 11 min 09 sec)
Heartbeat CPU 0 instructions: 89500493 cycles: 76161985 heartbeat IPC: 0.6799 cumulative IPC: 0.6349 (Simulation time: 00 hr 11 min 15 sec)
Heartbeat CPU 0 instructions: 90000494 cycles: 77116308 heartbeat IPC: 0.5239 cumulative IPC: 0.6332 (Simulation time: 00 hr 11 min 21 sec)
Heartbeat CPU 0 instructions: 90500500 cycles: 77718658 heartbeat IPC: 0.8301 cumulative IPC: 0.6351 (Simulation time: 00 hr 11 min 26 sec)
Heartbeat CPU 0 instructions: 91000501 cycles: 78750303 heartbeat IPC: 0.4847 cumulative IPC: 0.6327 (Simulation time: 00 hr 11 min 33 sec)
Heartbeat CPU 0 instructions: 91500507 cycles: 80145686 heartbeat IPC: 0.3583 cumulative IPC: 0.6269 (Simulation time: 00 hr 11 min 42 sec)
Heartbeat CPU 0 instructions: 92000511 cycles: 81241492 heartbeat IPC: 0.4563 cumulative IPC: 0.6241 (Simulation time: 00 hr 11 min 50 sec)
Heartbeat CPU 0 instructions: 92500515 cycles: 82267747 heartbeat IPC: 0.4872 cumulative IPC: 0.6221 (Simulation time: 00 hr 11 min 56 sec)
Heartbeat CPU 0 instructions: 93000515 cycles: 83204569 heartbeat IPC: 0.5337 cumulative IPC: 0.6209 (Simulation time: 00 hr 12 min 03 sec)
Heartbeat CPU 0 instructions: 93500520 cycles: 84391417 heartbeat IPC: 0.4213 cumulative IPC: 0.6175 (Simulation time: 00 hr 12 min 10 sec)
Heartbeat CPU 0 instructions: 94000520 cycles: 85635469 heartbeat IPC: 0.4019 cumulative IPC: 0.6138 (Simulation time: 00 hr 12 min 19 sec)
Heartbeat CPU 0 instructions: 94500526 cycles: 86528356 heartbeat IPC: 0.56 cumulative IPC: 0.6131 (Simulation time: 00 hr 12 min 25 sec)
Heartbeat CPU 0 instructions: 95000531 cycles: 87682451 heartbeat IPC: 0.4332 cumulative IPC: 0.6103 (Simulation time: 00 hr 12 min 33 sec)
Heartbeat CPU 0 instructions: 95500531 cycles: 88969620 heartbeat IPC: 0.3884 cumulative IPC: 0.6065 (Simulation time: 00 hr 12 min 42 sec)
Heartbeat CPU 0 instructions: 96000538 cycles: 90227270 heartbeat IPC: 0.3976 cumulative IPC: 0.6031 (Simulation time: 00 hr 12 min 50 sec)
Heartbeat CPU 0 instructions: 96500538 cycles: 91209422 heartbeat IPC: 0.5091 cumulative IPC: 0.6019 (Simulation time: 00 hr 12 min 56 sec)
Heartbeat CPU 0 instructions: 97000544 cycles: 91938707 heartbeat IPC: 0.6856 cumulative IPC: 0.6026 (Simulation time: 00 hr 13 min 02 sec)
Heartbeat CPU 0 instructions: 97500545 cycles: 92520578 heartbeat IPC: 0.8593 cumulative IPC: 0.6045 (Simulation time: 00 hr 13 min 07 sec)
Heartbeat CPU 0 instructions: 98000545 cycles: 93299643 heartbeat IPC: 0.6418 cumulative IPC: 0.6049 (Simulation time: 00 hr 13 min 12 sec)
Heartbeat CPU 0 instructions: 98500551 cycles: 94175235 heartbeat IPC: 0.571 cumulative IPC: 0.6045 (Simulation time: 00 hr 13 min 18 sec)
Heartbeat CPU 0 instructions: 99000552 cycles: 95066283 heartbeat IPC: 0.5611 cumulative IPC: 0.6041 (Simulation time: 00 hr 13 min 24 sec)
Heartbeat CPU 0 instructions: 99500552 cycles: 95673407 heartbeat IPC: 0.8236 cumulative IPC: 0.6057 (Simulation time: 00 hr 13 min 29 sec)
Heartbeat CPU 0 instructions: 100000557 cycles: 96580589 heartbeat IPC: 0.5512 cumulative IPC: 0.6051 (Simulation time: 00 hr 13 min 35 sec)
Heartbeat CPU 0 instructions: 100500557 cycles: 97738636 heartbeat IPC: 0.4318 cumulative IPC: 0.6027 (Simulation time: 00 hr 13 min 43 sec)
Heartbeat CPU 0 instructions: 101000563 cycles: 98907161 heartbeat IPC: 0.4279 cumulative IPC: 0.6003 (Simulation time: 00 hr 13 min 50 sec)
Heartbeat CPU 0 instructions: 101500563 cycles: 99836027 heartbeat IPC: 0.5383 cumulative IPC: 0.5996 (Simulation time: 00 hr 13 min 58 sec)
Heartbeat CPU 0 instructions: 102000565 cycles: 100567583 heartbeat IPC: 0.6835 cumulative IPC: 0.6003 (Simulation time: 00 hr 14 min 04 sec)
Heartbeat CPU 0 instructions: 102500572 cycles: 101065486 heartbeat IPC: 1.004 cumulative IPC: 0.6026 (Simulation time: 00 hr 14 min 08 sec)
Heartbeat CPU 0 instructions: 103000577 cycles: 101490479 heartbeat IPC: 1.177 cumulative IPC: 0.6054 (Simulation time: 00 hr 14 min 11 sec)
Heartbeat CPU 0 instructions: 103500581 cycles: 102009092 heartbeat IPC: 0.9641 cumulative IPC: 0.6075 (Simulation time: 00 hr 14 min 16 sec)
Heartbeat CPU 0 instructions: 104000582 cycles: 102410980 heartbeat IPC: 1.244 cumulative IPC: 0.6104 (Simulation time: 00 hr 14 min 19 sec)
Heartbeat CPU 0 instructions: 104500588 cycles: 102893190 heartbeat IPC: 1.037 cumulative IPC: 0.6127 (Simulation time: 00 hr 14 min 23 sec)
Heartbeat CPU 0 instructions: 105000592 cycles: 103296455 heartbeat IPC: 1.24 cumulative IPC: 0.6156 (Simulation time: 00 hr 14 min 27 sec)
Heartbeat CPU 0 instructions: 105500594 cycles: 104047011 heartbeat IPC: 0.6662 cumulative IPC: 0.616 (Simulation time: 00 hr 14 min 32 sec)
Heartbeat CPU 0 instructions: 106000595 cycles: 104973525 heartbeat IPC: 0.5397 cumulative IPC: 0.6152 (Simulation time: 00 hr 14 min 38 sec)
Heartbeat CPU 0 instructions: 106500601 cycles: 106038400 heartbeat IPC: 0.4695 cumulative IPC: 0.6135 (Simulation time: 00 hr 14 min 45 sec)
Heartbeat CPU 0 instructions: 107000602 cycles: 106666476 heartbeat IPC: 0.7961 cumulative IPC: 0.6148 (Simulation time: 00 hr 14 min 50 sec)
Heartbeat CPU 0 instructions: 107500609 cycles: 107245355 heartbeat IPC: 0.8638 cumulative IPC: 0.6163 (Simulation time: 00 hr 14 min 55 sec)
Heartbeat CPU 0 instructions: 108000610 cycles: 108069298 heartbeat IPC: 0.6068 cumulative IPC: 0.6162 (Simulation time: 00 hr 15 min 01 sec)
Heartbeat CPU 0 instructions: 108500610 cycles: 109522586 heartbeat IPC: 0.344 cumulative IPC: 0.6121 (Simulation time: 00 hr 15 min 11 sec)
Heartbeat CPU 0 instructions: 109000610 cycles: 110496978 heartbeat IPC: 0.5131 cumulative IPC: 0.6111 (Simulation time: 00 hr 15 min 18 sec)
Heartbeat CPU 0 instructions: 109500617 cycles: 111309174 heartbeat IPC: 0.6156 cumulative IPC: 0.6111 (Simulation time: 00 hr 15 min 24 sec)
Heartbeat CPU 0 instructions: 110000619 cycles: 111802001 heartbeat IPC: 1.015 cumulative IPC: 0.6132 (Simulation time: 00 hr 15 min 28 sec)
Heartbeat CPU 0 instructions: 110500625 cycles: 112291032 heartbeat IPC: 1.022 cumulative IPC: 0.6152 (Simulation time: 00 hr 15 min 32 sec)
Heartbeat CPU 0 instructions: 111000627 cycles: 113037444 heartbeat IPC: 0.6699 cumulative IPC: 0.6156 (Simulation time: 00 hr 15 min 37 sec)
Heartbeat CPU 0 instructions: 111500628 cycles: 113508468 heartbeat IPC: 1.062 cumulative IPC: 0.6177 (Simulation time: 00 hr 15 min 41 sec)
Heartbeat CPU 0 instructions: 112000631 cycles: 113890335 heartbeat IPC: 1.309 cumulative IPC: 0.6204 (Simulation time: 00 hr 15 min 44 sec)
Heartbeat CPU 0 instructions: 112500631 cycles: 115337181 heartbeat IPC: 0.3456 cumulative IPC: 0.6164 (Simulation time: 00 hr 15 min 53 sec)
Heartbeat CPU 0 instructions: 113000632 cycles: 116143743 heartbeat IPC: 0.6199 cumulative IPC: 0.6165 (Simulation time: 00 hr 15 min 58 sec)
Heartbeat CPU 0 instructions: 113500633 cycles: 116850461 heartbeat IPC: 0.7075 cumulative IPC: 0.6171 (Simulation time: 00 hr 16 min 04 sec)
Heartbeat CPU 0 instructions: 114000633 cycles: 117423509 heartbeat IPC: 0.8725 cumulative IPC: 0.6185 (Simulation time: 00 hr 16 min 08 sec)
Heartbeat CPU 0 instructions: 114500634 cycles: 117886929 heartbeat IPC: 1.079 cumulative IPC: 0.6206 (Simulation time: 00 hr 16 min 12 sec)
Heartbeat CPU 0 instructions: 115000635 cycles: 118478916 heartbeat IPC: 0.8446 cumulative IPC: 0.6218 (Simulation time: 00 hr 16 min 17 sec)
Heartbeat CPU 0 instructions: 115500642 cycles: 118927080 heartbeat IPC: 1.116 cumulative IPC: 0.6239 (Simulation time: 00 hr 16 min 20 sec)
Heartbeat CPU 0 instructions: 116000648 cycles: 119177191 heartbeat IPC: 1.999 cumulative IPC: 0.6272 (Simulation time: 00 hr 16 min 23 sec)
Heartbeat CPU 0 instructions: 116500648 cycles: 119414642 heartbeat IPC: 2.106 cumulative IPC: 0.6305 (Simulation time: 00 hr 16 min 26 sec)
Heartbeat CPU 0 instructions: 117000651 cycles: 119976720 heartbeat IPC: 0.8896 cumulative IPC: 0.6319 (Simulation time: 00 hr 16 min 30 sec)
Heartbeat CPU 0 instructions: 117500652 cycles: 120684035 heartbeat IPC: 0.7069 cumulative IPC: 0.6324 (Simulation time: 00 hr 16 min 36 sec)
Heartbeat CPU 0 instructions: 118000656 cycles: 121045094 heartbeat IPC: 1.385 cumulative IPC: 0.6349 (Simulation time: 00 hr 16 min 39 sec)
Heartbeat CPU 0 instructions: 118500659 cycles: 121421261 heartbeat IPC: 1.329 cumulative IPC: 0.6374 (Simulation time: 00 hr 16 min 43 sec)
Heartbeat CPU 0 instructions: 119000660 cycles: 122327428 heartbeat IPC: 0.5518 cumulative IPC: 0.6367 (Simulation time: 00 hr 16 min 49 sec)
Heartbeat CPU 0 instructions: 119500664 cycles: 123387865 heartbeat IPC: 0.4715 cumulative IPC: 0.6351 (Simulation time: 00 hr 16 min 56 sec)
Heartbeat CPU 0 instructions: 120000664 cycles: 123941050 heartbeat IPC: 0.9039 cumulative IPC: 0.6364 (Simulation time: 00 hr 17 min 01 sec)
Heartbeat CPU 0 instructions: 120500670 cycles: 124251240 heartbeat IPC: 1.612 cumulative IPC: 0.6392 (Simulation time: 00 hr 17 min 04 sec)
Heartbeat CPU 0 instructions: 121000670 cycles: 125088614 heartbeat IPC: 0.5971 cumulative IPC: 0.6388 (Simulation time: 00 hr 17 min 10 sec)
Heartbeat CPU 0 instructions: 121500670 cycles: 125738838 heartbeat IPC: 0.769 cumulative IPC: 0.6396 (Simulation time: 00 hr 17 min 14 sec)
Heartbeat CPU 0 instructions: 122000670 cycles: 126848070 heartbeat IPC: 0.4508 cumulative IPC: 0.6377 (Simulation time: 00 hr 17 min 21 sec)
Heartbeat CPU 0 instructions: 122500670 cycles: 127574310 heartbeat IPC: 0.6885 cumulative IPC: 0.6381 (Simulation time: 00 hr 17 min 27 sec)
Heartbeat CPU 0 instructions: 123000670 cycles: 128506760 heartbeat IPC: 0.5362 cumulative IPC: 0.6372 (Simulation time: 00 hr 17 min 33 sec)
Heartbeat CPU 0 instructions: 123500671 cycles: 129722125 heartbeat IPC: 0.4114 cumulative IPC: 0.6349 (Simulation time: 00 hr 17 min 41 sec)
Heartbeat CPU 0 instructions: 124000671 cycles: 131038590 heartbeat IPC: 0.3798 cumulative IPC: 0.632 (Simulation time: 00 hr 17 min 49 sec)
Heartbeat CPU 0 instructions: 124500673 cycles: 131703495 heartbeat IPC: 0.752 cumulative IPC: 0.6327 (Simulation time: 00 hr 17 min 54 sec)
Heartbeat CPU 0 instructions: 125000680 cycles: 131980690 heartbeat IPC: 1.804 cumulative IPC: 0.6354 (Simulation time: 00 hr 17 min 56 sec)
Heartbeat CPU 0 instructions: 125500683 cycles: 132303585 heartbeat IPC: 1.549 cumulative IPC: 0.6379 (Simulation time: 00 hr 17 min 59 sec)
Heartbeat CPU 0 instructions: 126000686 cycles: 132834952 heartbeat IPC: 0.941 cumulative IPC: 0.6393 (Simulation time: 00 hr 18 min 03 sec)
Heartbeat CPU 0 instructions: 126500690 cycles: 133422570 heartbeat IPC: 0.8509 cumulative IPC: 0.6403 (Simulation time: 00 hr 18 min 07 sec)
Heartbeat CPU 0 instructions: 127000692 cycles: 133717140 heartbeat IPC: 1.697 cumulative IPC: 0.6429 (Simulation time: 00 hr 18 min 10 sec)
Heartbeat CPU 0 instructions: 127500699 cycles: 134880537 heartbeat IPC: 0.4298 cumulative IPC: 0.6409 (Simulation time: 00 hr 18 min 17 sec)
Heartbeat CPU 0 instructions: 128000704 cycles: 135903072 heartbeat IPC: 0.489 cumulative IPC: 0.6396 (Simulation time: 00 hr 18 min 24 sec)
Heartbeat CPU 0 instructions: 128500707 cycles: 136709969 heartbeat IPC: 0.6197 cumulative IPC: 0.6395 (Simulation time: 00 hr 18 min 30 sec)
Heartbeat CPU 0 instructions: 129000708 cycles: 137702530 heartbeat IPC: 0.5037 cumulative IPC: 0.6384 (Simulation time: 00 hr 18 min 36 sec)
Heartbeat CPU 0 instructions: 129500708 cycles: 138763892 heartbeat IPC: 0.4711 cumulative IPC: 0.6369 (Simulation time: 00 hr 18 min 44 sec)
Heartbeat CPU 0 instructions: 130000708 cycles: 139764332 heartbeat IPC: 0.4998 cumulative IPC: 0.6359 (Simulation time: 00 hr 18 min 50 sec)
Heartbeat CPU 0 instructions: 130500712 cycles: 140382314 heartbeat IPC: 0.8091 cumulative IPC: 0.6367 (Simulation time: 00 hr 18 min 55 sec)
Heartbeat CPU 0 instructions: 131000717 cycles: 141405140 heartbeat IPC: 0.4888 cumulative IPC: 0.6355 (Simulation time: 00 hr 19 min 02 sec)
Heartbeat CPU 0 instructions: 131500720 cycles: 142709810 heartbeat IPC: 0.3832 cumulative IPC: 0.633 (Simulation time: 00 hr 19 min 11 sec)
Heartbeat CPU 0 instructions: 132000727 cycles: 144065816 heartbeat IPC: 0.3687 cumulative IPC: 0.6302 (Simulation time: 00 hr 19 min 20 sec)
Heartbeat CPU 0 instructions: 132500727 cycles: 144946492 heartbeat IPC: 0.5677 cumulative IPC: 0.6298 (Simulation time: 00 hr 19 min 26 sec)
Heartbeat CPU 0 instructions: 133000728 cycles: 145739248 heartbeat IPC: 0.6307 cumulative IPC: 0.6298 (Simulation time: 00 hr 19 min 31 sec)
Heartbeat CPU 0 instructions: 133500729 cycles: 147181430 heartbeat IPC: 0.3467 cumulative IPC: 0.6267 (Simulation time: 00 hr 19 min 40 sec)
Heartbeat CPU 0 instructions: 134000732 cycles: 147793439 heartbeat IPC: 0.817 cumulative IPC: 0.6276 (Simulation time: 00 hr 19 min 45 sec)
Heartbeat CPU 0 instructions: 134500732 cycles: 148380992 heartbeat IPC: 0.851 cumulative IPC: 0.6286 (Simulation time: 00 hr 19 min 49 sec)
Heartbeat CPU 0 instructions: 135000736 cycles: 149132008 heartbeat IPC: 0.6658 cumulative IPC: 0.6288 (Simulation time: 00 hr 19 min 54 sec)
Heartbeat CPU 0 instructions: 135500736 cycles: 150148003 heartbeat IPC: 0.4921 cumulative IPC: 0.6278 (Simulation time: 00 hr 20 min 01 sec)
Heartbeat CPU 0 instructions: 136000738 cycles: 151112655 heartbeat IPC: 0.5183 cumulative IPC: 0.627 (Simulation time: 00 hr 20 min 08 sec)
Heartbeat CPU 0 instructions: 136500744 cycles: 152003418 heartbeat IPC: 0.5613 cumulative IPC: 0.6266 (Simulation time: 00 hr 20 min 15 sec)
Heartbeat CPU 0 instructions: 137000749 cycles: 152852524 heartbeat IPC: 0.5889 cumulative IPC: 0.6263 (Simulation time: 00 hr 20 min 22 sec)
Heartbeat CPU 0 instructions: 137500751 cycles: 153682133 heartbeat IPC: 0.6027 cumulative IPC: 0.6262 (Simulation time: 00 hr 20 min 30 sec)
Heartbeat CPU 0 instructions: 138000753 cycles: 154371110 heartbeat IPC: 0.7257 cumulative IPC: 0.6267 (Simulation time: 00 hr 20 min 36 sec)
Heartbeat CPU 0 instructions: 138500753 cycles: 154718900 heartbeat IPC: 1.438 cumulative IPC: 0.6287 (Simulation time: 00 hr 20 min 39 sec)
Heartbeat CPU 0 instructions: 139000755 cycles: 155032251 heartbeat IPC: 1.596 cumulative IPC: 0.6308 (Simulation time: 00 hr 20 min 42 sec)
Heartbeat CPU 0 instructions: 139500758 cycles: 155388100 heartbeat IPC: 1.405 cumulative IPC: 0.6328 (Simulation time: 00 hr 20 min 45 sec)
Heartbeat CPU 0 instructions: 140000763 cycles: 156181745 heartbeat IPC: 0.63 cumulative IPC: 0.6328 (Simulation time: 00 hr 20 min 52 sec)
Heartbeat CPU 0 instructions: 140500769 cycles: 156817798 heartbeat IPC: 0.7861 cumulative IPC: 0.6335 (Simulation time: 00 hr 20 min 57 sec)
Heartbeat CPU 0 instructions: 141000769 cycles: 157759705 heartbeat IPC: 0.5308 cumulative IPC: 0.6328 (Simulation time: 00 hr 21 min 05 sec)
Heartbeat CPU 0 instructions: 141500776 cycles: 158898563 heartbeat IPC: 0.439 cumulative IPC: 0.6313 (Simulation time: 00 hr 21 min 15 sec)
Heartbeat CPU 0 instructions: 142000777 cycles: 160012924 heartbeat IPC: 0.4487 cumulative IPC: 0.6299 (Simulation time: 00 hr 21 min 25 sec)
Heartbeat CPU 0 instructions: 142500777 cycles: 160366757 heartbeat IPC: 1.413 cumulative IPC: 0.6318 (Simulation time: 00 hr 21 min 28 sec)
Heartbeat CPU 0 instructions: 143000777 cycles: 162188595 heartbeat IPC: 0.2744 cumulative IPC: 0.6274 (Simulation time: 00 hr 21 min 39 sec)
Heartbeat CPU 0 instructions: 143500777 cycles: 163408638 heartbeat IPC: 0.4098 cumulative IPC: 0.6256 (Simulation time: 00 hr 21 min 47 sec)
Heartbeat CPU 0 instructions: 144000784 cycles: 164257436 heartbeat IPC: 0.5891 cumulative IPC: 0.6254 (Simulation time: 00 hr 21 min 53 sec)
Heartbeat CPU 0 instructions: 144500784 cycles: 165015381 heartbeat IPC: 0.6597 cumulative IPC: 0.6256 (Simulation time: 00 hr 21 min 58 sec)
Heartbeat CPU 0 instructions: 145000785 cycles: 165260977 heartbeat IPC: 2.036 cumulative IPC: 0.6278 (Simulation time: 00 hr 22 min 00 sec)
Heartbeat CPU 0 instructions: 145500792 cycles: 165672967 heartbeat IPC: 1.214 cumulative IPC: 0.6294 (Simulation time: 00 hr 22 min 04 sec)
Heartbeat CPU 0 instructions: 146000795 cycles: 166038380 heartbeat IPC: 1.368 cumulative IPC: 0.6312 (Simulation time: 00 hr 22 min 07 sec)
Heartbeat CPU 0 instructions: 146500801 cycles: 167495557 heartbeat IPC: 0.3431 cumulative IPC: 0.6285 (Simulation time: 00 hr 22 min 16 sec)
Heartbeat CPU 0 instructions: 147000802 cycles: 168353911 heartbeat IPC: 0.5825 cumulative IPC: 0.6282 (Simulation time: 00 hr 22 min 22 sec)
Heartbeat CPU 0 instructions: 147500802 cycles: 169366805 heartbeat IPC: 0.4936 cumulative IPC: 0.6273 (Simulation time: 00 hr 22 min 29 sec)
Heartbeat CPU 0 instructions: 148000802 cycles: 170622769 heartbeat IPC: 0.3981 cumulative IPC: 0.6255 (Simulation time: 00 hr 22 min 36 sec)
Heartbeat CPU 0 instructions: 148500802 cycles: 171857847 heartbeat IPC: 0.4048 cumulative IPC: 0.6238 (Simulation time: 00 hr 22 min 44 sec)
Heartbeat CPU 0 instructions: 149000807 cycles: 172754704 heartbeat IPC: 0.5575 cumulative IPC: 0.6234 (Simulation time: 00 hr 22 min 51 sec)
Heartbeat CPU 0 instructions: 149500812 cycles: 173866154 heartbeat IPC: 0.4499 cumulative IPC: 0.6222 (Simulation time: 00 hr 22 min 58 sec)
Heartbeat CPU 0 instructions: 150000812 cycles: 174396943 heartbeat IPC: 0.942 cumulative IPC: 0.6233 (Simulation time: 00 hr 23 min 03 sec)
Heartbeat CPU 0 instructions: 150500815 cycles: 175704115 heartbeat IPC: 0.3825 cumulative IPC: 0.6213 (Simulation time: 00 hr 23 min 11 sec)
Heartbeat CPU 0 instructions: 151000815 cycles: 176712795 heartbeat IPC: 0.4957 cumulative IPC: 0.6205 (Simulation time: 00 hr 23 min 17 sec)
Heartbeat CPU 0 instructions: 151500815 cycles: 177977716 heartbeat IPC: 0.3953 cumulative IPC: 0.6188 (Simulation time: 00 hr 23 min 25 sec)
Heartbeat CPU 0 instructions: 152000816 cycles: 178706488 heartbeat IPC: 0.6861 cumulative IPC: 0.6191 (Simulation time: 00 hr 23 min 30 sec)
Heartbeat CPU 0 instructions: 152500816 cycles: 179802416 heartbeat IPC: 0.4562 cumulative IPC: 0.618 (Simulation time: 00 hr 23 min 37 sec)
Heartbeat CPU 0 instructions: 153000816 cycles: 180905586 heartbeat IPC: 0.4532 cumulative IPC: 0.6169 (Simulation time: 00 hr 23 min 44 sec)
Heartbeat CPU 0 instructions: 153500816 cycles: 181912015 heartbeat IPC: 0.4968 cumulative IPC: 0.6162 (Simulation time: 00 hr 23 min 50 sec)
Heartbeat CPU 0 instructions: 154000821 cycles: 182646491 heartbeat IPC: 0.6808 cumulative IPC: 0.6165 (Simulation time: 00 hr 23 min 55 sec)
Heartbeat CPU 0 instructions: 154500821 cycles: 183738377 heartbeat IPC: 0.4579 cumulative IPC: 0.6155 (Simulation time: 00 hr 24 min 02 sec)
Heartbeat CPU 0 instructions: 155000821 cycles: 184912815 heartbeat IPC: 0.4257 cumulative IPC: 0.6142 (Simulation time: 00 hr 24 min 10 sec)
Heartbeat CPU 0 instructions: 155500825 cycles: 185937999 heartbeat IPC: 0.4877 cumulative IPC: 0.6134 (Simulation time: 00 hr 24 min 16 sec)
Heartbeat CPU 0 instructions: 156000825 cycles: 186885261 heartbeat IPC: 0.5278 cumulative IPC: 0.6129 (Simulation time: 00 hr 24 min 22 sec)
Heartbeat CPU 0 instructions: 156500825 cycles: 187716322 heartbeat IPC: 0.6016 cumulative IPC: 0.6129 (Simulation time: 00 hr 24 min 28 sec)
Heartbeat CPU 0 instructions: 157000828 cycles: 187977531 heartbeat IPC: 1.914 cumulative IPC: 0.6148 (Simulation time: 00 hr 24 min 31 sec)
Heartbeat CPU 0 instructions: 157500832 cycles: 188387967 heartbeat IPC: 1.218 cumulative IPC: 0.6163 (Simulation time: 00 hr 24 min 34 sec)
Heartbeat CPU 0 instructions: 158000832 cycles: 189850150 heartbeat IPC: 0.342 cumulative IPC: 0.614 (Simulation time: 00 hr 24 min 45 sec)
Heartbeat CPU 0 instructions: 158500833 cycles: 190655616 heartbeat IPC: 0.6208 cumulative IPC: 0.614 (Simulation time: 00 hr 24 min 51 sec)
Heartbeat CPU 0 instructions: 159000833 cycles: 192090440 heartbeat IPC: 0.3485 cumulative IPC: 0.6119 (Simulation time: 00 hr 25 min 00 sec)
Heartbeat CPU 0 instructions: 159500836 cycles: 193286592 heartbeat IPC: 0.418 cumulative IPC: 0.6106 (Simulation time: 00 hr 25 min 08 sec)
Heartbeat CPU 0 instructions: 160000836 cycles: 194137078 heartbeat IPC: 0.5879 cumulative IPC: 0.6105 (Simulation time: 00 hr 25 min 14 sec)
Heartbeat CPU 0 instructions: 160500836 cycles: 195512180 heartbeat IPC: 0.3636 cumulative IPC: 0.6086 (Simulation time: 00 hr 25 min 22 sec)
Heartbeat CPU 0 instructions: 161000836 cycles: 196732220 heartbeat IPC: 0.4098 cumulative IPC: 0.6073 (Simulation time: 00 hr 25 min 30 sec)
Heartbeat CPU 0 instructions: 161500837 cycles: 198375145 heartbeat IPC: 0.3043 cumulative IPC: 0.6046 (Simulation time: 00 hr 25 min 41 sec)
Heartbeat CPU 0 instructions: 162000837 cycles: 199648965 heartbeat IPC: 0.3925 cumulative IPC: 0.6031 (Simulation time: 00 hr 25 min 49 sec)
Heartbeat CPU 0 instructions: 162500837 cycles: 200882549 heartbeat IPC: 0.4053 cumulative IPC: 0.6018 (Simulation time: 00 hr 25 min 57 sec)
Heartbeat CPU 0 instructions: 163000837 cycles: 201669934 heartbeat IPC: 0.635 cumulative IPC: 0.602 (Simulation time: 00 hr 26 min 02 sec)
Heartbeat CPU 0 instructions: 163500839 cycles: 202628618 heartbeat IPC: 0.5216 cumulative IPC: 0.6016 (Simulation time: 00 hr 26 min 08 sec)
Heartbeat CPU 0 instructions: 164000840 cycles: 203532676 heartbeat IPC: 0.5531 cumulative IPC: 0.6013 (Simulation time: 00 hr 26 min 14 sec)
Heartbeat CPU 0 instructions: 164500842 cycles: 204540927 heartbeat IPC: 0.4959 cumulative IPC: 0.6008 (Simulation time: 00 hr 26 min 21 sec)
Heartbeat CPU 0 instructions: 165000844 cycles: 205542711 heartbeat IPC: 0.4991 cumulative IPC: 0.6002 (Simulation time: 00 hr 26 min 27 sec)
Heartbeat CPU 0 instructions: 165500847 cycles: 206462476 heartbeat IPC: 0.5436 cumulative IPC: 0.6 (Simulation time: 00 hr 26 min 34 sec)
Heartbeat CPU 0 instructions: 166000847 cycles: 206728856 heartbeat IPC: 1.877 cumulative IPC: 0.6017 (Simulation time: 00 hr 26 min 36 sec)
Heartbeat CPU 0 instructions: 166500853 cycles: 208076493 heartbeat IPC: 0.371 cumulative IPC: 0.6001 (Simulation time: 00 hr 26 min 44 sec)
Heartbeat CPU 0 instructions: 167000854 cycles: 208812240 heartbeat IPC: 0.6796 cumulative IPC: 0.6004 (Simulation time: 00 hr 26 min 49 sec)
Heartbeat CPU 0 instructions: 167500856 cycles: 209602348 heartbeat IPC: 0.6328 cumulative IPC: 0.6006 (Simulation time: 00 hr 26 min 54 sec)
Heartbeat CPU 0 instructions: 168000857 cycles: 210526772 heartbeat IPC: 0.5409 cumulative IPC: 0.6003 (Simulation time: 00 hr 27 min 00 sec)
Heartbeat CPU 0 instructions: 168500861 cycles: 211878299 heartbeat IPC: 0.37 cumulative IPC: 0.5987 (Simulation time: 00 hr 27 min 09 sec)
Heartbeat CPU 0 instructions: 169000864 cycles: 212651840 heartbeat IPC: 0.6464 cumulative IPC: 0.5989 (Simulation time: 00 hr 27 min 14 sec)
Heartbeat CPU 0 instructions: 169500866 cycles: 213894978 heartbeat IPC: 0.4022 cumulative IPC: 0.5977 (Simulation time: 00 hr 27 min 22 sec)
Heartbeat CPU 0 instructions: 170000869 cycles: 214795859 heartbeat IPC: 0.555 cumulative IPC: 0.5975 (Simulation time: 00 hr 27 min 28 sec)
Heartbeat CPU 0 instructions: 170500869 cycles: 215767357 heartbeat IPC: 0.5147 cumulative IPC: 0.5971 (Simulation time: 00 hr 27 min 34 sec)
Heartbeat CPU 0 instructions: 171000876 cycles: 216795551 heartbeat IPC: 0.4863 cumulative IPC: 0.5965 (Simulation time: 00 hr 27 min 41 sec)
Heartbeat CPU 0 instructions: 171500877 cycles: 217834564 heartbeat IPC: 0.4812 cumulative IPC: 0.5959 (Simulation time: 00 hr 27 min 47 sec)
Heartbeat CPU 0 instructions: 172000877 cycles: 219088458 heartbeat IPC: 0.3988 cumulative IPC: 0.5947 (Simulation time: 00 hr 27 min 55 sec)
Heartbeat CPU 0 instructions: 172500880 cycles: 219964662 heartbeat IPC: 0.5706 cumulative IPC: 0.5946 (Simulation time: 00 hr 28 min 01 sec)
Heartbeat CPU 0 instructions: 173000884 cycles: 220329348 heartbeat IPC: 1.371 cumulative IPC: 0.596 (Simulation time: 00 hr 28 min 04 sec)
Heartbeat CPU 0 instructions: 173500886 cycles: 220738651 heartbeat IPC: 1.222 cumulative IPC: 0.5972 (Simulation time: 00 hr 28 min 07 sec)
Heartbeat CPU 0 instructions: 174000889 cycles: 221835631 heartbeat IPC: 0.4558 cumulative IPC: 0.5965 (Simulation time: 00 hr 28 min 14 sec)
Heartbeat CPU 0 instructions: 174500890 cycles: 222797544 heartbeat IPC: 0.5198 cumulative IPC: 0.5961 (Simulation time: 00 hr 28 min 20 sec)
Heartbeat CPU 0 instructions: 175000890 cycles: 223606992 heartbeat IPC: 0.6177 cumulative IPC: 0.5962 (Simulation time: 00 hr 28 min 26 sec)
Heartbeat CPU 0 instructions: 175500894 cycles: 224341763 heartbeat IPC: 0.6805 cumulative IPC: 0.5965 (Simulation time: 00 hr 28 min 31 sec)
Heartbeat CPU 0 instructions: 176000894 cycles: 224768935 heartbeat IPC: 1.17 cumulative IPC: 0.5977 (Simulation time: 00 hr 28 min 34 sec)
Heartbeat CPU 0 instructions: 176500895 cycles: 225886453 heartbeat IPC: 0.4474 cumulative IPC: 0.5969 (Simulation time: 00 hr 28 min 41 sec)
Heartbeat CPU 0 instructions: 177000895 cycles: 226838573 heartbeat IPC: 0.5251 cumulative IPC: 0.5966 (Simulation time: 00 hr 28 min 47 sec)
Heartbeat CPU 0 instructions: 177500895 cycles: 227853556 heartbeat IPC: 0.4926 cumulative IPC: 0.5961 (Simulation time: 00 hr 28 min 54 sec)
Heartbeat CPU 0 instructions: 178000895 cycles: 228499703 heartbeat IPC: 0.7738 cumulative IPC: 0.5966 (Simulation time: 00 hr 28 min 58 sec)
Heartbeat CPU 0 instructions: 178500899 cycles: 229227395 heartbeat IPC: 0.6871 cumulative IPC: 0.5969 (Simulation time: 00 hr 29 min 03 sec)
Heartbeat CPU 0 instructions: 179000903 cycles: 229583398 heartbeat IPC: 1.404 cumulative IPC: 0.5982 (Simulation time: 00 hr 29 min 06 sec)
Heartbeat CPU 0 instructions: 179500904 cycles: 230886349 heartbeat IPC: 0.3837 cumulative IPC: 0.597 (Simulation time: 00 hr 29 min 14 sec)
Heartbeat CPU 0 instructions: 180000904 cycles: 232273502 heartbeat IPC: 0.3605 cumulative IPC: 0.5954 (Simulation time: 00 hr 29 min 22 sec)
Heartbeat CPU 0 instructions: 180500905 cycles: 233160689 heartbeat IPC: 0.5636 cumulative IPC: 0.5953 (Simulation time: 00 hr 29 min 28 sec)
Heartbeat CPU 0 instructions: 181000905 cycles: 233911986 heartbeat IPC: 0.6655 cumulative IPC: 0.5956 (Simulation time: 00 hr 29 min 33 sec)
Heartbeat CPU 0 instructions: 181500906 cycles: 234554695 heartbeat IPC: 0.778 cumulative IPC: 0.5961 (Simulation time: 00 hr 29 min 38 sec)
Heartbeat CPU 0 instructions: 182000913 cycles: 235783990 heartbeat IPC: 0.4067 cumulative IPC: 0.595 (Simulation time: 00 hr 29 min 45 sec)
Heartbeat CPU 0 instructions: 182500915 cycles: 237133901 heartbeat IPC: 0.3704 cumulative IPC: 0.5937 (Simulation time: 00 hr 29 min 54 sec)
Heartbeat CPU 0 instructions: 183000916 cycles: 237933798 heartbeat IPC: 0.6251 cumulative IPC: 0.5938 (Simulation time: 00 hr 29 min 59 sec)
Heartbeat CPU 0 instructions: 183500920 cycles: 238548958 heartbeat IPC: 0.8128 cumulative IPC: 0.5944 (Simulation time: 00 hr 30 min 04 sec)
Heartbeat CPU 0 instructions: 184000920 cycles: 239399344 heartbeat IPC: 0.588 cumulative IPC: 0.5944 (Simulation time: 00 hr 30 min 09 sec)
Heartbeat CPU 0 instructions: 184500920 cycles: 240106609 heartbeat IPC: 0.7069 cumulative IPC: 0.5947 (Simulation time: 00 hr 30 min 14 sec)
Heartbeat CPU 0 instructions: 185000920 cycles: 240715703 heartbeat IPC: 0.8209 cumulative IPC: 0.5953 (Simulation time: 00 hr 30 min 18 sec)
Heartbeat CPU 0 instructions: 185500921 cycles: 241654642 heartbeat IPC: 0.5325 cumulative IPC: 0.5951 (Simulation time: 00 hr 30 min 24 sec)
Heartbeat CPU 0 instructions: 186000921 cycles: 242393528 heartbeat IPC: 0.6767 cumulative IPC: 0.5953 (Simulation time: 00 hr 30 min 29 sec)
Heartbeat CPU 0 instructions: 186500921 cycles: 243380464 heartbeat IPC: 0.5066 cumulative IPC: 0.595 (Simulation time: 00 hr 30 min 35 sec)
Heartbeat CPU 0 instructions: 187000923 cycles: 244298622 heartbeat IPC: 0.5446 cumulative IPC: 0.5948 (Simulation time: 00 hr 30 min 41 sec)
Heartbeat CPU 0 instructions: 187500929 cycles: 245863262 heartbeat IPC: 0.3196 cumulative IPC: 0.5929 (Simulation time: 00 hr 30 min 50 sec)
Heartbeat CPU 0 instructions: 188000930 cycles: 247084929 heartbeat IPC: 0.4093 cumulative IPC: 0.5919 (Simulation time: 00 hr 30 min 58 sec)
Heartbeat CPU 0 instructions: 188500930 cycles: 247907471 heartbeat IPC: 0.6079 cumulative IPC: 0.592 (Simulation time: 00 hr 31 min 03 sec)
Heartbeat CPU 0 instructions: 189000930 cycles: 248894864 heartbeat IPC: 0.5064 cumulative IPC: 0.5916 (Simulation time: 00 hr 31 min 09 sec)
Heartbeat CPU 0 instructions: 189500930 cycles: 250026941 heartbeat IPC: 0.4417 cumulative IPC: 0.5909 (Simulation time: 00 hr 31 min 16 sec)
Heartbeat CPU 0 instructions: 190000930 cycles: 250930857 heartbeat IPC: 0.5531 cumulative IPC: 0.5908 (Simulation time: 00 hr 31 min 22 sec)
Heartbeat CPU 0 instructions: 190500934 cycles: 252584771 heartbeat IPC: 0.3023 cumulative IPC: 0.5888 (Simulation time: 00 hr 31 min 31 sec)
Heartbeat CPU 0 instructions: 191000935 cycles: 253677732 heartbeat IPC: 0.4575 cumulative IPC: 0.5882 (Simulation time: 00 hr 31 min 38 sec)
Heartbeat CPU 0 instructions: 191500937 cycles: 255168011 heartbeat IPC: 0.3355 cumulative IPC: 0.5866 (Simulation time: 00 hr 31 min 46 sec)
Heartbeat CPU 0 instructions: 192000939 cycles: 255999331 heartbeat IPC: 0.6015 cumulative IPC: 0.5867 (Simulation time: 00 hr 31 min 52 sec)
Heartbeat CPU 0 instructions: 192500939 cycles: 256908101 heartbeat IPC: 0.5502 cumulative IPC: 0.5865 (Simulation time: 00 hr 31 min 58 sec)
Heartbeat CPU 0 instructions: 193000946 cycles: 258022563 heartbeat IPC: 0.4487 cumulative IPC: 0.5859 (Simulation time: 00 hr 32 min 05 sec)
Heartbeat CPU 0 instructions: 193500946 cycles: 258991269 heartbeat IPC: 0.5162 cumulative IPC: 0.5856 (Simulation time: 00 hr 32 min 11 sec)
Heartbeat CPU 0 instructions: 194000946 cycles: 260220862 heartbeat IPC: 0.4066 cumulative IPC: 0.5847 (Simulation time: 00 hr 32 min 18 sec)
Heartbeat CPU 0 instructions: 194500952 cycles: 261361059 heartbeat IPC: 0.4385 cumulative IPC: 0.584 (Simulation time: 00 hr 32 min 25 sec)
Heartbeat CPU 0 instructions: 195000957 cycles: 262234710 heartbeat IPC: 0.5723 cumulative IPC: 0.584 (Simulation time: 00 hr 32 min 31 sec)
Heartbeat CPU 0 instructions: 195500960 cycles: 262871128 heartbeat IPC: 0.7857 cumulative IPC: 0.5845 (Simulation time: 00 hr 32 min 35 sec)
Heartbeat CPU 0 instructions: 196000961 cycles: 263912388 heartbeat IPC: 0.4802 cumulative IPC: 0.5841 (Simulation time: 00 hr 32 min 42 sec)
Heartbeat CPU 0 instructions: 196500963 cycles: 265364264 heartbeat IPC: 0.3444 cumulative IPC: 0.5827 (Simulation time: 00 hr 32 min 51 sec)
Heartbeat CPU 0 instructions: 197000968 cycles: 266097453 heartbeat IPC: 0.682 cumulative IPC: 0.583 (Simulation time: 00 hr 32 min 57 sec)
Heartbeat CPU 0 instructions: 197500970 cycles: 266449215 heartbeat IPC: 1.421 cumulative IPC: 0.5842 (Simulation time: 00 hr 33 min 00 sec)
Heartbeat CPU 0 instructions: 198000972 cycles: 266670350 heartbeat IPC: 2.261 cumulative IPC: 0.5856 (Simulation time: 00 hr 33 min 02 sec)
Heartbeat CPU 0 instructions: 198500973 cycles: 268157232 heartbeat IPC: 0.3363 cumulative IPC: 0.5842 (Simulation time: 00 hr 33 min 11 sec)
Heartbeat CPU 0 instructions: 199000975 cycles: 268900870 heartbeat IPC: 0.6724 cumulative IPC: 0.5844 (Simulation time: 00 hr 33 min 16 sec)
Heartbeat CPU 0 instructions: 199500975 cycles: 269495641 heartbeat IPC: 0.8407 cumulative IPC: 0.585 (Simulation time: 00 hr 33 min 20 sec)
Heartbeat CPU 0 instructions: 200000975 cycles: 270574358 heartbeat IPC: 0.4635 cumulative IPC: 0.5845 (Simulation time: 00 hr 33 min 27 sec)
Heartbeat CPU 0 instructions: 200500976 cycles: 272235539 heartbeat IPC: 0.301 cumulative IPC: 0.5827 (Simulation time: 00 hr 33 min 36 sec)
Heartbeat CPU 0 instructions: 201000983 cycles: 273077223 heartbeat IPC: 0.5941 cumulative IPC: 0.5827 (Simulation time: 00 hr 33 min 42 sec)
Heartbeat CPU 0 instructions: 201500987 cycles: 273304754 heartbeat IPC: 2.198 cumulative IPC: 0.5841 (Simulation time: 00 hr 33 min 44 sec)
Heartbeat CPU 0 instructions: 202000993 cycles: 273712698 heartbeat IPC: 1.226 cumulative IPC: 0.5852 (Simulation time: 00 hr 33 min 47 sec)
Heartbeat CPU 0 instructions: 202500993 cycles: 274534394 heartbeat IPC: 0.6085 cumulative IPC: 0.5852 (Simulation time: 00 hr 33 min 52 sec)
Heartbeat CPU 0 instructions: 203000995 cycles: 275612287 heartbeat IPC: 0.4639 cumulative IPC: 0.5847 (Simulation time: 00 hr 33 min 59 sec)
Heartbeat CPU 0 instructions: 203500998 cycles: 276467336 heartbeat IPC: 0.5848 cumulative IPC: 0.5847 (Simulation time: 00 hr 34 min 04 sec)
Heartbeat CPU 0 instructions: 204000999 cycles: 277399920 heartbeat IPC: 0.5361 cumulative IPC: 0.5846 (Simulation time: 00 hr 34 min 11 sec)
Heartbeat CPU 0 instructions: 204501000 cycles: 278425499 heartbeat IPC: 0.4875 cumulative IPC: 0.5842 (Simulation time: 00 hr 34 min 17 sec)
Heartbeat CPU 0 instructions: 205001000 cycles: 279463331 heartbeat IPC: 0.4818 cumulative IPC: 0.5838 (Simulation time: 00 hr 34 min 23 sec)
Heartbeat CPU 0 instructions: 205501001 cycles: 280318505 heartbeat IPC: 0.5847 cumulative IPC: 0.5838 (Simulation time: 00 hr 34 min 29 sec)
Heartbeat CPU 0 instructions: 206001001 cycles: 281209545 heartbeat IPC: 0.5611 cumulative IPC: 0.5837 (Simulation time: 00 hr 34 min 34 sec)
Heartbeat CPU 0 instructions: 206501006 cycles: 282073545 heartbeat IPC: 0.5787 cumulative IPC: 0.5837 (Simulation time: 00 hr 34 min 39 sec)
Heartbeat CPU 0 instructions: 207001008 cycles: 283008668 heartbeat IPC: 0.5347 cumulative IPC: 0.5835 (Simulation time: 00 hr 34 min 45 sec)
Heartbeat CPU 0 instructions: 207501011 cycles: 283868633 heartbeat IPC: 0.5814 cumulative IPC: 0.5835 (Simulation time: 00 hr 34 min 51 sec)
Heartbeat CPU 0 instructions: 208001012 cycles: 284722977 heartbeat IPC: 0.5852 cumulative IPC: 0.5835 (Simulation time: 00 hr 34 min 56 sec)
Heartbeat CPU 0 instructions: 208501012 cycles: 285718820 heartbeat IPC: 0.5021 cumulative IPC: 0.5832 (Simulation time: 00 hr 35 min 02 sec)
Heartbeat CPU 0 instructions: 209001015 cycles: 286648206 heartbeat IPC: 0.538 cumulative IPC: 0.5831 (Simulation time: 00 hr 35 min 08 sec)
Heartbeat CPU 0 instructions: 209501016 cycles: 287501404 heartbeat IPC: 0.586 cumulative IPC: 0.5831 (Simulation time: 00 hr 35 min 14 sec)
Heartbeat CPU 0 instructions: 210001018 cycles: 289194331 heartbeat IPC: 0.2953 cumulative IPC: 0.5813 (Simulation time: 00 hr 35 min 23 sec)
Heartbeat CPU 0 instructions: 210501019 cycles: 290374604 heartbeat IPC: 0.4236 cumulative IPC: 0.5806 (Simulation time: 00 hr 35 min 30 sec)
Heartbeat CPU 0 instructions: 211001025 cycles: 291113217 heartbeat IPC: 0.677 cumulative IPC: 0.5809 (Simulation time: 00 hr 35 min 35 sec)
Heartbeat CPU 0 instructions: 211501025 cycles: 291971990 heartbeat IPC: 0.5822 cumulative IPC: 0.5809 (Simulation time: 00 hr 35 min 41 sec)
Heartbeat CPU 0 instructions: 212001025 cycles: 293048471 heartbeat IPC: 0.4645 cumulative IPC: 0.5804 (Simulation time: 00 hr 35 min 47 sec)
Heartbeat CPU 0 instructions: 212501027 cycles: 293495866 heartbeat IPC: 1.118 cumulative IPC: 0.5813 (Simulation time: 00 hr 35 min 52 sec)
Heartbeat CPU 0 instructions: 213001027 cycles: 293945723 heartbeat IPC: 1.111 cumulative IPC: 0.5822 (Simulation time: 00 hr 35 min 57 sec)
Heartbeat CPU 0 instructions: 213501031 cycles: 294485839 heartbeat IPC: 0.9257 cumulative IPC: 0.5828 (Simulation time: 00 hr 36 min 02 sec)
Heartbeat CPU 0 instructions: 214001033 cycles: 294873656 heartbeat IPC: 1.289 cumulative IPC: 0.5838 (Simulation time: 00 hr 36 min 07 sec)
Heartbeat CPU 0 instructions: 214501036 cycles: 295269697 heartbeat IPC: 1.263 cumulative IPC: 0.5847 (Simulation time: 00 hr 36 min 11 sec)
Heartbeat CPU 0 instructions: 215001036 cycles: 295645561 heartbeat IPC: 1.33 cumulative IPC: 0.5857 (Simulation time: 00 hr 36 min 16 sec)
Heartbeat CPU 0 instructions: 215501038 cycles: 295995385 heartbeat IPC: 1.429 cumulative IPC: 0.5868 (Simulation time: 00 hr 36 min 20 sec)
Heartbeat CPU 0 instructions: 216001039 cycles: 296375262 heartbeat IPC: 1.316 cumulative IPC: 0.5878 (Simulation time: 00 hr 36 min 24 sec)
Heartbeat CPU 0 instructions: 216501039 cycles: 296762323 heartbeat IPC: 1.292 cumulative IPC: 0.5887 (Simulation time: 00 hr 36 min 29 sec)
Heartbeat CPU 0 instructions: 217001042 cycles: 297156236 heartbeat IPC: 1.269 cumulative IPC: 0.5897 (Simulation time: 00 hr 36 min 33 sec)
Heartbeat CPU 0 instructions: 217501043 cycles: 297546372 heartbeat IPC: 1.282 cumulative IPC: 0.5906 (Simulation time: 00 hr 36 min 38 sec)
Heartbeat CPU 0 instructions: 218001043 cycles: 297927386 heartbeat IPC: 1.312 cumulative IPC: 0.5916 (Simulation time: 00 hr 36 min 42 sec)
Heartbeat CPU 0 instructions: 218501043 cycles: 298296223 heartbeat IPC: 1.356 cumulative IPC: 0.5926 (Simulation time: 00 hr 36 min 47 sec)
Heartbeat CPU 0 instructions: 219001043 cycles: 298701448 heartbeat IPC: 1.234 cumulative IPC: 0.5935 (Simulation time: 00 hr 36 min 51 sec)
Heartbeat CPU 0 instructions: 219501047 cycles: 299102505 heartbeat IPC: 1.247 cumulative IPC: 0.5944 (Simulation time: 00 hr 36 min 56 sec)
Heartbeat CPU 0 instructions: 220001047 cycles: 300633743 heartbeat IPC: 0.3265 cumulative IPC: 0.593 (Simulation time: 00 hr 37 min 07 sec)
Heartbeat CPU 0 instructions: 220501052 cycles: 301729645 heartbeat IPC: 0.4562 cumulative IPC: 0.5925 (Simulation time: 00 hr 37 min 13 sec)
Heartbeat CPU 0 instructions: 221001057 cycles: 302731230 heartbeat IPC: 0.4992 cumulative IPC: 0.5921 (Simulation time: 00 hr 37 min 20 sec)
Heartbeat CPU 0 instructions: 221501057 cycles: 303748316 heartbeat IPC: 0.4916 cumulative IPC: 0.5918 (Simulation time: 00 hr 37 min 26 sec)
Heartbeat CPU 0 instructions: 222001059 cycles: 304832792 heartbeat IPC: 0.4611 cumulative IPC: 0.5913 (Simulation time: 00 hr 37 min 33 sec)
Heartbeat CPU 0 instructions: 222501061 cycles: 305815214 heartbeat IPC: 0.5089 cumulative IPC: 0.591 (Simulation time: 00 hr 37 min 39 sec)
Heartbeat CPU 0 instructions: 223001061 cycles: 306811253 heartbeat IPC: 0.502 cumulative IPC: 0.5907 (Simulation time: 00 hr 37 min 45 sec)
Heartbeat CPU 0 instructions: 223501068 cycles: 307674695 heartbeat IPC: 0.5791 cumulative IPC: 0.5907 (Simulation time: 00 hr 37 min 50 sec)
Heartbeat CPU 0 instructions: 224001072 cycles: 309356083 heartbeat IPC: 0.2974 cumulative IPC: 0.589 (Simulation time: 00 hr 38 min 01 sec)
Heartbeat CPU 0 instructions: 224501072 cycles: 311008388 heartbeat IPC: 0.3026 cumulative IPC: 0.5874 (Simulation time: 00 hr 38 min 10 sec)
Heartbeat CPU 0 instructions: 225001072 cycles: 311910128 heartbeat IPC: 0.5545 cumulative IPC: 0.5873 (Simulation time: 00 hr 38 min 16 sec)
Heartbeat CPU 0 instructions: 225501077 cycles: 312897706 heartbeat IPC: 0.5063 cumulative IPC: 0.5871 (Simulation time: 00 hr 38 min 22 sec)
Heartbeat CPU 0 instructions: 226001077 cycles: 313714814 heartbeat IPC: 0.6119 cumulative IPC: 0.5871 (Simulation time: 00 hr 38 min 27 sec)
Heartbeat CPU 0 instructions: 226501077 cycles: 314856021 heartbeat IPC: 0.4381 cumulative IPC: 0.5866 (Simulation time: 00 hr 38 min 34 sec)
Heartbeat CPU 0 instructions: 227001078 cycles: 316010032 heartbeat IPC: 0.4333 cumulative IPC: 0.586 (Simulation time: 00 hr 38 min 41 sec)
Heartbeat CPU 0 instructions: 227501078 cycles: 316768130 heartbeat IPC: 0.6595 cumulative IPC: 0.5862 (Simulation time: 00 hr 38 min 45 sec)
Heartbeat CPU 0 instructions: 228001078 cycles: 317525553 heartbeat IPC: 0.6601 cumulative IPC: 0.5863 (Simulation time: 00 hr 38 min 50 sec)
Heartbeat CPU 0 instructions: 228501079 cycles: 318475529 heartbeat IPC: 0.5263 cumulative IPC: 0.5862 (Simulation time: 00 hr 38 min 56 sec)
Heartbeat CPU 0 instructions: 229001080 cycles: 319570066 heartbeat IPC: 0.4568 cumulative IPC: 0.5857 (Simulation time: 00 hr 39 min 03 sec)
Heartbeat CPU 0 instructions: 229501080 cycles: 320139354 heartbeat IPC: 0.8783 cumulative IPC: 0.5862 (Simulation time: 00 hr 39 min 07 sec)
Heartbeat CPU 0 instructions: 230001082 cycles: 320510239 heartbeat IPC: 1.348 cumulative IPC: 0.5872 (Simulation time: 00 hr 39 min 10 sec)
Heartbeat CPU 0 instructions: 230501084 cycles: 320891075 heartbeat IPC: 1.313 cumulative IPC: 0.5881 (Simulation time: 00 hr 39 min 14 sec)
Heartbeat CPU 0 instructions: 231001088 cycles: 321304552 heartbeat IPC: 1.209 cumulative IPC: 0.5889 (Simulation time: 00 hr 39 min 17 sec)
Heartbeat CPU 0 instructions: 231501089 cycles: 321983512 heartbeat IPC: 0.7364 cumulative IPC: 0.5892 (Simulation time: 00 hr 39 min 22 sec)
Heartbeat CPU 0 instructions: 232001092 cycles: 322362918 heartbeat IPC: 1.318 cumulative IPC: 0.5901 (Simulation time: 00 hr 39 min 25 sec)
Heartbeat CPU 0 instructions: 232501094 cycles: 322654210 heartbeat IPC: 1.716 cumulative IPC: 0.5912 (Simulation time: 00 hr 39 min 28 sec)
Heartbeat CPU 0 instructions: 233001101 cycles: 323645329 heartbeat IPC: 0.5045 cumulative IPC: 0.5909 (Simulation time: 00 hr 39 min 34 sec)
Heartbeat CPU 0 instructions: 233501108 cycles: 324647995 heartbeat IPC: 0.4987 cumulative IPC: 0.5906 (Simulation time: 00 hr 39 min 41 sec)
Heartbeat CPU 0 instructions: 234001110 cycles: 325293264 heartbeat IPC: 0.7749 cumulative IPC: 0.591 (Simulation time: 00 hr 39 min 46 sec)
Heartbeat CPU 0 instructions: 234501113 cycles: 326184448 heartbeat IPC: 0.5611 cumulative IPC: 0.5909 (Simulation time: 00 hr 39 min 52 sec)
Heartbeat CPU 0 instructions: 235001114 cycles: 328096809 heartbeat IPC: 0.2615 cumulative IPC: 0.5889 (Simulation time: 00 hr 40 min 03 sec)
Heartbeat CPU 0 instructions: 235501117 cycles: 329561513 heartbeat IPC: 0.3414 cumulative IPC: 0.5877 (Simulation time: 00 hr 40 min 11 sec)
Heartbeat CPU 0 instructions: 236001117 cycles: 330380495 heartbeat IPC: 0.6105 cumulative IPC: 0.5878 (Simulation time: 00 hr 40 min 16 sec)
Heartbeat CPU 0 instructions: 236501117 cycles: 331333293 heartbeat IPC: 0.5248 cumulative IPC: 0.5876 (Simulation time: 00 hr 40 min 22 sec)
Heartbeat CPU 0 instructions: 237001120 cycles: 332512466 heartbeat IPC: 0.424 cumulative IPC: 0.587 (Simulation time: 00 hr 40 min 29 sec)
Heartbeat CPU 0 instructions: 237501120 cycles: 333170086 heartbeat IPC: 0.7603 cumulative IPC: 0.5874 (Simulation time: 00 hr 40 min 33 sec)
Heartbeat CPU 0 instructions: 238001122 cycles: 334274442 heartbeat IPC: 0.4528 cumulative IPC: 0.5869 (Simulation time: 00 hr 40 min 40 sec)
Heartbeat CPU 0 instructions: 238501124 cycles: 335449075 heartbeat IPC: 0.4257 cumulative IPC: 0.5863 (Simulation time: 00 hr 40 min 47 sec)
Heartbeat CPU 0 instructions: 239001127 cycles: 335992443 heartbeat IPC: 0.9202 cumulative IPC: 0.5869 (Simulation time: 00 hr 40 min 51 sec)
Heartbeat CPU 0 instructions: 239501127 cycles: 336851978 heartbeat IPC: 0.5817 cumulative IPC: 0.5869 (Simulation time: 00 hr 40 min 57 sec)
Heartbeat CPU 0 instructions: 240001133 cycles: 337749069 heartbeat IPC: 0.5574 cumulative IPC: 0.5868 (Simulation time: 00 hr 41 min 02 sec)
Heartbeat CPU 0 instructions: 240501135 cycles: 338285745 heartbeat IPC: 0.9317 cumulative IPC: 0.5874 (Simulation time: 00 hr 41 min 05 sec)
Heartbeat CPU 0 instructions: 241001141 cycles: 339717828 heartbeat IPC: 0.3491 cumulative IPC: 0.5863 (Simulation time: 00 hr 41 min 14 sec)
Heartbeat CPU 0 instructions: 241501142 cycles: 340560011 heartbeat IPC: 0.5937 cumulative IPC: 0.5863 (Simulation time: 00 hr 41 min 19 sec)
Heartbeat CPU 0 instructions: 242001142 cycles: 341834102 heartbeat IPC: 0.3924 cumulative IPC: 0.5856 (Simulation time: 00 hr 41 min 27 sec)
Heartbeat CPU 0 instructions: 242501142 cycles: 342726219 heartbeat IPC: 0.5605 cumulative IPC: 0.5855 (Simulation time: 00 hr 41 min 32 sec)
Heartbeat CPU 0 instructions: 243001142 cycles: 344038307 heartbeat IPC: 0.3811 cumulative IPC: 0.5847 (Simulation time: 00 hr 41 min 40 sec)
Heartbeat CPU 0 instructions: 243501144 cycles: 345172100 heartbeat IPC: 0.441 cumulative IPC: 0.5842 (Simulation time: 00 hr 41 min 47 sec)
Heartbeat CPU 0 instructions: 244001149 cycles: 345818137 heartbeat IPC: 0.774 cumulative IPC: 0.5846 (Simulation time: 00 hr 41 min 51 sec)
Heartbeat CPU 0 instructions: 244501156 cycles: 346652941 heartbeat IPC: 0.599 cumulative IPC: 0.5846 (Simulation time: 00 hr 41 min 56 sec)
Heartbeat CPU 0 instructions: 245001156 cycles: 347790099 heartbeat IPC: 0.4397 cumulative IPC: 0.5841 (Simulation time: 00 hr 42 min 03 sec)
Heartbeat CPU 0 instructions: 245501156 cycles: 348911890 heartbeat IPC: 0.4457 cumulative IPC: 0.5836 (Simulation time: 00 hr 42 min 10 sec)
Heartbeat CPU 0 instructions: 246001156 cycles: 349886208 heartbeat IPC: 0.5132 cumulative IPC: 0.5834 (Simulation time: 00 hr 42 min 16 sec)
Heartbeat CPU 0 instructions: 246501156 cycles: 351255805 heartbeat IPC: 0.3651 cumulative IPC: 0.5826 (Simulation time: 00 hr 42 min 24 sec)
Heartbeat CPU 0 instructions: 247001158 cycles: 352170668 heartbeat IPC: 0.5465 cumulative IPC: 0.5825 (Simulation time: 00 hr 42 min 29 sec)
Heartbeat CPU 0 instructions: 247501158 cycles: 352823219 heartbeat IPC: 0.7662 cumulative IPC: 0.5828 (Simulation time: 00 hr 42 min 34 sec)
Heartbeat CPU 0 instructions: 248001158 cycles: 353830591 heartbeat IPC: 0.4963 cumulative IPC: 0.5826 (Simulation time: 00 hr 42 min 40 sec)
Heartbeat CPU 0 instructions: 248501158 cycles: 355681680 heartbeat IPC: 0.2701 cumulative IPC: 0.5809 (Simulation time: 00 hr 42 min 50 sec)
Heartbeat CPU 0 instructions: 249001159 cycles: 356879048 heartbeat IPC: 0.4176 cumulative IPC: 0.5803 (Simulation time: 00 hr 42 min 57 sec)
Heartbeat CPU 0 instructions: 249501160 cycles: 358303789 heartbeat IPC: 0.3509 cumulative IPC: 0.5793 (Simulation time: 00 hr 43 min 06 sec)
Simulation finished CPU 0 instructions: 200000001 cycles: 345549876 cumulative IPC: 0.5788 (Simulation time: 00 hr 43 min 13 sec)
Simulation complete CPU 0 instructions: 200000001 cycles: 345549876 cumulative IPC: 0.5788 (Simulation time: 00 hr 43 min 13 sec)

ChampSim completed all CPUs

=== Simulation ===
CPU 0 runs /local-ssd/ben/dpc4-traces/gtraces_v2/tango_0000.champsim.gz

Region of Interest Statistics

CPU 0 cumulative IPC: 0.5788 instructions: 200000001 cycles: 345549876
CPU 0 Branch Prediction Accuracy: 89.45% MPKI: 19.5 Average ROB Occupancy at Mispredict: 22.94
Branch type MPKI
BRANCH_DIRECT_JUMP: 0.5813
BRANCH_INDIRECT: 0.3396
BRANCH_CONDITIONAL: 16.6
BRANCH_DIRECT_CALL: 0.8659
BRANCH_INDIRECT_CALL: 0.3326
BRANCH_RETURN: 0.7816

cpu0->cpu0_STLB TOTAL        ACCESS:    2393992 HIT:    1766053 MISS:     627939 MSHR_MERGE:          0
cpu0->cpu0_STLB LOAD         ACCESS:    2393992 HIT:    1766053 MISS:     627939 MSHR_MERGE:          0
cpu0->cpu0_STLB RFO          ACCESS:          0 HIT:          0 MISS:          0 MSHR_MERGE:          0
cpu0->cpu0_STLB PREFETCH     ACCESS:          0 HIT:          0 MISS:          0 MSHR_MERGE:          0
cpu0->cpu0_STLB WRITE        ACCESS:          0 HIT:          0 MISS:          0 MSHR_MERGE:          0
cpu0->cpu0_STLB TRANSLATION  ACCESS:          0 HIT:          0 MISS:          0 MSHR_MERGE:          0
cpu0->cpu0_STLB PREFETCH REQUESTED:          0 ISSUED:          0 USEFUL:          0 USELESS:          0
cpu0->cpu0_STLB AVERAGE MISS LATENCY: 106.6 cycles
cpu0->cpu0_L2C TOTAL        ACCESS:    7411931 HIT:    5575915 MISS:    1836016 MSHR_MERGE:          0
cpu0->cpu0_L2C LOAD         ACCESS:    4762690 HIT:    3706238 MISS:    1056452 MSHR_MERGE:          0
cpu0->cpu0_L2C RFO          ACCESS:     772797 HIT:     200927 MISS:     571870 MSHR_MERGE:          0
cpu0->cpu0_L2C PREFETCH     ACCESS:          0 HIT:          0 MISS:          0 MSHR_MERGE:          0
cpu0->cpu0_L2C WRITE        ACCESS:    1188777 HIT:    1188760 MISS:         17 MSHR_MERGE:          0
cpu0->cpu0_L2C TRANSLATION  ACCESS:     687667 HIT:     479990 MISS:     207677 MSHR_MERGE:          0
cpu0->cpu0_L2C PREFETCH REQUESTED:          0 ISSUED:          0 USEFUL:          0 USELESS:          0
cpu0->cpu0_L2C AVERAGE MISS LATENCY: 201.4 cycles
cpu0->cpu0_L1I TOTAL        ACCESS:   17271522 HIT:   13523493 MISS:    3748029 MSHR_MERGE:     827167
cpu0->cpu0_L1I LOAD         ACCESS:   17271522 HIT:   13523493 MISS:    3748029 MSHR_MERGE:     827167
cpu0->cpu0_L1I RFO          ACCESS:          0 HIT:          0 MISS:          0 MSHR_MERGE:          0
cpu0->cpu0_L1I PREFETCH     ACCESS:          0 HIT:          0 MISS:          0 MSHR_MERGE:          0
cpu0->cpu0_L1I WRITE        ACCESS:          0 HIT:          0 MISS:          0 MSHR_MERGE:          0
cpu0->cpu0_L1I TRANSLATION  ACCESS:          0 HIT:          0 MISS:          0 MSHR_MERGE:          0
cpu0->cpu0_L1I PREFETCH REQUESTED:          0 ISSUED:          0 USEFUL:          0 USELESS:          0
cpu0->cpu0_L1I AVERAGE MISS LATENCY: 26.92 cycles
cpu0->cpu0_L1D TOTAL        ACCESS:   60119323 HIT:   53633751 MISS:    6485572 MSHR_MERGE:    3183249
cpu0->cpu0_L1D LOAD         ACCESS:   32273854 HIT:   29680539 MISS:    2593315 MSHR_MERGE:     751478
cpu0->cpu0_L1D RFO          ACCESS:          0 HIT:          0 MISS:          0 MSHR_MERGE:          0
cpu0->cpu0_L1D PREFETCH     ACCESS:          0 HIT:          0 MISS:          0 MSHR_MERGE:          0
cpu0->cpu0_L1D WRITE        ACCESS:   26219735 HIT:   23020056 MISS:    3199679 MSHR_MERGE:    2426860
cpu0->cpu0_L1D TRANSLATION  ACCESS:    1625734 HIT:     933156 MISS:     692578 MSHR_MERGE:       4911
cpu0->cpu0_L1D PREFETCH REQUESTED:          0 ISSUED:          0 USEFUL:          0 USELESS:          0
cpu0->cpu0_L1D AVERAGE MISS LATENCY: 103.1 cycles
cpu0->cpu0_ITLB TOTAL        ACCESS:   14588762 HIT:   14105053 MISS:     483709 MSHR_MERGE:     227923
cpu0->cpu0_ITLB LOAD         ACCESS:   14588762 HIT:   14105053 MISS:     483709 MSHR_MERGE:     227923
cpu0->cpu0_ITLB RFO          ACCESS:          0 HIT:          0 MISS:          0 MSHR_MERGE:          0
cpu0->cpu0_ITLB PREFETCH     ACCESS:          0 HIT:          0 MISS:          0 MSHR_MERGE:          0
cpu0->cpu0_ITLB WRITE        ACCESS:          0 HIT:          0 MISS:          0 MSHR_MERGE:          0
cpu0->cpu0_ITLB TRANSLATION  ACCESS:          0 HIT:          0 MISS:          0 MSHR_MERGE:          0
cpu0->cpu0_ITLB PREFETCH REQUESTED:          0 ISSUED:          0 USEFUL:          0 USELESS:          0
cpu0->cpu0_ITLB AVERAGE MISS LATENCY: 17.41 cycles
cpu0->cpu0_DTLB TOTAL        ACCESS:   55926471 HIT:   51971317 MISS:    3955154 MSHR_MERGE:    1816947
cpu0->cpu0_DTLB LOAD         ACCESS:   55926471 HIT:   51971317 MISS:    3955154 MSHR_MERGE:    1816947
cpu0->cpu0_DTLB RFO          ACCESS:          0 HIT:          0 MISS:          0 MSHR_MERGE:          0
cpu0->cpu0_DTLB PREFETCH     ACCESS:          0 HIT:          0 MISS:          0 MSHR_MERGE:          0
cpu0->cpu0_DTLB WRITE        ACCESS:          0 HIT:          0 MISS:          0 MSHR_MERGE:          0
cpu0->cpu0_DTLB TRANSLATION  ACCESS:          0 HIT:          0 MISS:          0 MSHR_MERGE:          0
cpu0->cpu0_DTLB PREFETCH REQUESTED:          0 ISSUED:          0 USEFUL:          0 USELESS:          0
cpu0->cpu0_DTLB AVERAGE MISS LATENCY: 35.11 cycles
cpu0->LLC TOTAL        ACCESS:    2641904 HIT:     604521 MISS:    2037383 MSHR_MERGE:          0
cpu0->LLC LOAD         ACCESS:    1056452 HIT:     246887 MISS:     809565 MSHR_MERGE:          0
cpu0->LLC RFO          ACCESS:     571869 HIT:      20554 MISS:     551315 MSHR_MERGE:          0
cpu0->LLC PREFETCH     ACCESS:          0 HIT:          0 MISS:          0 MSHR_MERGE:          0
cpu0->LLC WRITE        ACCESS:     805906 HIT:     284162 MISS:     521744 MSHR_MERGE:          0
cpu0->LLC TRANSLATION  ACCESS:     207677 HIT:      52918 MISS:     154759 MSHR_MERGE:          0
cpu0->LLC PREFETCH REQUESTED:          0 ISSUED:          0 USEFUL:          0 USELESS:          0
cpu0->LLC AVERAGE MISS LATENCY: 165.3 cycles

DRAM Statistics

Channel 0 RQ ROW_BUFFER_HIT:      11885
  ROW_BUFFER_MISS:    1503741
  AVG DBUS CONGESTED CYCLE: 29.85
Channel 0 WQ ROW_BUFFER_HIT:     184390
  ROW_BUFFER_MISS:     575556
  FULL:        586
Channel 0 REFRESHES ISSUED:      28794
