[VMEM] WARNING: physical memory size is smaller than virtual memory size.

*** ChampSim Multicore Out-of-Order Simulator ***
Warmup Instructions: 50000000
Simulation Instructions: 200000000
Number of CPUs: 1
Page size: 4096
Core 0: /local-ssd/ben/dpc4-traces/gtraces_v2/charlie_0003.champsim.gz
Off-chip DRAM Size: 64 GiB Channels: 1 Width: 64-bit Data Rate: 4807 MT/s
[BTB] WARNING: target of return is a lower address than the corresponding call. This is usually a problem with your trace.
Heartbeat CPU 0 instructions: 500002 cycles: 250173 heartbeat IPC: 1.999 cumulative IPC: 1.999 (Simulation time: 00 hr 00 min 05 sec)
Heartbeat CPU 0 instructions: 1000006 cycles: 506920 heartbeat IPC: 1.947 cumulative IPC: 1.973 (Simulation time: 00 hr 00 min 08 sec)
[BTB] WARNING: target of return is a lower address than the corresponding call. This is usually a problem with your trace.
Heartbeat CPU 0 instructions: 1500013 cycles: 686363 heartbeat IPC: 2.786 cumulative IPC: 2.185 (Simulation time: 00 hr 00 min 11 sec)
[BTB] WARNING: target of return is a lower address than the corresponding call. This is usually a problem with your trace.
Heartbeat CPU 0 instructions: 2000018 cycles: 831370 heartbeat IPC: 3.448 cumulative IPC: 2.406 (Simulation time: 00 hr 00 min 13 sec)
[BTB] WARNING: target of return is a lower address than the corresponding call. This is usually a problem with your trace.
Heartbeat CPU 0 instructions: 2500018 cycles: 978640 heartbeat IPC: 3.395 cumulative IPC: 2.555 (Simulation time: 00 hr 00 min 15 sec)
[BTB] WARNING: target of return is a lower address than the corresponding call. This is usually a problem with your trace.
Heartbeat CPU 0 instructions: 3000024 cycles: 1091622 heartbeat IPC: 4.426 cumulative IPC: 2.748 (Simulation time: 00 hr 00 min 17 sec)
[BTB] WARNING: target of return is a lower address than the corresponding call. This is usually a problem with your trace.
[BTB] WARNING: target of return is a lower address than the corresponding call. This is usually a problem with your trace.
[BTB] WARNING: target of return is a lower address than the corresponding call. This is usually a problem with your trace.
[BTB] WARNING: target of return is a lower address than the corresponding call. This is usually a problem with your trace.
[BTB] WARNING: target of return is a lower address than the corresponding call. This is usually a problem with your trace.
Heartbeat CPU 0 instructions: 3500030 cycles: 1209885 heartbeat IPC: 4.228 cumulative IPC: 2.893 (Simulation time: 00 hr 00 min 18 sec)
Heartbeat CPU 0 instructions: 4000035 cycles: 1316134 heartbeat IPC: 4.706 cumulative IPC: 3.039 (Simulation time: 00 hr 00 min 20 sec)
Heartbeat CPU 0 instructions: 4500035 cycles: 1451840 heartbeat IPC: 3.684 cumulative IPC: 3.1 (Simulation time: 00 hr 00 min 22 sec)
Heartbeat CPU 0 instructions: 5000040 cycles: 1652848 heartbeat IPC: 2.487 cumulative IPC: 3.025 (Simulation time: 00 hr 00 min 25 sec)
Heartbeat CPU 0 instructions: 5500042 cycles: 1797305 heartbeat IPC: 3.461 cumulative IPC: 3.06 (Simulation time: 00 hr 00 min 27 sec)
Heartbeat CPU 0 instructions: 6000042 cycles: 1903230 heartbeat IPC: 4.72 cumulative IPC: 3.153 (Simulation time: 00 hr 00 min 28 sec)
Heartbeat CPU 0 instructions: 6500046 cycles: 2007344 heartbeat IPC: 4.802 cumulative IPC: 3.238 (Simulation time: 00 hr 00 min 30 sec)
Heartbeat CPU 0 instructions: 7000048 cycles: 2112731 heartbeat IPC: 4.744 cumulative IPC: 3.313 (Simulation time: 00 hr 00 min 31 sec)
Heartbeat CPU 0 instructions: 7500049 cycles: 2217591 heartbeat IPC: 4.768 cumulative IPC: 3.382 (Simulation time: 00 hr 00 min 32 sec)
Heartbeat CPU 0 instructions: 8000052 cycles: 2322419 heartbeat IPC: 4.77 cumulative IPC: 3.445 (Simulation time: 00 hr 00 min 34 sec)
Heartbeat CPU 0 instructions: 8500055 cycles: 2426607 heartbeat IPC: 4.799 cumulative IPC: 3.503 (Simulation time: 00 hr 00 min 35 sec)
Heartbeat CPU 0 instructions: 9000058 cycles: 2530319 heartbeat IPC: 4.821 cumulative IPC: 3.557 (Simulation time: 00 hr 00 min 36 sec)
Heartbeat CPU 0 instructions: 9500060 cycles: 2634685 heartbeat IPC: 4.791 cumulative IPC: 3.606 (Simulation time: 00 hr 00 min 38 sec)
Heartbeat CPU 0 instructions: 10000067 cycles: 2738795 heartbeat IPC: 4.803 cumulative IPC: 3.651 (Simulation time: 00 hr 00 min 39 sec)
Heartbeat CPU 0 instructions: 10500070 cycles: 2843679 heartbeat IPC: 4.767 cumulative IPC: 3.692 (Simulation time: 00 hr 00 min 41 sec)
Heartbeat CPU 0 instructions: 11000075 cycles: 2947299 heartbeat IPC: 4.825 cumulative IPC: 3.732 (Simulation time: 00 hr 00 min 42 sec)
Heartbeat CPU 0 instructions: 11500075 cycles: 3051208 heartbeat IPC: 4.812 cumulative IPC: 3.769 (Simulation time: 00 hr 00 min 43 sec)
Heartbeat CPU 0 instructions: 12000081 cycles: 3154897 heartbeat IPC: 4.822 cumulative IPC: 3.804 (Simulation time: 00 hr 00 min 45 sec)
Heartbeat CPU 0 instructions: 12500083 cycles: 3259511 heartbeat IPC: 4.779 cumulative IPC: 3.835 (Simulation time: 00 hr 00 min 46 sec)
Heartbeat CPU 0 instructions: 13000086 cycles: 3364072 heartbeat IPC: 4.782 cumulative IPC: 3.864 (Simulation time: 00 hr 00 min 47 sec)
Heartbeat CPU 0 instructions: 13500086 cycles: 3467506 heartbeat IPC: 4.834 cumulative IPC: 3.893 (Simulation time: 00 hr 00 min 49 sec)
Heartbeat CPU 0 instructions: 14000087 cycles: 3571162 heartbeat IPC: 4.824 cumulative IPC: 3.92 (Simulation time: 00 hr 00 min 50 sec)
Heartbeat CPU 0 instructions: 14500094 cycles: 3674289 heartbeat IPC: 4.848 cumulative IPC: 3.946 (Simulation time: 00 hr 00 min 51 sec)
Heartbeat CPU 0 instructions: 15000096 cycles: 3821946 heartbeat IPC: 3.386 cumulative IPC: 3.925 (Simulation time: 00 hr 00 min 53 sec)
Heartbeat CPU 0 instructions: 15500103 cycles: 3930096 heartbeat IPC: 4.623 cumulative IPC: 3.944 (Simulation time: 00 hr 00 min 55 sec)
Heartbeat CPU 0 instructions: 16000106 cycles: 4043145 heartbeat IPC: 4.423 cumulative IPC: 3.957 (Simulation time: 00 hr 00 min 57 sec)
Heartbeat CPU 0 instructions: 16500108 cycles: 4148291 heartbeat IPC: 4.755 cumulative IPC: 3.978 (Simulation time: 00 hr 00 min 58 sec)
Heartbeat CPU 0 instructions: 17000112 cycles: 4253424 heartbeat IPC: 4.756 cumulative IPC: 3.997 (Simulation time: 00 hr 01 min 00 sec)
Heartbeat CPU 0 instructions: 17500115 cycles: 4358342 heartbeat IPC: 4.766 cumulative IPC: 4.015 (Simulation time: 00 hr 01 min 01 sec)
Heartbeat CPU 0 instructions: 18000117 cycles: 4465463 heartbeat IPC: 4.668 cumulative IPC: 4.031 (Simulation time: 00 hr 01 min 03 sec)
Heartbeat CPU 0 instructions: 18500123 cycles: 4569983 heartbeat IPC: 4.784 cumulative IPC: 4.048 (Simulation time: 00 hr 01 min 04 sec)
Heartbeat CPU 0 instructions: 19000126 cycles: 4673070 heartbeat IPC: 4.85 cumulative IPC: 4.066 (Simulation time: 00 hr 01 min 06 sec)
Heartbeat CPU 0 instructions: 19500132 cycles: 4778838 heartbeat IPC: 4.727 cumulative IPC: 4.081 (Simulation time: 00 hr 01 min 08 sec)
Heartbeat CPU 0 instructions: 20000132 cycles: 4883151 heartbeat IPC: 4.793 cumulative IPC: 4.096 (Simulation time: 00 hr 01 min 09 sec)
Heartbeat CPU 0 instructions: 20500137 cycles: 4990128 heartbeat IPC: 4.674 cumulative IPC: 4.108 (Simulation time: 00 hr 01 min 11 sec)
Heartbeat CPU 0 instructions: 21000139 cycles: 5095418 heartbeat IPC: 4.749 cumulative IPC: 4.121 (Simulation time: 00 hr 01 min 12 sec)
Heartbeat CPU 0 instructions: 21500145 cycles: 5199974 heartbeat IPC: 4.782 cumulative IPC: 4.135 (Simulation time: 00 hr 01 min 14 sec)
Heartbeat CPU 0 instructions: 22000151 cycles: 5308175 heartbeat IPC: 4.621 cumulative IPC: 4.145 (Simulation time: 00 hr 01 min 15 sec)
Heartbeat CPU 0 instructions: 22500151 cycles: 5411230 heartbeat IPC: 4.852 cumulative IPC: 4.158 (Simulation time: 00 hr 01 min 17 sec)
Heartbeat CPU 0 instructions: 23000154 cycles: 5514038 heartbeat IPC: 4.863 cumulative IPC: 4.171 (Simulation time: 00 hr 01 min 19 sec)
Heartbeat CPU 0 instructions: 23500158 cycles: 5619434 heartbeat IPC: 4.744 cumulative IPC: 4.182 (Simulation time: 00 hr 01 min 20 sec)
Heartbeat CPU 0 instructions: 24000164 cycles: 5723411 heartbeat IPC: 4.809 cumulative IPC: 4.193 (Simulation time: 00 hr 01 min 22 sec)
Heartbeat CPU 0 instructions: 24500164 cycles: 5827764 heartbeat IPC: 4.791 cumulative IPC: 4.204 (Simulation time: 00 hr 01 min 23 sec)
Heartbeat CPU 0 instructions: 25000171 cycles: 5932654 heartbeat IPC: 4.767 cumulative IPC: 4.214 (Simulation time: 00 hr 01 min 25 sec)
Heartbeat CPU 0 instructions: 25500175 cycles: 6035919 heartbeat IPC: 4.842 cumulative IPC: 4.225 (Simulation time: 00 hr 01 min 26 sec)
Heartbeat CPU 0 instructions: 26000181 cycles: 6145491 heartbeat IPC: 4.563 cumulative IPC: 4.231 (Simulation time: 00 hr 01 min 28 sec)
Heartbeat CPU 0 instructions: 26500187 cycles: 6255910 heartbeat IPC: 4.528 cumulative IPC: 4.236 (Simulation time: 00 hr 01 min 30 sec)
Heartbeat CPU 0 instructions: 27000187 cycles: 6364460 heartbeat IPC: 4.606 cumulative IPC: 4.242 (Simulation time: 00 hr 01 min 31 sec)
Heartbeat CPU 0 instructions: 27500189 cycles: 6476653 heartbeat IPC: 4.457 cumulative IPC: 4.246 (Simulation time: 00 hr 01 min 33 sec)
Heartbeat CPU 0 instructions: 28000189 cycles: 6587437 heartbeat IPC: 4.513 cumulative IPC: 4.251 (Simulation time: 00 hr 01 min 34 sec)
Heartbeat CPU 0 instructions: 28500193 cycles: 6696961 heartbeat IPC: 4.565 cumulative IPC: 4.256 (Simulation time: 00 hr 01 min 36 sec)
Heartbeat CPU 0 instructions: 29000200 cycles: 6802997 heartbeat IPC: 4.715 cumulative IPC: 4.263 (Simulation time: 00 hr 01 min 38 sec)
Heartbeat CPU 0 instructions: 29500203 cycles: 7055623 heartbeat IPC: 1.979 cumulative IPC: 4.181 (Simulation time: 00 hr 01 min 41 sec)
Heartbeat CPU 0 instructions: 30000210 cycles: 7162920 heartbeat IPC: 4.66 cumulative IPC: 4.188 (Simulation time: 00 hr 01 min 43 sec)
Heartbeat CPU 0 instructions: 30500216 cycles: 7266562 heartbeat IPC: 4.824 cumulative IPC: 4.197 (Simulation time: 00 hr 01 min 44 sec)
Heartbeat CPU 0 instructions: 31000222 cycles: 7368271 heartbeat IPC: 4.916 cumulative IPC: 4.207 (Simulation time: 00 hr 01 min 45 sec)
Heartbeat CPU 0 instructions: 31500223 cycles: 7469452 heartbeat IPC: 4.942 cumulative IPC: 4.217 (Simulation time: 00 hr 01 min 47 sec)
Heartbeat CPU 0 instructions: 32000224 cycles: 7569550 heartbeat IPC: 4.995 cumulative IPC: 4.227 (Simulation time: 00 hr 01 min 48 sec)
Heartbeat CPU 0 instructions: 32500231 cycles: 7669743 heartbeat IPC: 4.99 cumulative IPC: 4.237 (Simulation time: 00 hr 01 min 49 sec)
Heartbeat CPU 0 instructions: 33000235 cycles: 7769937 heartbeat IPC: 4.99 cumulative IPC: 4.247 (Simulation time: 00 hr 01 min 50 sec)
Heartbeat CPU 0 instructions: 33500241 cycles: 7869938 heartbeat IPC: 5 cumulative IPC: 4.257 (Simulation time: 00 hr 01 min 52 sec)
Heartbeat CPU 0 instructions: 34000241 cycles: 7970037 heartbeat IPC: 4.995 cumulative IPC: 4.266 (Simulation time: 00 hr 01 min 53 sec)
Heartbeat CPU 0 instructions: 34500243 cycles: 8070134 heartbeat IPC: 4.995 cumulative IPC: 4.275 (Simulation time: 00 hr 01 min 54 sec)
Heartbeat CPU 0 instructions: 35000247 cycles: 8170326 heartbeat IPC: 4.99 cumulative IPC: 4.284 (Simulation time: 00 hr 01 min 55 sec)
Heartbeat CPU 0 instructions: 35500248 cycles: 8270519 heartbeat IPC: 4.99 cumulative IPC: 4.292 (Simulation time: 00 hr 01 min 57 sec)
Heartbeat CPU 0 instructions: 36000250 cycles: 8370519 heartbeat IPC: 5 cumulative IPC: 4.301 (Simulation time: 00 hr 01 min 58 sec)
Heartbeat CPU 0 instructions: 36500254 cycles: 8470519 heartbeat IPC: 5 cumulative IPC: 4.309 (Simulation time: 00 hr 01 min 59 sec)
Heartbeat CPU 0 instructions: 37000260 cycles: 8570622 heartbeat IPC: 4.995 cumulative IPC: 4.317 (Simulation time: 00 hr 02 min 01 sec)
Heartbeat CPU 0 instructions: 37500265 cycles: 8670624 heartbeat IPC: 5 cumulative IPC: 4.325 (Simulation time: 00 hr 02 min 02 sec)
Heartbeat CPU 0 instructions: 38000271 cycles: 8770721 heartbeat IPC: 4.995 cumulative IPC: 4.333 (Simulation time: 00 hr 02 min 03 sec)
Heartbeat CPU 0 instructions: 38500275 cycles: 8870819 heartbeat IPC: 4.995 cumulative IPC: 4.34 (Simulation time: 00 hr 02 min 04 sec)
Heartbeat CPU 0 instructions: 39000281 cycles: 8970819 heartbeat IPC: 5 cumulative IPC: 4.347 (Simulation time: 00 hr 02 min 06 sec)
Heartbeat CPU 0 instructions: 39500281 cycles: 9072144 heartbeat IPC: 4.935 cumulative IPC: 4.354 (Simulation time: 00 hr 02 min 07 sec)
Heartbeat CPU 0 instructions: 40000285 cycles: 9185772 heartbeat IPC: 4.4 cumulative IPC: 4.355 (Simulation time: 00 hr 02 min 08 sec)
Heartbeat CPU 0 instructions: 40500288 cycles: 9287645 heartbeat IPC: 4.908 cumulative IPC: 4.361 (Simulation time: 00 hr 02 min 10 sec)
Heartbeat CPU 0 instructions: 41000288 cycles: 9390600 heartbeat IPC: 4.856 cumulative IPC: 4.366 (Simulation time: 00 hr 02 min 11 sec)
Heartbeat CPU 0 instructions: 41500292 cycles: 9491506 heartbeat IPC: 4.955 cumulative IPC: 4.372 (Simulation time: 00 hr 02 min 12 sec)
Heartbeat CPU 0 instructions: 42000295 cycles: 9594732 heartbeat IPC: 4.844 cumulative IPC: 4.377 (Simulation time: 00 hr 02 min 14 sec)
Heartbeat CPU 0 instructions: 42500299 cycles: 9697355 heartbeat IPC: 4.872 cumulative IPC: 4.383 (Simulation time: 00 hr 02 min 15 sec)
Heartbeat CPU 0 instructions: 43000302 cycles: 9800188 heartbeat IPC: 4.862 cumulative IPC: 4.388 (Simulation time: 00 hr 02 min 16 sec)
Heartbeat CPU 0 instructions: 43500305 cycles: 9902094 heartbeat IPC: 4.907 cumulative IPC: 4.393 (Simulation time: 00 hr 02 min 18 sec)
Heartbeat CPU 0 instructions: 44000309 cycles: 10004313 heartbeat IPC: 4.891 cumulative IPC: 4.398 (Simulation time: 00 hr 02 min 19 sec)
Heartbeat CPU 0 instructions: 44500309 cycles: 10106543 heartbeat IPC: 4.891 cumulative IPC: 4.403 (Simulation time: 00 hr 02 min 20 sec)
Heartbeat CPU 0 instructions: 45000313 cycles: 10208300 heartbeat IPC: 4.914 cumulative IPC: 4.408 (Simulation time: 00 hr 02 min 21 sec)
Heartbeat CPU 0 instructions: 45500314 cycles: 10309296 heartbeat IPC: 4.951 cumulative IPC: 4.414 (Simulation time: 00 hr 02 min 23 sec)
Heartbeat CPU 0 instructions: 46000319 cycles: 10410295 heartbeat IPC: 4.951 cumulative IPC: 4.419 (Simulation time: 00 hr 02 min 24 sec)
Heartbeat CPU 0 instructions: 46500319 cycles: 10511269 heartbeat IPC: 4.952 cumulative IPC: 4.424 (Simulation time: 00 hr 02 min 25 sec)
Heartbeat CPU 0 instructions: 47000319 cycles: 10612563 heartbeat IPC: 4.936 cumulative IPC: 4.429 (Simulation time: 00 hr 02 min 27 sec)
Heartbeat CPU 0 instructions: 47500323 cycles: 10714134 heartbeat IPC: 4.923 cumulative IPC: 4.433 (Simulation time: 00 hr 02 min 28 sec)
Heartbeat CPU 0 instructions: 48000323 cycles: 10815651 heartbeat IPC: 4.925 cumulative IPC: 4.438 (Simulation time: 00 hr 02 min 29 sec)
Heartbeat CPU 0 instructions: 48500323 cycles: 10916148 heartbeat IPC: 4.975 cumulative IPC: 4.443 (Simulation time: 00 hr 02 min 31 sec)
Heartbeat CPU 0 instructions: 49000325 cycles: 11017736 heartbeat IPC: 4.922 cumulative IPC: 4.447 (Simulation time: 00 hr 02 min 32 sec)
Heartbeat CPU 0 instructions: 49500326 cycles: 11120195 heartbeat IPC: 4.88 cumulative IPC: 4.451 (Simulation time: 00 hr 02 min 33 sec)
Warmup finished CPU 0 instructions: 50000004 cycles: 11235376 cumulative IPC: 4.45 (Simulation time: 00 hr 02 min 35 sec)
Warmup complete CPU 0 instructions: 50000004 cycles: 11235376 cumulative IPC: 4.45 (Simulation time: 00 hr 02 min 35 sec)
Heartbeat CPU 0 instructions: 50000327 cycles: 11235506 heartbeat IPC: 4.336 cumulative IPC: 2.485 (Simulation time: 00 hr 02 min 35 sec)
Heartbeat CPU 0 instructions: 50500332 cycles: 11858858 heartbeat IPC: 0.8021 cumulative IPC: 0.8025 (Simulation time: 00 hr 02 min 40 sec)
Heartbeat CPU 0 instructions: 51000334 cycles: 12430712 heartbeat IPC: 0.8744 cumulative IPC: 0.8369 (Simulation time: 00 hr 02 min 45 sec)
Heartbeat CPU 0 instructions: 51500335 cycles: 13015637 heartbeat IPC: 0.8548 cumulative IPC: 0.8428 (Simulation time: 00 hr 02 min 49 sec)
Heartbeat CPU 0 instructions: 52000339 cycles: 13566220 heartbeat IPC: 0.9081 cumulative IPC: 0.8582 (Simulation time: 00 hr 02 min 54 sec)
Heartbeat CPU 0 instructions: 52500339 cycles: 14119389 heartbeat IPC: 0.9039 cumulative IPC: 0.867 (Simulation time: 00 hr 02 min 58 sec)
Heartbeat CPU 0 instructions: 53000342 cycles: 14650298 heartbeat IPC: 0.9418 cumulative IPC: 0.8786 (Simulation time: 00 hr 03 min 03 sec)
Heartbeat CPU 0 instructions: 53500342 cycles: 15197806 heartbeat IPC: 0.9132 cumulative IPC: 0.8834 (Simulation time: 00 hr 03 min 07 sec)
Heartbeat CPU 0 instructions: 54000345 cycles: 15815259 heartbeat IPC: 0.8098 cumulative IPC: 0.8735 (Simulation time: 00 hr 03 min 13 sec)
Heartbeat CPU 0 instructions: 54500345 cycles: 16402813 heartbeat IPC: 0.851 cumulative IPC: 0.8709 (Simulation time: 00 hr 03 min 17 sec)
Heartbeat CPU 0 instructions: 55000345 cycles: 16999936 heartbeat IPC: 0.8373 cumulative IPC: 0.8674 (Simulation time: 00 hr 03 min 22 sec)
Heartbeat CPU 0 instructions: 55500350 cycles: 17560138 heartbeat IPC: 0.8925 cumulative IPC: 0.8697 (Simulation time: 00 hr 03 min 27 sec)
Heartbeat CPU 0 instructions: 56000351 cycles: 18916339 heartbeat IPC: 0.3687 cumulative IPC: 0.7812 (Simulation time: 00 hr 03 min 38 sec)
Heartbeat CPU 0 instructions: 56500351 cycles: 22232073 heartbeat IPC: 0.1508 cumulative IPC: 0.5911 (Simulation time: 00 hr 04 min 02 sec)
Heartbeat CPU 0 instructions: 57000353 cycles: 22829699 heartbeat IPC: 0.8366 cumulative IPC: 0.6038 (Simulation time: 00 hr 04 min 07 sec)
Heartbeat CPU 0 instructions: 57500355 cycles: 23431819 heartbeat IPC: 0.8304 cumulative IPC: 0.615 (Simulation time: 00 hr 04 min 12 sec)
Heartbeat CPU 0 instructions: 58000360 cycles: 23980937 heartbeat IPC: 0.9106 cumulative IPC: 0.6277 (Simulation time: 00 hr 04 min 16 sec)
Heartbeat CPU 0 instructions: 58500362 cycles: 24546202 heartbeat IPC: 0.8845 cumulative IPC: 0.6386 (Simulation time: 00 hr 04 min 21 sec)
Heartbeat CPU 0 instructions: 59000364 cycles: 25127231 heartbeat IPC: 0.8605 cumulative IPC: 0.6479 (Simulation time: 00 hr 04 min 26 sec)
Heartbeat CPU 0 instructions: 59500370 cycles: 25690504 heartbeat IPC: 0.8877 cumulative IPC: 0.6572 (Simulation time: 00 hr 04 min 31 sec)
Heartbeat CPU 0 instructions: 60000372 cycles: 26254427 heartbeat IPC: 0.8866 cumulative IPC: 0.6658 (Simulation time: 00 hr 04 min 35 sec)
Heartbeat CPU 0 instructions: 60500372 cycles: 26819992 heartbeat IPC: 0.8841 cumulative IPC: 0.6738 (Simulation time: 00 hr 04 min 40 sec)
Heartbeat CPU 0 instructions: 61000372 cycles: 27466467 heartbeat IPC: 0.7734 cumulative IPC: 0.6777 (Simulation time: 00 hr 04 min 45 sec)
Heartbeat CPU 0 instructions: 61500375 cycles: 28089017 heartbeat IPC: 0.8032 cumulative IPC: 0.6824 (Simulation time: 00 hr 04 min 50 sec)
Heartbeat CPU 0 instructions: 62000381 cycles: 29561329 heartbeat IPC: 0.3396 cumulative IPC: 0.6548 (Simulation time: 00 hr 05 min 00 sec)
Heartbeat CPU 0 instructions: 62500383 cycles: 31281676 heartbeat IPC: 0.2906 cumulative IPC: 0.6236 (Simulation time: 00 hr 05 min 12 sec)
Heartbeat CPU 0 instructions: 63000383 cycles: 32791101 heartbeat IPC: 0.3313 cumulative IPC: 0.6031 (Simulation time: 00 hr 05 min 21 sec)
Heartbeat CPU 0 instructions: 63500386 cycles: 34645603 heartbeat IPC: 0.2696 cumulative IPC: 0.5767 (Simulation time: 00 hr 05 min 32 sec)
Heartbeat CPU 0 instructions: 64000387 cycles: 35664856 heartbeat IPC: 0.4906 cumulative IPC: 0.5731 (Simulation time: 00 hr 05 min 39 sec)
Heartbeat CPU 0 instructions: 64500391 cycles: 36481389 heartbeat IPC: 0.6124 cumulative IPC: 0.5744 (Simulation time: 00 hr 05 min 45 sec)
Heartbeat CPU 0 instructions: 65000393 cycles: 37574698 heartbeat IPC: 0.4573 cumulative IPC: 0.5695 (Simulation time: 00 hr 05 min 53 sec)
Heartbeat CPU 0 instructions: 65500395 cycles: 37739090 heartbeat IPC: 3.042 cumulative IPC: 0.5848 (Simulation time: 00 hr 05 min 55 sec)
Heartbeat CPU 0 instructions: 66000397 cycles: 37921742 heartbeat IPC: 2.737 cumulative IPC: 0.5996 (Simulation time: 00 hr 05 min 57 sec)
Heartbeat CPU 0 instructions: 66500398 cycles: 38177434 heartbeat IPC: 1.955 cumulative IPC: 0.6124 (Simulation time: 00 hr 05 min 59 sec)
Heartbeat CPU 0 instructions: 67000402 cycles: 38412019 heartbeat IPC: 2.131 cumulative IPC: 0.6256 (Simulation time: 00 hr 06 min 01 sec)
Heartbeat CPU 0 instructions: 67500409 cycles: 38573857 heartbeat IPC: 3.09 cumulative IPC: 0.6401 (Simulation time: 00 hr 06 min 03 sec)
Heartbeat CPU 0 instructions: 68000413 cycles: 38740777 heartbeat IPC: 2.995 cumulative IPC: 0.6544 (Simulation time: 00 hr 06 min 06 sec)
Heartbeat CPU 0 instructions: 68500414 cycles: 38948365 heartbeat IPC: 2.409 cumulative IPC: 0.6676 (Simulation time: 00 hr 06 min 08 sec)
Heartbeat CPU 0 instructions: 69000416 cycles: 39134145 heartbeat IPC: 2.691 cumulative IPC: 0.681 (Simulation time: 00 hr 06 min 10 sec)
Heartbeat CPU 0 instructions: 69500416 cycles: 39331727 heartbeat IPC: 2.531 cumulative IPC: 0.6941 (Simulation time: 00 hr 06 min 12 sec)
Heartbeat CPU 0 instructions: 70000417 cycles: 39542321 heartbeat IPC: 2.374 cumulative IPC: 0.7066 (Simulation time: 00 hr 06 min 14 sec)
Heartbeat CPU 0 instructions: 70500418 cycles: 39720785 heartbeat IPC: 2.802 cumulative IPC: 0.7197 (Simulation time: 00 hr 06 min 16 sec)
Heartbeat CPU 0 instructions: 71000424 cycles: 39844057 heartbeat IPC: 4.056 cumulative IPC: 0.7341 (Simulation time: 00 hr 06 min 18 sec)
Heartbeat CPU 0 instructions: 71500426 cycles: 40058233 heartbeat IPC: 2.335 cumulative IPC: 0.746 (Simulation time: 00 hr 06 min 20 sec)
Heartbeat CPU 0 instructions: 72000428 cycles: 40301082 heartbeat IPC: 2.059 cumulative IPC: 0.7569 (Simulation time: 00 hr 06 min 23 sec)
Heartbeat CPU 0 instructions: 72500429 cycles: 40466144 heartbeat IPC: 3.029 cumulative IPC: 0.7698 (Simulation time: 00 hr 06 min 25 sec)
Heartbeat CPU 0 instructions: 73000431 cycles: 40667985 heartbeat IPC: 2.477 cumulative IPC: 0.7815 (Simulation time: 00 hr 06 min 27 sec)
Heartbeat CPU 0 instructions: 73500432 cycles: 40871011 heartbeat IPC: 2.463 cumulative IPC: 0.793 (Simulation time: 00 hr 06 min 29 sec)
Heartbeat CPU 0 instructions: 74000437 cycles: 41058407 heartbeat IPC: 2.668 cumulative IPC: 0.8048 (Simulation time: 00 hr 06 min 31 sec)
Heartbeat CPU 0 instructions: 74500438 cycles: 41280749 heartbeat IPC: 2.249 cumulative IPC: 0.8154 (Simulation time: 00 hr 06 min 34 sec)
Heartbeat CPU 0 instructions: 75000444 cycles: 43147182 heartbeat IPC: 0.2679 cumulative IPC: 0.7834 (Simulation time: 00 hr 06 min 47 sec)
Heartbeat CPU 0 instructions: 75500444 cycles: 45492394 heartbeat IPC: 0.2132 cumulative IPC: 0.7444 (Simulation time: 00 hr 07 min 03 sec)
Heartbeat CPU 0 instructions: 76000446 cycles: 46766202 heartbeat IPC: 0.3925 cumulative IPC: 0.7318 (Simulation time: 00 hr 07 min 11 sec)
Heartbeat CPU 0 instructions: 76500447 cycles: 48578313 heartbeat IPC: 0.2759 cumulative IPC: 0.7097 (Simulation time: 00 hr 07 min 23 sec)
Heartbeat CPU 0 instructions: 77000450 cycles: 50249624 heartbeat IPC: 0.2992 cumulative IPC: 0.6921 (Simulation time: 00 hr 07 min 34 sec)
Heartbeat CPU 0 instructions: 77500454 cycles: 51926760 heartbeat IPC: 0.2981 cumulative IPC: 0.6758 (Simulation time: 00 hr 07 min 44 sec)
Heartbeat CPU 0 instructions: 78000456 cycles: 53494902 heartbeat IPC: 0.3188 cumulative IPC: 0.6626 (Simulation time: 00 hr 07 min 54 sec)
Heartbeat CPU 0 instructions: 78500460 cycles: 55391522 heartbeat IPC: 0.2636 cumulative IPC: 0.6454 (Simulation time: 00 hr 08 min 06 sec)
Heartbeat CPU 0 instructions: 79000465 cycles: 57203923 heartbeat IPC: 0.2759 cumulative IPC: 0.6309 (Simulation time: 00 hr 08 min 17 sec)
Heartbeat CPU 0 instructions: 79500465 cycles: 59321988 heartbeat IPC: 0.2361 cumulative IPC: 0.6135 (Simulation time: 00 hr 08 min 33 sec)
Heartbeat CPU 0 instructions: 80000469 cycles: 61031103 heartbeat IPC: 0.2926 cumulative IPC: 0.6025 (Simulation time: 00 hr 08 min 46 sec)
Heartbeat CPU 0 instructions: 80500469 cycles: 62729963 heartbeat IPC: 0.2943 cumulative IPC: 0.5923 (Simulation time: 00 hr 08 min 59 sec)
Heartbeat CPU 0 instructions: 81000471 cycles: 64309715 heartbeat IPC: 0.3165 cumulative IPC: 0.5841 (Simulation time: 00 hr 09 min 11 sec)
Heartbeat CPU 0 instructions: 81500473 cycles: 65833674 heartbeat IPC: 0.3281 cumulative IPC: 0.5769 (Simulation time: 00 hr 09 min 23 sec)
Heartbeat CPU 0 instructions: 82000474 cycles: 67347933 heartbeat IPC: 0.3302 cumulative IPC: 0.5703 (Simulation time: 00 hr 09 min 36 sec)
Heartbeat CPU 0 instructions: 82500476 cycles: 68807355 heartbeat IPC: 0.3426 cumulative IPC: 0.5645 (Simulation time: 00 hr 09 min 49 sec)
Heartbeat CPU 0 instructions: 83000479 cycles: 70215330 heartbeat IPC: 0.3551 cumulative IPC: 0.5595 (Simulation time: 00 hr 10 min 02 sec)
Heartbeat CPU 0 instructions: 83500485 cycles: 71630975 heartbeat IPC: 0.3532 cumulative IPC: 0.5547 (Simulation time: 00 hr 10 min 15 sec)
Heartbeat CPU 0 instructions: 84000490 cycles: 73082550 heartbeat IPC: 0.3445 cumulative IPC: 0.5498 (Simulation time: 00 hr 10 min 28 sec)
Heartbeat CPU 0 instructions: 84500492 cycles: 74510809 heartbeat IPC: 0.3501 cumulative IPC: 0.5452 (Simulation time: 00 hr 10 min 41 sec)
Heartbeat CPU 0 instructions: 85000492 cycles: 75993728 heartbeat IPC: 0.3372 cumulative IPC: 0.5405 (Simulation time: 00 hr 10 min 54 sec)
Heartbeat CPU 0 instructions: 85500492 cycles: 79380208 heartbeat IPC: 0.1476 cumulative IPC: 0.521 (Simulation time: 00 hr 11 min 19 sec)
Heartbeat CPU 0 instructions: 86000494 cycles: 82276219 heartbeat IPC: 0.1727 cumulative IPC: 0.5068 (Simulation time: 00 hr 11 min 39 sec)
Heartbeat CPU 0 instructions: 86500498 cycles: 84480439 heartbeat IPC: 0.2268 cumulative IPC: 0.4983 (Simulation time: 00 hr 11 min 53 sec)
Heartbeat CPU 0 instructions: 87000498 cycles: 86155722 heartbeat IPC: 0.2985 cumulative IPC: 0.4939 (Simulation time: 00 hr 12 min 04 sec)
Heartbeat CPU 0 instructions: 87500498 cycles: 87557873 heartbeat IPC: 0.3566 cumulative IPC: 0.4913 (Simulation time: 00 hr 12 min 13 sec)
Heartbeat CPU 0 instructions: 88000499 cycles: 88852124 heartbeat IPC: 0.3863 cumulative IPC: 0.4896 (Simulation time: 00 hr 12 min 21 sec)
Heartbeat CPU 0 instructions: 88500499 cycles: 90869573 heartbeat IPC: 0.2478 cumulative IPC: 0.4835 (Simulation time: 00 hr 12 min 34 sec)
Heartbeat CPU 0 instructions: 89000503 cycles: 92307561 heartbeat IPC: 0.3477 cumulative IPC: 0.4811 (Simulation time: 00 hr 12 min 45 sec)
Heartbeat CPU 0 instructions: 89500510 cycles: 96064527 heartbeat IPC: 0.1331 cumulative IPC: 0.4656 (Simulation time: 00 hr 13 min 10 sec)
Heartbeat CPU 0 instructions: 90000512 cycles: 96734678 heartbeat IPC: 0.7461 cumulative IPC: 0.4678 (Simulation time: 00 hr 13 min 16 sec)
Heartbeat CPU 0 instructions: 90500512 cycles: 97291476 heartbeat IPC: 0.898 cumulative IPC: 0.4706 (Simulation time: 00 hr 13 min 20 sec)
Heartbeat CPU 0 instructions: 91000512 cycles: 97845454 heartbeat IPC: 0.9026 cumulative IPC: 0.4734 (Simulation time: 00 hr 13 min 25 sec)
Heartbeat CPU 0 instructions: 91500512 cycles: 98431562 heartbeat IPC: 0.8531 cumulative IPC: 0.4759 (Simulation time: 00 hr 13 min 29 sec)
Heartbeat CPU 0 instructions: 92000512 cycles: 99004776 heartbeat IPC: 0.8723 cumulative IPC: 0.4785 (Simulation time: 00 hr 13 min 34 sec)
Heartbeat CPU 0 instructions: 92500512 cycles: 99595024 heartbeat IPC: 0.8471 cumulative IPC: 0.481 (Simulation time: 00 hr 13 min 39 sec)
Heartbeat CPU 0 instructions: 93000513 cycles: 100979547 heartbeat IPC: 0.3611 cumulative IPC: 0.4791 (Simulation time: 00 hr 13 min 49 sec)
Heartbeat CPU 0 instructions: 93500514 cycles: 103405814 heartbeat IPC: 0.2061 cumulative IPC: 0.472 (Simulation time: 00 hr 14 min 08 sec)
Heartbeat CPU 0 instructions: 94000518 cycles: 103533545 heartbeat IPC: 3.915 cumulative IPC: 0.4767 (Simulation time: 00 hr 14 min 10 sec)
Heartbeat CPU 0 instructions: 94500522 cycles: 103658051 heartbeat IPC: 4.016 cumulative IPC: 0.4815 (Simulation time: 00 hr 14 min 12 sec)
Heartbeat CPU 0 instructions: 95000522 cycles: 103788652 heartbeat IPC: 3.828 cumulative IPC: 0.4862 (Simulation time: 00 hr 14 min 14 sec)
Heartbeat CPU 0 instructions: 95500524 cycles: 104007921 heartbeat IPC: 2.28 cumulative IPC: 0.4905 (Simulation time: 00 hr 14 min 16 sec)
Heartbeat CPU 0 instructions: 96000527 cycles: 104178576 heartbeat IPC: 2.93 cumulative IPC: 0.4949 (Simulation time: 00 hr 14 min 18 sec)
Heartbeat CPU 0 instructions: 96500533 cycles: 104325294 heartbeat IPC: 3.408 cumulative IPC: 0.4995 (Simulation time: 00 hr 14 min 20 sec)
Heartbeat CPU 0 instructions: 97000539 cycles: 104468402 heartbeat IPC: 3.494 cumulative IPC: 0.5041 (Simulation time: 00 hr 14 min 22 sec)
Heartbeat CPU 0 instructions: 97500540 cycles: 104606160 heartbeat IPC: 3.63 cumulative IPC: 0.5087 (Simulation time: 00 hr 14 min 24 sec)
Heartbeat CPU 0 instructions: 98000540 cycles: 104755258 heartbeat IPC: 3.353 cumulative IPC: 0.5133 (Simulation time: 00 hr 14 min 26 sec)
Heartbeat CPU 0 instructions: 98500546 cycles: 104903143 heartbeat IPC: 3.381 cumulative IPC: 0.5178 (Simulation time: 00 hr 14 min 28 sec)
Heartbeat CPU 0 instructions: 99000551 cycles: 105083673 heartbeat IPC: 2.77 cumulative IPC: 0.5221 (Simulation time: 00 hr 14 min 30 sec)
Heartbeat CPU 0 instructions: 99500551 cycles: 105299971 heartbeat IPC: 2.312 cumulative IPC: 0.5262 (Simulation time: 00 hr 14 min 32 sec)
Heartbeat CPU 0 instructions: 100000552 cycles: 105511271 heartbeat IPC: 2.366 cumulative IPC: 0.5304 (Simulation time: 00 hr 14 min 34 sec)
Heartbeat CPU 0 instructions: 100500553 cycles: 105735802 heartbeat IPC: 2.227 cumulative IPC: 0.5344 (Simulation time: 00 hr 14 min 37 sec)
Heartbeat CPU 0 instructions: 101000559 cycles: 105899590 heartbeat IPC: 3.053 cumulative IPC: 0.5388 (Simulation time: 00 hr 14 min 39 sec)
Heartbeat CPU 0 instructions: 101500564 cycles: 106116812 heartbeat IPC: 2.302 cumulative IPC: 0.5428 (Simulation time: 00 hr 14 min 41 sec)
Heartbeat CPU 0 instructions: 102000570 cycles: 106312636 heartbeat IPC: 2.553 cumulative IPC: 0.5469 (Simulation time: 00 hr 14 min 43 sec)
Heartbeat CPU 0 instructions: 102500571 cycles: 106529839 heartbeat IPC: 2.302 cumulative IPC: 0.5509 (Simulation time: 00 hr 14 min 45 sec)
Heartbeat CPU 0 instructions: 103000576 cycles: 106708527 heartbeat IPC: 2.798 cumulative IPC: 0.5551 (Simulation time: 00 hr 14 min 47 sec)
Heartbeat CPU 0 instructions: 103500578 cycles: 107433217 heartbeat IPC: 0.69 cumulative IPC: 0.5562 (Simulation time: 00 hr 14 min 53 sec)
Heartbeat CPU 0 instructions: 104000580 cycles: 108324444 heartbeat IPC: 0.561 cumulative IPC: 0.5562 (Simulation time: 00 hr 14 min 59 sec)
Heartbeat CPU 0 instructions: 104500580 cycles: 108811110 heartbeat IPC: 1.027 cumulative IPC: 0.5585 (Simulation time: 00 hr 15 min 03 sec)
Heartbeat CPU 0 instructions: 105000583 cycles: 109342296 heartbeat IPC: 0.9413 cumulative IPC: 0.5606 (Simulation time: 00 hr 15 min 07 sec)
Heartbeat CPU 0 instructions: 105500586 cycles: 109814475 heartbeat IPC: 1.059 cumulative IPC: 0.563 (Simulation time: 00 hr 15 min 11 sec)
Heartbeat CPU 0 instructions: 106000588 cycles: 110317810 heartbeat IPC: 0.9934 cumulative IPC: 0.5652 (Simulation time: 00 hr 15 min 15 sec)
Heartbeat CPU 0 instructions: 106500593 cycles: 110754050 heartbeat IPC: 1.146 cumulative IPC: 0.5677 (Simulation time: 00 hr 15 min 18 sec)
Heartbeat CPU 0 instructions: 107000594 cycles: 111252300 heartbeat IPC: 1.004 cumulative IPC: 0.5699 (Simulation time: 00 hr 15 min 22 sec)
Heartbeat CPU 0 instructions: 107500596 cycles: 111695877 heartbeat IPC: 1.127 cumulative IPC: 0.5724 (Simulation time: 00 hr 15 min 26 sec)
Heartbeat CPU 0 instructions: 108000600 cycles: 112138842 heartbeat IPC: 1.129 cumulative IPC: 0.5748 (Simulation time: 00 hr 15 min 29 sec)
Heartbeat CPU 0 instructions: 108500603 cycles: 112582946 heartbeat IPC: 1.126 cumulative IPC: 0.5772 (Simulation time: 00 hr 15 min 33 sec)
Heartbeat CPU 0 instructions: 109000603 cycles: 112971426 heartbeat IPC: 1.287 cumulative IPC: 0.5799 (Simulation time: 00 hr 15 min 36 sec)
Heartbeat CPU 0 instructions: 109500603 cycles: 113414728 heartbeat IPC: 1.128 cumulative IPC: 0.5823 (Simulation time: 00 hr 15 min 40 sec)
Heartbeat CPU 0 instructions: 110000606 cycles: 113800115 heartbeat IPC: 1.297 cumulative IPC: 0.585 (Simulation time: 00 hr 15 min 44 sec)
Heartbeat CPU 0 instructions: 110500609 cycles: 114362198 heartbeat IPC: 0.8896 cumulative IPC: 0.5867 (Simulation time: 00 hr 15 min 48 sec)
Heartbeat CPU 0 instructions: 111000612 cycles: 114802245 heartbeat IPC: 1.136 cumulative IPC: 0.589 (Simulation time: 00 hr 15 min 52 sec)
Heartbeat CPU 0 instructions: 111500613 cycles: 115213219 heartbeat IPC: 1.217 cumulative IPC: 0.5915 (Simulation time: 00 hr 15 min 55 sec)
Heartbeat CPU 0 instructions: 112000615 cycles: 115685569 heartbeat IPC: 1.059 cumulative IPC: 0.5936 (Simulation time: 00 hr 15 min 59 sec)
Heartbeat CPU 0 instructions: 112500622 cycles: 116066752 heartbeat IPC: 1.312 cumulative IPC: 0.5962 (Simulation time: 00 hr 16 min 02 sec)
Heartbeat CPU 0 instructions: 113000623 cycles: 116486041 heartbeat IPC: 1.192 cumulative IPC: 0.5986 (Simulation time: 00 hr 16 min 06 sec)
Heartbeat CPU 0 instructions: 113500629 cycles: 117563827 heartbeat IPC: 0.4639 cumulative IPC: 0.5972 (Simulation time: 00 hr 16 min 14 sec)
Heartbeat CPU 0 instructions: 114000630 cycles: 120675080 heartbeat IPC: 0.1607 cumulative IPC: 0.5848 (Simulation time: 00 hr 16 min 38 sec)
Heartbeat CPU 0 instructions: 114500632 cycles: 121693654 heartbeat IPC: 0.4909 cumulative IPC: 0.5839 (Simulation time: 00 hr 16 min 45 sec)
Heartbeat CPU 0 instructions: 115000638 cycles: 123062299 heartbeat IPC: 0.3653 cumulative IPC: 0.5813 (Simulation time: 00 hr 16 min 54 sec)
Heartbeat CPU 0 instructions: 115500640 cycles: 123312166 heartbeat IPC: 2.001 cumulative IPC: 0.5844 (Simulation time: 00 hr 16 min 57 sec)
Heartbeat CPU 0 instructions: 116000646 cycles: 123531911 heartbeat IPC: 2.275 cumulative IPC: 0.5877 (Simulation time: 00 hr 16 min 59 sec)
Heartbeat CPU 0 instructions: 116500652 cycles: 123783847 heartbeat IPC: 1.985 cumulative IPC: 0.5909 (Simulation time: 00 hr 17 min 01 sec)
Heartbeat CPU 0 instructions: 117000654 cycles: 124062888 heartbeat IPC: 1.792 cumulative IPC: 0.5938 (Simulation time: 00 hr 17 min 04 sec)
Heartbeat CPU 0 instructions: 117500656 cycles: 124390075 heartbeat IPC: 1.528 cumulative IPC: 0.5965 (Simulation time: 00 hr 17 min 06 sec)
Heartbeat CPU 0 instructions: 118000657 cycles: 124709700 heartbeat IPC: 1.564 cumulative IPC: 0.5993 (Simulation time: 00 hr 17 min 09 sec)
Heartbeat CPU 0 instructions: 118500658 cycles: 124929997 heartbeat IPC: 2.27 cumulative IPC: 0.6025 (Simulation time: 00 hr 17 min 11 sec)
Heartbeat CPU 0 instructions: 119000658 cycles: 125086898 heartbeat IPC: 3.187 cumulative IPC: 0.6061 (Simulation time: 00 hr 17 min 13 sec)
Heartbeat CPU 0 instructions: 119500660 cycles: 125213151 heartbeat IPC: 3.96 cumulative IPC: 0.6098 (Simulation time: 00 hr 17 min 15 sec)
Heartbeat CPU 0 instructions: 120000662 cycles: 125347063 heartbeat IPC: 3.734 cumulative IPC: 0.6134 (Simulation time: 00 hr 17 min 17 sec)
Heartbeat CPU 0 instructions: 120500665 cycles: 125571028 heartbeat IPC: 2.233 cumulative IPC: 0.6166 (Simulation time: 00 hr 17 min 19 sec)
Heartbeat CPU 0 instructions: 121000669 cycles: 125717647 heartbeat IPC: 3.41 cumulative IPC: 0.6202 (Simulation time: 00 hr 17 min 21 sec)
Heartbeat CPU 0 instructions: 121500670 cycles: 125867369 heartbeat IPC: 3.34 cumulative IPC: 0.6237 (Simulation time: 00 hr 17 min 23 sec)
Heartbeat CPU 0 instructions: 122000671 cycles: 126008930 heartbeat IPC: 3.532 cumulative IPC: 0.6273 (Simulation time: 00 hr 17 min 25 sec)
Heartbeat CPU 0 instructions: 122500678 cycles: 126147611 heartbeat IPC: 3.605 cumulative IPC: 0.6309 (Simulation time: 00 hr 17 min 27 sec)
Heartbeat CPU 0 instructions: 123000684 cycles: 126279237 heartbeat IPC: 3.799 cumulative IPC: 0.6345 (Simulation time: 00 hr 17 min 29 sec)
Heartbeat CPU 0 instructions: 123500691 cycles: 126420528 heartbeat IPC: 3.539 cumulative IPC: 0.6381 (Simulation time: 00 hr 17 min 31 sec)
Heartbeat CPU 0 instructions: 124000693 cycles: 126565651 heartbeat IPC: 3.445 cumulative IPC: 0.6416 (Simulation time: 00 hr 17 min 33 sec)
Heartbeat CPU 0 instructions: 124500693 cycles: 126711496 heartbeat IPC: 3.428 cumulative IPC: 0.6452 (Simulation time: 00 hr 17 min 35 sec)
Heartbeat CPU 0 instructions: 125000694 cycles: 128031149 heartbeat IPC: 0.3789 cumulative IPC: 0.6422 (Simulation time: 00 hr 17 min 44 sec)
Heartbeat CPU 0 instructions: 125500697 cycles: 129714130 heartbeat IPC: 0.2971 cumulative IPC: 0.6373 (Simulation time: 00 hr 17 min 55 sec)
Heartbeat CPU 0 instructions: 126000702 cycles: 130397061 heartbeat IPC: 0.7321 cumulative IPC: 0.6378 (Simulation time: 00 hr 18 min 00 sec)
Heartbeat CPU 0 instructions: 126500705 cycles: 130801875 heartbeat IPC: 1.235 cumulative IPC: 0.6398 (Simulation time: 00 hr 18 min 03 sec)
Heartbeat CPU 0 instructions: 127000711 cycles: 131173665 heartbeat IPC: 1.345 cumulative IPC: 0.642 (Simulation time: 00 hr 18 min 06 sec)
Heartbeat CPU 0 instructions: 127500715 cycles: 131573442 heartbeat IPC: 1.251 cumulative IPC: 0.644 (Simulation time: 00 hr 18 min 10 sec)
Heartbeat CPU 0 instructions: 128000722 cycles: 131986444 heartbeat IPC: 1.211 cumulative IPC: 0.646 (Simulation time: 00 hr 18 min 13 sec)
Heartbeat CPU 0 instructions: 128500725 cycles: 132397112 heartbeat IPC: 1.218 cumulative IPC: 0.6479 (Simulation time: 00 hr 18 min 17 sec)
Heartbeat CPU 0 instructions: 129000732 cycles: 132863749 heartbeat IPC: 1.072 cumulative IPC: 0.6495 (Simulation time: 00 hr 18 min 20 sec)
Heartbeat CPU 0 instructions: 129500732 cycles: 133262249 heartbeat IPC: 1.255 cumulative IPC: 0.6515 (Simulation time: 00 hr 18 min 24 sec)
Heartbeat CPU 0 instructions: 130000732 cycles: 133702176 heartbeat IPC: 1.137 cumulative IPC: 0.6532 (Simulation time: 00 hr 18 min 27 sec)
Heartbeat CPU 0 instructions: 130500734 cycles: 134146100 heartbeat IPC: 1.126 cumulative IPC: 0.655 (Simulation time: 00 hr 18 min 31 sec)
Heartbeat CPU 0 instructions: 131000734 cycles: 134524822 heartbeat IPC: 1.32 cumulative IPC: 0.657 (Simulation time: 00 hr 18 min 34 sec)
Heartbeat CPU 0 instructions: 131500741 cycles: 134956727 heartbeat IPC: 1.158 cumulative IPC: 0.6587 (Simulation time: 00 hr 18 min 38 sec)
Heartbeat CPU 0 instructions: 132000744 cycles: 135350838 heartbeat IPC: 1.269 cumulative IPC: 0.6607 (Simulation time: 00 hr 18 min 41 sec)
Heartbeat CPU 0 instructions: 132500751 cycles: 135797537 heartbeat IPC: 1.119 cumulative IPC: 0.6623 (Simulation time: 00 hr 18 min 45 sec)
Heartbeat CPU 0 instructions: 133000756 cycles: 136269930 heartbeat IPC: 1.058 cumulative IPC: 0.6638 (Simulation time: 00 hr 18 min 48 sec)
Heartbeat CPU 0 instructions: 133500756 cycles: 136647854 heartbeat IPC: 1.323 cumulative IPC: 0.6658 (Simulation time: 00 hr 18 min 52 sec)
Heartbeat CPU 0 instructions: 134000759 cycles: 137076968 heartbeat IPC: 1.165 cumulative IPC: 0.6675 (Simulation time: 00 hr 18 min 55 sec)
Heartbeat CPU 0 instructions: 134500759 cycles: 137574120 heartbeat IPC: 1.006 cumulative IPC: 0.6688 (Simulation time: 00 hr 18 min 59 sec)
Heartbeat CPU 0 instructions: 135000760 cycles: 138099116 heartbeat IPC: 0.9524 cumulative IPC: 0.67 (Simulation time: 00 hr 19 min 03 sec)
Heartbeat CPU 0 instructions: 135500760 cycles: 141039959 heartbeat IPC: 0.17 cumulative IPC: 0.6587 (Simulation time: 00 hr 19 min 25 sec)
Heartbeat CPU 0 instructions: 136000760 cycles: 141335853 heartbeat IPC: 1.69 cumulative IPC: 0.661 (Simulation time: 00 hr 19 min 28 sec)
Heartbeat CPU 0 instructions: 136500762 cycles: 141471636 heartbeat IPC: 3.682 cumulative IPC: 0.6642 (Simulation time: 00 hr 19 min 30 sec)
Heartbeat CPU 0 instructions: 137000769 cycles: 141610026 heartbeat IPC: 3.613 cumulative IPC: 0.6673 (Simulation time: 00 hr 19 min 32 sec)
Heartbeat CPU 0 instructions: 137500771 cycles: 141758299 heartbeat IPC: 3.372 cumulative IPC: 0.6704 (Simulation time: 00 hr 19 min 34 sec)
Heartbeat CPU 0 instructions: 138000773 cycles: 142006572 heartbeat IPC: 2.014 cumulative IPC: 0.6729 (Simulation time: 00 hr 19 min 36 sec)
Heartbeat CPU 0 instructions: 138500773 cycles: 142358668 heartbeat IPC: 1.42 cumulative IPC: 0.6749 (Simulation time: 00 hr 19 min 39 sec)
Heartbeat CPU 0 instructions: 139000774 cycles: 142707695 heartbeat IPC: 1.433 cumulative IPC: 0.677 (Simulation time: 00 hr 19 min 42 sec)
Heartbeat CPU 0 instructions: 139500775 cycles: 143015286 heartbeat IPC: 1.626 cumulative IPC: 0.6792 (Simulation time: 00 hr 19 min 44 sec)
Heartbeat CPU 0 instructions: 140000775 cycles: 143340604 heartbeat IPC: 1.537 cumulative IPC: 0.6813 (Simulation time: 00 hr 19 min 47 sec)
Heartbeat CPU 0 instructions: 140500780 cycles: 143667092 heartbeat IPC: 1.531 cumulative IPC: 0.6834 (Simulation time: 00 hr 19 min 49 sec)
Heartbeat CPU 0 instructions: 141000781 cycles: 143990102 heartbeat IPC: 1.548 cumulative IPC: 0.6855 (Simulation time: 00 hr 19 min 52 sec)
Heartbeat CPU 0 instructions: 141500782 cycles: 144357749 heartbeat IPC: 1.36 cumulative IPC: 0.6873 (Simulation time: 00 hr 19 min 55 sec)
Heartbeat CPU 0 instructions: 142000789 cycles: 144701061 heartbeat IPC: 1.456 cumulative IPC: 0.6893 (Simulation time: 00 hr 19 min 57 sec)
Heartbeat CPU 0 instructions: 142500795 cycles: 144983443 heartbeat IPC: 1.771 cumulative IPC: 0.6916 (Simulation time: 00 hr 20 min 00 sec)
Heartbeat CPU 0 instructions: 143000797 cycles: 145239460 heartbeat IPC: 1.953 cumulative IPC: 0.694 (Simulation time: 00 hr 20 min 02 sec)
Heartbeat CPU 0 instructions: 143500797 cycles: 145573577 heartbeat IPC: 1.496 cumulative IPC: 0.696 (Simulation time: 00 hr 20 min 05 sec)
Heartbeat CPU 0 instructions: 144000800 cycles: 145952420 heartbeat IPC: 1.32 cumulative IPC: 0.6978 (Simulation time: 00 hr 20 min 07 sec)
Heartbeat CPU 0 instructions: 144500801 cycles: 146310295 heartbeat IPC: 1.397 cumulative IPC: 0.6996 (Simulation time: 00 hr 20 min 10 sec)
Heartbeat CPU 0 instructions: 145000804 cycles: 146598188 heartbeat IPC: 1.737 cumulative IPC: 0.7018 (Simulation time: 00 hr 20 min 13 sec)
Heartbeat CPU 0 instructions: 145500811 cycles: 146928999 heartbeat IPC: 1.511 cumulative IPC: 0.7038 (Simulation time: 00 hr 20 min 15 sec)
Heartbeat CPU 0 instructions: 146000817 cycles: 147458994 heartbeat IPC: 0.9434 cumulative IPC: 0.7047 (Simulation time: 00 hr 20 min 19 sec)
Heartbeat CPU 0 instructions: 146500821 cycles: 148131941 heartbeat IPC: 0.743 cumulative IPC: 0.7049 (Simulation time: 00 hr 20 min 24 sec)
Heartbeat CPU 0 instructions: 147000823 cycles: 148571055 heartbeat IPC: 1.139 cumulative IPC: 0.7063 (Simulation time: 00 hr 20 min 27 sec)
Heartbeat CPU 0 instructions: 147500827 cycles: 149020612 heartbeat IPC: 1.112 cumulative IPC: 0.7076 (Simulation time: 00 hr 20 min 31 sec)
Heartbeat CPU 0 instructions: 148000830 cycles: 149437996 heartbeat IPC: 1.198 cumulative IPC: 0.7091 (Simulation time: 00 hr 20 min 34 sec)
Heartbeat CPU 0 instructions: 148500830 cycles: 149930690 heartbeat IPC: 1.015 cumulative IPC: 0.7102 (Simulation time: 00 hr 20 min 38 sec)
Heartbeat CPU 0 instructions: 149000830 cycles: 150362447 heartbeat IPC: 1.158 cumulative IPC: 0.7116 (Simulation time: 00 hr 20 min 42 sec)
Heartbeat CPU 0 instructions: 149500832 cycles: 150793767 heartbeat IPC: 1.159 cumulative IPC: 0.713 (Simulation time: 00 hr 20 min 45 sec)
Heartbeat CPU 0 instructions: 150000832 cycles: 151176260 heartbeat IPC: 1.307 cumulative IPC: 0.7146 (Simulation time: 00 hr 20 min 48 sec)
Heartbeat CPU 0 instructions: 150500837 cycles: 151620244 heartbeat IPC: 1.126 cumulative IPC: 0.7159 (Simulation time: 00 hr 20 min 52 sec)
Heartbeat CPU 0 instructions: 151000843 cycles: 152058106 heartbeat IPC: 1.142 cumulative IPC: 0.7172 (Simulation time: 00 hr 20 min 55 sec)
Heartbeat CPU 0 instructions: 151500845 cycles: 152483784 heartbeat IPC: 1.175 cumulative IPC: 0.7186 (Simulation time: 00 hr 20 min 59 sec)
Heartbeat CPU 0 instructions: 152000850 cycles: 152722970 heartbeat IPC: 2.09 cumulative IPC: 0.7209 (Simulation time: 00 hr 21 min 01 sec)
Heartbeat CPU 0 instructions: 152500852 cycles: 153098899 heartbeat IPC: 1.33 cumulative IPC: 0.7225 (Simulation time: 00 hr 21 min 04 sec)
Heartbeat CPU 0 instructions: 153000852 cycles: 153668350 heartbeat IPC: 0.878 cumulative IPC: 0.7232 (Simulation time: 00 hr 21 min 09 sec)
Heartbeat CPU 0 instructions: 153500855 cycles: 156969186 heartbeat IPC: 0.1515 cumulative IPC: 0.7102 (Simulation time: 00 hr 21 min 32 sec)
Heartbeat CPU 0 instructions: 154000857 cycles: 157367212 heartbeat IPC: 1.256 cumulative IPC: 0.7117 (Simulation time: 00 hr 21 min 35 sec)
Heartbeat CPU 0 instructions: 154500859 cycles: 157760160 heartbeat IPC: 1.272 cumulative IPC: 0.7132 (Simulation time: 00 hr 21 min 38 sec)
Heartbeat CPU 0 instructions: 155000859 cycles: 158207154 heartbeat IPC: 1.119 cumulative IPC: 0.7144 (Simulation time: 00 hr 21 min 41 sec)
Heartbeat CPU 0 instructions: 155500860 cycles: 158570103 heartbeat IPC: 1.378 cumulative IPC: 0.7161 (Simulation time: 00 hr 21 min 44 sec)
Heartbeat CPU 0 instructions: 156000862 cycles: 158895093 heartbeat IPC: 1.539 cumulative IPC: 0.7179 (Simulation time: 00 hr 21 min 46 sec)
Heartbeat CPU 0 instructions: 156500868 cycles: 159571774 heartbeat IPC: 0.7389 cumulative IPC: 0.718 (Simulation time: 00 hr 21 min 51 sec)
Heartbeat CPU 0 instructions: 157000870 cycles: 160225049 heartbeat IPC: 0.7654 cumulative IPC: 0.7182 (Simulation time: 00 hr 21 min 56 sec)
Heartbeat CPU 0 instructions: 157500875 cycles: 160988502 heartbeat IPC: 0.6549 cumulative IPC: 0.7179 (Simulation time: 00 hr 22 min 01 sec)
Heartbeat CPU 0 instructions: 158000875 cycles: 162222442 heartbeat IPC: 0.4052 cumulative IPC: 0.7153 (Simulation time: 00 hr 22 min 09 sec)
Heartbeat CPU 0 instructions: 158500877 cycles: 164013443 heartbeat IPC: 0.2792 cumulative IPC: 0.7102 (Simulation time: 00 hr 22 min 20 sec)
Heartbeat CPU 0 instructions: 159000878 cycles: 164936338 heartbeat IPC: 0.5418 cumulative IPC: 0.7092 (Simulation time: 00 hr 22 min 27 sec)
Heartbeat CPU 0 instructions: 159500878 cycles: 165728359 heartbeat IPC: 0.6313 cumulative IPC: 0.7088 (Simulation time: 00 hr 22 min 32 sec)
Heartbeat CPU 0 instructions: 160000883 cycles: 166224527 heartbeat IPC: 1.008 cumulative IPC: 0.7097 (Simulation time: 00 hr 22 min 36 sec)
Heartbeat CPU 0 instructions: 160500888 cycles: 166666789 heartbeat IPC: 1.131 cumulative IPC: 0.7109 (Simulation time: 00 hr 22 min 39 sec)
Heartbeat CPU 0 instructions: 161000893 cycles: 167088030 heartbeat IPC: 1.187 cumulative IPC: 0.7122 (Simulation time: 00 hr 22 min 43 sec)
Heartbeat CPU 0 instructions: 161500894 cycles: 167462175 heartbeat IPC: 1.336 cumulative IPC: 0.7137 (Simulation time: 00 hr 22 min 46 sec)
Heartbeat CPU 0 instructions: 162000894 cycles: 167968951 heartbeat IPC: 0.9866 cumulative IPC: 0.7146 (Simulation time: 00 hr 22 min 49 sec)
Heartbeat CPU 0 instructions: 162500895 cycles: 168517768 heartbeat IPC: 0.9111 cumulative IPC: 0.7153 (Simulation time: 00 hr 22 min 53 sec)
Heartbeat CPU 0 instructions: 163000897 cycles: 168978120 heartbeat IPC: 1.086 cumulative IPC: 0.7164 (Simulation time: 00 hr 22 min 57 sec)
Heartbeat CPU 0 instructions: 163500900 cycles: 169527332 heartbeat IPC: 0.9104 cumulative IPC: 0.717 (Simulation time: 00 hr 23 min 01 sec)
Heartbeat CPU 0 instructions: 164000905 cycles: 169879733 heartbeat IPC: 1.419 cumulative IPC: 0.7186 (Simulation time: 00 hr 23 min 04 sec)
Heartbeat CPU 0 instructions: 164500908 cycles: 170253140 heartbeat IPC: 1.339 cumulative IPC: 0.7201 (Simulation time: 00 hr 23 min 07 sec)
Heartbeat CPU 0 instructions: 165000909 cycles: 170680348 heartbeat IPC: 1.17 cumulative IPC: 0.7213 (Simulation time: 00 hr 23 min 11 sec)
Heartbeat CPU 0 instructions: 165500913 cycles: 171074841 heartbeat IPC: 1.267 cumulative IPC: 0.7226 (Simulation time: 00 hr 23 min 14 sec)
Heartbeat CPU 0 instructions: 166000913 cycles: 171520847 heartbeat IPC: 1.121 cumulative IPC: 0.7237 (Simulation time: 00 hr 23 min 17 sec)
Heartbeat CPU 0 instructions: 166500915 cycles: 171979604 heartbeat IPC: 1.09 cumulative IPC: 0.7248 (Simulation time: 00 hr 23 min 21 sec)
Heartbeat CPU 0 instructions: 167000921 cycles: 172397904 heartbeat IPC: 1.195 cumulative IPC: 0.726 (Simulation time: 00 hr 23 min 24 sec)
Heartbeat CPU 0 instructions: 167500921 cycles: 172853686 heartbeat IPC: 1.097 cumulative IPC: 0.727 (Simulation time: 00 hr 23 min 28 sec)
Heartbeat CPU 0 instructions: 168000928 cycles: 173339001 heartbeat IPC: 1.03 cumulative IPC: 0.7279 (Simulation time: 00 hr 23 min 31 sec)
Heartbeat CPU 0 instructions: 168500929 cycles: 173725150 heartbeat IPC: 1.295 cumulative IPC: 0.7293 (Simulation time: 00 hr 23 min 35 sec)
Heartbeat CPU 0 instructions: 169000936 cycles: 174154314 heartbeat IPC: 1.165 cumulative IPC: 0.7304 (Simulation time: 00 hr 23 min 38 sec)
Heartbeat CPU 0 instructions: 169500939 cycles: 174566835 heartbeat IPC: 1.212 cumulative IPC: 0.7316 (Simulation time: 00 hr 23 min 41 sec)
Heartbeat CPU 0 instructions: 170000939 cycles: 175013339 heartbeat IPC: 1.12 cumulative IPC: 0.7327 (Simulation time: 00 hr 23 min 45 sec)
Heartbeat CPU 0 instructions: 170500941 cycles: 175423970 heartbeat IPC: 1.218 cumulative IPC: 0.7339 (Simulation time: 00 hr 23 min 48 sec)
Heartbeat CPU 0 instructions: 171000944 cycles: 175896781 heartbeat IPC: 1.058 cumulative IPC: 0.7348 (Simulation time: 00 hr 23 min 52 sec)
Heartbeat CPU 0 instructions: 171500946 cycles: 176275340 heartbeat IPC: 1.321 cumulative IPC: 0.7362 (Simulation time: 00 hr 23 min 55 sec)
Heartbeat CPU 0 instructions: 172000949 cycles: 176693439 heartbeat IPC: 1.196 cumulative IPC: 0.7374 (Simulation time: 00 hr 23 min 59 sec)
Heartbeat CPU 0 instructions: 172500950 cycles: 177234268 heartbeat IPC: 0.9245 cumulative IPC: 0.738 (Simulation time: 00 hr 24 min 03 sec)
Heartbeat CPU 0 instructions: 173000956 cycles: 179703505 heartbeat IPC: 0.2025 cumulative IPC: 0.7301 (Simulation time: 00 hr 24 min 21 sec)
Heartbeat CPU 0 instructions: 173500960 cycles: 180152134 heartbeat IPC: 1.115 cumulative IPC: 0.7311 (Simulation time: 00 hr 24 min 25 sec)
Heartbeat CPU 0 instructions: 174000960 cycles: 180643512 heartbeat IPC: 1.018 cumulative IPC: 0.732 (Simulation time: 00 hr 24 min 29 sec)
Heartbeat CPU 0 instructions: 174500961 cycles: 181103310 heartbeat IPC: 1.087 cumulative IPC: 0.7329 (Simulation time: 00 hr 24 min 32 sec)
Heartbeat CPU 0 instructions: 175000968 cycles: 181564140 heartbeat IPC: 1.085 cumulative IPC: 0.7339 (Simulation time: 00 hr 24 min 36 sec)
Heartbeat CPU 0 instructions: 175500969 cycles: 182013506 heartbeat IPC: 1.113 cumulative IPC: 0.7349 (Simulation time: 00 hr 24 min 39 sec)
Heartbeat CPU 0 instructions: 176000970 cycles: 182446034 heartbeat IPC: 1.156 cumulative IPC: 0.7359 (Simulation time: 00 hr 24 min 43 sec)
Heartbeat CPU 0 instructions: 176500971 cycles: 182988133 heartbeat IPC: 0.9223 cumulative IPC: 0.7365 (Simulation time: 00 hr 24 min 47 sec)
Heartbeat CPU 0 instructions: 177000972 cycles: 183374900 heartbeat IPC: 1.293 cumulative IPC: 0.7378 (Simulation time: 00 hr 24 min 50 sec)
Heartbeat CPU 0 instructions: 177500976 cycles: 184184914 heartbeat IPC: 0.6173 cumulative IPC: 0.7372 (Simulation time: 00 hr 24 min 56 sec)
Heartbeat CPU 0 instructions: 178000979 cycles: 185868057 heartbeat IPC: 0.2971 cumulative IPC: 0.733 (Simulation time: 00 hr 25 min 07 sec)
Heartbeat CPU 0 instructions: 178500981 cycles: 186551785 heartbeat IPC: 0.7313 cumulative IPC: 0.733 (Simulation time: 00 hr 25 min 12 sec)
Heartbeat CPU 0 instructions: 179000988 cycles: 188339790 heartbeat IPC: 0.2796 cumulative IPC: 0.7284 (Simulation time: 00 hr 25 min 23 sec)
Heartbeat CPU 0 instructions: 179500988 cycles: 189796401 heartbeat IPC: 0.3433 cumulative IPC: 0.7252 (Simulation time: 00 hr 25 min 34 sec)
Heartbeat CPU 0 instructions: 180000991 cycles: 190658791 heartbeat IPC: 0.5798 cumulative IPC: 0.7245 (Simulation time: 00 hr 25 min 41 sec)
Heartbeat CPU 0 instructions: 180500995 cycles: 191016003 heartbeat IPC: 1.4 cumulative IPC: 0.7259 (Simulation time: 00 hr 25 min 45 sec)
Heartbeat CPU 0 instructions: 181000996 cycles: 191351985 heartbeat IPC: 1.488 cumulative IPC: 0.7273 (Simulation time: 00 hr 25 min 48 sec)
Heartbeat CPU 0 instructions: 181500996 cycles: 191694744 heartbeat IPC: 1.459 cumulative IPC: 0.7287 (Simulation time: 00 hr 25 min 52 sec)
Heartbeat CPU 0 instructions: 182001001 cycles: 192102822 heartbeat IPC: 1.225 cumulative IPC: 0.7298 (Simulation time: 00 hr 25 min 56 sec)
Heartbeat CPU 0 instructions: 182501003 cycles: 192581125 heartbeat IPC: 1.045 cumulative IPC: 0.7307 (Simulation time: 00 hr 26 min 00 sec)
Heartbeat CPU 0 instructions: 183001005 cycles: 192872807 heartbeat IPC: 1.714 cumulative IPC: 0.7322 (Simulation time: 00 hr 26 min 03 sec)
Heartbeat CPU 0 instructions: 183501005 cycles: 193167210 heartbeat IPC: 1.698 cumulative IPC: 0.7338 (Simulation time: 00 hr 26 min 06 sec)
Heartbeat CPU 0 instructions: 184001005 cycles: 193463952 heartbeat IPC: 1.685 cumulative IPC: 0.7353 (Simulation time: 00 hr 26 min 09 sec)
Heartbeat CPU 0 instructions: 184501008 cycles: 193765446 heartbeat IPC: 1.658 cumulative IPC: 0.7369 (Simulation time: 00 hr 26 min 12 sec)
Heartbeat CPU 0 instructions: 185001014 cycles: 194372587 heartbeat IPC: 0.8235 cumulative IPC: 0.7372 (Simulation time: 00 hr 26 min 17 sec)
Heartbeat CPU 0 instructions: 185501017 cycles: 195558174 heartbeat IPC: 0.4217 cumulative IPC: 0.7351 (Simulation time: 00 hr 26 min 25 sec)
Heartbeat CPU 0 instructions: 186001017 cycles: 197690803 heartbeat IPC: 0.2345 cumulative IPC: 0.7294 (Simulation time: 00 hr 26 min 38 sec)
Heartbeat CPU 0 instructions: 186501021 cycles: 198099297 heartbeat IPC: 1.224 cumulative IPC: 0.7305 (Simulation time: 00 hr 26 min 41 sec)
Heartbeat CPU 0 instructions: 187001021 cycles: 198456134 heartbeat IPC: 1.401 cumulative IPC: 0.7318 (Simulation time: 00 hr 26 min 44 sec)
Heartbeat CPU 0 instructions: 187501027 cycles: 198791467 heartbeat IPC: 1.491 cumulative IPC: 0.7331 (Simulation time: 00 hr 26 min 47 sec)
Heartbeat CPU 0 instructions: 188001029 cycles: 200549517 heartbeat IPC: 0.2844 cumulative IPC: 0.729 (Simulation time: 00 hr 26 min 57 sec)
Heartbeat CPU 0 instructions: 188501030 cycles: 202836624 heartbeat IPC: 0.2186 cumulative IPC: 0.7229 (Simulation time: 00 hr 27 min 09 sec)
Heartbeat CPU 0 instructions: 189001030 cycles: 204431973 heartbeat IPC: 0.3134 cumulative IPC: 0.7195 (Simulation time: 00 hr 27 min 18 sec)
Heartbeat CPU 0 instructions: 189501030 cycles: 205494438 heartbeat IPC: 0.4706 cumulative IPC: 0.7181 (Simulation time: 00 hr 27 min 26 sec)
Heartbeat CPU 0 instructions: 190001031 cycles: 206721246 heartbeat IPC: 0.4076 cumulative IPC: 0.7162 (Simulation time: 00 hr 27 min 33 sec)
Heartbeat CPU 0 instructions: 190501032 cycles: 208253573 heartbeat IPC: 0.3263 cumulative IPC: 0.7131 (Simulation time: 00 hr 27 min 42 sec)
Heartbeat CPU 0 instructions: 191001032 cycles: 209361029 heartbeat IPC: 0.4515 cumulative IPC: 0.7117 (Simulation time: 00 hr 27 min 49 sec)
Heartbeat CPU 0 instructions: 191501039 cycles: 211125114 heartbeat IPC: 0.2834 cumulative IPC: 0.7079 (Simulation time: 00 hr 28 min 00 sec)
Heartbeat CPU 0 instructions: 192001041 cycles: 212734781 heartbeat IPC: 0.3106 cumulative IPC: 0.7047 (Simulation time: 00 hr 28 min 10 sec)
Heartbeat CPU 0 instructions: 192501041 cycles: 214866605 heartbeat IPC: 0.2345 cumulative IPC: 0.6998 (Simulation time: 00 hr 28 min 24 sec)
Heartbeat CPU 0 instructions: 193001046 cycles: 215499714 heartbeat IPC: 0.7898 cumulative IPC: 0.7001 (Simulation time: 00 hr 28 min 29 sec)
Heartbeat CPU 0 instructions: 193501052 cycles: 216080771 heartbeat IPC: 0.8605 cumulative IPC: 0.7005 (Simulation time: 00 hr 28 min 34 sec)
Heartbeat CPU 0 instructions: 194001055 cycles: 216977628 heartbeat IPC: 0.5575 cumulative IPC: 0.6999 (Simulation time: 00 hr 28 min 40 sec)
Heartbeat CPU 0 instructions: 194501056 cycles: 218178799 heartbeat IPC: 0.4163 cumulative IPC: 0.6983 (Simulation time: 00 hr 28 min 48 sec)
Heartbeat CPU 0 instructions: 195001062 cycles: 218949445 heartbeat IPC: 0.6488 cumulative IPC: 0.6981 (Simulation time: 00 hr 28 min 53 sec)
Heartbeat CPU 0 instructions: 195501062 cycles: 219683069 heartbeat IPC: 0.6815 cumulative IPC: 0.698 (Simulation time: 00 hr 28 min 59 sec)
Heartbeat CPU 0 instructions: 196001067 cycles: 220334934 heartbeat IPC: 0.767 cumulative IPC: 0.6982 (Simulation time: 00 hr 29 min 04 sec)
Heartbeat CPU 0 instructions: 196501067 cycles: 221060607 heartbeat IPC: 0.689 cumulative IPC: 0.6982 (Simulation time: 00 hr 29 min 10 sec)
Heartbeat CPU 0 instructions: 197001074 cycles: 221625316 heartbeat IPC: 0.8854 cumulative IPC: 0.6987 (Simulation time: 00 hr 29 min 14 sec)
Heartbeat CPU 0 instructions: 197501080 cycles: 222294899 heartbeat IPC: 0.7467 cumulative IPC: 0.6989 (Simulation time: 00 hr 29 min 20 sec)
Heartbeat CPU 0 instructions: 198001081 cycles: 222978532 heartbeat IPC: 0.7314 cumulative IPC: 0.699 (Simulation time: 00 hr 29 min 25 sec)
Heartbeat CPU 0 instructions: 198501083 cycles: 224470497 heartbeat IPC: 0.3351 cumulative IPC: 0.6964 (Simulation time: 00 hr 29 min 34 sec)
Heartbeat CPU 0 instructions: 199001086 cycles: 225383372 heartbeat IPC: 0.5477 cumulative IPC: 0.6958 (Simulation time: 00 hr 29 min 40 sec)
Heartbeat CPU 0 instructions: 199501086 cycles: 226585288 heartbeat IPC: 0.416 cumulative IPC: 0.6942 (Simulation time: 00 hr 29 min 47 sec)
Heartbeat CPU 0 instructions: 200001088 cycles: 227872907 heartbeat IPC: 0.3883 cumulative IPC: 0.6924 (Simulation time: 00 hr 29 min 57 sec)
Heartbeat CPU 0 instructions: 200501090 cycles: 228873473 heartbeat IPC: 0.4997 cumulative IPC: 0.6915 (Simulation time: 00 hr 30 min 05 sec)
Heartbeat CPU 0 instructions: 201001096 cycles: 229544182 heartbeat IPC: 0.7455 cumulative IPC: 0.6917 (Simulation time: 00 hr 30 min 11 sec)
Heartbeat CPU 0 instructions: 201501103 cycles: 230640760 heartbeat IPC: 0.456 cumulative IPC: 0.6905 (Simulation time: 00 hr 30 min 18 sec)
Heartbeat CPU 0 instructions: 202001106 cycles: 231057456 heartbeat IPC: 1.2 cumulative IPC: 0.6915 (Simulation time: 00 hr 30 min 22 sec)
Heartbeat CPU 0 instructions: 202501106 cycles: 233286269 heartbeat IPC: 0.2243 cumulative IPC: 0.6868 (Simulation time: 00 hr 30 min 37 sec)
Heartbeat CPU 0 instructions: 203001106 cycles: 234588501 heartbeat IPC: 0.384 cumulative IPC: 0.685 (Simulation time: 00 hr 30 min 45 sec)
Heartbeat CPU 0 instructions: 203501106 cycles: 234832278 heartbeat IPC: 2.051 cumulative IPC: 0.6865 (Simulation time: 00 hr 30 min 47 sec)
Heartbeat CPU 0 instructions: 204001107 cycles: 235074884 heartbeat IPC: 2.061 cumulative IPC: 0.688 (Simulation time: 00 hr 30 min 49 sec)
Heartbeat CPU 0 instructions: 204501107 cycles: 235283001 heartbeat IPC: 2.402 cumulative IPC: 0.6896 (Simulation time: 00 hr 30 min 51 sec)
Heartbeat CPU 0 instructions: 205001114 cycles: 235514445 heartbeat IPC: 2.16 cumulative IPC: 0.6911 (Simulation time: 00 hr 30 min 54 sec)
Heartbeat CPU 0 instructions: 205501116 cycles: 236106410 heartbeat IPC: 0.8446 cumulative IPC: 0.6915 (Simulation time: 00 hr 30 min 58 sec)
Heartbeat CPU 0 instructions: 206001116 cycles: 237049315 heartbeat IPC: 0.5303 cumulative IPC: 0.6908 (Simulation time: 00 hr 31 min 03 sec)
Heartbeat CPU 0 instructions: 206501118 cycles: 237469713 heartbeat IPC: 1.189 cumulative IPC: 0.6918 (Simulation time: 00 hr 31 min 07 sec)
Heartbeat CPU 0 instructions: 207001121 cycles: 238793876 heartbeat IPC: 0.3776 cumulative IPC: 0.6899 (Simulation time: 00 hr 31 min 15 sec)
Heartbeat CPU 0 instructions: 207501122 cycles: 239943244 heartbeat IPC: 0.435 cumulative IPC: 0.6887 (Simulation time: 00 hr 31 min 23 sec)
Heartbeat CPU 0 instructions: 208001124 cycles: 241115645 heartbeat IPC: 0.4265 cumulative IPC: 0.6873 (Simulation time: 00 hr 31 min 31 sec)
Heartbeat CPU 0 instructions: 208501124 cycles: 243920197 heartbeat IPC: 0.1783 cumulative IPC: 0.6812 (Simulation time: 00 hr 31 min 47 sec)
Heartbeat CPU 0 instructions: 209001129 cycles: 245866521 heartbeat IPC: 0.2569 cumulative IPC: 0.6777 (Simulation time: 00 hr 32 min 03 sec)
Heartbeat CPU 0 instructions: 209501133 cycles: 247323596 heartbeat IPC: 0.3432 cumulative IPC: 0.6756 (Simulation time: 00 hr 32 min 16 sec)
Heartbeat CPU 0 instructions: 210001133 cycles: 247680410 heartbeat IPC: 1.401 cumulative IPC: 0.6767 (Simulation time: 00 hr 32 min 19 sec)
Heartbeat CPU 0 instructions: 210501139 cycles: 248032401 heartbeat IPC: 1.421 cumulative IPC: 0.6778 (Simulation time: 00 hr 32 min 23 sec)
Heartbeat CPU 0 instructions: 211001141 cycles: 248411620 heartbeat IPC: 1.319 cumulative IPC: 0.6788 (Simulation time: 00 hr 32 min 26 sec)
Heartbeat CPU 0 instructions: 211501146 cycles: 248749373 heartbeat IPC: 1.48 cumulative IPC: 0.68 (Simulation time: 00 hr 32 min 29 sec)
Heartbeat CPU 0 instructions: 212001146 cycles: 249566584 heartbeat IPC: 0.6118 cumulative IPC: 0.6797 (Simulation time: 00 hr 32 min 35 sec)
Heartbeat CPU 0 instructions: 212501149 cycles: 250235737 heartbeat IPC: 0.7472 cumulative IPC: 0.6799 (Simulation time: 00 hr 32 min 40 sec)
Heartbeat CPU 0 instructions: 213001150 cycles: 251617137 heartbeat IPC: 0.362 cumulative IPC: 0.6781 (Simulation time: 00 hr 32 min 48 sec)
Heartbeat CPU 0 instructions: 213501150 cycles: 253112967 heartbeat IPC: 0.3343 cumulative IPC: 0.676 (Simulation time: 00 hr 32 min 57 sec)
Heartbeat CPU 0 instructions: 214001150 cycles: 254651725 heartbeat IPC: 0.3249 cumulative IPC: 0.6737 (Simulation time: 00 hr 33 min 06 sec)
Heartbeat CPU 0 instructions: 214501153 cycles: 256064136 heartbeat IPC: 0.354 cumulative IPC: 0.6719 (Simulation time: 00 hr 33 min 14 sec)
Heartbeat CPU 0 instructions: 215001160 cycles: 258206693 heartbeat IPC: 0.2334 cumulative IPC: 0.6681 (Simulation time: 00 hr 33 min 26 sec)
Heartbeat CPU 0 instructions: 215501164 cycles: 259612267 heartbeat IPC: 0.3557 cumulative IPC: 0.6663 (Simulation time: 00 hr 33 min 35 sec)
Heartbeat CPU 0 instructions: 216001164 cycles: 260886124 heartbeat IPC: 0.3925 cumulative IPC: 0.6649 (Simulation time: 00 hr 33 min 43 sec)
Heartbeat CPU 0 instructions: 216501166 cycles: 264154742 heartbeat IPC: 0.153 cumulative IPC: 0.6583 (Simulation time: 00 hr 34 min 01 sec)
Heartbeat CPU 0 instructions: 217001169 cycles: 267159218 heartbeat IPC: 0.1664 cumulative IPC: 0.6525 (Simulation time: 00 hr 34 min 18 sec)
Heartbeat CPU 0 instructions: 217501170 cycles: 268816733 heartbeat IPC: 0.3017 cumulative IPC: 0.6503 (Simulation time: 00 hr 34 min 27 sec)
Heartbeat CPU 0 instructions: 218001171 cycles: 269276355 heartbeat IPC: 1.088 cumulative IPC: 0.6511 (Simulation time: 00 hr 34 min 32 sec)
Heartbeat CPU 0 instructions: 218501171 cycles: 269722651 heartbeat IPC: 1.12 cumulative IPC: 0.6519 (Simulation time: 00 hr 34 min 36 sec)
Heartbeat CPU 0 instructions: 219001172 cycles: 270165599 heartbeat IPC: 1.129 cumulative IPC: 0.6527 (Simulation time: 00 hr 34 min 40 sec)
Heartbeat CPU 0 instructions: 219501172 cycles: 270607356 heartbeat IPC: 1.132 cumulative IPC: 0.6535 (Simulation time: 00 hr 34 min 44 sec)
Heartbeat CPU 0 instructions: 220001178 cycles: 271048407 heartbeat IPC: 1.134 cumulative IPC: 0.6543 (Simulation time: 00 hr 34 min 48 sec)
Heartbeat CPU 0 instructions: 220501181 cycles: 271489881 heartbeat IPC: 1.133 cumulative IPC: 0.6551 (Simulation time: 00 hr 34 min 52 sec)
Heartbeat CPU 0 instructions: 221001181 cycles: 272960282 heartbeat IPC: 0.34 cumulative IPC: 0.6534 (Simulation time: 00 hr 35 min 06 sec)
Heartbeat CPU 0 instructions: 221501185 cycles: 273317262 heartbeat IPC: 1.401 cumulative IPC: 0.6544 (Simulation time: 00 hr 35 min 10 sec)
Heartbeat CPU 0 instructions: 222001191 cycles: 273666986 heartbeat IPC: 1.43 cumulative IPC: 0.6554 (Simulation time: 00 hr 35 min 14 sec)
Heartbeat CPU 0 instructions: 222501191 cycles: 274022903 heartbeat IPC: 1.405 cumulative IPC: 0.6564 (Simulation time: 00 hr 35 min 17 sec)
Heartbeat CPU 0 instructions: 223001191 cycles: 274868348 heartbeat IPC: 0.5914 cumulative IPC: 0.6562 (Simulation time: 00 hr 35 min 24 sec)
Heartbeat CPU 0 instructions: 223501192 cycles: 275785512 heartbeat IPC: 0.5452 cumulative IPC: 0.6558 (Simulation time: 00 hr 35 min 30 sec)
Heartbeat CPU 0 instructions: 224001192 cycles: 276448594 heartbeat IPC: 0.7541 cumulative IPC: 0.6561 (Simulation time: 00 hr 35 min 35 sec)
Heartbeat CPU 0 instructions: 224501192 cycles: 277029212 heartbeat IPC: 0.8612 cumulative IPC: 0.6565 (Simulation time: 00 hr 35 min 39 sec)
Heartbeat CPU 0 instructions: 225001194 cycles: 277676299 heartbeat IPC: 0.7727 cumulative IPC: 0.6568 (Simulation time: 00 hr 35 min 43 sec)
Heartbeat CPU 0 instructions: 225501194 cycles: 278681107 heartbeat IPC: 0.4976 cumulative IPC: 0.6562 (Simulation time: 00 hr 35 min 51 sec)
Heartbeat CPU 0 instructions: 226001195 cycles: 279742685 heartbeat IPC: 0.471 cumulative IPC: 0.6555 (Simulation time: 00 hr 35 min 58 sec)
Heartbeat CPU 0 instructions: 226501196 cycles: 280436733 heartbeat IPC: 0.7204 cumulative IPC: 0.6556 (Simulation time: 00 hr 36 min 03 sec)
Heartbeat CPU 0 instructions: 227001203 cycles: 281643237 heartbeat IPC: 0.4144 cumulative IPC: 0.6546 (Simulation time: 00 hr 36 min 13 sec)
Heartbeat CPU 0 instructions: 227501206 cycles: 282251714 heartbeat IPC: 0.8217 cumulative IPC: 0.6549 (Simulation time: 00 hr 36 min 18 sec)
Heartbeat CPU 0 instructions: 228001207 cycles: 283541071 heartbeat IPC: 0.3878 cumulative IPC: 0.6537 (Simulation time: 00 hr 36 min 26 sec)
Heartbeat CPU 0 instructions: 228501207 cycles: 283825582 heartbeat IPC: 1.757 cumulative IPC: 0.6548 (Simulation time: 00 hr 36 min 28 sec)
Heartbeat CPU 0 instructions: 229001208 cycles: 284078040 heartbeat IPC: 1.981 cumulative IPC: 0.6561 (Simulation time: 00 hr 36 min 30 sec)
Heartbeat CPU 0 instructions: 229501215 cycles: 284300031 heartbeat IPC: 2.252 cumulative IPC: 0.6574 (Simulation time: 00 hr 36 min 33 sec)
Heartbeat CPU 0 instructions: 230001221 cycles: 284527819 heartbeat IPC: 2.195 cumulative IPC: 0.6586 (Simulation time: 00 hr 36 min 35 sec)
Heartbeat CPU 0 instructions: 230501223 cycles: 284734574 heartbeat IPC: 2.418 cumulative IPC: 0.66 (Simulation time: 00 hr 36 min 37 sec)
Heartbeat CPU 0 instructions: 231001223 cycles: 284954477 heartbeat IPC: 2.274 cumulative IPC: 0.6613 (Simulation time: 00 hr 36 min 39 sec)
Heartbeat CPU 0 instructions: 231501226 cycles: 285171135 heartbeat IPC: 2.308 cumulative IPC: 0.6626 (Simulation time: 00 hr 36 min 41 sec)
Heartbeat CPU 0 instructions: 232001231 cycles: 285394980 heartbeat IPC: 2.234 cumulative IPC: 0.6639 (Simulation time: 00 hr 36 min 43 sec)
Heartbeat CPU 0 instructions: 232501237 cycles: 285611181 heartbeat IPC: 2.313 cumulative IPC: 0.6652 (Simulation time: 00 hr 36 min 45 sec)
Heartbeat CPU 0 instructions: 233001237 cycles: 285832704 heartbeat IPC: 2.257 cumulative IPC: 0.6664 (Simulation time: 00 hr 36 min 47 sec)
Heartbeat CPU 0 instructions: 233501243 cycles: 286045081 heartbeat IPC: 2.354 cumulative IPC: 0.6677 (Simulation time: 00 hr 36 min 50 sec)
Heartbeat CPU 0 instructions: 234001245 cycles: 286258808 heartbeat IPC: 2.339 cumulative IPC: 0.669 (Simulation time: 00 hr 36 min 52 sec)
Heartbeat CPU 0 instructions: 234501250 cycles: 286810059 heartbeat IPC: 0.907 cumulative IPC: 0.6695 (Simulation time: 00 hr 36 min 55 sec)
Heartbeat CPU 0 instructions: 235001251 cycles: 289695990 heartbeat IPC: 0.1733 cumulative IPC: 0.6644 (Simulation time: 00 hr 37 min 13 sec)
Heartbeat CPU 0 instructions: 235501252 cycles: 291364453 heartbeat IPC: 0.2997 cumulative IPC: 0.6622 (Simulation time: 00 hr 37 min 22 sec)
Heartbeat CPU 0 instructions: 236001255 cycles: 292718421 heartbeat IPC: 0.3693 cumulative IPC: 0.6608 (Simulation time: 00 hr 37 min 30 sec)
Heartbeat CPU 0 instructions: 236501256 cycles: 293902214 heartbeat IPC: 0.4224 cumulative IPC: 0.6598 (Simulation time: 00 hr 37 min 37 sec)
Heartbeat CPU 0 instructions: 237001257 cycles: 294524243 heartbeat IPC: 0.8038 cumulative IPC: 0.6601 (Simulation time: 00 hr 37 min 41 sec)
Heartbeat CPU 0 instructions: 237501259 cycles: 296440838 heartbeat IPC: 0.2609 cumulative IPC: 0.6574 (Simulation time: 00 hr 37 min 52 sec)
Heartbeat CPU 0 instructions: 238001259 cycles: 300287374 heartbeat IPC: 0.13 cumulative IPC: 0.6504 (Simulation time: 00 hr 38 min 22 sec)
Heartbeat CPU 0 instructions: 238501264 cycles: 301058447 heartbeat IPC: 0.6485 cumulative IPC: 0.6504 (Simulation time: 00 hr 38 min 28 sec)
Heartbeat CPU 0 instructions: 239001264 cycles: 301710921 heartbeat IPC: 0.7663 cumulative IPC: 0.6507 (Simulation time: 00 hr 38 min 33 sec)
Heartbeat CPU 0 instructions: 239501268 cycles: 302362691 heartbeat IPC: 0.7671 cumulative IPC: 0.6509 (Simulation time: 00 hr 38 min 38 sec)
Heartbeat CPU 0 instructions: 240001274 cycles: 303055306 heartbeat IPC: 0.7219 cumulative IPC: 0.6511 (Simulation time: 00 hr 38 min 44 sec)
Heartbeat CPU 0 instructions: 240501275 cycles: 303777669 heartbeat IPC: 0.6922 cumulative IPC: 0.6512 (Simulation time: 00 hr 38 min 50 sec)
Heartbeat CPU 0 instructions: 241001280 cycles: 304971618 heartbeat IPC: 0.4188 cumulative IPC: 0.6502 (Simulation time: 00 hr 39 min 01 sec)
Heartbeat CPU 0 instructions: 241501282 cycles: 307406879 heartbeat IPC: 0.2053 cumulative IPC: 0.6466 (Simulation time: 00 hr 39 min 18 sec)
Heartbeat CPU 0 instructions: 242001284 cycles: 308106844 heartbeat IPC: 0.7143 cumulative IPC: 0.6467 (Simulation time: 00 hr 39 min 24 sec)
Heartbeat CPU 0 instructions: 242501284 cycles: 308735223 heartbeat IPC: 0.7957 cumulative IPC: 0.6471 (Simulation time: 00 hr 39 min 29 sec)
Heartbeat CPU 0 instructions: 243001285 cycles: 309355004 heartbeat IPC: 0.8067 cumulative IPC: 0.6474 (Simulation time: 00 hr 39 min 34 sec)
Heartbeat CPU 0 instructions: 243501287 cycles: 309954244 heartbeat IPC: 0.8344 cumulative IPC: 0.6478 (Simulation time: 00 hr 39 min 40 sec)
Heartbeat CPU 0 instructions: 244001292 cycles: 310607035 heartbeat IPC: 0.7659 cumulative IPC: 0.648 (Simulation time: 00 hr 39 min 45 sec)
Heartbeat CPU 0 instructions: 244501297 cycles: 311250816 heartbeat IPC: 0.7767 cumulative IPC: 0.6483 (Simulation time: 00 hr 39 min 51 sec)
Heartbeat CPU 0 instructions: 245001298 cycles: 312477193 heartbeat IPC: 0.4077 cumulative IPC: 0.6473 (Simulation time: 00 hr 40 min 00 sec)
Heartbeat CPU 0 instructions: 245501303 cycles: 313261113 heartbeat IPC: 0.6378 cumulative IPC: 0.6473 (Simulation time: 00 hr 40 min 06 sec)
Heartbeat CPU 0 instructions: 246001306 cycles: 313930256 heartbeat IPC: 0.7472 cumulative IPC: 0.6475 (Simulation time: 00 hr 40 min 12 sec)
Heartbeat CPU 0 instructions: 246501312 cycles: 314615304 heartbeat IPC: 0.7299 cumulative IPC: 0.6477 (Simulation time: 00 hr 40 min 17 sec)
Heartbeat CPU 0 instructions: 247001313 cycles: 315256358 heartbeat IPC: 0.78 cumulative IPC: 0.648 (Simulation time: 00 hr 40 min 23 sec)
Heartbeat CPU 0 instructions: 247501320 cycles: 315938225 heartbeat IPC: 0.7333 cumulative IPC: 0.6482 (Simulation time: 00 hr 40 min 29 sec)
Heartbeat CPU 0 instructions: 248001324 cycles: 316595506 heartbeat IPC: 0.7607 cumulative IPC: 0.6484 (Simulation time: 00 hr 40 min 35 sec)
Heartbeat CPU 0 instructions: 248501325 cycles: 317213199 heartbeat IPC: 0.8095 cumulative IPC: 0.6487 (Simulation time: 00 hr 40 min 40 sec)
Heartbeat CPU 0 instructions: 249001328 cycles: 318045899 heartbeat IPC: 0.6005 cumulative IPC: 0.6486 (Simulation time: 00 hr 40 min 47 sec)
Heartbeat CPU 0 instructions: 249501331 cycles: 319220963 heartbeat IPC: 0.4255 cumulative IPC: 0.6478 (Simulation time: 00 hr 40 min 56 sec)
Simulation finished CPU 0 instructions: 200000007 cycles: 308693225 cumulative IPC: 0.6479 (Simulation time: 00 hr 41 min 01 sec)
Simulation complete CPU 0 instructions: 200000007 cycles: 308693225 cumulative IPC: 0.6479 (Simulation time: 00 hr 41 min 01 sec)

ChampSim completed all CPUs

=== Simulation ===
CPU 0 runs /local-ssd/ben/dpc4-traces/gtraces_v2/charlie_0003.champsim.gz

Region of Interest Statistics

CPU 0 cumulative IPC: 0.6479 instructions: 200000007 cycles: 308693225
CPU 0 Branch Prediction Accuracy: 94.89% MPKI: 11.91 Average ROB Occupancy at Mispredict: 41.06
Branch type MPKI
BRANCH_DIRECT_JUMP: 0.3264
BRANCH_INDIRECT: 0.3452
BRANCH_CONDITIONAL: 10.36
BRANCH_DIRECT_CALL: 0.2826
BRANCH_INDIRECT_CALL: 0.3201
BRANCH_RETURN: 0.2747

cpu0->cpu0_STLB TOTAL        ACCESS:    3274855 HIT:    2939193 MISS:     335662 MSHR_MERGE:          0
cpu0->cpu0_STLB LOAD         ACCESS:    3274855 HIT:    2939193 MISS:     335662 MSHR_MERGE:          0
cpu0->cpu0_STLB RFO          ACCESS:          0 HIT:          0 MISS:          0 MSHR_MERGE:          0
cpu0->cpu0_STLB PREFETCH     ACCESS:          0 HIT:          0 MISS:          0 MSHR_MERGE:          0
cpu0->cpu0_STLB WRITE        ACCESS:          0 HIT:          0 MISS:          0 MSHR_MERGE:          0
cpu0->cpu0_STLB TRANSLATION  ACCESS:          0 HIT:          0 MISS:          0 MSHR_MERGE:          0
cpu0->cpu0_STLB PREFETCH REQUESTED:          0 ISSUED:          0 USEFUL:          0 USELESS:          0
cpu0->cpu0_STLB AVERAGE MISS LATENCY: 161.2 cycles
cpu0->cpu0_L2C TOTAL        ACCESS:    6801698 HIT:    4907098 MISS:    1894600 MSHR_MERGE:          0
cpu0->cpu0_L2C LOAD         ACCESS:    5002780 HIT:    3706922 MISS:    1295858 MSHR_MERGE:          0
cpu0->cpu0_L2C RFO          ACCESS:     535250 HIT:      60837 MISS:     474413 MSHR_MERGE:          0
cpu0->cpu0_L2C PREFETCH     ACCESS:          0 HIT:          0 MISS:          0 MSHR_MERGE:          0
cpu0->cpu0_L2C WRITE        ACCESS:     977693 HIT:     977640 MISS:         53 MSHR_MERGE:          0
cpu0->cpu0_L2C TRANSLATION  ACCESS:     285975 HIT:     161699 MISS:     124276 MSHR_MERGE:          0
cpu0->cpu0_L2C PREFETCH REQUESTED:          0 ISSUED:          0 USEFUL:          0 USELESS:          0
cpu0->cpu0_L2C AVERAGE MISS LATENCY: 230.8 cycles
cpu0->cpu0_L1I TOTAL        ACCESS:   17318718 HIT:   16472354 MISS:     846364 MSHR_MERGE:     193247
cpu0->cpu0_L1I LOAD         ACCESS:   17318718 HIT:   16472354 MISS:     846364 MSHR_MERGE:     193247
cpu0->cpu0_L1I RFO          ACCESS:          0 HIT:          0 MISS:          0 MSHR_MERGE:          0
cpu0->cpu0_L1I PREFETCH     ACCESS:          0 HIT:          0 MISS:          0 MSHR_MERGE:          0
cpu0->cpu0_L1I WRITE        ACCESS:          0 HIT:          0 MISS:          0 MSHR_MERGE:          0
cpu0->cpu0_L1I TRANSLATION  ACCESS:          0 HIT:          0 MISS:          0 MSHR_MERGE:          0
cpu0->cpu0_L1I PREFETCH REQUESTED:          0 ISSUED:          0 USEFUL:          0 USELESS:          0
cpu0->cpu0_L1I AVERAGE MISS LATENCY: 96.26 cycles
cpu0->cpu0_L1D TOTAL        ACCESS:   48436619 HIT:   39801053 MISS:    8635566 MSHR_MERGE:    3464658
cpu0->cpu0_L1D LOAD         ACCESS:   31348887 HIT:   25016078 MISS:    6332809 MSHR_MERGE:    1983142
cpu0->cpu0_L1D RFO          ACCESS:          0 HIT:          0 MISS:          0 MSHR_MERGE:          0
cpu0->cpu0_L1D PREFETCH     ACCESS:          0 HIT:          0 MISS:          0 MSHR_MERGE:          0
cpu0->cpu0_L1D WRITE        ACCESS:   16257896 HIT:   14247588 MISS:    2010308 MSHR_MERGE:    1475042
cpu0->cpu0_L1D TRANSLATION  ACCESS:     829836 HIT:     537387 MISS:     292449 MSHR_MERGE:       6474
cpu0->cpu0_L1D PREFETCH REQUESTED:          0 ISSUED:          0 USEFUL:          0 USELESS:          0
cpu0->cpu0_L1D AVERAGE MISS LATENCY: 81.85 cycles
cpu0->cpu0_ITLB TOTAL        ACCESS:   13658832 HIT:   13568913 MISS:      89919 MSHR_MERGE:      36930
cpu0->cpu0_ITLB LOAD         ACCESS:   13658832 HIT:   13568913 MISS:      89919 MSHR_MERGE:      36930
cpu0->cpu0_ITLB RFO          ACCESS:          0 HIT:          0 MISS:          0 MSHR_MERGE:          0
cpu0->cpu0_ITLB PREFETCH     ACCESS:          0 HIT:          0 MISS:          0 MSHR_MERGE:          0
cpu0->cpu0_ITLB WRITE        ACCESS:          0 HIT:          0 MISS:          0 MSHR_MERGE:          0
cpu0->cpu0_ITLB TRANSLATION  ACCESS:          0 HIT:          0 MISS:          0 MSHR_MERGE:          0
cpu0->cpu0_ITLB PREFETCH REQUESTED:          0 ISSUED:          0 USEFUL:          0 USELESS:          0
cpu0->cpu0_ITLB AVERAGE MISS LATENCY: 57.76 cycles
cpu0->cpu0_DTLB TOTAL        ACCESS:   45865729 HIT:   41788169 MISS:    4077560 MSHR_MERGE:     855693
cpu0->cpu0_DTLB LOAD         ACCESS:   45865729 HIT:   41788169 MISS:    4077560 MSHR_MERGE:     855693
cpu0->cpu0_DTLB RFO          ACCESS:          0 HIT:          0 MISS:          0 MSHR_MERGE:          0
cpu0->cpu0_DTLB PREFETCH     ACCESS:          0 HIT:          0 MISS:          0 MSHR_MERGE:          0
cpu0->cpu0_DTLB WRITE        ACCESS:          0 HIT:          0 MISS:          0 MSHR_MERGE:          0
cpu0->cpu0_DTLB TRANSLATION  ACCESS:          0 HIT:          0 MISS:          0 MSHR_MERGE:          0
cpu0->cpu0_DTLB PREFETCH REQUESTED:          0 ISSUED:          0 USEFUL:          0 USELESS:          0
cpu0->cpu0_DTLB AVERAGE MISS LATENCY: 21.04 cycles
cpu0->LLC TOTAL        ACCESS:    2734346 HIT:     406230 MISS:    2328116 MSHR_MERGE:          0
cpu0->LLC LOAD         ACCESS:    1295858 HIT:     179067 MISS:    1116791 MSHR_MERGE:          0
cpu0->LLC RFO          ACCESS:     474413 HIT:       5799 MISS:     468614 MSHR_MERGE:          0
cpu0->LLC PREFETCH     ACCESS:          0 HIT:          0 MISS:          0 MSHR_MERGE:          0
cpu0->LLC WRITE        ACCESS:     839799 HIT:     212267 MISS:     627532 MSHR_MERGE:          0
cpu0->LLC TRANSLATION  ACCESS:     124276 HIT:       9097 MISS:     115179 MSHR_MERGE:          0
cpu0->LLC PREFETCH REQUESTED:          0 ISSUED:          0 USEFUL:          0 USELESS:          0
cpu0->LLC AVERAGE MISS LATENCY: 173.8 cycles

DRAM Statistics

Channel 0 RQ ROW_BUFFER_HIT:      44147
  ROW_BUFFER_MISS:    1656117
  AVG DBUS CONGESTED CYCLE: 25.31
Channel 0 WQ ROW_BUFFER_HIT:     177265
  ROW_BUFFER_MISS:     522460
  FULL:        156
Channel 0 REFRESHES ISSUED:      25723
