[VMEM] WARNING: physical memory size is smaller than virtual memory size.

*** ChampSim Multicore Out-of-Order Simulator ***
Warmup Instructions: 50000000
Simulation Instructions: 200000000
Number of CPUs: 1
Page size: 4096
Core 0: /local-ssd/ben/dpc4-traces/gtraces_v2/sierra.a.3_0001.champsim.gz
Off-chip DRAM Size: 64 GiB Channels: 1 Width: 64-bit Data Rate: 4807 MT/s
[BTB] WARNING: target of return is a lower address than the corresponding call. This is usually a problem with your trace.
[BTB] WARNING: target of return is a lower address than the corresponding call. This is usually a problem with your trace.
[BTB] WARNING: target of return is a lower address than the corresponding call. This is usually a problem with your trace.
[BTB] WARNING: target of return is a lower address than the corresponding call. This is usually a problem with your trace.
[BTB] WARNING: target of return is a lower address than the corresponding call. This is usually a problem with your trace.
[BTB] WARNING: target of return is a lower address than the corresponding call. This is usually a problem with your trace.
[BTB] WARNING: target of return is a lower address than the corresponding call. This is usually a problem with your trace.
[BTB] WARNING: target of return is a lower address than the corresponding call. This is usually a problem with your trace.
[BTB] WARNING: target of return is a lower address than the corresponding call. This is usually a problem with your trace.
[BTB] WARNING: target of return is a lower address than the corresponding call. This is usually a problem with your trace.
Heartbeat CPU 0 instructions: 500003 cycles: 295836 heartbeat IPC: 1.69 cumulative IPC: 1.69 (Simulation time: 00 hr 00 min 05 sec)
Heartbeat CPU 0 instructions: 1000003 cycles: 475034 heartbeat IPC: 2.79 cumulative IPC: 2.105 (Simulation time: 00 hr 00 min 08 sec)
Heartbeat CPU 0 instructions: 1500005 cycles: 607413 heartbeat IPC: 3.777 cumulative IPC: 2.469 (Simulation time: 00 hr 00 min 10 sec)
Heartbeat CPU 0 instructions: 2000006 cycles: 740409 heartbeat IPC: 3.76 cumulative IPC: 2.701 (Simulation time: 00 hr 00 min 12 sec)
Heartbeat CPU 0 instructions: 2500009 cycles: 857182 heartbeat IPC: 4.282 cumulative IPC: 2.917 (Simulation time: 00 hr 00 min 14 sec)
Heartbeat CPU 0 instructions: 3000014 cycles: 975901 heartbeat IPC: 4.212 cumulative IPC: 3.074 (Simulation time: 00 hr 00 min 16 sec)
Heartbeat CPU 0 instructions: 3500019 cycles: 1091489 heartbeat IPC: 4.326 cumulative IPC: 3.207 (Simulation time: 00 hr 00 min 18 sec)
Heartbeat CPU 0 instructions: 4000025 cycles: 1207722 heartbeat IPC: 4.302 cumulative IPC: 3.312 (Simulation time: 00 hr 00 min 20 sec)
Heartbeat CPU 0 instructions: 4500025 cycles: 1334531 heartbeat IPC: 3.943 cumulative IPC: 3.372 (Simulation time: 00 hr 00 min 22 sec)
Heartbeat CPU 0 instructions: 5000031 cycles: 1452527 heartbeat IPC: 4.237 cumulative IPC: 3.442 (Simulation time: 00 hr 00 min 24 sec)
Heartbeat CPU 0 instructions: 5500032 cycles: 1566248 heartbeat IPC: 4.397 cumulative IPC: 3.512 (Simulation time: 00 hr 00 min 25 sec)
Heartbeat CPU 0 instructions: 6000039 cycles: 1681478 heartbeat IPC: 4.339 cumulative IPC: 3.568 (Simulation time: 00 hr 00 min 27 sec)
Heartbeat CPU 0 instructions: 6500045 cycles: 1797777 heartbeat IPC: 4.299 cumulative IPC: 3.616 (Simulation time: 00 hr 00 min 29 sec)
Heartbeat CPU 0 instructions: 7000049 cycles: 1917175 heartbeat IPC: 4.188 cumulative IPC: 3.651 (Simulation time: 00 hr 00 min 31 sec)
Heartbeat CPU 0 instructions: 7500051 cycles: 2027344 heartbeat IPC: 4.538 cumulative IPC: 3.699 (Simulation time: 00 hr 00 min 33 sec)
Heartbeat CPU 0 instructions: 8000055 cycles: 2143967 heartbeat IPC: 4.287 cumulative IPC: 3.731 (Simulation time: 00 hr 00 min 35 sec)
Heartbeat CPU 0 instructions: 8500061 cycles: 2258799 heartbeat IPC: 4.354 cumulative IPC: 3.763 (Simulation time: 00 hr 00 min 37 sec)
Heartbeat CPU 0 instructions: 9000063 cycles: 2368543 heartbeat IPC: 4.556 cumulative IPC: 3.8 (Simulation time: 00 hr 00 min 38 sec)
Heartbeat CPU 0 instructions: 9500069 cycles: 2484519 heartbeat IPC: 4.311 cumulative IPC: 3.824 (Simulation time: 00 hr 00 min 40 sec)
Heartbeat CPU 0 instructions: 10000071 cycles: 2597784 heartbeat IPC: 4.414 cumulative IPC: 3.849 (Simulation time: 00 hr 00 min 42 sec)
Heartbeat CPU 0 instructions: 10500078 cycles: 2712863 heartbeat IPC: 4.345 cumulative IPC: 3.87 (Simulation time: 00 hr 00 min 44 sec)
Heartbeat CPU 0 instructions: 11000079 cycles: 2906162 heartbeat IPC: 2.587 cumulative IPC: 3.785 (Simulation time: 00 hr 00 min 47 sec)
Heartbeat CPU 0 instructions: 11500081 cycles: 3088653 heartbeat IPC: 2.74 cumulative IPC: 3.723 (Simulation time: 00 hr 00 min 50 sec)
Heartbeat CPU 0 instructions: 12000087 cycles: 3245001 heartbeat IPC: 3.198 cumulative IPC: 3.698 (Simulation time: 00 hr 00 min 52 sec)
Heartbeat CPU 0 instructions: 12500088 cycles: 3422094 heartbeat IPC: 2.823 cumulative IPC: 3.653 (Simulation time: 00 hr 00 min 55 sec)
Heartbeat CPU 0 instructions: 13000090 cycles: 3580699 heartbeat IPC: 3.152 cumulative IPC: 3.631 (Simulation time: 00 hr 00 min 57 sec)
Heartbeat CPU 0 instructions: 13500096 cycles: 3722932 heartbeat IPC: 3.515 cumulative IPC: 3.626 (Simulation time: 00 hr 01 min 00 sec)
Heartbeat CPU 0 instructions: 14000099 cycles: 3868516 heartbeat IPC: 3.434 cumulative IPC: 3.619 (Simulation time: 00 hr 01 min 02 sec)
Heartbeat CPU 0 instructions: 14500101 cycles: 4002178 heartbeat IPC: 3.741 cumulative IPC: 3.623 (Simulation time: 00 hr 01 min 04 sec)
Heartbeat CPU 0 instructions: 15000103 cycles: 4198455 heartbeat IPC: 2.547 cumulative IPC: 3.573 (Simulation time: 00 hr 01 min 07 sec)
Heartbeat CPU 0 instructions: 15500107 cycles: 4342631 heartbeat IPC: 3.468 cumulative IPC: 3.569 (Simulation time: 00 hr 01 min 10 sec)
Heartbeat CPU 0 instructions: 16000110 cycles: 4474258 heartbeat IPC: 3.799 cumulative IPC: 3.576 (Simulation time: 00 hr 01 min 12 sec)
Heartbeat CPU 0 instructions: 16500114 cycles: 4621743 heartbeat IPC: 3.39 cumulative IPC: 3.57 (Simulation time: 00 hr 01 min 14 sec)
Heartbeat CPU 0 instructions: 17000121 cycles: 4786444 heartbeat IPC: 3.036 cumulative IPC: 3.552 (Simulation time: 00 hr 01 min 16 sec)
Heartbeat CPU 0 instructions: 17500128 cycles: 4936404 heartbeat IPC: 3.334 cumulative IPC: 3.545 (Simulation time: 00 hr 01 min 19 sec)
Heartbeat CPU 0 instructions: 18000133 cycles: 5079163 heartbeat IPC: 3.502 cumulative IPC: 3.544 (Simulation time: 00 hr 01 min 21 sec)
Heartbeat CPU 0 instructions: 18500138 cycles: 5210020 heartbeat IPC: 3.821 cumulative IPC: 3.551 (Simulation time: 00 hr 01 min 24 sec)
Heartbeat CPU 0 instructions: 19000139 cycles: 5338373 heartbeat IPC: 3.896 cumulative IPC: 3.559 (Simulation time: 00 hr 01 min 26 sec)
Heartbeat CPU 0 instructions: 19500139 cycles: 5468037 heartbeat IPC: 3.856 cumulative IPC: 3.566 (Simulation time: 00 hr 01 min 28 sec)
Heartbeat CPU 0 instructions: 20000140 cycles: 5622624 heartbeat IPC: 3.234 cumulative IPC: 3.557 (Simulation time: 00 hr 01 min 30 sec)
Heartbeat CPU 0 instructions: 20500147 cycles: 5764931 heartbeat IPC: 3.514 cumulative IPC: 3.556 (Simulation time: 00 hr 01 min 32 sec)
Heartbeat CPU 0 instructions: 21000152 cycles: 5899324 heartbeat IPC: 3.72 cumulative IPC: 3.56 (Simulation time: 00 hr 01 min 35 sec)
Heartbeat CPU 0 instructions: 21500159 cycles: 6024584 heartbeat IPC: 3.992 cumulative IPC: 3.569 (Simulation time: 00 hr 01 min 37 sec)
Heartbeat CPU 0 instructions: 22000162 cycles: 6148664 heartbeat IPC: 4.03 cumulative IPC: 3.578 (Simulation time: 00 hr 01 min 39 sec)
Heartbeat CPU 0 instructions: 22500169 cycles: 6274754 heartbeat IPC: 3.965 cumulative IPC: 3.586 (Simulation time: 00 hr 01 min 41 sec)
Heartbeat CPU 0 instructions: 23000175 cycles: 6396593 heartbeat IPC: 4.104 cumulative IPC: 3.596 (Simulation time: 00 hr 01 min 43 sec)
Heartbeat CPU 0 instructions: 23500175 cycles: 6515680 heartbeat IPC: 4.199 cumulative IPC: 3.607 (Simulation time: 00 hr 01 min 46 sec)
Heartbeat CPU 0 instructions: 24000175 cycles: 6645274 heartbeat IPC: 3.858 cumulative IPC: 3.612 (Simulation time: 00 hr 01 min 48 sec)
Heartbeat CPU 0 instructions: 24500180 cycles: 6777020 heartbeat IPC: 3.795 cumulative IPC: 3.615 (Simulation time: 00 hr 01 min 50 sec)
Heartbeat CPU 0 instructions: 25000180 cycles: 6915930 heartbeat IPC: 3.599 cumulative IPC: 3.615 (Simulation time: 00 hr 01 min 52 sec)
Heartbeat CPU 0 instructions: 25500187 cycles: 7071948 heartbeat IPC: 3.205 cumulative IPC: 3.606 (Simulation time: 00 hr 01 min 54 sec)
Heartbeat CPU 0 instructions: 26000187 cycles: 7220829 heartbeat IPC: 3.358 cumulative IPC: 3.601 (Simulation time: 00 hr 01 min 57 sec)
Heartbeat CPU 0 instructions: 26500187 cycles: 7363544 heartbeat IPC: 3.503 cumulative IPC: 3.599 (Simulation time: 00 hr 01 min 59 sec)
Heartbeat CPU 0 instructions: 27000191 cycles: 7489657 heartbeat IPC: 3.965 cumulative IPC: 3.605 (Simulation time: 00 hr 02 min 01 sec)
Heartbeat CPU 0 instructions: 27500195 cycles: 7603038 heartbeat IPC: 4.41 cumulative IPC: 3.617 (Simulation time: 00 hr 02 min 03 sec)
Heartbeat CPU 0 instructions: 28000202 cycles: 7716512 heartbeat IPC: 4.406 cumulative IPC: 3.629 (Simulation time: 00 hr 02 min 05 sec)
Heartbeat CPU 0 instructions: 28500203 cycles: 7830314 heartbeat IPC: 4.394 cumulative IPC: 3.64 (Simulation time: 00 hr 02 min 07 sec)
Heartbeat CPU 0 instructions: 29000208 cycles: 7942386 heartbeat IPC: 4.461 cumulative IPC: 3.651 (Simulation time: 00 hr 02 min 09 sec)
Heartbeat CPU 0 instructions: 29500212 cycles: 8057113 heartbeat IPC: 4.358 cumulative IPC: 3.661 (Simulation time: 00 hr 02 min 10 sec)
Heartbeat CPU 0 instructions: 30000218 cycles: 8168971 heartbeat IPC: 4.47 cumulative IPC: 3.672 (Simulation time: 00 hr 02 min 12 sec)
Heartbeat CPU 0 instructions: 30500225 cycles: 8284901 heartbeat IPC: 4.313 cumulative IPC: 3.681 (Simulation time: 00 hr 02 min 14 sec)
Heartbeat CPU 0 instructions: 31000229 cycles: 8397327 heartbeat IPC: 4.447 cumulative IPC: 3.692 (Simulation time: 00 hr 02 min 16 sec)
Heartbeat CPU 0 instructions: 31500232 cycles: 8510764 heartbeat IPC: 4.408 cumulative IPC: 3.701 (Simulation time: 00 hr 02 min 18 sec)
Heartbeat CPU 0 instructions: 32000233 cycles: 8622235 heartbeat IPC: 4.485 cumulative IPC: 3.711 (Simulation time: 00 hr 02 min 20 sec)
Heartbeat CPU 0 instructions: 32500233 cycles: 8734662 heartbeat IPC: 4.447 cumulative IPC: 3.721 (Simulation time: 00 hr 02 min 22 sec)
Heartbeat CPU 0 instructions: 33000240 cycles: 8847725 heartbeat IPC: 4.422 cumulative IPC: 3.73 (Simulation time: 00 hr 02 min 23 sec)
Heartbeat CPU 0 instructions: 33500241 cycles: 8963232 heartbeat IPC: 4.329 cumulative IPC: 3.738 (Simulation time: 00 hr 02 min 25 sec)
Heartbeat CPU 0 instructions: 34000242 cycles: 9083556 heartbeat IPC: 4.155 cumulative IPC: 3.743 (Simulation time: 00 hr 02 min 27 sec)
Heartbeat CPU 0 instructions: 34500243 cycles: 9200744 heartbeat IPC: 4.267 cumulative IPC: 3.75 (Simulation time: 00 hr 02 min 29 sec)
Heartbeat CPU 0 instructions: 35000245 cycles: 9314323 heartbeat IPC: 4.402 cumulative IPC: 3.758 (Simulation time: 00 hr 02 min 31 sec)
Heartbeat CPU 0 instructions: 35500248 cycles: 9430604 heartbeat IPC: 4.3 cumulative IPC: 3.764 (Simulation time: 00 hr 02 min 33 sec)
Heartbeat CPU 0 instructions: 36000251 cycles: 9547921 heartbeat IPC: 4.262 cumulative IPC: 3.77 (Simulation time: 00 hr 02 min 35 sec)
Heartbeat CPU 0 instructions: 36500256 cycles: 9660837 heartbeat IPC: 4.428 cumulative IPC: 3.778 (Simulation time: 00 hr 02 min 37 sec)
Heartbeat CPU 0 instructions: 37000260 cycles: 9787290 heartbeat IPC: 3.954 cumulative IPC: 3.78 (Simulation time: 00 hr 02 min 39 sec)
Heartbeat CPU 0 instructions: 37500260 cycles: 9900963 heartbeat IPC: 4.399 cumulative IPC: 3.788 (Simulation time: 00 hr 02 min 40 sec)
Heartbeat CPU 0 instructions: 38000265 cycles: 10013994 heartbeat IPC: 4.424 cumulative IPC: 3.795 (Simulation time: 00 hr 02 min 42 sec)
Heartbeat CPU 0 instructions: 38500265 cycles: 10125891 heartbeat IPC: 4.468 cumulative IPC: 3.802 (Simulation time: 00 hr 02 min 44 sec)
Heartbeat CPU 0 instructions: 39000268 cycles: 10239963 heartbeat IPC: 4.383 cumulative IPC: 3.809 (Simulation time: 00 hr 02 min 46 sec)
Heartbeat CPU 0 instructions: 39500271 cycles: 10356390 heartbeat IPC: 4.295 cumulative IPC: 3.814 (Simulation time: 00 hr 02 min 48 sec)
Heartbeat CPU 0 instructions: 40000273 cycles: 10467214 heartbeat IPC: 4.512 cumulative IPC: 3.821 (Simulation time: 00 hr 02 min 50 sec)
Heartbeat CPU 0 instructions: 40500275 cycles: 10579910 heartbeat IPC: 4.437 cumulative IPC: 3.828 (Simulation time: 00 hr 02 min 52 sec)
Heartbeat CPU 0 instructions: 41000277 cycles: 10692214 heartbeat IPC: 4.452 cumulative IPC: 3.835 (Simulation time: 00 hr 02 min 53 sec)
Heartbeat CPU 0 instructions: 41500280 cycles: 10804416 heartbeat IPC: 4.456 cumulative IPC: 3.841 (Simulation time: 00 hr 02 min 55 sec)
Heartbeat CPU 0 instructions: 42000287 cycles: 10914989 heartbeat IPC: 4.522 cumulative IPC: 3.848 (Simulation time: 00 hr 02 min 57 sec)
Heartbeat CPU 0 instructions: 42500287 cycles: 11029363 heartbeat IPC: 4.372 cumulative IPC: 3.853 (Simulation time: 00 hr 02 min 59 sec)
Heartbeat CPU 0 instructions: 43000289 cycles: 11144849 heartbeat IPC: 4.33 cumulative IPC: 3.858 (Simulation time: 00 hr 03 min 01 sec)
Heartbeat CPU 0 instructions: 43500289 cycles: 11260807 heartbeat IPC: 4.312 cumulative IPC: 3.863 (Simulation time: 00 hr 03 min 03 sec)
Heartbeat CPU 0 instructions: 44000296 cycles: 11370640 heartbeat IPC: 4.552 cumulative IPC: 3.87 (Simulation time: 00 hr 03 min 04 sec)
Heartbeat CPU 0 instructions: 44500301 cycles: 11539017 heartbeat IPC: 2.97 cumulative IPC: 3.857 (Simulation time: 00 hr 03 min 07 sec)
Heartbeat CPU 0 instructions: 45000305 cycles: 11713680 heartbeat IPC: 2.863 cumulative IPC: 3.842 (Simulation time: 00 hr 03 min 10 sec)
Heartbeat CPU 0 instructions: 45500309 cycles: 11863693 heartbeat IPC: 3.333 cumulative IPC: 3.835 (Simulation time: 00 hr 03 min 12 sec)
Heartbeat CPU 0 instructions: 46000312 cycles: 12009418 heartbeat IPC: 3.431 cumulative IPC: 3.83 (Simulation time: 00 hr 03 min 15 sec)
Heartbeat CPU 0 instructions: 46500315 cycles: 12157476 heartbeat IPC: 3.377 cumulative IPC: 3.825 (Simulation time: 00 hr 03 min 17 sec)
Heartbeat CPU 0 instructions: 47000320 cycles: 12314820 heartbeat IPC: 3.178 cumulative IPC: 3.817 (Simulation time: 00 hr 03 min 20 sec)
Heartbeat CPU 0 instructions: 47500325 cycles: 12471287 heartbeat IPC: 3.196 cumulative IPC: 3.809 (Simulation time: 00 hr 03 min 22 sec)
Heartbeat CPU 0 instructions: 48000325 cycles: 12626937 heartbeat IPC: 3.212 cumulative IPC: 3.801 (Simulation time: 00 hr 03 min 25 sec)
Heartbeat CPU 0 instructions: 48500329 cycles: 12771479 heartbeat IPC: 3.459 cumulative IPC: 3.798 (Simulation time: 00 hr 03 min 27 sec)
Heartbeat CPU 0 instructions: 49000331 cycles: 12932833 heartbeat IPC: 3.099 cumulative IPC: 3.789 (Simulation time: 00 hr 03 min 30 sec)
Heartbeat CPU 0 instructions: 49500335 cycles: 13074817 heartbeat IPC: 3.522 cumulative IPC: 3.786 (Simulation time: 00 hr 03 min 32 sec)
Warmup finished CPU 0 instructions: 50000000 cycles: 13204838 cumulative IPC: 3.786 (Simulation time: 00 hr 03 min 34 sec)
Warmup complete CPU 0 instructions: 50000000 cycles: 13204838 cumulative IPC: 3.786 (Simulation time: 00 hr 03 min 34 sec)
Heartbeat CPU 0 instructions: 50000342 cycles: 13205041 heartbeat IPC: 3.84 cumulative IPC: 1.685 (Simulation time: 00 hr 03 min 34 sec)
Heartbeat CPU 0 instructions: 50500344 cycles: 14216740 heartbeat IPC: 0.4942 cumulative IPC: 0.4945 (Simulation time: 00 hr 03 min 41 sec)
Heartbeat CPU 0 instructions: 51000349 cycles: 15227857 heartbeat IPC: 0.4945 cumulative IPC: 0.4945 (Simulation time: 00 hr 03 min 48 sec)
Heartbeat CPU 0 instructions: 51500352 cycles: 15689123 heartbeat IPC: 1.084 cumulative IPC: 0.6039 (Simulation time: 00 hr 03 min 52 sec)
Heartbeat CPU 0 instructions: 52000352 cycles: 16195272 heartbeat IPC: 0.9879 cumulative IPC: 0.6689 (Simulation time: 00 hr 03 min 56 sec)
Heartbeat CPU 0 instructions: 52500352 cycles: 17320743 heartbeat IPC: 0.4443 cumulative IPC: 0.6075 (Simulation time: 00 hr 04 min 03 sec)
Heartbeat CPU 0 instructions: 53000352 cycles: 19122184 heartbeat IPC: 0.2776 cumulative IPC: 0.507 (Simulation time: 00 hr 04 min 15 sec)
Heartbeat CPU 0 instructions: 53500355 cycles: 20099168 heartbeat IPC: 0.5118 cumulative IPC: 0.5077 (Simulation time: 00 hr 04 min 22 sec)
Heartbeat CPU 0 instructions: 54000359 cycles: 20975497 heartbeat IPC: 0.5706 cumulative IPC: 0.5148 (Simulation time: 00 hr 04 min 28 sec)
Heartbeat CPU 0 instructions: 54500361 cycles: 22324248 heartbeat IPC: 0.3707 cumulative IPC: 0.4935 (Simulation time: 00 hr 04 min 37 sec)
Heartbeat CPU 0 instructions: 55000362 cycles: 23475925 heartbeat IPC: 0.4342 cumulative IPC: 0.4868 (Simulation time: 00 hr 04 min 44 sec)
Heartbeat CPU 0 instructions: 55500368 cycles: 24186232 heartbeat IPC: 0.7039 cumulative IPC: 0.5009 (Simulation time: 00 hr 04 min 50 sec)
Heartbeat CPU 0 instructions: 56000373 cycles: 26361588 heartbeat IPC: 0.2298 cumulative IPC: 0.4561 (Simulation time: 00 hr 05 min 03 sec)
Heartbeat CPU 0 instructions: 56500374 cycles: 28395133 heartbeat IPC: 0.2459 cumulative IPC: 0.4279 (Simulation time: 00 hr 05 min 15 sec)
Heartbeat CPU 0 instructions: 57000377 cycles: 30237333 heartbeat IPC: 0.2714 cumulative IPC: 0.411 (Simulation time: 00 hr 05 min 27 sec)
Heartbeat CPU 0 instructions: 57500380 cycles: 31835475 heartbeat IPC: 0.3129 cumulative IPC: 0.4026 (Simulation time: 00 hr 05 min 36 sec)
Heartbeat CPU 0 instructions: 58000384 cycles: 32444616 heartbeat IPC: 0.8208 cumulative IPC: 0.4158 (Simulation time: 00 hr 05 min 41 sec)
Heartbeat CPU 0 instructions: 58500384 cycles: 33176482 heartbeat IPC: 0.6832 cumulative IPC: 0.4256 (Simulation time: 00 hr 05 min 46 sec)
Heartbeat CPU 0 instructions: 59000385 cycles: 33526674 heartbeat IPC: 1.428 cumulative IPC: 0.4429 (Simulation time: 00 hr 05 min 49 sec)
Heartbeat CPU 0 instructions: 59500386 cycles: 33826901 heartbeat IPC: 1.665 cumulative IPC: 0.4607 (Simulation time: 00 hr 05 min 52 sec)
Heartbeat CPU 0 instructions: 60000386 cycles: 34113692 heartbeat IPC: 1.743 cumulative IPC: 0.4783 (Simulation time: 00 hr 05 min 56 sec)
Heartbeat CPU 0 instructions: 60500386 cycles: 36429406 heartbeat IPC: 0.2159 cumulative IPC: 0.4521 (Simulation time: 00 hr 06 min 09 sec)
Heartbeat CPU 0 instructions: 61000387 cycles: 38399703 heartbeat IPC: 0.2538 cumulative IPC: 0.4366 (Simulation time: 00 hr 06 min 22 sec)
Heartbeat CPU 0 instructions: 61500394 cycles: 40977170 heartbeat IPC: 0.194 cumulative IPC: 0.4141 (Simulation time: 00 hr 06 min 37 sec)
Heartbeat CPU 0 instructions: 62000394 cycles: 42569982 heartbeat IPC: 0.3139 cumulative IPC: 0.4087 (Simulation time: 00 hr 06 min 47 sec)
Heartbeat CPU 0 instructions: 62500400 cycles: 43833232 heartbeat IPC: 0.3958 cumulative IPC: 0.4081 (Simulation time: 00 hr 06 min 55 sec)
Heartbeat CPU 0 instructions: 63000403 cycles: 44759496 heartbeat IPC: 0.5398 cumulative IPC: 0.412 (Simulation time: 00 hr 07 min 02 sec)
Heartbeat CPU 0 instructions: 63500405 cycles: 46205246 heartbeat IPC: 0.3458 cumulative IPC: 0.4091 (Simulation time: 00 hr 07 min 11 sec)
Heartbeat CPU 0 instructions: 64000409 cycles: 48244788 heartbeat IPC: 0.2452 cumulative IPC: 0.3996 (Simulation time: 00 hr 07 min 23 sec)
Heartbeat CPU 0 instructions: 64500409 cycles: 50031699 heartbeat IPC: 0.2798 cumulative IPC: 0.3937 (Simulation time: 00 hr 07 min 34 sec)
Heartbeat CPU 0 instructions: 65000409 cycles: 51150656 heartbeat IPC: 0.4468 cumulative IPC: 0.3953 (Simulation time: 00 hr 07 min 42 sec)
Heartbeat CPU 0 instructions: 65500411 cycles: 52463935 heartbeat IPC: 0.3807 cumulative IPC: 0.3948 (Simulation time: 00 hr 07 min 51 sec)
Heartbeat CPU 0 instructions: 66000418 cycles: 53625178 heartbeat IPC: 0.4306 cumulative IPC: 0.3959 (Simulation time: 00 hr 07 min 58 sec)
Heartbeat CPU 0 instructions: 66500422 cycles: 54602636 heartbeat IPC: 0.5115 cumulative IPC: 0.3986 (Simulation time: 00 hr 08 min 05 sec)
Heartbeat CPU 0 instructions: 67000423 cycles: 56089641 heartbeat IPC: 0.3362 cumulative IPC: 0.3964 (Simulation time: 00 hr 08 min 15 sec)
Heartbeat CPU 0 instructions: 67500423 cycles: 57387185 heartbeat IPC: 0.3853 cumulative IPC: 0.3961 (Simulation time: 00 hr 08 min 23 sec)
Heartbeat CPU 0 instructions: 68000423 cycles: 58145366 heartbeat IPC: 0.6595 cumulative IPC: 0.4005 (Simulation time: 00 hr 08 min 29 sec)
Heartbeat CPU 0 instructions: 68500426 cycles: 59062230 heartbeat IPC: 0.5453 cumulative IPC: 0.4034 (Simulation time: 00 hr 08 min 35 sec)
Heartbeat CPU 0 instructions: 69000427 cycles: 60213653 heartbeat IPC: 0.4342 cumulative IPC: 0.4042 (Simulation time: 00 hr 08 min 43 sec)
Heartbeat CPU 0 instructions: 69500431 cycles: 62223536 heartbeat IPC: 0.2488 cumulative IPC: 0.3978 (Simulation time: 00 hr 08 min 56 sec)
Heartbeat CPU 0 instructions: 70000432 cycles: 63575227 heartbeat IPC: 0.3699 cumulative IPC: 0.3971 (Simulation time: 00 hr 09 min 05 sec)
Heartbeat CPU 0 instructions: 70500434 cycles: 64506213 heartbeat IPC: 0.5371 cumulative IPC: 0.3996 (Simulation time: 00 hr 09 min 11 sec)
Heartbeat CPU 0 instructions: 71000436 cycles: 66324520 heartbeat IPC: 0.275 cumulative IPC: 0.3953 (Simulation time: 00 hr 09 min 22 sec)
Heartbeat CPU 0 instructions: 71500438 cycles: 67569774 heartbeat IPC: 0.4015 cumulative IPC: 0.3955 (Simulation time: 00 hr 09 min 31 sec)
Heartbeat CPU 0 instructions: 72000440 cycles: 68628357 heartbeat IPC: 0.4723 cumulative IPC: 0.397 (Simulation time: 00 hr 09 min 38 sec)
Heartbeat CPU 0 instructions: 72500440 cycles: 69006846 heartbeat IPC: 1.321 cumulative IPC: 0.4032 (Simulation time: 00 hr 09 min 41 sec)
Heartbeat CPU 0 instructions: 73000445 cycles: 69302565 heartbeat IPC: 1.691 cumulative IPC: 0.41 (Simulation time: 00 hr 09 min 44 sec)
Heartbeat CPU 0 instructions: 73500448 cycles: 69564905 heartbeat IPC: 1.906 cumulative IPC: 0.417 (Simulation time: 00 hr 09 min 47 sec)
Heartbeat CPU 0 instructions: 74000450 cycles: 69865171 heartbeat IPC: 1.665 cumulative IPC: 0.4236 (Simulation time: 00 hr 09 min 50 sec)
Heartbeat CPU 0 instructions: 74500453 cycles: 70166571 heartbeat IPC: 1.659 cumulative IPC: 0.4301 (Simulation time: 00 hr 09 min 53 sec)
Heartbeat CPU 0 instructions: 75000455 cycles: 70342783 heartbeat IPC: 2.838 cumulative IPC: 0.4375 (Simulation time: 00 hr 09 min 55 sec)
Heartbeat CPU 0 instructions: 75500457 cycles: 71469499 heartbeat IPC: 0.4438 cumulative IPC: 0.4377 (Simulation time: 00 hr 10 min 03 sec)
Heartbeat CPU 0 instructions: 76000461 cycles: 72874666 heartbeat IPC: 0.3558 cumulative IPC: 0.4357 (Simulation time: 00 hr 10 min 12 sec)
Heartbeat CPU 0 instructions: 76500465 cycles: 74394068 heartbeat IPC: 0.3291 cumulative IPC: 0.4331 (Simulation time: 00 hr 10 min 21 sec)
Heartbeat CPU 0 instructions: 77000468 cycles: 75571408 heartbeat IPC: 0.4247 cumulative IPC: 0.4329 (Simulation time: 00 hr 10 min 29 sec)
Heartbeat CPU 0 instructions: 77500470 cycles: 76703693 heartbeat IPC: 0.4416 cumulative IPC: 0.4331 (Simulation time: 00 hr 10 min 37 sec)
Heartbeat CPU 0 instructions: 78000471 cycles: 77297541 heartbeat IPC: 0.842 cumulative IPC: 0.4369 (Simulation time: 00 hr 10 min 41 sec)
Heartbeat CPU 0 instructions: 78500473 cycles: 78813611 heartbeat IPC: 0.3298 cumulative IPC: 0.4344 (Simulation time: 00 hr 10 min 51 sec)
Heartbeat CPU 0 instructions: 79000474 cycles: 80475785 heartbeat IPC: 0.3008 cumulative IPC: 0.4311 (Simulation time: 00 hr 11 min 01 sec)
Heartbeat CPU 0 instructions: 79500475 cycles: 82271455 heartbeat IPC: 0.2784 cumulative IPC: 0.4271 (Simulation time: 00 hr 11 min 13 sec)
Heartbeat CPU 0 instructions: 80000475 cycles: 84128104 heartbeat IPC: 0.2693 cumulative IPC: 0.423 (Simulation time: 00 hr 11 min 24 sec)
Heartbeat CPU 0 instructions: 80500475 cycles: 85696534 heartbeat IPC: 0.3188 cumulative IPC: 0.4207 (Simulation time: 00 hr 11 min 34 sec)
Heartbeat CPU 0 instructions: 81000475 cycles: 87117925 heartbeat IPC: 0.3518 cumulative IPC: 0.4194 (Simulation time: 00 hr 11 min 43 sec)
Heartbeat CPU 0 instructions: 81500475 cycles: 89233327 heartbeat IPC: 0.2364 cumulative IPC: 0.4143 (Simulation time: 00 hr 11 min 56 sec)
Heartbeat CPU 0 instructions: 82000477 cycles: 90555622 heartbeat IPC: 0.3781 cumulative IPC: 0.4137 (Simulation time: 00 hr 12 min 04 sec)
Heartbeat CPU 0 instructions: 82500477 cycles: 91240608 heartbeat IPC: 0.7299 cumulative IPC: 0.4165 (Simulation time: 00 hr 12 min 09 sec)
Heartbeat CPU 0 instructions: 83000479 cycles: 91680477 heartbeat IPC: 1.137 cumulative IPC: 0.4205 (Simulation time: 00 hr 12 min 12 sec)
Heartbeat CPU 0 instructions: 83500484 cycles: 91966705 heartbeat IPC: 1.747 cumulative IPC: 0.4253 (Simulation time: 00 hr 12 min 15 sec)
Heartbeat CPU 0 instructions: 84000489 cycles: 92258681 heartbeat IPC: 1.712 cumulative IPC: 0.4301 (Simulation time: 00 hr 12 min 18 sec)
Heartbeat CPU 0 instructions: 84500489 cycles: 93527613 heartbeat IPC: 0.394 cumulative IPC: 0.4295 (Simulation time: 00 hr 12 min 26 sec)
Heartbeat CPU 0 instructions: 85000489 cycles: 94549546 heartbeat IPC: 0.4893 cumulative IPC: 0.4303 (Simulation time: 00 hr 12 min 33 sec)
Heartbeat CPU 0 instructions: 85500490 cycles: 96262831 heartbeat IPC: 0.2918 cumulative IPC: 0.4274 (Simulation time: 00 hr 12 min 44 sec)
Heartbeat CPU 0 instructions: 86000490 cycles: 97601017 heartbeat IPC: 0.3736 cumulative IPC: 0.4266 (Simulation time: 00 hr 12 min 53 sec)
Heartbeat CPU 0 instructions: 86500490 cycles: 98855266 heartbeat IPC: 0.3986 cumulative IPC: 0.4262 (Simulation time: 00 hr 13 min 01 sec)
Heartbeat CPU 0 instructions: 87000490 cycles: 100589307 heartbeat IPC: 0.2883 cumulative IPC: 0.4234 (Simulation time: 00 hr 13 min 12 sec)
Heartbeat CPU 0 instructions: 87500495 cycles: 102203429 heartbeat IPC: 0.3098 cumulative IPC: 0.4214 (Simulation time: 00 hr 13 min 22 sec)
Heartbeat CPU 0 instructions: 88000496 cycles: 102563926 heartbeat IPC: 1.387 cumulative IPC: 0.4253 (Simulation time: 00 hr 13 min 25 sec)
Heartbeat CPU 0 instructions: 88500497 cycles: 102958566 heartbeat IPC: 1.267 cumulative IPC: 0.429 (Simulation time: 00 hr 13 min 28 sec)
Heartbeat CPU 0 instructions: 89000499 cycles: 103231609 heartbeat IPC: 1.831 cumulative IPC: 0.4332 (Simulation time: 00 hr 13 min 31 sec)
Heartbeat CPU 0 instructions: 89500501 cycles: 104094989 heartbeat IPC: 0.5791 cumulative IPC: 0.4346 (Simulation time: 00 hr 13 min 37 sec)
Heartbeat CPU 0 instructions: 90000501 cycles: 105142628 heartbeat IPC: 0.4773 cumulative IPC: 0.4351 (Simulation time: 00 hr 13 min 43 sec)
Heartbeat CPU 0 instructions: 90500502 cycles: 105400218 heartbeat IPC: 1.941 cumulative IPC: 0.4393 (Simulation time: 00 hr 13 min 46 sec)
Heartbeat CPU 0 instructions: 91000509 cycles: 105711735 heartbeat IPC: 1.605 cumulative IPC: 0.4432 (Simulation time: 00 hr 13 min 49 sec)
Heartbeat CPU 0 instructions: 91500510 cycles: 105976514 heartbeat IPC: 1.888 cumulative IPC: 0.4473 (Simulation time: 00 hr 13 min 51 sec)
Heartbeat CPU 0 instructions: 92000515 cycles: 106224680 heartbeat IPC: 2.015 cumulative IPC: 0.4515 (Simulation time: 00 hr 13 min 53 sec)
Heartbeat CPU 0 instructions: 92500520 cycles: 107590854 heartbeat IPC: 0.366 cumulative IPC: 0.4503 (Simulation time: 00 hr 14 min 02 sec)
Heartbeat CPU 0 instructions: 93000523 cycles: 108805030 heartbeat IPC: 0.4118 cumulative IPC: 0.4498 (Simulation time: 00 hr 14 min 10 sec)
Heartbeat CPU 0 instructions: 93500525 cycles: 109984945 heartbeat IPC: 0.4238 cumulative IPC: 0.4495 (Simulation time: 00 hr 14 min 18 sec)
Heartbeat CPU 0 instructions: 94000530 cycles: 111328020 heartbeat IPC: 0.3723 cumulative IPC: 0.4484 (Simulation time: 00 hr 14 min 26 sec)
Heartbeat CPU 0 instructions: 94500532 cycles: 113584784 heartbeat IPC: 0.2216 cumulative IPC: 0.4433 (Simulation time: 00 hr 14 min 40 sec)
Heartbeat CPU 0 instructions: 95000533 cycles: 114867590 heartbeat IPC: 0.3898 cumulative IPC: 0.4426 (Simulation time: 00 hr 14 min 49 sec)
Heartbeat CPU 0 instructions: 95500533 cycles: 116240225 heartbeat IPC: 0.3643 cumulative IPC: 0.4416 (Simulation time: 00 hr 14 min 57 sec)
Heartbeat CPU 0 instructions: 96000534 cycles: 117828721 heartbeat IPC: 0.3148 cumulative IPC: 0.4397 (Simulation time: 00 hr 15 min 07 sec)
Heartbeat CPU 0 instructions: 96500534 cycles: 120609013 heartbeat IPC: 0.1798 cumulative IPC: 0.4329 (Simulation time: 00 hr 15 min 24 sec)
Heartbeat CPU 0 instructions: 97000538 cycles: 122158785 heartbeat IPC: 0.3226 cumulative IPC: 0.4314 (Simulation time: 00 hr 15 min 34 sec)
Heartbeat CPU 0 instructions: 97500542 cycles: 123289788 heartbeat IPC: 0.4421 cumulative IPC: 0.4315 (Simulation time: 00 hr 15 min 42 sec)
Heartbeat CPU 0 instructions: 98000543 cycles: 124692220 heartbeat IPC: 0.3565 cumulative IPC: 0.4305 (Simulation time: 00 hr 15 min 51 sec)
Heartbeat CPU 0 instructions: 98500543 cycles: 126915009 heartbeat IPC: 0.2249 cumulative IPC: 0.4265 (Simulation time: 00 hr 16 min 05 sec)
Heartbeat CPU 0 instructions: 99000548 cycles: 128260982 heartbeat IPC: 0.3715 cumulative IPC: 0.4259 (Simulation time: 00 hr 16 min 13 sec)
Heartbeat CPU 0 instructions: 99500554 cycles: 129636757 heartbeat IPC: 0.3634 cumulative IPC: 0.4251 (Simulation time: 00 hr 16 min 22 sec)
Heartbeat CPU 0 instructions: 100000555 cycles: 130768436 heartbeat IPC: 0.4418 cumulative IPC: 0.4253 (Simulation time: 00 hr 16 min 30 sec)
Heartbeat CPU 0 instructions: 100500555 cycles: 132018851 heartbeat IPC: 0.3999 cumulative IPC: 0.425 (Simulation time: 00 hr 16 min 38 sec)
Heartbeat CPU 0 instructions: 101000555 cycles: 133784573 heartbeat IPC: 0.2832 cumulative IPC: 0.423 (Simulation time: 00 hr 16 min 50 sec)
Heartbeat CPU 0 instructions: 101500556 cycles: 134931565 heartbeat IPC: 0.4359 cumulative IPC: 0.4231 (Simulation time: 00 hr 16 min 57 sec)
Heartbeat CPU 0 instructions: 102000560 cycles: 136492835 heartbeat IPC: 0.3203 cumulative IPC: 0.4218 (Simulation time: 00 hr 17 min 07 sec)
Heartbeat CPU 0 instructions: 102500566 cycles: 138224024 heartbeat IPC: 0.2888 cumulative IPC: 0.4199 (Simulation time: 00 hr 17 min 18 sec)
Heartbeat CPU 0 instructions: 103000567 cycles: 139634621 heartbeat IPC: 0.3545 cumulative IPC: 0.4192 (Simulation time: 00 hr 17 min 27 sec)
Heartbeat CPU 0 instructions: 103500568 cycles: 141796765 heartbeat IPC: 0.2313 cumulative IPC: 0.416 (Simulation time: 00 hr 17 min 40 sec)
Heartbeat CPU 0 instructions: 104000573 cycles: 143143441 heartbeat IPC: 0.3713 cumulative IPC: 0.4156 (Simulation time: 00 hr 17 min 49 sec)
Heartbeat CPU 0 instructions: 104500575 cycles: 144245037 heartbeat IPC: 0.4539 cumulative IPC: 0.4159 (Simulation time: 00 hr 17 min 56 sec)
Heartbeat CPU 0 instructions: 105000579 cycles: 145672480 heartbeat IPC: 0.3503 cumulative IPC: 0.4152 (Simulation time: 00 hr 18 min 06 sec)
Heartbeat CPU 0 instructions: 105500583 cycles: 146590806 heartbeat IPC: 0.5445 cumulative IPC: 0.4161 (Simulation time: 00 hr 18 min 12 sec)
Heartbeat CPU 0 instructions: 106000583 cycles: 147616340 heartbeat IPC: 0.4876 cumulative IPC: 0.4166 (Simulation time: 00 hr 18 min 19 sec)
Heartbeat CPU 0 instructions: 106500586 cycles: 148860814 heartbeat IPC: 0.4018 cumulative IPC: 0.4165 (Simulation time: 00 hr 18 min 27 sec)
Heartbeat CPU 0 instructions: 107000588 cycles: 149767990 heartbeat IPC: 0.5512 cumulative IPC: 0.4174 (Simulation time: 00 hr 18 min 33 sec)
Heartbeat CPU 0 instructions: 107500591 cycles: 150738845 heartbeat IPC: 0.515 cumulative IPC: 0.4181 (Simulation time: 00 hr 18 min 40 sec)
Heartbeat CPU 0 instructions: 108000597 cycles: 151092926 heartbeat IPC: 1.412 cumulative IPC: 0.4206 (Simulation time: 00 hr 18 min 43 sec)
Heartbeat CPU 0 instructions: 108500597 cycles: 151435564 heartbeat IPC: 1.459 cumulative IPC: 0.4232 (Simulation time: 00 hr 18 min 46 sec)
Heartbeat CPU 0 instructions: 109000597 cycles: 151736398 heartbeat IPC: 1.662 cumulative IPC: 0.4259 (Simulation time: 00 hr 18 min 49 sec)
Heartbeat CPU 0 instructions: 109500597 cycles: 152145749 heartbeat IPC: 1.221 cumulative IPC: 0.4282 (Simulation time: 00 hr 18 min 53 sec)
Heartbeat CPU 0 instructions: 110000597 cycles: 152340131 heartbeat IPC: 2.572 cumulative IPC: 0.4312 (Simulation time: 00 hr 18 min 55 sec)
Heartbeat CPU 0 instructions: 110500602 cycles: 153224315 heartbeat IPC: 0.5655 cumulative IPC: 0.4321 (Simulation time: 00 hr 19 min 02 sec)
Heartbeat CPU 0 instructions: 111000607 cycles: 154735906 heartbeat IPC: 0.3308 cumulative IPC: 0.431 (Simulation time: 00 hr 19 min 11 sec)
Heartbeat CPU 0 instructions: 111500607 cycles: 155994616 heartbeat IPC: 0.3972 cumulative IPC: 0.4307 (Simulation time: 00 hr 19 min 19 sec)
Heartbeat CPU 0 instructions: 112000614 cycles: 156903512 heartbeat IPC: 0.5501 cumulative IPC: 0.4315 (Simulation time: 00 hr 19 min 25 sec)
Heartbeat CPU 0 instructions: 112500621 cycles: 157371643 heartbeat IPC: 1.068 cumulative IPC: 0.4335 (Simulation time: 00 hr 19 min 29 sec)
Heartbeat CPU 0 instructions: 113000621 cycles: 158485151 heartbeat IPC: 0.449 cumulative IPC: 0.4336 (Simulation time: 00 hr 19 min 36 sec)
Heartbeat CPU 0 instructions: 113500621 cycles: 160009618 heartbeat IPC: 0.328 cumulative IPC: 0.4326 (Simulation time: 00 hr 19 min 46 sec)
Heartbeat CPU 0 instructions: 114000626 cycles: 161261635 heartbeat IPC: 0.3994 cumulative IPC: 0.4323 (Simulation time: 00 hr 19 min 54 sec)
Heartbeat CPU 0 instructions: 114500629 cycles: 162166090 heartbeat IPC: 0.5528 cumulative IPC: 0.433 (Simulation time: 00 hr 20 min 01 sec)
Heartbeat CPU 0 instructions: 115000633 cycles: 163936290 heartbeat IPC: 0.2825 cumulative IPC: 0.4312 (Simulation time: 00 hr 20 min 12 sec)
Heartbeat CPU 0 instructions: 115500635 cycles: 165342892 heartbeat IPC: 0.3555 cumulative IPC: 0.4305 (Simulation time: 00 hr 20 min 20 sec)
Heartbeat CPU 0 instructions: 116000641 cycles: 166346198 heartbeat IPC: 0.4984 cumulative IPC: 0.431 (Simulation time: 00 hr 20 min 27 sec)
Heartbeat CPU 0 instructions: 116500641 cycles: 167846843 heartbeat IPC: 0.3332 cumulative IPC: 0.43 (Simulation time: 00 hr 20 min 37 sec)
Heartbeat CPU 0 instructions: 117000641 cycles: 168681216 heartbeat IPC: 0.5993 cumulative IPC: 0.4309 (Simulation time: 00 hr 20 min 43 sec)
Heartbeat CPU 0 instructions: 117500644 cycles: 169057083 heartbeat IPC: 1.33 cumulative IPC: 0.4331 (Simulation time: 00 hr 20 min 46 sec)
Heartbeat CPU 0 instructions: 118000651 cycles: 169323835 heartbeat IPC: 1.874 cumulative IPC: 0.4356 (Simulation time: 00 hr 20 min 48 sec)
Heartbeat CPU 0 instructions: 118500658 cycles: 169648989 heartbeat IPC: 1.538 cumulative IPC: 0.4379 (Simulation time: 00 hr 20 min 51 sec)
Heartbeat CPU 0 instructions: 119000663 cycles: 169946941 heartbeat IPC: 1.678 cumulative IPC: 0.4402 (Simulation time: 00 hr 20 min 54 sec)
Heartbeat CPU 0 instructions: 119500663 cycles: 170262639 heartbeat IPC: 1.584 cumulative IPC: 0.4425 (Simulation time: 00 hr 20 min 57 sec)
Heartbeat CPU 0 instructions: 120000668 cycles: 170462363 heartbeat IPC: 2.503 cumulative IPC: 0.4451 (Simulation time: 00 hr 20 min 59 sec)
Heartbeat CPU 0 instructions: 120500671 cycles: 171429662 heartbeat IPC: 0.5169 cumulative IPC: 0.4456 (Simulation time: 00 hr 21 min 06 sec)
Heartbeat CPU 0 instructions: 121000672 cycles: 172243661 heartbeat IPC: 0.6143 cumulative IPC: 0.4464 (Simulation time: 00 hr 21 min 11 sec)
Heartbeat CPU 0 instructions: 121500672 cycles: 172586606 heartbeat IPC: 1.458 cumulative IPC: 0.4486 (Simulation time: 00 hr 21 min 14 sec)
Heartbeat CPU 0 instructions: 122000679 cycles: 172920069 heartbeat IPC: 1.499 cumulative IPC: 0.4508 (Simulation time: 00 hr 21 min 17 sec)
Heartbeat CPU 0 instructions: 122500679 cycles: 173224243 heartbeat IPC: 1.644 cumulative IPC: 0.4531 (Simulation time: 00 hr 21 min 20 sec)
Heartbeat CPU 0 instructions: 123000679 cycles: 175273837 heartbeat IPC: 0.244 cumulative IPC: 0.4504 (Simulation time: 00 hr 21 min 32 sec)
Heartbeat CPU 0 instructions: 123500679 cycles: 176273510 heartbeat IPC: 0.5002 cumulative IPC: 0.4507 (Simulation time: 00 hr 21 min 39 sec)
Heartbeat CPU 0 instructions: 124000681 cycles: 178550508 heartbeat IPC: 0.2196 cumulative IPC: 0.4476 (Simulation time: 00 hr 21 min 52 sec)
Heartbeat CPU 0 instructions: 124500683 cycles: 179812697 heartbeat IPC: 0.3961 cumulative IPC: 0.4472 (Simulation time: 00 hr 22 min 00 sec)
Heartbeat CPU 0 instructions: 125000685 cycles: 181361715 heartbeat IPC: 0.3228 cumulative IPC: 0.446 (Simulation time: 00 hr 22 min 10 sec)
Heartbeat CPU 0 instructions: 125500691 cycles: 181749129 heartbeat IPC: 1.291 cumulative IPC: 0.448 (Simulation time: 00 hr 22 min 13 sec)
Heartbeat CPU 0 instructions: 126000693 cycles: 182080936 heartbeat IPC: 1.507 cumulative IPC: 0.45 (Simulation time: 00 hr 22 min 17 sec)
Heartbeat CPU 0 instructions: 126500693 cycles: 182385991 heartbeat IPC: 1.639 cumulative IPC: 0.4522 (Simulation time: 00 hr 22 min 19 sec)
Heartbeat CPU 0 instructions: 127000694 cycles: 182666212 heartbeat IPC: 1.784 cumulative IPC: 0.4544 (Simulation time: 00 hr 22 min 22 sec)
Heartbeat CPU 0 instructions: 127500700 cycles: 182938093 heartbeat IPC: 1.839 cumulative IPC: 0.4566 (Simulation time: 00 hr 22 min 25 sec)
Heartbeat CPU 0 instructions: 128000701 cycles: 183187386 heartbeat IPC: 2.006 cumulative IPC: 0.4589 (Simulation time: 00 hr 22 min 27 sec)
Heartbeat CPU 0 instructions: 128500704 cycles: 183443808 heartbeat IPC: 1.95 cumulative IPC: 0.4611 (Simulation time: 00 hr 22 min 30 sec)
Heartbeat CPU 0 instructions: 129000711 cycles: 183740355 heartbeat IPC: 1.686 cumulative IPC: 0.4633 (Simulation time: 00 hr 22 min 33 sec)
Heartbeat CPU 0 instructions: 129500717 cycles: 184028676 heartbeat IPC: 1.734 cumulative IPC: 0.4654 (Simulation time: 00 hr 22 min 36 sec)
Heartbeat CPU 0 instructions: 130000717 cycles: 184286472 heartbeat IPC: 1.94 cumulative IPC: 0.4676 (Simulation time: 00 hr 22 min 39 sec)
Heartbeat CPU 0 instructions: 130500717 cycles: 184534281 heartbeat IPC: 2.018 cumulative IPC: 0.4699 (Simulation time: 00 hr 22 min 41 sec)
Heartbeat CPU 0 instructions: 131000718 cycles: 184818808 heartbeat IPC: 1.757 cumulative IPC: 0.472 (Simulation time: 00 hr 22 min 44 sec)
Heartbeat CPU 0 instructions: 131500719 cycles: 185002678 heartbeat IPC: 2.719 cumulative IPC: 0.4744 (Simulation time: 00 hr 22 min 46 sec)
Heartbeat CPU 0 instructions: 132000720 cycles: 185177504 heartbeat IPC: 2.86 cumulative IPC: 0.4768 (Simulation time: 00 hr 22 min 48 sec)
Heartbeat CPU 0 instructions: 132500722 cycles: 185345269 heartbeat IPC: 2.98 cumulative IPC: 0.4793 (Simulation time: 00 hr 22 min 50 sec)
Heartbeat CPU 0 instructions: 133000722 cycles: 185511727 heartbeat IPC: 3.004 cumulative IPC: 0.4817 (Simulation time: 00 hr 22 min 52 sec)
Heartbeat CPU 0 instructions: 133500728 cycles: 186314537 heartbeat IPC: 0.6228 cumulative IPC: 0.4824 (Simulation time: 00 hr 22 min 58 sec)
Heartbeat CPU 0 instructions: 134000728 cycles: 188613152 heartbeat IPC: 0.2175 cumulative IPC: 0.4789 (Simulation time: 00 hr 23 min 12 sec)
Heartbeat CPU 0 instructions: 134500729 cycles: 190108856 heartbeat IPC: 0.3343 cumulative IPC: 0.4777 (Simulation time: 00 hr 23 min 21 sec)
Heartbeat CPU 0 instructions: 135000729 cycles: 191892154 heartbeat IPC: 0.2804 cumulative IPC: 0.4757 (Simulation time: 00 hr 23 min 31 sec)
Heartbeat CPU 0 instructions: 135500736 cycles: 192794118 heartbeat IPC: 0.5544 cumulative IPC: 0.4761 (Simulation time: 00 hr 23 min 37 sec)
Heartbeat CPU 0 instructions: 136000743 cycles: 194337590 heartbeat IPC: 0.3239 cumulative IPC: 0.4748 (Simulation time: 00 hr 23 min 47 sec)
Heartbeat CPU 0 instructions: 136500746 cycles: 195715741 heartbeat IPC: 0.3628 cumulative IPC: 0.4739 (Simulation time: 00 hr 23 min 56 sec)
Heartbeat CPU 0 instructions: 137000746 cycles: 196727590 heartbeat IPC: 0.4941 cumulative IPC: 0.4741 (Simulation time: 00 hr 24 min 02 sec)
Heartbeat CPU 0 instructions: 137500753 cycles: 197496147 heartbeat IPC: 0.6506 cumulative IPC: 0.4748 (Simulation time: 00 hr 24 min 08 sec)
Heartbeat CPU 0 instructions: 138000753 cycles: 197847600 heartbeat IPC: 1.423 cumulative IPC: 0.4766 (Simulation time: 00 hr 24 min 10 sec)
Heartbeat CPU 0 instructions: 138500753 cycles: 198185738 heartbeat IPC: 1.479 cumulative IPC: 0.4784 (Simulation time: 00 hr 24 min 13 sec)
Heartbeat CPU 0 instructions: 139000757 cycles: 198545106 heartbeat IPC: 1.391 cumulative IPC: 0.4802 (Simulation time: 00 hr 24 min 16 sec)
Heartbeat CPU 0 instructions: 139500762 cycles: 199263625 heartbeat IPC: 0.6959 cumulative IPC: 0.481 (Simulation time: 00 hr 24 min 22 sec)
Heartbeat CPU 0 instructions: 140000762 cycles: 199665601 heartbeat IPC: 1.244 cumulative IPC: 0.4827 (Simulation time: 00 hr 24 min 25 sec)
Heartbeat CPU 0 instructions: 140500769 cycles: 199880015 heartbeat IPC: 2.332 cumulative IPC: 0.4848 (Simulation time: 00 hr 24 min 28 sec)
Heartbeat CPU 0 instructions: 141000769 cycles: 199995963 heartbeat IPC: 4.312 cumulative IPC: 0.4872 (Simulation time: 00 hr 24 min 30 sec)
Heartbeat CPU 0 instructions: 141500769 cycles: 200162739 heartbeat IPC: 2.998 cumulative IPC: 0.4894 (Simulation time: 00 hr 24 min 32 sec)
Heartbeat CPU 0 instructions: 142000775 cycles: 200288723 heartbeat IPC: 3.969 cumulative IPC: 0.4918 (Simulation time: 00 hr 24 min 34 sec)
Heartbeat CPU 0 instructions: 142500777 cycles: 200416646 heartbeat IPC: 3.909 cumulative IPC: 0.4941 (Simulation time: 00 hr 24 min 36 sec)
Heartbeat CPU 0 instructions: 143000780 cycles: 200790792 heartbeat IPC: 1.336 cumulative IPC: 0.4958 (Simulation time: 00 hr 24 min 39 sec)
Heartbeat CPU 0 instructions: 143500786 cycles: 202426386 heartbeat IPC: 0.3057 cumulative IPC: 0.4941 (Simulation time: 00 hr 24 min 49 sec)
Heartbeat CPU 0 instructions: 144000786 cycles: 203389402 heartbeat IPC: 0.5192 cumulative IPC: 0.4943 (Simulation time: 00 hr 24 min 55 sec)
Heartbeat CPU 0 instructions: 144500786 cycles: 204451870 heartbeat IPC: 0.4706 cumulative IPC: 0.4941 (Simulation time: 00 hr 25 min 02 sec)
Heartbeat CPU 0 instructions: 145000789 cycles: 205326234 heartbeat IPC: 0.5718 cumulative IPC: 0.4945 (Simulation time: 00 hr 25 min 08 sec)
Heartbeat CPU 0 instructions: 145500791 cycles: 206694897 heartbeat IPC: 0.3653 cumulative IPC: 0.4936 (Simulation time: 00 hr 25 min 17 sec)
Heartbeat CPU 0 instructions: 146000792 cycles: 207063103 heartbeat IPC: 1.358 cumulative IPC: 0.4952 (Simulation time: 00 hr 25 min 20 sec)
Heartbeat CPU 0 instructions: 146500796 cycles: 207388107 heartbeat IPC: 1.538 cumulative IPC: 0.497 (Simulation time: 00 hr 25 min 22 sec)
Heartbeat CPU 0 instructions: 147000798 cycles: 207673646 heartbeat IPC: 1.751 cumulative IPC: 0.4988 (Simulation time: 00 hr 25 min 25 sec)
Heartbeat CPU 0 instructions: 147500798 cycles: 208530109 heartbeat IPC: 0.5838 cumulative IPC: 0.4992 (Simulation time: 00 hr 25 min 31 sec)
Heartbeat CPU 0 instructions: 148000799 cycles: 209801645 heartbeat IPC: 0.3932 cumulative IPC: 0.4985 (Simulation time: 00 hr 25 min 39 sec)
Heartbeat CPU 0 instructions: 148500801 cycles: 211326177 heartbeat IPC: 0.328 cumulative IPC: 0.4972 (Simulation time: 00 hr 25 min 48 sec)
Heartbeat CPU 0 instructions: 149000802 cycles: 212917181 heartbeat IPC: 0.3143 cumulative IPC: 0.4957 (Simulation time: 00 hr 25 min 58 sec)
Heartbeat CPU 0 instructions: 149500809 cycles: 213926844 heartbeat IPC: 0.4952 cumulative IPC: 0.4957 (Simulation time: 00 hr 26 min 05 sec)
Heartbeat CPU 0 instructions: 150000811 cycles: 214999231 heartbeat IPC: 0.4663 cumulative IPC: 0.4956 (Simulation time: 00 hr 26 min 12 sec)
Heartbeat CPU 0 instructions: 150500816 cycles: 215392673 heartbeat IPC: 1.271 cumulative IPC: 0.4971 (Simulation time: 00 hr 26 min 15 sec)
Heartbeat CPU 0 instructions: 151000816 cycles: 215705227 heartbeat IPC: 1.6 cumulative IPC: 0.4988 (Simulation time: 00 hr 26 min 18 sec)
Heartbeat CPU 0 instructions: 151500816 cycles: 216007500 heartbeat IPC: 1.654 cumulative IPC: 0.5005 (Simulation time: 00 hr 26 min 20 sec)
Heartbeat CPU 0 instructions: 152000817 cycles: 217340383 heartbeat IPC: 0.3751 cumulative IPC: 0.4997 (Simulation time: 00 hr 26 min 28 sec)
Heartbeat CPU 0 instructions: 152500821 cycles: 218636035 heartbeat IPC: 0.3859 cumulative IPC: 0.499 (Simulation time: 00 hr 26 min 36 sec)
Heartbeat CPU 0 instructions: 153000826 cycles: 220132319 heartbeat IPC: 0.3342 cumulative IPC: 0.4978 (Simulation time: 00 hr 26 min 46 sec)
Heartbeat CPU 0 instructions: 153500827 cycles: 221001368 heartbeat IPC: 0.5753 cumulative IPC: 0.4981 (Simulation time: 00 hr 26 min 52 sec)
Heartbeat CPU 0 instructions: 154000830 cycles: 222125130 heartbeat IPC: 0.4449 cumulative IPC: 0.4978 (Simulation time: 00 hr 26 min 59 sec)
Heartbeat CPU 0 instructions: 154500831 cycles: 222636942 heartbeat IPC: 0.9769 cumulative IPC: 0.499 (Simulation time: 00 hr 27 min 03 sec)
Heartbeat CPU 0 instructions: 155000831 cycles: 224231041 heartbeat IPC: 0.3137 cumulative IPC: 0.4976 (Simulation time: 00 hr 27 min 13 sec)
Heartbeat CPU 0 instructions: 155500833 cycles: 225584177 heartbeat IPC: 0.3695 cumulative IPC: 0.4968 (Simulation time: 00 hr 27 min 21 sec)
Heartbeat CPU 0 instructions: 156000834 cycles: 226230769 heartbeat IPC: 0.7733 cumulative IPC: 0.4976 (Simulation time: 00 hr 27 min 26 sec)
Heartbeat CPU 0 instructions: 156500835 cycles: 226611704 heartbeat IPC: 1.313 cumulative IPC: 0.4991 (Simulation time: 00 hr 27 min 29 sec)
Heartbeat CPU 0 instructions: 157000841 cycles: 226913095 heartbeat IPC: 1.659 cumulative IPC: 0.5007 (Simulation time: 00 hr 27 min 32 sec)
Heartbeat CPU 0 instructions: 157500841 cycles: 228147216 heartbeat IPC: 0.4051 cumulative IPC: 0.5001 (Simulation time: 00 hr 27 min 39 sec)
Heartbeat CPU 0 instructions: 158000841 cycles: 228828266 heartbeat IPC: 0.7342 cumulative IPC: 0.5009 (Simulation time: 00 hr 27 min 44 sec)
Heartbeat CPU 0 instructions: 158500843 cycles: 230221992 heartbeat IPC: 0.3588 cumulative IPC: 0.5 (Simulation time: 00 hr 27 min 54 sec)
Heartbeat CPU 0 instructions: 159000848 cycles: 230546633 heartbeat IPC: 1.54 cumulative IPC: 0.5015 (Simulation time: 00 hr 27 min 57 sec)
Heartbeat CPU 0 instructions: 159500848 cycles: 230868561 heartbeat IPC: 1.553 cumulative IPC: 0.5031 (Simulation time: 00 hr 27 min 59 sec)
Heartbeat CPU 0 instructions: 160000848 cycles: 231157941 heartbeat IPC: 1.728 cumulative IPC: 0.5047 (Simulation time: 00 hr 28 min 02 sec)
Heartbeat CPU 0 instructions: 160500851 cycles: 232770870 heartbeat IPC: 0.31 cumulative IPC: 0.5033 (Simulation time: 00 hr 28 min 11 sec)
Heartbeat CPU 0 instructions: 161000851 cycles: 234564722 heartbeat IPC: 0.2787 cumulative IPC: 0.5014 (Simulation time: 00 hr 28 min 22 sec)
Heartbeat CPU 0 instructions: 161500851 cycles: 236201389 heartbeat IPC: 0.3055 cumulative IPC: 0.5 (Simulation time: 00 hr 28 min 32 sec)
Heartbeat CPU 0 instructions: 162000852 cycles: 237086003 heartbeat IPC: 0.5652 cumulative IPC: 0.5003 (Simulation time: 00 hr 28 min 38 sec)
Heartbeat CPU 0 instructions: 162500852 cycles: 237991160 heartbeat IPC: 0.5524 cumulative IPC: 0.5005 (Simulation time: 00 hr 28 min 44 sec)
Heartbeat CPU 0 instructions: 163000857 cycles: 239135334 heartbeat IPC: 0.437 cumulative IPC: 0.5002 (Simulation time: 00 hr 28 min 51 sec)
Heartbeat CPU 0 instructions: 163500861 cycles: 239818158 heartbeat IPC: 0.7323 cumulative IPC: 0.5009 (Simulation time: 00 hr 28 min 56 sec)
Heartbeat CPU 0 instructions: 164000861 cycles: 240141112 heartbeat IPC: 1.548 cumulative IPC: 0.5023 (Simulation time: 00 hr 28 min 59 sec)
Heartbeat CPU 0 instructions: 164500865 cycles: 240475072 heartbeat IPC: 1.497 cumulative IPC: 0.5038 (Simulation time: 00 hr 29 min 02 sec)
Heartbeat CPU 0 instructions: 165000872 cycles: 240793959 heartbeat IPC: 1.568 cumulative IPC: 0.5053 (Simulation time: 00 hr 29 min 05 sec)
Heartbeat CPU 0 instructions: 165500875 cycles: 241138446 heartbeat IPC: 1.451 cumulative IPC: 0.5067 (Simulation time: 00 hr 29 min 08 sec)
Heartbeat CPU 0 instructions: 166000877 cycles: 241345135 heartbeat IPC: 2.419 cumulative IPC: 0.5085 (Simulation time: 00 hr 29 min 10 sec)
Heartbeat CPU 0 instructions: 166500880 cycles: 242448468 heartbeat IPC: 0.4532 cumulative IPC: 0.5082 (Simulation time: 00 hr 29 min 17 sec)
Heartbeat CPU 0 instructions: 167000884 cycles: 243527888 heartbeat IPC: 0.4632 cumulative IPC: 0.508 (Simulation time: 00 hr 29 min 24 sec)
Heartbeat CPU 0 instructions: 167500884 cycles: 243975664 heartbeat IPC: 1.117 cumulative IPC: 0.5092 (Simulation time: 00 hr 29 min 28 sec)
Heartbeat CPU 0 instructions: 168000890 cycles: 244281568 heartbeat IPC: 1.635 cumulative IPC: 0.5107 (Simulation time: 00 hr 29 min 30 sec)
Heartbeat CPU 0 instructions: 168500891 cycles: 244989867 heartbeat IPC: 0.7059 cumulative IPC: 0.5113 (Simulation time: 00 hr 29 min 35 sec)
Heartbeat CPU 0 instructions: 169000891 cycles: 246816201 heartbeat IPC: 0.2738 cumulative IPC: 0.5094 (Simulation time: 00 hr 29 min 45 sec)
Heartbeat CPU 0 instructions: 169500897 cycles: 248119392 heartbeat IPC: 0.3837 cumulative IPC: 0.5087 (Simulation time: 00 hr 29 min 53 sec)
Heartbeat CPU 0 instructions: 170000903 cycles: 249080308 heartbeat IPC: 0.5203 cumulative IPC: 0.5087 (Simulation time: 00 hr 30 min 00 sec)
Heartbeat CPU 0 instructions: 170500903 cycles: 250216432 heartbeat IPC: 0.4401 cumulative IPC: 0.5084 (Simulation time: 00 hr 30 min 07 sec)
Heartbeat CPU 0 instructions: 171000905 cycles: 250498518 heartbeat IPC: 1.773 cumulative IPC: 0.5099 (Simulation time: 00 hr 30 min 10 sec)
Heartbeat CPU 0 instructions: 171500905 cycles: 250769877 heartbeat IPC: 1.843 cumulative IPC: 0.5114 (Simulation time: 00 hr 30 min 12 sec)
Heartbeat CPU 0 instructions: 172000908 cycles: 251323577 heartbeat IPC: 0.903 cumulative IPC: 0.5124 (Simulation time: 00 hr 30 min 17 sec)
Heartbeat CPU 0 instructions: 172500909 cycles: 251807407 heartbeat IPC: 1.033 cumulative IPC: 0.5134 (Simulation time: 00 hr 30 min 20 sec)
Heartbeat CPU 0 instructions: 173000909 cycles: 252870786 heartbeat IPC: 0.4702 cumulative IPC: 0.5132 (Simulation time: 00 hr 30 min 27 sec)
Heartbeat CPU 0 instructions: 173500911 cycles: 254087131 heartbeat IPC: 0.4111 cumulative IPC: 0.5127 (Simulation time: 00 hr 30 min 35 sec)
Heartbeat CPU 0 instructions: 174000911 cycles: 254963587 heartbeat IPC: 0.5705 cumulative IPC: 0.5129 (Simulation time: 00 hr 30 min 41 sec)
Heartbeat CPU 0 instructions: 174500912 cycles: 256766715 heartbeat IPC: 0.2773 cumulative IPC: 0.5112 (Simulation time: 00 hr 30 min 51 sec)
Heartbeat CPU 0 instructions: 175000912 cycles: 258634588 heartbeat IPC: 0.2677 cumulative IPC: 0.5093 (Simulation time: 00 hr 31 min 02 sec)
Heartbeat CPU 0 instructions: 175500914 cycles: 259743535 heartbeat IPC: 0.4509 cumulative IPC: 0.5091 (Simulation time: 00 hr 31 min 09 sec)
Heartbeat CPU 0 instructions: 176000917 cycles: 261002552 heartbeat IPC: 0.3971 cumulative IPC: 0.5085 (Simulation time: 00 hr 31 min 17 sec)
Heartbeat CPU 0 instructions: 176500918 cycles: 262301298 heartbeat IPC: 0.385 cumulative IPC: 0.5078 (Simulation time: 00 hr 31 min 25 sec)
Heartbeat CPU 0 instructions: 177000919 cycles: 263323917 heartbeat IPC: 0.4889 cumulative IPC: 0.5078 (Simulation time: 00 hr 31 min 31 sec)
Heartbeat CPU 0 instructions: 177500921 cycles: 264744433 heartbeat IPC: 0.352 cumulative IPC: 0.5069 (Simulation time: 00 hr 31 min 40 sec)
Heartbeat CPU 0 instructions: 178000922 cycles: 267476719 heartbeat IPC: 0.183 cumulative IPC: 0.5034 (Simulation time: 00 hr 31 min 55 sec)
Heartbeat CPU 0 instructions: 178500923 cycles: 269160116 heartbeat IPC: 0.297 cumulative IPC: 0.502 (Simulation time: 00 hr 32 min 05 sec)
Heartbeat CPU 0 instructions: 179000924 cycles: 270056625 heartbeat IPC: 0.5577 cumulative IPC: 0.5022 (Simulation time: 00 hr 32 min 11 sec)
Heartbeat CPU 0 instructions: 179500924 cycles: 270831903 heartbeat IPC: 0.6449 cumulative IPC: 0.5027 (Simulation time: 00 hr 32 min 16 sec)
Heartbeat CPU 0 instructions: 180000928 cycles: 271664748 heartbeat IPC: 0.6004 cumulative IPC: 0.503 (Simulation time: 00 hr 32 min 21 sec)
Heartbeat CPU 0 instructions: 180500934 cycles: 272816129 heartbeat IPC: 0.4343 cumulative IPC: 0.5027 (Simulation time: 00 hr 32 min 29 sec)
Heartbeat CPU 0 instructions: 181000940 cycles: 274103902 heartbeat IPC: 0.3883 cumulative IPC: 0.5021 (Simulation time: 00 hr 32 min 37 sec)
Heartbeat CPU 0 instructions: 181500942 cycles: 274960048 heartbeat IPC: 0.584 cumulative IPC: 0.5024 (Simulation time: 00 hr 32 min 43 sec)
Heartbeat CPU 0 instructions: 182000945 cycles: 276223301 heartbeat IPC: 0.3958 cumulative IPC: 0.5019 (Simulation time: 00 hr 32 min 50 sec)
Heartbeat CPU 0 instructions: 182500946 cycles: 277199311 heartbeat IPC: 0.5123 cumulative IPC: 0.5019 (Simulation time: 00 hr 32 min 57 sec)
Heartbeat CPU 0 instructions: 183000946 cycles: 278320027 heartbeat IPC: 0.4461 cumulative IPC: 0.5017 (Simulation time: 00 hr 33 min 03 sec)
Heartbeat CPU 0 instructions: 183500949 cycles: 279287319 heartbeat IPC: 0.5169 cumulative IPC: 0.5017 (Simulation time: 00 hr 33 min 10 sec)
Heartbeat CPU 0 instructions: 184000950 cycles: 280438340 heartbeat IPC: 0.4344 cumulative IPC: 0.5014 (Simulation time: 00 hr 33 min 17 sec)
Heartbeat CPU 0 instructions: 184500952 cycles: 282678540 heartbeat IPC: 0.2232 cumulative IPC: 0.4991 (Simulation time: 00 hr 33 min 29 sec)
Heartbeat CPU 0 instructions: 185000954 cycles: 283995911 heartbeat IPC: 0.3795 cumulative IPC: 0.4985 (Simulation time: 00 hr 33 min 37 sec)
Heartbeat CPU 0 instructions: 185500957 cycles: 285046464 heartbeat IPC: 0.4759 cumulative IPC: 0.4985 (Simulation time: 00 hr 33 min 43 sec)
Heartbeat CPU 0 instructions: 186000957 cycles: 286204320 heartbeat IPC: 0.4318 cumulative IPC: 0.4982 (Simulation time: 00 hr 33 min 50 sec)
Heartbeat CPU 0 instructions: 186500959 cycles: 287048626 heartbeat IPC: 0.5922 cumulative IPC: 0.4985 (Simulation time: 00 hr 33 min 56 sec)
Heartbeat CPU 0 instructions: 187000959 cycles: 287913391 heartbeat IPC: 0.5782 cumulative IPC: 0.4987 (Simulation time: 00 hr 34 min 01 sec)
Heartbeat CPU 0 instructions: 187500961 cycles: 288338082 heartbeat IPC: 1.177 cumulative IPC: 0.4998 (Simulation time: 00 hr 34 min 04 sec)
Heartbeat CPU 0 instructions: 188000962 cycles: 288661297 heartbeat IPC: 1.547 cumulative IPC: 0.501 (Simulation time: 00 hr 34 min 07 sec)
Heartbeat CPU 0 instructions: 188500964 cycles: 288958399 heartbeat IPC: 1.683 cumulative IPC: 0.5023 (Simulation time: 00 hr 34 min 10 sec)
Heartbeat CPU 0 instructions: 189000969 cycles: 290225399 heartbeat IPC: 0.3946 cumulative IPC: 0.5018 (Simulation time: 00 hr 34 min 17 sec)
Heartbeat CPU 0 instructions: 189500972 cycles: 290527292 heartbeat IPC: 1.656 cumulative IPC: 0.503 (Simulation time: 00 hr 34 min 19 sec)
Heartbeat CPU 0 instructions: 190000974 cycles: 291409212 heartbeat IPC: 0.5669 cumulative IPC: 0.5032 (Simulation time: 00 hr 34 min 25 sec)
Heartbeat CPU 0 instructions: 190500981 cycles: 292526674 heartbeat IPC: 0.4474 cumulative IPC: 0.503 (Simulation time: 00 hr 34 min 32 sec)
Heartbeat CPU 0 instructions: 191000981 cycles: 293376204 heartbeat IPC: 0.5886 cumulative IPC: 0.5033 (Simulation time: 00 hr 34 min 37 sec)
Heartbeat CPU 0 instructions: 191500982 cycles: 294299930 heartbeat IPC: 0.5413 cumulative IPC: 0.5034 (Simulation time: 00 hr 34 min 43 sec)
Heartbeat CPU 0 instructions: 192000983 cycles: 295526146 heartbeat IPC: 0.4078 cumulative IPC: 0.503 (Simulation time: 00 hr 34 min 51 sec)
Heartbeat CPU 0 instructions: 192500988 cycles: 296157562 heartbeat IPC: 0.7919 cumulative IPC: 0.5036 (Simulation time: 00 hr 34 min 56 sec)
Heartbeat CPU 0 instructions: 193000988 cycles: 296552558 heartbeat IPC: 1.266 cumulative IPC: 0.5047 (Simulation time: 00 hr 34 min 59 sec)
Heartbeat CPU 0 instructions: 193500989 cycles: 296894800 heartbeat IPC: 1.461 cumulative IPC: 0.5058 (Simulation time: 00 hr 35 min 02 sec)
Heartbeat CPU 0 instructions: 194000991 cycles: 297236350 heartbeat IPC: 1.464 cumulative IPC: 0.507 (Simulation time: 00 hr 35 min 05 sec)
Heartbeat CPU 0 instructions: 194500993 cycles: 298188247 heartbeat IPC: 0.5253 cumulative IPC: 0.5071 (Simulation time: 00 hr 35 min 11 sec)
Heartbeat CPU 0 instructions: 195000997 cycles: 299670638 heartbeat IPC: 0.3373 cumulative IPC: 0.5062 (Simulation time: 00 hr 35 min 20 sec)
Heartbeat CPU 0 instructions: 195500997 cycles: 299981365 heartbeat IPC: 1.609 cumulative IPC: 0.5074 (Simulation time: 00 hr 35 min 23 sec)
Heartbeat CPU 0 instructions: 196001001 cycles: 300328324 heartbeat IPC: 1.441 cumulative IPC: 0.5085 (Simulation time: 00 hr 35 min 26 sec)
Heartbeat CPU 0 instructions: 196501005 cycles: 300635293 heartbeat IPC: 1.629 cumulative IPC: 0.5097 (Simulation time: 00 hr 35 min 29 sec)
Heartbeat CPU 0 instructions: 197001005 cycles: 302900597 heartbeat IPC: 0.2207 cumulative IPC: 0.5074 (Simulation time: 00 hr 35 min 46 sec)
Heartbeat CPU 0 instructions: 197501012 cycles: 305343751 heartbeat IPC: 0.2047 cumulative IPC: 0.5049 (Simulation time: 00 hr 36 min 04 sec)
Heartbeat CPU 0 instructions: 198001018 cycles: 306723839 heartbeat IPC: 0.3623 cumulative IPC: 0.5042 (Simulation time: 00 hr 36 min 13 sec)
Heartbeat CPU 0 instructions: 198501019 cycles: 309166394 heartbeat IPC: 0.2047 cumulative IPC: 0.5018 (Simulation time: 00 hr 36 min 26 sec)
Heartbeat CPU 0 instructions: 199001022 cycles: 310809685 heartbeat IPC: 0.3043 cumulative IPC: 0.5007 (Simulation time: 00 hr 36 min 35 sec)
Heartbeat CPU 0 instructions: 199501024 cycles: 311615247 heartbeat IPC: 0.6207 cumulative IPC: 0.501 (Simulation time: 00 hr 36 min 40 sec)
Heartbeat CPU 0 instructions: 200001024 cycles: 313004414 heartbeat IPC: 0.3599 cumulative IPC: 0.5003 (Simulation time: 00 hr 36 min 48 sec)
Heartbeat CPU 0 instructions: 200501026 cycles: 313640792 heartbeat IPC: 0.7857 cumulative IPC: 0.5009 (Simulation time: 00 hr 36 min 53 sec)
Heartbeat CPU 0 instructions: 201001027 cycles: 314057605 heartbeat IPC: 1.2 cumulative IPC: 0.5019 (Simulation time: 00 hr 36 min 56 sec)
Heartbeat CPU 0 instructions: 201501032 cycles: 314428614 heartbeat IPC: 1.348 cumulative IPC: 0.503 (Simulation time: 00 hr 36 min 59 sec)
Heartbeat CPU 0 instructions: 202001035 cycles: 314757355 heartbeat IPC: 1.521 cumulative IPC: 0.5041 (Simulation time: 00 hr 37 min 02 sec)
Heartbeat CPU 0 instructions: 202501035 cycles: 315149966 heartbeat IPC: 1.274 cumulative IPC: 0.5051 (Simulation time: 00 hr 37 min 05 sec)
Heartbeat CPU 0 instructions: 203001035 cycles: 317184209 heartbeat IPC: 0.2458 cumulative IPC: 0.5033 (Simulation time: 00 hr 37 min 17 sec)
Heartbeat CPU 0 instructions: 203501038 cycles: 318718661 heartbeat IPC: 0.3259 cumulative IPC: 0.5024 (Simulation time: 00 hr 37 min 26 sec)
Heartbeat CPU 0 instructions: 204001045 cycles: 319063441 heartbeat IPC: 1.45 cumulative IPC: 0.5035 (Simulation time: 00 hr 37 min 29 sec)
Heartbeat CPU 0 instructions: 204501052 cycles: 319418802 heartbeat IPC: 1.407 cumulative IPC: 0.5046 (Simulation time: 00 hr 37 min 32 sec)
Heartbeat CPU 0 instructions: 205001058 cycles: 319749486 heartbeat IPC: 1.512 cumulative IPC: 0.5056 (Simulation time: 00 hr 37 min 35 sec)
Heartbeat CPU 0 instructions: 205501062 cycles: 320130834 heartbeat IPC: 1.311 cumulative IPC: 0.5066 (Simulation time: 00 hr 37 min 38 sec)
Heartbeat CPU 0 instructions: 206001063 cycles: 320377782 heartbeat IPC: 2.025 cumulative IPC: 0.5079 (Simulation time: 00 hr 37 min 40 sec)
Heartbeat CPU 0 instructions: 206501063 cycles: 321612767 heartbeat IPC: 0.4049 cumulative IPC: 0.5074 (Simulation time: 00 hr 37 min 48 sec)
Heartbeat CPU 0 instructions: 207001065 cycles: 323249842 heartbeat IPC: 0.3054 cumulative IPC: 0.5064 (Simulation time: 00 hr 37 min 57 sec)
Heartbeat CPU 0 instructions: 207501068 cycles: 325123955 heartbeat IPC: 0.2668 cumulative IPC: 0.5049 (Simulation time: 00 hr 38 min 08 sec)
Heartbeat CPU 0 instructions: 208001069 cycles: 327098386 heartbeat IPC: 0.2532 cumulative IPC: 0.5034 (Simulation time: 00 hr 38 min 19 sec)
Heartbeat CPU 0 instructions: 208501075 cycles: 328027664 heartbeat IPC: 0.5381 cumulative IPC: 0.5035 (Simulation time: 00 hr 38 min 25 sec)
Heartbeat CPU 0 instructions: 209001075 cycles: 329189224 heartbeat IPC: 0.4305 cumulative IPC: 0.5032 (Simulation time: 00 hr 38 min 32 sec)
Heartbeat CPU 0 instructions: 209501079 cycles: 330316798 heartbeat IPC: 0.4434 cumulative IPC: 0.503 (Simulation time: 00 hr 38 min 38 sec)
Heartbeat CPU 0 instructions: 210001080 cycles: 331479411 heartbeat IPC: 0.4301 cumulative IPC: 0.5027 (Simulation time: 00 hr 38 min 46 sec)
Heartbeat CPU 0 instructions: 210501081 cycles: 333020627 heartbeat IPC: 0.3244 cumulative IPC: 0.5019 (Simulation time: 00 hr 38 min 55 sec)
Heartbeat CPU 0 instructions: 211001083 cycles: 334915680 heartbeat IPC: 0.2638 cumulative IPC: 0.5005 (Simulation time: 00 hr 39 min 05 sec)
Heartbeat CPU 0 instructions: 211501084 cycles: 337351559 heartbeat IPC: 0.2053 cumulative IPC: 0.4982 (Simulation time: 00 hr 39 min 18 sec)
Heartbeat CPU 0 instructions: 212001091 cycles: 338297033 heartbeat IPC: 0.5288 cumulative IPC: 0.4983 (Simulation time: 00 hr 39 min 24 sec)
Heartbeat CPU 0 instructions: 212501092 cycles: 339324150 heartbeat IPC: 0.4868 cumulative IPC: 0.4983 (Simulation time: 00 hr 39 min 30 sec)
Heartbeat CPU 0 instructions: 213001094 cycles: 340840803 heartbeat IPC: 0.3297 cumulative IPC: 0.4975 (Simulation time: 00 hr 39 min 39 sec)
Heartbeat CPU 0 instructions: 213501094 cycles: 342368130 heartbeat IPC: 0.3274 cumulative IPC: 0.4967 (Simulation time: 00 hr 39 min 47 sec)
Heartbeat CPU 0 instructions: 214001100 cycles: 344018424 heartbeat IPC: 0.303 cumulative IPC: 0.4958 (Simulation time: 00 hr 39 min 57 sec)
Heartbeat CPU 0 instructions: 214501102 cycles: 345433075 heartbeat IPC: 0.3534 cumulative IPC: 0.4951 (Simulation time: 00 hr 40 min 05 sec)
Heartbeat CPU 0 instructions: 215001108 cycles: 346179647 heartbeat IPC: 0.6697 cumulative IPC: 0.4955 (Simulation time: 00 hr 40 min 10 sec)
Heartbeat CPU 0 instructions: 215501108 cycles: 347490322 heartbeat IPC: 0.3815 cumulative IPC: 0.4951 (Simulation time: 00 hr 40 min 18 sec)
Heartbeat CPU 0 instructions: 216001113 cycles: 348771062 heartbeat IPC: 0.3904 cumulative IPC: 0.4947 (Simulation time: 00 hr 40 min 25 sec)
Heartbeat CPU 0 instructions: 216501114 cycles: 350485660 heartbeat IPC: 0.2916 cumulative IPC: 0.4937 (Simulation time: 00 hr 40 min 35 sec)
Heartbeat CPU 0 instructions: 217001114 cycles: 351974975 heartbeat IPC: 0.3357 cumulative IPC: 0.493 (Simulation time: 00 hr 40 min 43 sec)
Heartbeat CPU 0 instructions: 217501114 cycles: 352368242 heartbeat IPC: 1.271 cumulative IPC: 0.4939 (Simulation time: 00 hr 40 min 46 sec)
Heartbeat CPU 0 instructions: 218001114 cycles: 352911698 heartbeat IPC: 0.92 cumulative IPC: 0.4945 (Simulation time: 00 hr 40 min 50 sec)
Heartbeat CPU 0 instructions: 218501116 cycles: 353208805 heartbeat IPC: 1.683 cumulative IPC: 0.4956 (Simulation time: 00 hr 40 min 53 sec)
Heartbeat CPU 0 instructions: 219001117 cycles: 353849528 heartbeat IPC: 0.7804 cumulative IPC: 0.4961 (Simulation time: 00 hr 40 min 57 sec)
Heartbeat CPU 0 instructions: 219501117 cycles: 356082543 heartbeat IPC: 0.2239 cumulative IPC: 0.4943 (Simulation time: 00 hr 41 min 09 sec)
Heartbeat CPU 0 instructions: 220001118 cycles: 357338735 heartbeat IPC: 0.398 cumulative IPC: 0.494 (Simulation time: 00 hr 41 min 16 sec)
Heartbeat CPU 0 instructions: 220501118 cycles: 357980402 heartbeat IPC: 0.7792 cumulative IPC: 0.4945 (Simulation time: 00 hr 41 min 20 sec)
Heartbeat CPU 0 instructions: 221001122 cycles: 358284036 heartbeat IPC: 1.647 cumulative IPC: 0.4955 (Simulation time: 00 hr 41 min 22 sec)
Heartbeat CPU 0 instructions: 221501128 cycles: 358578052 heartbeat IPC: 1.701 cumulative IPC: 0.4966 (Simulation time: 00 hr 41 min 25 sec)
Heartbeat CPU 0 instructions: 222001129 cycles: 359313433 heartbeat IPC: 0.6799 cumulative IPC: 0.497 (Simulation time: 00 hr 41 min 29 sec)
Heartbeat CPU 0 instructions: 222501132 cycles: 361032488 heartbeat IPC: 0.2909 cumulative IPC: 0.4959 (Simulation time: 00 hr 41 min 39 sec)
Heartbeat CPU 0 instructions: 223001132 cycles: 362321381 heartbeat IPC: 0.3879 cumulative IPC: 0.4955 (Simulation time: 00 hr 41 min 46 sec)
Heartbeat CPU 0 instructions: 223501138 cycles: 363507466 heartbeat IPC: 0.4216 cumulative IPC: 0.4953 (Simulation time: 00 hr 41 min 53 sec)
Heartbeat CPU 0 instructions: 224001141 cycles: 364644531 heartbeat IPC: 0.4397 cumulative IPC: 0.4951 (Simulation time: 00 hr 42 min 00 sec)
Heartbeat CPU 0 instructions: 224501145 cycles: 366058797 heartbeat IPC: 0.3535 cumulative IPC: 0.4945 (Simulation time: 00 hr 42 min 08 sec)
Heartbeat CPU 0 instructions: 225001145 cycles: 366971361 heartbeat IPC: 0.5479 cumulative IPC: 0.4947 (Simulation time: 00 hr 42 min 14 sec)
Heartbeat CPU 0 instructions: 225501145 cycles: 368356333 heartbeat IPC: 0.361 cumulative IPC: 0.4942 (Simulation time: 00 hr 42 min 23 sec)
Heartbeat CPU 0 instructions: 226001145 cycles: 369727793 heartbeat IPC: 0.3646 cumulative IPC: 0.4937 (Simulation time: 00 hr 42 min 31 sec)
Heartbeat CPU 0 instructions: 226501147 cycles: 370891889 heartbeat IPC: 0.4295 cumulative IPC: 0.4935 (Simulation time: 00 hr 42 min 38 sec)
Heartbeat CPU 0 instructions: 227001150 cycles: 372592156 heartbeat IPC: 0.2941 cumulative IPC: 0.4925 (Simulation time: 00 hr 42 min 48 sec)
Heartbeat CPU 0 instructions: 227501154 cycles: 373792648 heartbeat IPC: 0.4165 cumulative IPC: 0.4923 (Simulation time: 00 hr 42 min 55 sec)
Heartbeat CPU 0 instructions: 228001156 cycles: 375019344 heartbeat IPC: 0.4076 cumulative IPC: 0.492 (Simulation time: 00 hr 43 min 02 sec)
Heartbeat CPU 0 instructions: 228501162 cycles: 376032527 heartbeat IPC: 0.4935 cumulative IPC: 0.492 (Simulation time: 00 hr 43 min 08 sec)
Heartbeat CPU 0 instructions: 229001164 cycles: 377125562 heartbeat IPC: 0.4574 cumulative IPC: 0.4919 (Simulation time: 00 hr 43 min 15 sec)
Heartbeat CPU 0 instructions: 229501165 cycles: 378100580 heartbeat IPC: 0.5128 cumulative IPC: 0.4919 (Simulation time: 00 hr 43 min 21 sec)
Heartbeat CPU 0 instructions: 230001165 cycles: 379041964 heartbeat IPC: 0.5311 cumulative IPC: 0.492 (Simulation time: 00 hr 43 min 27 sec)
Heartbeat CPU 0 instructions: 230501165 cycles: 380886164 heartbeat IPC: 0.2711 cumulative IPC: 0.4909 (Simulation time: 00 hr 43 min 37 sec)
Heartbeat CPU 0 instructions: 231001165 cycles: 381761991 heartbeat IPC: 0.5709 cumulative IPC: 0.4911 (Simulation time: 00 hr 43 min 42 sec)
Heartbeat CPU 0 instructions: 231501165 cycles: 382429194 heartbeat IPC: 0.7494 cumulative IPC: 0.4916 (Simulation time: 00 hr 43 min 46 sec)
Heartbeat CPU 0 instructions: 232001166 cycles: 384183013 heartbeat IPC: 0.2851 cumulative IPC: 0.4906 (Simulation time: 00 hr 43 min 56 sec)
Heartbeat CPU 0 instructions: 232501169 cycles: 386143371 heartbeat IPC: 0.2551 cumulative IPC: 0.4894 (Simulation time: 00 hr 44 min 06 sec)
Heartbeat CPU 0 instructions: 233001170 cycles: 387386793 heartbeat IPC: 0.4021 cumulative IPC: 0.4891 (Simulation time: 00 hr 44 min 13 sec)
Heartbeat CPU 0 instructions: 233501172 cycles: 388603593 heartbeat IPC: 0.4109 cumulative IPC: 0.4888 (Simulation time: 00 hr 44 min 21 sec)
Heartbeat CPU 0 instructions: 234001173 cycles: 389094556 heartbeat IPC: 1.018 cumulative IPC: 0.4895 (Simulation time: 00 hr 44 min 24 sec)
Heartbeat CPU 0 instructions: 234501175 cycles: 389388596 heartbeat IPC: 1.7 cumulative IPC: 0.4905 (Simulation time: 00 hr 44 min 27 sec)
Heartbeat CPU 0 instructions: 235001175 cycles: 389659676 heartbeat IPC: 1.844 cumulative IPC: 0.4914 (Simulation time: 00 hr 44 min 29 sec)
Heartbeat CPU 0 instructions: 235501176 cycles: 390885126 heartbeat IPC: 0.408 cumulative IPC: 0.4912 (Simulation time: 00 hr 44 min 36 sec)
Heartbeat CPU 0 instructions: 236001180 cycles: 392241670 heartbeat IPC: 0.3686 cumulative IPC: 0.4907 (Simulation time: 00 hr 44 min 44 sec)
Heartbeat CPU 0 instructions: 236501184 cycles: 392632373 heartbeat IPC: 1.28 cumulative IPC: 0.4915 (Simulation time: 00 hr 44 min 47 sec)
Heartbeat CPU 0 instructions: 237001189 cycles: 392898173 heartbeat IPC: 1.881 cumulative IPC: 0.4925 (Simulation time: 00 hr 44 min 49 sec)
Heartbeat CPU 0 instructions: 237501193 cycles: 393235924 heartbeat IPC: 1.48 cumulative IPC: 0.4934 (Simulation time: 00 hr 44 min 52 sec)
Heartbeat CPU 0 instructions: 238001195 cycles: 393510904 heartbeat IPC: 1.818 cumulative IPC: 0.4943 (Simulation time: 00 hr 44 min 55 sec)
Heartbeat CPU 0 instructions: 238501198 cycles: 393819547 heartbeat IPC: 1.62 cumulative IPC: 0.4953 (Simulation time: 00 hr 44 min 57 sec)
Heartbeat CPU 0 instructions: 239001201 cycles: 394000802 heartbeat IPC: 2.759 cumulative IPC: 0.4963 (Simulation time: 00 hr 44 min 59 sec)
Heartbeat CPU 0 instructions: 239501202 cycles: 394720492 heartbeat IPC: 0.6947 cumulative IPC: 0.4967 (Simulation time: 00 hr 45 min 04 sec)
Heartbeat CPU 0 instructions: 240001204 cycles: 395239087 heartbeat IPC: 0.9641 cumulative IPC: 0.4973 (Simulation time: 00 hr 45 min 08 sec)
Heartbeat CPU 0 instructions: 240501211 cycles: 395514973 heartbeat IPC: 1.812 cumulative IPC: 0.4983 (Simulation time: 00 hr 45 min 10 sec)
Heartbeat CPU 0 instructions: 241001211 cycles: 395770777 heartbeat IPC: 1.955 cumulative IPC: 0.4993 (Simulation time: 00 hr 45 min 13 sec)
Heartbeat CPU 0 instructions: 241501212 cycles: 396028655 heartbeat IPC: 1.939 cumulative IPC: 0.5002 (Simulation time: 00 hr 45 min 15 sec)
Heartbeat CPU 0 instructions: 242001212 cycles: 396419460 heartbeat IPC: 1.279 cumulative IPC: 0.501 (Simulation time: 00 hr 45 min 19 sec)
Heartbeat CPU 0 instructions: 242501212 cycles: 398996409 heartbeat IPC: 0.194 cumulative IPC: 0.499 (Simulation time: 00 hr 45 min 33 sec)
Heartbeat CPU 0 instructions: 243001213 cycles: 401272786 heartbeat IPC: 0.2196 cumulative IPC: 0.4973 (Simulation time: 00 hr 45 min 45 sec)
Heartbeat CPU 0 instructions: 243501219 cycles: 403189151 heartbeat IPC: 0.2609 cumulative IPC: 0.4962 (Simulation time: 00 hr 45 min 55 sec)
Heartbeat CPU 0 instructions: 244001219 cycles: 405333862 heartbeat IPC: 0.2331 cumulative IPC: 0.4947 (Simulation time: 00 hr 46 min 07 sec)
Heartbeat CPU 0 instructions: 244501222 cycles: 406355131 heartbeat IPC: 0.4896 cumulative IPC: 0.4947 (Simulation time: 00 hr 46 min 13 sec)
Heartbeat CPU 0 instructions: 245001224 cycles: 407969611 heartbeat IPC: 0.3097 cumulative IPC: 0.494 (Simulation time: 00 hr 46 min 22 sec)
Heartbeat CPU 0 instructions: 245501224 cycles: 409430048 heartbeat IPC: 0.3424 cumulative IPC: 0.4934 (Simulation time: 00 hr 46 min 31 sec)
Heartbeat CPU 0 instructions: 246001224 cycles: 410164735 heartbeat IPC: 0.6806 cumulative IPC: 0.4938 (Simulation time: 00 hr 46 min 36 sec)
Heartbeat CPU 0 instructions: 246501227 cycles: 410483088 heartbeat IPC: 1.571 cumulative IPC: 0.4946 (Simulation time: 00 hr 46 min 39 sec)
Heartbeat CPU 0 instructions: 247001227 cycles: 410793327 heartbeat IPC: 1.612 cumulative IPC: 0.4955 (Simulation time: 00 hr 46 min 42 sec)
Heartbeat CPU 0 instructions: 247501234 cycles: 411091340 heartbeat IPC: 1.678 cumulative IPC: 0.4964 (Simulation time: 00 hr 46 min 45 sec)
Heartbeat CPU 0 instructions: 248001241 cycles: 413306582 heartbeat IPC: 0.2257 cumulative IPC: 0.4949 (Simulation time: 00 hr 47 min 01 sec)
Heartbeat CPU 0 instructions: 248501244 cycles: 415748047 heartbeat IPC: 0.2048 cumulative IPC: 0.4931 (Simulation time: 00 hr 47 min 18 sec)
Heartbeat CPU 0 instructions: 249001247 cycles: 417964146 heartbeat IPC: 0.2256 cumulative IPC: 0.4917 (Simulation time: 00 hr 47 min 31 sec)
Heartbeat CPU 0 instructions: 249501253 cycles: 418638639 heartbeat IPC: 0.7413 cumulative IPC: 0.4921 (Simulation time: 00 hr 47 min 36 sec)
Simulation finished CPU 0 instructions: 200000002 cycles: 405867376 cumulative IPC: 0.4928 (Simulation time: 00 hr 47 min 39 sec)
Simulation complete CPU 0 instructions: 200000002 cycles: 405867376 cumulative IPC: 0.4928 (Simulation time: 00 hr 47 min 39 sec)

ChampSim completed all CPUs

=== Simulation ===
CPU 0 runs /local-ssd/ben/dpc4-traces/gtraces_v2/sierra.a.3_0001.champsim.gz

Region of Interest Statistics

CPU 0 cumulative IPC: 0.4928 instructions: 200000002 cycles: 405867376
CPU 0 Branch Prediction Accuracy: 86.47% MPKI: 22.58 Average ROB Occupancy at Mispredict: 21.54
Branch type MPKI
BRANCH_DIRECT_JUMP: 1.988
BRANCH_INDIRECT: 0.226
BRANCH_CONDITIONAL: 17.42
BRANCH_DIRECT_CALL: 1.537
BRANCH_INDIRECT_CALL: 0.364
BRANCH_RETURN: 1.052

cpu0->cpu0_STLB TOTAL        ACCESS:    2901407 HIT:    2304666 MISS:     596741 MSHR_MERGE:          0
cpu0->cpu0_STLB LOAD         ACCESS:    2901407 HIT:    2304666 MISS:     596741 MSHR_MERGE:          0
cpu0->cpu0_STLB RFO          ACCESS:          0 HIT:          0 MISS:          0 MSHR_MERGE:          0
cpu0->cpu0_STLB PREFETCH     ACCESS:          0 HIT:          0 MISS:          0 MSHR_MERGE:          0
cpu0->cpu0_STLB WRITE        ACCESS:          0 HIT:          0 MISS:          0 MSHR_MERGE:          0
cpu0->cpu0_STLB TRANSLATION  ACCESS:          0 HIT:          0 MISS:          0 MSHR_MERGE:          0
cpu0->cpu0_STLB PREFETCH REQUESTED:          0 ISSUED:          0 USEFUL:          0 USELESS:          0
cpu0->cpu0_STLB AVERAGE MISS LATENCY: 124.6 cycles
cpu0->cpu0_L2C TOTAL        ACCESS:   10564100 HIT:    7960426 MISS:    2603674 MSHR_MERGE:          0
cpu0->cpu0_L2C LOAD         ACCESS:    7318939 HIT:    5435713 MISS:    1883226 MSHR_MERGE:          0
cpu0->cpu0_L2C RFO          ACCESS:     985581 HIT:     516598 MISS:     468983 MSHR_MERGE:          0
cpu0->cpu0_L2C PREFETCH     ACCESS:          0 HIT:          0 MISS:          0 MSHR_MERGE:          0
cpu0->cpu0_L2C WRITE        ACCESS:    1608875 HIT:    1608841 MISS:         34 MSHR_MERGE:          0
cpu0->cpu0_L2C TRANSLATION  ACCESS:     650705 HIT:     399274 MISS:     251431 MSHR_MERGE:          0
cpu0->cpu0_L2C PREFETCH REQUESTED:          0 ISSUED:          0 USEFUL:          0 USELESS:          0
cpu0->cpu0_L2C AVERAGE MISS LATENCY: 184.3 cycles
cpu0->cpu0_L1I TOTAL        ACCESS:   20965308 HIT:   14388128 MISS:    6577180 MSHR_MERGE:    1547283
cpu0->cpu0_L1I LOAD         ACCESS:   20965308 HIT:   14388128 MISS:    6577180 MSHR_MERGE:    1547283
cpu0->cpu0_L1I RFO          ACCESS:          0 HIT:          0 MISS:          0 MSHR_MERGE:          0
cpu0->cpu0_L1I PREFETCH     ACCESS:          0 HIT:          0 MISS:          0 MSHR_MERGE:          0
cpu0->cpu0_L1I WRITE        ACCESS:          0 HIT:          0 MISS:          0 MSHR_MERGE:          0
cpu0->cpu0_L1I TRANSLATION  ACCESS:          0 HIT:          0 MISS:          0 MSHR_MERGE:          0
cpu0->cpu0_L1I PREFETCH REQUESTED:          0 ISSUED:          0 USEFUL:          0 USELESS:          0
cpu0->cpu0_L1I AVERAGE MISS LATENCY: 37.1 cycles
cpu0->cpu0_L1D TOTAL        ACCESS:   59252047 HIT:   52702526 MISS:    6549521 MSHR_MERGE:    2624136
cpu0->cpu0_L1D LOAD         ACCESS:   34038913 HIT:   31051874 MISS:    2987039 MSHR_MERGE:     697954
cpu0->cpu0_L1D RFO          ACCESS:          0 HIT:          0 MISS:          0 MSHR_MERGE:          0
cpu0->cpu0_L1D PREFETCH     ACCESS:          0 HIT:          0 MISS:          0 MSHR_MERGE:          0
cpu0->cpu0_L1D WRITE        ACCESS:   23654766 HIT:   20747892 MISS:    2906874 MSHR_MERGE:    1921279
cpu0->cpu0_L1D TRANSLATION  ACCESS:    1558368 HIT:     902760 MISS:     655608 MSHR_MERGE:       4903
cpu0->cpu0_L1D PREFETCH REQUESTED:          0 ISSUED:          0 USEFUL:          0 USELESS:          0
cpu0->cpu0_L1D AVERAGE MISS LATENCY: 93.31 cycles
cpu0->cpu0_ITLB TOTAL        ACCESS:   17083302 HIT:   16330200 MISS:     753102 MSHR_MERGE:     348834
cpu0->cpu0_ITLB LOAD         ACCESS:   17083302 HIT:   16330200 MISS:     753102 MSHR_MERGE:     348834
cpu0->cpu0_ITLB RFO          ACCESS:          0 HIT:          0 MISS:          0 MSHR_MERGE:          0
cpu0->cpu0_ITLB PREFETCH     ACCESS:          0 HIT:          0 MISS:          0 MSHR_MERGE:          0
cpu0->cpu0_ITLB WRITE        ACCESS:          0 HIT:          0 MISS:          0 MSHR_MERGE:          0
cpu0->cpu0_ITLB TRANSLATION  ACCESS:          0 HIT:          0 MISS:          0 MSHR_MERGE:          0
cpu0->cpu0_ITLB PREFETCH REQUESTED:          0 ISSUED:          0 USEFUL:          0 USELESS:          0
cpu0->cpu0_ITLB AVERAGE MISS LATENCY: 20.15 cycles
cpu0->cpu0_DTLB TOTAL        ACCESS:   55183717 HIT:   51167785 MISS:    4015932 MSHR_MERGE:    1518793
cpu0->cpu0_DTLB LOAD         ACCESS:   55183717 HIT:   51167785 MISS:    4015932 MSHR_MERGE:    1518793
cpu0->cpu0_DTLB RFO          ACCESS:          0 HIT:          0 MISS:          0 MSHR_MERGE:          0
cpu0->cpu0_DTLB PREFETCH     ACCESS:          0 HIT:          0 MISS:          0 MSHR_MERGE:          0
cpu0->cpu0_DTLB WRITE        ACCESS:          0 HIT:          0 MISS:          0 MSHR_MERGE:          0
cpu0->cpu0_DTLB TRANSLATION  ACCESS:          0 HIT:          0 MISS:          0 MSHR_MERGE:          0
cpu0->cpu0_DTLB PREFETCH REQUESTED:          0 ISSUED:          0 USEFUL:          0 USELESS:          0
cpu0->cpu0_DTLB AVERAGE MISS LATENCY: 32.56 cycles
cpu0->LLC TOTAL        ACCESS:    3355286 HIT:    1117121 MISS:    2238165 MSHR_MERGE:          0
cpu0->LLC LOAD         ACCESS:    1883226 HIT:     526234 MISS:    1356992 MSHR_MERGE:          0
cpu0->LLC RFO          ACCESS:     468983 HIT:      31594 MISS:     437389 MSHR_MERGE:          0
cpu0->LLC PREFETCH     ACCESS:          0 HIT:          0 MISS:          0 MSHR_MERGE:          0
cpu0->LLC WRITE        ACCESS:     751646 HIT:     500645 MISS:     251001 MSHR_MERGE:          0
cpu0->LLC TRANSLATION  ACCESS:     251431 HIT:      58648 MISS:     192783 MSHR_MERGE:          0
cpu0->LLC PREFETCH REQUESTED:          0 ISSUED:          0 USEFUL:          0 USELESS:          0
cpu0->LLC AVERAGE MISS LATENCY: 189.8 cycles

DRAM Statistics

Channel 0 RQ ROW_BUFFER_HIT:      95463
  ROW_BUFFER_MISS:    1891659
  AVG DBUS CONGESTED CYCLE: 29.39
Channel 0 WQ ROW_BUFFER_HIT:     181440
  ROW_BUFFER_MISS:     518336
  FULL:          0
Channel 0 REFRESHES ISSUED:      33820
