[VMEM] WARNING: physical memory size is smaller than virtual memory size.

*** ChampSim Multicore Out-of-Order Simulator ***
Warmup Instructions: 50000000
Simulation Instructions: 200000000
Number of CPUs: 1
Page size: 4096
Core 0: /local-ssd/ben/dpc4-traces/Graph/Ligra/ligra_CF.com-lj.ungraph.gcc_6.3.0_O3.drop_154750M.length_250M.champsimtrace.xz
Off-chip DRAM Size: 64 GiB Channels: 1 Width: 64-bit Data Rate: 4807 MT/s
Heartbeat CPU 0 instructions: 500005 cycles: 179161 heartbeat IPC: 2.791 cumulative IPC: 2.791 (Simulation time: 00 hr 00 min 03 sec)
Heartbeat CPU 0 instructions: 1000006 cycles: 316535 heartbeat IPC: 3.64 cumulative IPC: 3.159 (Simulation time: 00 hr 00 min 04 sec)
Heartbeat CPU 0 instructions: 1500010 cycles: 487878 heartbeat IPC: 2.918 cumulative IPC: 3.075 (Simulation time: 00 hr 00 min 07 sec)
Heartbeat CPU 0 instructions: 2000014 cycles: 653955 heartbeat IPC: 3.011 cumulative IPC: 3.058 (Simulation time: 00 hr 00 min 09 sec)
Heartbeat CPU 0 instructions: 2500021 cycles: 785655 heartbeat IPC: 3.797 cumulative IPC: 3.182 (Simulation time: 00 hr 00 min 11 sec)
Heartbeat CPU 0 instructions: 3000026 cycles: 916289 heartbeat IPC: 3.828 cumulative IPC: 3.274 (Simulation time: 00 hr 00 min 12 sec)
Heartbeat CPU 0 instructions: 3500026 cycles: 1052878 heartbeat IPC: 3.661 cumulative IPC: 3.324 (Simulation time: 00 hr 00 min 14 sec)
Heartbeat CPU 0 instructions: 4000026 cycles: 1203097 heartbeat IPC: 3.328 cumulative IPC: 3.325 (Simulation time: 00 hr 00 min 17 sec)
Heartbeat CPU 0 instructions: 4500026 cycles: 1376563 heartbeat IPC: 2.882 cumulative IPC: 3.269 (Simulation time: 00 hr 00 min 19 sec)
Heartbeat CPU 0 instructions: 5000029 cycles: 1528525 heartbeat IPC: 3.29 cumulative IPC: 3.271 (Simulation time: 00 hr 00 min 21 sec)
Heartbeat CPU 0 instructions: 5500035 cycles: 1655975 heartbeat IPC: 3.923 cumulative IPC: 3.321 (Simulation time: 00 hr 00 min 23 sec)
Heartbeat CPU 0 instructions: 6000038 cycles: 1785042 heartbeat IPC: 3.874 cumulative IPC: 3.361 (Simulation time: 00 hr 00 min 25 sec)
Heartbeat CPU 0 instructions: 6500038 cycles: 1943596 heartbeat IPC: 3.153 cumulative IPC: 3.344 (Simulation time: 00 hr 00 min 27 sec)
Heartbeat CPU 0 instructions: 7000042 cycles: 2114989 heartbeat IPC: 2.917 cumulative IPC: 3.31 (Simulation time: 00 hr 00 min 30 sec)
Heartbeat CPU 0 instructions: 7500048 cycles: 2277042 heartbeat IPC: 3.085 cumulative IPC: 3.294 (Simulation time: 00 hr 00 min 32 sec)
Heartbeat CPU 0 instructions: 8000050 cycles: 2435400 heartbeat IPC: 3.157 cumulative IPC: 3.285 (Simulation time: 00 hr 00 min 35 sec)
Heartbeat CPU 0 instructions: 8500054 cycles: 2589878 heartbeat IPC: 3.237 cumulative IPC: 3.282 (Simulation time: 00 hr 00 min 37 sec)
Heartbeat CPU 0 instructions: 9000054 cycles: 2737900 heartbeat IPC: 3.378 cumulative IPC: 3.287 (Simulation time: 00 hr 00 min 39 sec)
Heartbeat CPU 0 instructions: 9500058 cycles: 2890286 heartbeat IPC: 3.281 cumulative IPC: 3.287 (Simulation time: 00 hr 00 min 42 sec)
Heartbeat CPU 0 instructions: 10000058 cycles: 3043636 heartbeat IPC: 3.261 cumulative IPC: 3.286 (Simulation time: 00 hr 00 min 44 sec)
Heartbeat CPU 0 instructions: 10500058 cycles: 3183452 heartbeat IPC: 3.576 cumulative IPC: 3.298 (Simulation time: 00 hr 00 min 46 sec)
Heartbeat CPU 0 instructions: 11000058 cycles: 3318029 heartbeat IPC: 3.715 cumulative IPC: 3.315 (Simulation time: 00 hr 00 min 48 sec)
Heartbeat CPU 0 instructions: 11500058 cycles: 3452900 heartbeat IPC: 3.707 cumulative IPC: 3.331 (Simulation time: 00 hr 00 min 50 sec)
Heartbeat CPU 0 instructions: 12000062 cycles: 3587034 heartbeat IPC: 3.728 cumulative IPC: 3.345 (Simulation time: 00 hr 00 min 52 sec)
Heartbeat CPU 0 instructions: 12500066 cycles: 3723606 heartbeat IPC: 3.661 cumulative IPC: 3.357 (Simulation time: 00 hr 00 min 54 sec)
Heartbeat CPU 0 instructions: 13000073 cycles: 3871349 heartbeat IPC: 3.384 cumulative IPC: 3.358 (Simulation time: 00 hr 00 min 56 sec)
Heartbeat CPU 0 instructions: 13500078 cycles: 4017517 heartbeat IPC: 3.421 cumulative IPC: 3.36 (Simulation time: 00 hr 00 min 58 sec)
Heartbeat CPU 0 instructions: 14000081 cycles: 4154035 heartbeat IPC: 3.663 cumulative IPC: 3.37 (Simulation time: 00 hr 01 min 00 sec)
Heartbeat CPU 0 instructions: 14500088 cycles: 4276241 heartbeat IPC: 4.092 cumulative IPC: 3.391 (Simulation time: 00 hr 01 min 02 sec)
Heartbeat CPU 0 instructions: 15000089 cycles: 4395758 heartbeat IPC: 4.184 cumulative IPC: 3.412 (Simulation time: 00 hr 01 min 04 sec)
Heartbeat CPU 0 instructions: 15500092 cycles: 4514938 heartbeat IPC: 4.195 cumulative IPC: 3.433 (Simulation time: 00 hr 01 min 05 sec)
Heartbeat CPU 0 instructions: 16000095 cycles: 4634337 heartbeat IPC: 4.188 cumulative IPC: 3.453 (Simulation time: 00 hr 01 min 07 sec)
Heartbeat CPU 0 instructions: 16500096 cycles: 4753790 heartbeat IPC: 4.186 cumulative IPC: 3.471 (Simulation time: 00 hr 01 min 08 sec)
Heartbeat CPU 0 instructions: 17000100 cycles: 4872908 heartbeat IPC: 4.198 cumulative IPC: 3.489 (Simulation time: 00 hr 01 min 10 sec)
Heartbeat CPU 0 instructions: 17500105 cycles: 4992094 heartbeat IPC: 4.195 cumulative IPC: 3.506 (Simulation time: 00 hr 01 min 12 sec)
Heartbeat CPU 0 instructions: 18000105 cycles: 5110957 heartbeat IPC: 4.207 cumulative IPC: 3.522 (Simulation time: 00 hr 01 min 13 sec)
Heartbeat CPU 0 instructions: 18500106 cycles: 5230425 heartbeat IPC: 4.185 cumulative IPC: 3.537 (Simulation time: 00 hr 01 min 15 sec)
Heartbeat CPU 0 instructions: 19000108 cycles: 5349559 heartbeat IPC: 4.197 cumulative IPC: 3.552 (Simulation time: 00 hr 01 min 17 sec)
Heartbeat CPU 0 instructions: 19500112 cycles: 5468741 heartbeat IPC: 4.195 cumulative IPC: 3.566 (Simulation time: 00 hr 01 min 18 sec)
Heartbeat CPU 0 instructions: 20000117 cycles: 5587669 heartbeat IPC: 4.204 cumulative IPC: 3.579 (Simulation time: 00 hr 01 min 20 sec)
Heartbeat CPU 0 instructions: 20500124 cycles: 5706718 heartbeat IPC: 4.2 cumulative IPC: 3.592 (Simulation time: 00 hr 01 min 21 sec)
Heartbeat CPU 0 instructions: 21000129 cycles: 5826134 heartbeat IPC: 4.187 cumulative IPC: 3.604 (Simulation time: 00 hr 01 min 23 sec)
Heartbeat CPU 0 instructions: 21500133 cycles: 5945589 heartbeat IPC: 4.186 cumulative IPC: 3.616 (Simulation time: 00 hr 01 min 25 sec)
Heartbeat CPU 0 instructions: 22000133 cycles: 6064593 heartbeat IPC: 4.202 cumulative IPC: 3.628 (Simulation time: 00 hr 01 min 26 sec)
Heartbeat CPU 0 instructions: 22500137 cycles: 6183627 heartbeat IPC: 4.201 cumulative IPC: 3.639 (Simulation time: 00 hr 01 min 28 sec)
Heartbeat CPU 0 instructions: 23000142 cycles: 6302315 heartbeat IPC: 4.213 cumulative IPC: 3.649 (Simulation time: 00 hr 01 min 30 sec)
Heartbeat CPU 0 instructions: 23500144 cycles: 6421421 heartbeat IPC: 4.198 cumulative IPC: 3.66 (Simulation time: 00 hr 01 min 31 sec)
Heartbeat CPU 0 instructions: 24000144 cycles: 6540465 heartbeat IPC: 4.2 cumulative IPC: 3.669 (Simulation time: 00 hr 01 min 33 sec)
Heartbeat CPU 0 instructions: 24500144 cycles: 6659344 heartbeat IPC: 4.206 cumulative IPC: 3.679 (Simulation time: 00 hr 01 min 35 sec)
Heartbeat CPU 0 instructions: 25000149 cycles: 6778652 heartbeat IPC: 4.191 cumulative IPC: 3.688 (Simulation time: 00 hr 01 min 36 sec)
Heartbeat CPU 0 instructions: 25500149 cycles: 6897407 heartbeat IPC: 4.21 cumulative IPC: 3.697 (Simulation time: 00 hr 01 min 38 sec)
Heartbeat CPU 0 instructions: 26000156 cycles: 7016516 heartbeat IPC: 4.198 cumulative IPC: 3.706 (Simulation time: 00 hr 01 min 39 sec)
Heartbeat CPU 0 instructions: 26500158 cycles: 7135737 heartbeat IPC: 4.194 cumulative IPC: 3.714 (Simulation time: 00 hr 01 min 41 sec)
Heartbeat CPU 0 instructions: 27000165 cycles: 7255242 heartbeat IPC: 4.184 cumulative IPC: 3.721 (Simulation time: 00 hr 01 min 43 sec)
Heartbeat CPU 0 instructions: 27500169 cycles: 7374715 heartbeat IPC: 4.185 cumulative IPC: 3.729 (Simulation time: 00 hr 01 min 44 sec)
Heartbeat CPU 0 instructions: 28000172 cycles: 7493663 heartbeat IPC: 4.204 cumulative IPC: 3.737 (Simulation time: 00 hr 01 min 46 sec)
Heartbeat CPU 0 instructions: 28500176 cycles: 7612855 heartbeat IPC: 4.195 cumulative IPC: 3.744 (Simulation time: 00 hr 01 min 48 sec)
Heartbeat CPU 0 instructions: 29000181 cycles: 7731561 heartbeat IPC: 4.212 cumulative IPC: 3.751 (Simulation time: 00 hr 01 min 49 sec)
Heartbeat CPU 0 instructions: 29500185 cycles: 7850941 heartbeat IPC: 4.188 cumulative IPC: 3.758 (Simulation time: 00 hr 01 min 51 sec)
Heartbeat CPU 0 instructions: 30000185 cycles: 7970104 heartbeat IPC: 4.196 cumulative IPC: 3.764 (Simulation time: 00 hr 01 min 53 sec)
Heartbeat CPU 0 instructions: 30500190 cycles: 8089376 heartbeat IPC: 4.192 cumulative IPC: 3.77 (Simulation time: 00 hr 01 min 54 sec)
Heartbeat CPU 0 instructions: 31000192 cycles: 8209320 heartbeat IPC: 4.169 cumulative IPC: 3.776 (Simulation time: 00 hr 01 min 56 sec)
Heartbeat CPU 0 instructions: 31500196 cycles: 8329120 heartbeat IPC: 4.174 cumulative IPC: 3.782 (Simulation time: 00 hr 01 min 57 sec)
Heartbeat CPU 0 instructions: 32000197 cycles: 8448863 heartbeat IPC: 4.176 cumulative IPC: 3.788 (Simulation time: 00 hr 01 min 59 sec)
Heartbeat CPU 0 instructions: 32500197 cycles: 8568849 heartbeat IPC: 4.167 cumulative IPC: 3.793 (Simulation time: 00 hr 02 min 01 sec)
Heartbeat CPU 0 instructions: 33000204 cycles: 8688455 heartbeat IPC: 4.18 cumulative IPC: 3.798 (Simulation time: 00 hr 02 min 02 sec)
Heartbeat CPU 0 instructions: 33500209 cycles: 8808231 heartbeat IPC: 4.175 cumulative IPC: 3.803 (Simulation time: 00 hr 02 min 04 sec)
Heartbeat CPU 0 instructions: 34000214 cycles: 8928012 heartbeat IPC: 4.174 cumulative IPC: 3.808 (Simulation time: 00 hr 02 min 05 sec)
Heartbeat CPU 0 instructions: 34500219 cycles: 9047786 heartbeat IPC: 4.175 cumulative IPC: 3.813 (Simulation time: 00 hr 02 min 07 sec)
Heartbeat CPU 0 instructions: 35000225 cycles: 9167640 heartbeat IPC: 4.172 cumulative IPC: 3.818 (Simulation time: 00 hr 02 min 09 sec)
Heartbeat CPU 0 instructions: 35500227 cycles: 9287157 heartbeat IPC: 4.184 cumulative IPC: 3.823 (Simulation time: 00 hr 02 min 10 sec)
Heartbeat CPU 0 instructions: 36000232 cycles: 9406732 heartbeat IPC: 4.182 cumulative IPC: 3.827 (Simulation time: 00 hr 02 min 12 sec)
Heartbeat CPU 0 instructions: 36500232 cycles: 9526531 heartbeat IPC: 4.174 cumulative IPC: 3.831 (Simulation time: 00 hr 02 min 13 sec)
Heartbeat CPU 0 instructions: 37000233 cycles: 9646369 heartbeat IPC: 4.172 cumulative IPC: 3.836 (Simulation time: 00 hr 02 min 15 sec)
Heartbeat CPU 0 instructions: 37500237 cycles: 9766306 heartbeat IPC: 4.169 cumulative IPC: 3.84 (Simulation time: 00 hr 02 min 17 sec)
Heartbeat CPU 0 instructions: 38000241 cycles: 9885601 heartbeat IPC: 4.191 cumulative IPC: 3.844 (Simulation time: 00 hr 02 min 18 sec)
Heartbeat CPU 0 instructions: 38500244 cycles: 10004890 heartbeat IPC: 4.192 cumulative IPC: 3.848 (Simulation time: 00 hr 02 min 20 sec)
Heartbeat CPU 0 instructions: 39000251 cycles: 10123914 heartbeat IPC: 4.201 cumulative IPC: 3.852 (Simulation time: 00 hr 02 min 22 sec)
Heartbeat CPU 0 instructions: 39500253 cycles: 10243362 heartbeat IPC: 4.186 cumulative IPC: 3.856 (Simulation time: 00 hr 02 min 23 sec)
Heartbeat CPU 0 instructions: 40000257 cycles: 10362966 heartbeat IPC: 4.18 cumulative IPC: 3.86 (Simulation time: 00 hr 02 min 25 sec)
Heartbeat CPU 0 instructions: 40500257 cycles: 10482117 heartbeat IPC: 4.196 cumulative IPC: 3.864 (Simulation time: 00 hr 02 min 26 sec)
Heartbeat CPU 0 instructions: 41000264 cycles: 10601477 heartbeat IPC: 4.189 cumulative IPC: 3.867 (Simulation time: 00 hr 02 min 28 sec)
Heartbeat CPU 0 instructions: 41500265 cycles: 10720843 heartbeat IPC: 4.189 cumulative IPC: 3.871 (Simulation time: 00 hr 02 min 30 sec)
Heartbeat CPU 0 instructions: 42000267 cycles: 10840260 heartbeat IPC: 4.187 cumulative IPC: 3.874 (Simulation time: 00 hr 02 min 31 sec)
Heartbeat CPU 0 instructions: 42500273 cycles: 10959903 heartbeat IPC: 4.179 cumulative IPC: 3.878 (Simulation time: 00 hr 02 min 33 sec)
Heartbeat CPU 0 instructions: 43000278 cycles: 11079110 heartbeat IPC: 4.194 cumulative IPC: 3.881 (Simulation time: 00 hr 02 min 35 sec)
Heartbeat CPU 0 instructions: 43500280 cycles: 11198616 heartbeat IPC: 4.184 cumulative IPC: 3.884 (Simulation time: 00 hr 02 min 36 sec)
Heartbeat CPU 0 instructions: 44000280 cycles: 11317814 heartbeat IPC: 4.195 cumulative IPC: 3.888 (Simulation time: 00 hr 02 min 38 sec)
Heartbeat CPU 0 instructions: 44500280 cycles: 11437262 heartbeat IPC: 4.186 cumulative IPC: 3.891 (Simulation time: 00 hr 02 min 39 sec)
Heartbeat CPU 0 instructions: 45000285 cycles: 11556922 heartbeat IPC: 4.179 cumulative IPC: 3.894 (Simulation time: 00 hr 02 min 41 sec)
Heartbeat CPU 0 instructions: 45500292 cycles: 11676342 heartbeat IPC: 4.187 cumulative IPC: 3.897 (Simulation time: 00 hr 02 min 43 sec)
Heartbeat CPU 0 instructions: 46000293 cycles: 11795894 heartbeat IPC: 4.182 cumulative IPC: 3.9 (Simulation time: 00 hr 02 min 44 sec)
Heartbeat CPU 0 instructions: 46500294 cycles: 11915082 heartbeat IPC: 4.195 cumulative IPC: 3.903 (Simulation time: 00 hr 02 min 46 sec)
Heartbeat CPU 0 instructions: 47000298 cycles: 12034550 heartbeat IPC: 4.185 cumulative IPC: 3.905 (Simulation time: 00 hr 02 min 48 sec)
Heartbeat CPU 0 instructions: 47500305 cycles: 12154161 heartbeat IPC: 4.18 cumulative IPC: 3.908 (Simulation time: 00 hr 02 min 49 sec)
Heartbeat CPU 0 instructions: 48000308 cycles: 12273414 heartbeat IPC: 4.193 cumulative IPC: 3.911 (Simulation time: 00 hr 02 min 51 sec)
Heartbeat CPU 0 instructions: 48500313 cycles: 12392919 heartbeat IPC: 4.184 cumulative IPC: 3.914 (Simulation time: 00 hr 02 min 52 sec)
Heartbeat CPU 0 instructions: 49000313 cycles: 12512198 heartbeat IPC: 4.192 cumulative IPC: 3.916 (Simulation time: 00 hr 02 min 54 sec)
Heartbeat CPU 0 instructions: 49500317 cycles: 12631554 heartbeat IPC: 4.189 cumulative IPC: 3.919 (Simulation time: 00 hr 02 min 56 sec)
Warmup halting CPU 0 at instruction 50000005 cycle 12750769 for remainder of phase
Warmup finished CPU 0 instructions: 50000005 cycles: 12750769 cumulative IPC: 3.921 (Simulation time: 00 hr 02 min 57 sec)
Warmup complete CPU 0 instructions: 50000005 cycles: 12750769 cumulative IPC: 3.921 (Simulation time: 00 hr 02 min 57 sec)
Heartbeat CPU 0 instructions: 50000317 cycles: 12750808 heartbeat IPC: 4.193 cumulative IPC: 8 (Simulation time: 00 hr 02 min 57 sec)
Heartbeat CPU 0 instructions: 50500324 cycles: 13284468 heartbeat IPC: 0.9369 cumulative IPC: 0.9375 (Simulation time: 00 hr 03 min 03 sec)
Heartbeat CPU 0 instructions: 51000326 cycles: 13806788 heartbeat IPC: 0.9573 cumulative IPC: 0.9473 (Simulation time: 00 hr 03 min 09 sec)
Heartbeat CPU 0 instructions: 51500332 cycles: 14327300 heartbeat IPC: 0.9606 cumulative IPC: 0.9517 (Simulation time: 00 hr 03 min 14 sec)
Heartbeat CPU 0 instructions: 52000332 cycles: 14862207 heartbeat IPC: 0.9347 cumulative IPC: 0.9474 (Simulation time: 00 hr 03 min 20 sec)
Heartbeat CPU 0 instructions: 52500332 cycles: 15396879 heartbeat IPC: 0.9352 cumulative IPC: 0.9449 (Simulation time: 00 hr 03 min 26 sec)
Heartbeat CPU 0 instructions: 53000336 cycles: 15939471 heartbeat IPC: 0.9215 cumulative IPC: 0.9409 (Simulation time: 00 hr 03 min 31 sec)
Heartbeat CPU 0 instructions: 53500342 cycles: 16478418 heartbeat IPC: 0.9277 cumulative IPC: 0.939 (Simulation time: 00 hr 03 min 37 sec)
Heartbeat CPU 0 instructions: 54000344 cycles: 17002900 heartbeat IPC: 0.9533 cumulative IPC: 0.9408 (Simulation time: 00 hr 03 min 43 sec)
Heartbeat CPU 0 instructions: 54500350 cycles: 17545208 heartbeat IPC: 0.922 cumulative IPC: 0.9387 (Simulation time: 00 hr 03 min 49 sec)
Heartbeat CPU 0 instructions: 55000352 cycles: 18073098 heartbeat IPC: 0.9472 cumulative IPC: 0.9395 (Simulation time: 00 hr 03 min 54 sec)
Heartbeat CPU 0 instructions: 55500358 cycles: 18608065 heartbeat IPC: 0.9346 cumulative IPC: 0.9391 (Simulation time: 00 hr 04 min 00 sec)
Heartbeat CPU 0 instructions: 56000364 cycles: 19143309 heartbeat IPC: 0.9342 cumulative IPC: 0.9387 (Simulation time: 00 hr 04 min 06 sec)
Heartbeat CPU 0 instructions: 56500368 cycles: 19673602 heartbeat IPC: 0.9429 cumulative IPC: 0.939 (Simulation time: 00 hr 04 min 11 sec)
Heartbeat CPU 0 instructions: 57000368 cycles: 20211116 heartbeat IPC: 0.9302 cumulative IPC: 0.9383 (Simulation time: 00 hr 04 min 17 sec)
Heartbeat CPU 0 instructions: 57500372 cycles: 20736816 heartbeat IPC: 0.9511 cumulative IPC: 0.9392 (Simulation time: 00 hr 04 min 23 sec)
Heartbeat CPU 0 instructions: 58000378 cycles: 21267209 heartbeat IPC: 0.9427 cumulative IPC: 0.9394 (Simulation time: 00 hr 04 min 28 sec)
Heartbeat CPU 0 instructions: 58500381 cycles: 21805547 heartbeat IPC: 0.9288 cumulative IPC: 0.9388 (Simulation time: 00 hr 04 min 34 sec)
Heartbeat CPU 0 instructions: 59000388 cycles: 22351536 heartbeat IPC: 0.9158 cumulative IPC: 0.9375 (Simulation time: 00 hr 04 min 40 sec)
Heartbeat CPU 0 instructions: 59500388 cycles: 22887927 heartbeat IPC: 0.9322 cumulative IPC: 0.9372 (Simulation time: 00 hr 04 min 45 sec)
Heartbeat CPU 0 instructions: 60000392 cycles: 23419475 heartbeat IPC: 0.9407 cumulative IPC: 0.9374 (Simulation time: 00 hr 04 min 51 sec)
Heartbeat CPU 0 instructions: 60500392 cycles: 23938779 heartbeat IPC: 0.9628 cumulative IPC: 0.9385 (Simulation time: 00 hr 04 min 57 sec)
Heartbeat CPU 0 instructions: 61000396 cycles: 24477695 heartbeat IPC: 0.9278 cumulative IPC: 0.938 (Simulation time: 00 hr 05 min 02 sec)
Heartbeat CPU 0 instructions: 61500396 cycles: 25018356 heartbeat IPC: 0.9248 cumulative IPC: 0.9375 (Simulation time: 00 hr 05 min 08 sec)
Heartbeat CPU 0 instructions: 62000400 cycles: 25567715 heartbeat IPC: 0.9102 cumulative IPC: 0.9363 (Simulation time: 00 hr 05 min 14 sec)
Heartbeat CPU 0 instructions: 62500400 cycles: 26099965 heartbeat IPC: 0.9394 cumulative IPC: 0.9364 (Simulation time: 00 hr 05 min 19 sec)
Heartbeat CPU 0 instructions: 63000404 cycles: 26637949 heartbeat IPC: 0.9294 cumulative IPC: 0.9361 (Simulation time: 00 hr 05 min 25 sec)
Heartbeat CPU 0 instructions: 63500408 cycles: 27176923 heartbeat IPC: 0.9277 cumulative IPC: 0.9358 (Simulation time: 00 hr 05 min 31 sec)
Heartbeat CPU 0 instructions: 64000412 cycles: 27703382 heartbeat IPC: 0.9497 cumulative IPC: 0.9363 (Simulation time: 00 hr 05 min 37 sec)
Heartbeat CPU 0 instructions: 64500412 cycles: 28232777 heartbeat IPC: 0.9445 cumulative IPC: 0.9366 (Simulation time: 00 hr 05 min 42 sec)
Heartbeat CPU 0 instructions: 65000412 cycles: 28764872 heartbeat IPC: 0.9397 cumulative IPC: 0.9367 (Simulation time: 00 hr 05 min 48 sec)
Heartbeat CPU 0 instructions: 65500412 cycles: 29291235 heartbeat IPC: 0.9499 cumulative IPC: 0.9371 (Simulation time: 00 hr 05 min 54 sec)
Heartbeat CPU 0 instructions: 66000414 cycles: 29824927 heartbeat IPC: 0.9369 cumulative IPC: 0.9371 (Simulation time: 00 hr 05 min 59 sec)
Heartbeat CPU 0 instructions: 66500418 cycles: 30352471 heartbeat IPC: 0.9478 cumulative IPC: 0.9374 (Simulation time: 00 hr 06 min 05 sec)
Heartbeat CPU 0 instructions: 67000420 cycles: 30883615 heartbeat IPC: 0.9414 cumulative IPC: 0.9375 (Simulation time: 00 hr 06 min 10 sec)
Heartbeat CPU 0 instructions: 67500420 cycles: 31417847 heartbeat IPC: 0.9359 cumulative IPC: 0.9375 (Simulation time: 00 hr 06 min 16 sec)
Heartbeat CPU 0 instructions: 68000420 cycles: 31941075 heartbeat IPC: 0.9556 cumulative IPC: 0.938 (Simulation time: 00 hr 06 min 22 sec)
Heartbeat CPU 0 instructions: 68500420 cycles: 32471922 heartbeat IPC: 0.9419 cumulative IPC: 0.9381 (Simulation time: 00 hr 06 min 27 sec)
Heartbeat CPU 0 instructions: 69000422 cycles: 33004832 heartbeat IPC: 0.9382 cumulative IPC: 0.9381 (Simulation time: 00 hr 06 min 33 sec)
Heartbeat CPU 0 instructions: 69500428 cycles: 33538012 heartbeat IPC: 0.9378 cumulative IPC: 0.9381 (Simulation time: 00 hr 06 min 39 sec)
Heartbeat CPU 0 instructions: 70000428 cycles: 34070030 heartbeat IPC: 0.9398 cumulative IPC: 0.9381 (Simulation time: 00 hr 06 min 44 sec)
Heartbeat CPU 0 instructions: 70500432 cycles: 34588269 heartbeat IPC: 0.9648 cumulative IPC: 0.9388 (Simulation time: 00 hr 06 min 50 sec)
Heartbeat CPU 0 instructions: 71000432 cycles: 35115632 heartbeat IPC: 0.9481 cumulative IPC: 0.939 (Simulation time: 00 hr 06 min 56 sec)
Heartbeat CPU 0 instructions: 71500436 cycles: 35638097 heartbeat IPC: 0.957 cumulative IPC: 0.9394 (Simulation time: 00 hr 07 min 01 sec)
Heartbeat CPU 0 instructions: 72000436 cycles: 36181632 heartbeat IPC: 0.9199 cumulative IPC: 0.939 (Simulation time: 00 hr 07 min 07 sec)
Heartbeat CPU 0 instructions: 72500440 cycles: 36718644 heartbeat IPC: 0.9311 cumulative IPC: 0.9388 (Simulation time: 00 hr 07 min 13 sec)
Heartbeat CPU 0 instructions: 73000446 cycles: 37241538 heartbeat IPC: 0.9562 cumulative IPC: 0.9391 (Simulation time: 00 hr 07 min 18 sec)
Heartbeat CPU 0 instructions: 73500446 cycles: 37780171 heartbeat IPC: 0.9283 cumulative IPC: 0.9389 (Simulation time: 00 hr 07 min 24 sec)
Heartbeat CPU 0 instructions: 74000449 cycles: 38297231 heartbeat IPC: 0.967 cumulative IPC: 0.9395 (Simulation time: 00 hr 07 min 29 sec)
Heartbeat CPU 0 instructions: 74500456 cycles: 38828786 heartbeat IPC: 0.9406 cumulative IPC: 0.9395 (Simulation time: 00 hr 07 min 35 sec)
Heartbeat CPU 0 instructions: 75000460 cycles: 39358423 heartbeat IPC: 0.9441 cumulative IPC: 0.9396 (Simulation time: 00 hr 07 min 41 sec)
Heartbeat CPU 0 instructions: 75500462 cycles: 39891952 heartbeat IPC: 0.9372 cumulative IPC: 0.9395 (Simulation time: 00 hr 07 min 46 sec)
Heartbeat CPU 0 instructions: 76000462 cycles: 40426261 heartbeat IPC: 0.9358 cumulative IPC: 0.9395 (Simulation time: 00 hr 07 min 52 sec)
Heartbeat CPU 0 instructions: 76500468 cycles: 40951479 heartbeat IPC: 0.952 cumulative IPC: 0.9397 (Simulation time: 00 hr 07 min 58 sec)
Heartbeat CPU 0 instructions: 77000468 cycles: 41494043 heartbeat IPC: 0.9216 cumulative IPC: 0.9394 (Simulation time: 00 hr 08 min 03 sec)
Heartbeat CPU 0 instructions: 77500472 cycles: 42026356 heartbeat IPC: 0.9393 cumulative IPC: 0.9394 (Simulation time: 00 hr 08 min 09 sec)
Heartbeat CPU 0 instructions: 78000476 cycles: 42563007 heartbeat IPC: 0.9317 cumulative IPC: 0.9392 (Simulation time: 00 hr 08 min 15 sec)
Heartbeat CPU 0 instructions: 78500476 cycles: 43094133 heartbeat IPC: 0.9414 cumulative IPC: 0.9393 (Simulation time: 00 hr 08 min 20 sec)
Heartbeat CPU 0 instructions: 79000476 cycles: 43621816 heartbeat IPC: 0.9475 cumulative IPC: 0.9394 (Simulation time: 00 hr 08 min 26 sec)
Heartbeat CPU 0 instructions: 79500480 cycles: 44160838 heartbeat IPC: 0.9276 cumulative IPC: 0.9392 (Simulation time: 00 hr 08 min 32 sec)
Heartbeat CPU 0 instructions: 80000484 cycles: 44692477 heartbeat IPC: 0.9405 cumulative IPC: 0.9392 (Simulation time: 00 hr 08 min 37 sec)
Heartbeat CPU 0 instructions: 80500484 cycles: 45213637 heartbeat IPC: 0.9594 cumulative IPC: 0.9395 (Simulation time: 00 hr 08 min 43 sec)
Heartbeat CPU 0 instructions: 81000488 cycles: 45742848 heartbeat IPC: 0.9448 cumulative IPC: 0.9396 (Simulation time: 00 hr 08 min 49 sec)
Heartbeat CPU 0 instructions: 81500492 cycles: 46276960 heartbeat IPC: 0.9361 cumulative IPC: 0.9396 (Simulation time: 00 hr 08 min 54 sec)
Heartbeat CPU 0 instructions: 82000498 cycles: 46805717 heartbeat IPC: 0.9456 cumulative IPC: 0.9397 (Simulation time: 00 hr 09 min 00 sec)
Heartbeat CPU 0 instructions: 82500498 cycles: 47331165 heartbeat IPC: 0.9516 cumulative IPC: 0.9399 (Simulation time: 00 hr 09 min 06 sec)
Heartbeat CPU 0 instructions: 83000500 cycles: 47874196 heartbeat IPC: 0.9208 cumulative IPC: 0.9396 (Simulation time: 00 hr 09 min 11 sec)
Heartbeat CPU 0 instructions: 83500504 cycles: 48403647 heartbeat IPC: 0.9444 cumulative IPC: 0.9396 (Simulation time: 00 hr 09 min 17 sec)
Heartbeat CPU 0 instructions: 84000504 cycles: 48939184 heartbeat IPC: 0.9336 cumulative IPC: 0.9395 (Simulation time: 00 hr 09 min 23 sec)
Heartbeat CPU 0 instructions: 84500508 cycles: 49473690 heartbeat IPC: 0.9355 cumulative IPC: 0.9395 (Simulation time: 00 hr 09 min 28 sec)
Heartbeat CPU 0 instructions: 85000512 cycles: 50004885 heartbeat IPC: 0.9413 cumulative IPC: 0.9395 (Simulation time: 00 hr 09 min 34 sec)
Heartbeat CPU 0 instructions: 85500517 cycles: 50534255 heartbeat IPC: 0.9445 cumulative IPC: 0.9396 (Simulation time: 00 hr 09 min 40 sec)
Heartbeat CPU 0 instructions: 86000524 cycles: 51050729 heartbeat IPC: 0.9681 cumulative IPC: 0.94 (Simulation time: 00 hr 09 min 45 sec)
Heartbeat CPU 0 instructions: 86500528 cycles: 51580718 heartbeat IPC: 0.9434 cumulative IPC: 0.94 (Simulation time: 00 hr 09 min 52 sec)
Heartbeat CPU 0 instructions: 87000532 cycles: 52122921 heartbeat IPC: 0.9222 cumulative IPC: 0.9398 (Simulation time: 00 hr 09 min 58 sec)
Heartbeat CPU 0 instructions: 87500538 cycles: 52667859 heartbeat IPC: 0.9175 cumulative IPC: 0.9395 (Simulation time: 00 hr 10 min 05 sec)
Heartbeat CPU 0 instructions: 88000544 cycles: 53199219 heartbeat IPC: 0.941 cumulative IPC: 0.9395 (Simulation time: 00 hr 10 min 11 sec)
Heartbeat CPU 0 instructions: 88500550 cycles: 53724510 heartbeat IPC: 0.9519 cumulative IPC: 0.9396 (Simulation time: 00 hr 10 min 18 sec)
Heartbeat CPU 0 instructions: 89000556 cycles: 54255225 heartbeat IPC: 0.9421 cumulative IPC: 0.9397 (Simulation time: 00 hr 10 min 24 sec)
Heartbeat CPU 0 instructions: 89500562 cycles: 54790865 heartbeat IPC: 0.9335 cumulative IPC: 0.9396 (Simulation time: 00 hr 10 min 31 sec)
Heartbeat CPU 0 instructions: 90000564 cycles: 55313984 heartbeat IPC: 0.9558 cumulative IPC: 0.9398 (Simulation time: 00 hr 10 min 37 sec)
Heartbeat CPU 0 instructions: 90500564 cycles: 55843647 heartbeat IPC: 0.944 cumulative IPC: 0.9398 (Simulation time: 00 hr 10 min 43 sec)
Heartbeat CPU 0 instructions: 91000564 cycles: 56374741 heartbeat IPC: 0.9415 cumulative IPC: 0.9399 (Simulation time: 00 hr 10 min 50 sec)
Heartbeat CPU 0 instructions: 91500564 cycles: 56900421 heartbeat IPC: 0.9511 cumulative IPC: 0.94 (Simulation time: 00 hr 10 min 56 sec)
Heartbeat CPU 0 instructions: 92000568 cycles: 57445425 heartbeat IPC: 0.9174 cumulative IPC: 0.9397 (Simulation time: 00 hr 11 min 03 sec)
Heartbeat CPU 0 instructions: 92500572 cycles: 57985249 heartbeat IPC: 0.9262 cumulative IPC: 0.9396 (Simulation time: 00 hr 11 min 09 sec)
Heartbeat CPU 0 instructions: 93000572 cycles: 58524368 heartbeat IPC: 0.9274 cumulative IPC: 0.9394 (Simulation time: 00 hr 11 min 16 sec)
Heartbeat CPU 0 instructions: 93500572 cycles: 59062189 heartbeat IPC: 0.9297 cumulative IPC: 0.9393 (Simulation time: 00 hr 11 min 22 sec)
Heartbeat CPU 0 instructions: 94000576 cycles: 59601895 heartbeat IPC: 0.9264 cumulative IPC: 0.9392 (Simulation time: 00 hr 11 min 29 sec)
Heartbeat CPU 0 instructions: 94500576 cycles: 60145812 heartbeat IPC: 0.9193 cumulative IPC: 0.9389 (Simulation time: 00 hr 11 min 35 sec)
Heartbeat CPU 0 instructions: 95000576 cycles: 60673989 heartbeat IPC: 0.9467 cumulative IPC: 0.939 (Simulation time: 00 hr 11 min 42 sec)
Heartbeat CPU 0 instructions: 95500576 cycles: 61208663 heartbeat IPC: 0.9351 cumulative IPC: 0.939 (Simulation time: 00 hr 11 min 48 sec)
Heartbeat CPU 0 instructions: 96000580 cycles: 61741259 heartbeat IPC: 0.9388 cumulative IPC: 0.939 (Simulation time: 00 hr 11 min 55 sec)
Heartbeat CPU 0 instructions: 96500580 cycles: 62284208 heartbeat IPC: 0.9209 cumulative IPC: 0.9388 (Simulation time: 00 hr 12 min 01 sec)
Heartbeat CPU 0 instructions: 97000584 cycles: 62808597 heartbeat IPC: 0.9535 cumulative IPC: 0.9389 (Simulation time: 00 hr 12 min 08 sec)
Heartbeat CPU 0 instructions: 97500588 cycles: 63334854 heartbeat IPC: 0.9501 cumulative IPC: 0.939 (Simulation time: 00 hr 12 min 14 sec)
Heartbeat CPU 0 instructions: 98000588 cycles: 63870561 heartbeat IPC: 0.9333 cumulative IPC: 0.939 (Simulation time: 00 hr 12 min 21 sec)
Heartbeat CPU 0 instructions: 98500592 cycles: 64417053 heartbeat IPC: 0.9149 cumulative IPC: 0.9387 (Simulation time: 00 hr 12 min 27 sec)
Heartbeat CPU 0 instructions: 99000592 cycles: 64939172 heartbeat IPC: 0.9576 cumulative IPC: 0.9389 (Simulation time: 00 hr 12 min 33 sec)
Heartbeat CPU 0 instructions: 99500596 cycles: 65492654 heartbeat IPC: 0.9034 cumulative IPC: 0.9385 (Simulation time: 00 hr 12 min 40 sec)
Heartbeat CPU 0 instructions: 100000598 cycles: 66032773 heartbeat IPC: 0.9257 cumulative IPC: 0.9384 (Simulation time: 00 hr 12 min 47 sec)
Heartbeat CPU 0 instructions: 100500600 cycles: 66564323 heartbeat IPC: 0.9406 cumulative IPC: 0.9384 (Simulation time: 00 hr 12 min 53 sec)
Heartbeat CPU 0 instructions: 101000601 cycles: 67101926 heartbeat IPC: 0.9301 cumulative IPC: 0.9384 (Simulation time: 00 hr 13 min 00 sec)
Heartbeat CPU 0 instructions: 101500604 cycles: 67634789 heartbeat IPC: 0.9383 cumulative IPC: 0.9384 (Simulation time: 00 hr 13 min 06 sec)
Heartbeat CPU 0 instructions: 102000605 cycles: 68174461 heartbeat IPC: 0.9265 cumulative IPC: 0.9382 (Simulation time: 00 hr 13 min 13 sec)
Heartbeat CPU 0 instructions: 102500608 cycles: 68696351 heartbeat IPC: 0.9581 cumulative IPC: 0.9384 (Simulation time: 00 hr 13 min 19 sec)
Heartbeat CPU 0 instructions: 103000612 cycles: 69228998 heartbeat IPC: 0.9387 cumulative IPC: 0.9384 (Simulation time: 00 hr 13 min 25 sec)
Heartbeat CPU 0 instructions: 103500612 cycles: 69759683 heartbeat IPC: 0.9422 cumulative IPC: 0.9385 (Simulation time: 00 hr 13 min 32 sec)
Heartbeat CPU 0 instructions: 104000616 cycles: 70284160 heartbeat IPC: 0.9533 cumulative IPC: 0.9386 (Simulation time: 00 hr 13 min 38 sec)
Heartbeat CPU 0 instructions: 104500620 cycles: 70819377 heartbeat IPC: 0.9342 cumulative IPC: 0.9386 (Simulation time: 00 hr 13 min 45 sec)
Heartbeat CPU 0 instructions: 105000620 cycles: 71345790 heartbeat IPC: 0.9498 cumulative IPC: 0.9387 (Simulation time: 00 hr 13 min 51 sec)
Heartbeat CPU 0 instructions: 105500624 cycles: 71880559 heartbeat IPC: 0.935 cumulative IPC: 0.9386 (Simulation time: 00 hr 13 min 57 sec)
Heartbeat CPU 0 instructions: 106000624 cycles: 72409387 heartbeat IPC: 0.9455 cumulative IPC: 0.9387 (Simulation time: 00 hr 14 min 04 sec)
Heartbeat CPU 0 instructions: 106500628 cycles: 72944550 heartbeat IPC: 0.9343 cumulative IPC: 0.9386 (Simulation time: 00 hr 14 min 10 sec)
Heartbeat CPU 0 instructions: 107000628 cycles: 73471137 heartbeat IPC: 0.9495 cumulative IPC: 0.9387 (Simulation time: 00 hr 14 min 17 sec)
Heartbeat CPU 0 instructions: 107500630 cycles: 73982975 heartbeat IPC: 0.9769 cumulative IPC: 0.9391 (Simulation time: 00 hr 14 min 23 sec)
Heartbeat CPU 0 instructions: 108000636 cycles: 74517051 heartbeat IPC: 0.9362 cumulative IPC: 0.939 (Simulation time: 00 hr 14 min 29 sec)
Heartbeat CPU 0 instructions: 108500636 cycles: 75045300 heartbeat IPC: 0.9465 cumulative IPC: 0.9391 (Simulation time: 00 hr 14 min 36 sec)
Heartbeat CPU 0 instructions: 109000640 cycles: 75575979 heartbeat IPC: 0.9422 cumulative IPC: 0.9391 (Simulation time: 00 hr 14 min 42 sec)
Heartbeat CPU 0 instructions: 109500640 cycles: 76114443 heartbeat IPC: 0.9286 cumulative IPC: 0.939 (Simulation time: 00 hr 14 min 49 sec)
Heartbeat CPU 0 instructions: 110000644 cycles: 76662376 heartbeat IPC: 0.9125 cumulative IPC: 0.9388 (Simulation time: 00 hr 14 min 55 sec)
Heartbeat CPU 0 instructions: 110500651 cycles: 77190452 heartbeat IPC: 0.9468 cumulative IPC: 0.9389 (Simulation time: 00 hr 15 min 02 sec)
Heartbeat CPU 0 instructions: 111000656 cycles: 77714588 heartbeat IPC: 0.954 cumulative IPC: 0.939 (Simulation time: 00 hr 15 min 08 sec)
Heartbeat CPU 0 instructions: 111500660 cycles: 78232424 heartbeat IPC: 0.9656 cumulative IPC: 0.9392 (Simulation time: 00 hr 15 min 14 sec)
Heartbeat CPU 0 instructions: 112000660 cycles: 78772686 heartbeat IPC: 0.9255 cumulative IPC: 0.9391 (Simulation time: 00 hr 15 min 21 sec)
Heartbeat CPU 0 instructions: 112500664 cycles: 79310596 heartbeat IPC: 0.9295 cumulative IPC: 0.939 (Simulation time: 00 hr 15 min 27 sec)
Heartbeat CPU 0 instructions: 113000664 cycles: 79856335 heartbeat IPC: 0.9162 cumulative IPC: 0.9388 (Simulation time: 00 hr 15 min 34 sec)
Heartbeat CPU 0 instructions: 113500668 cycles: 80396213 heartbeat IPC: 0.9261 cumulative IPC: 0.9387 (Simulation time: 00 hr 15 min 40 sec)
Heartbeat CPU 0 instructions: 114000668 cycles: 80920550 heartbeat IPC: 0.9536 cumulative IPC: 0.9388 (Simulation time: 00 hr 15 min 47 sec)
Heartbeat CPU 0 instructions: 114500672 cycles: 81447095 heartbeat IPC: 0.9496 cumulative IPC: 0.9389 (Simulation time: 00 hr 15 min 53 sec)
Heartbeat CPU 0 instructions: 115000672 cycles: 81985268 heartbeat IPC: 0.9291 cumulative IPC: 0.9388 (Simulation time: 00 hr 15 min 59 sec)
Heartbeat CPU 0 instructions: 115500674 cycles: 82526593 heartbeat IPC: 0.9237 cumulative IPC: 0.9387 (Simulation time: 00 hr 16 min 06 sec)
Heartbeat CPU 0 instructions: 116000676 cycles: 83064333 heartbeat IPC: 0.9298 cumulative IPC: 0.9387 (Simulation time: 00 hr 16 min 12 sec)
Heartbeat CPU 0 instructions: 116500680 cycles: 83592987 heartbeat IPC: 0.9458 cumulative IPC: 0.9387 (Simulation time: 00 hr 16 min 19 sec)
Heartbeat CPU 0 instructions: 117000684 cycles: 84124798 heartbeat IPC: 0.9402 cumulative IPC: 0.9387 (Simulation time: 00 hr 16 min 25 sec)
Heartbeat CPU 0 instructions: 117500686 cycles: 84659638 heartbeat IPC: 0.9349 cumulative IPC: 0.9387 (Simulation time: 00 hr 16 min 32 sec)
Heartbeat CPU 0 instructions: 118000688 cycles: 85198115 heartbeat IPC: 0.9285 cumulative IPC: 0.9386 (Simulation time: 00 hr 16 min 38 sec)
Heartbeat CPU 0 instructions: 118500688 cycles: 85724870 heartbeat IPC: 0.9492 cumulative IPC: 0.9387 (Simulation time: 00 hr 16 min 45 sec)
Heartbeat CPU 0 instructions: 119000692 cycles: 86265390 heartbeat IPC: 0.925 cumulative IPC: 0.9386 (Simulation time: 00 hr 16 min 51 sec)
Heartbeat CPU 0 instructions: 119500692 cycles: 86794050 heartbeat IPC: 0.9458 cumulative IPC: 0.9386 (Simulation time: 00 hr 16 min 57 sec)
Heartbeat CPU 0 instructions: 120000694 cycles: 87325942 heartbeat IPC: 0.94 cumulative IPC: 0.9387 (Simulation time: 00 hr 17 min 04 sec)
Heartbeat CPU 0 instructions: 120500700 cycles: 87873027 heartbeat IPC: 0.9139 cumulative IPC: 0.9385 (Simulation time: 00 hr 17 min 10 sec)
Heartbeat CPU 0 instructions: 121000700 cycles: 88416172 heartbeat IPC: 0.9206 cumulative IPC: 0.9384 (Simulation time: 00 hr 17 min 17 sec)
Heartbeat CPU 0 instructions: 121500704 cycles: 88959929 heartbeat IPC: 0.9195 cumulative IPC: 0.9382 (Simulation time: 00 hr 17 min 23 sec)
Heartbeat CPU 0 instructions: 122000708 cycles: 89488423 heartbeat IPC: 0.9461 cumulative IPC: 0.9383 (Simulation time: 00 hr 17 min 30 sec)
Heartbeat CPU 0 instructions: 122500712 cycles: 90015407 heartbeat IPC: 0.9488 cumulative IPC: 0.9383 (Simulation time: 00 hr 17 min 36 sec)
Heartbeat CPU 0 instructions: 123000712 cycles: 90542510 heartbeat IPC: 0.9486 cumulative IPC: 0.9384 (Simulation time: 00 hr 17 min 43 sec)
Heartbeat CPU 0 instructions: 123500718 cycles: 91084592 heartbeat IPC: 0.9224 cumulative IPC: 0.9383 (Simulation time: 00 hr 17 min 49 sec)
Heartbeat CPU 0 instructions: 124000724 cycles: 91619428 heartbeat IPC: 0.9349 cumulative IPC: 0.9383 (Simulation time: 00 hr 17 min 56 sec)
Heartbeat CPU 0 instructions: 124500726 cycles: 92156608 heartbeat IPC: 0.9308 cumulative IPC: 0.9382 (Simulation time: 00 hr 18 min 02 sec)
Heartbeat CPU 0 instructions: 125000726 cycles: 92674964 heartbeat IPC: 0.9646 cumulative IPC: 0.9384 (Simulation time: 00 hr 18 min 08 sec)
Heartbeat CPU 0 instructions: 125500732 cycles: 93211421 heartbeat IPC: 0.9321 cumulative IPC: 0.9384 (Simulation time: 00 hr 18 min 15 sec)
Heartbeat CPU 0 instructions: 126000736 cycles: 93762049 heartbeat IPC: 0.9081 cumulative IPC: 0.9381 (Simulation time: 00 hr 18 min 21 sec)
Heartbeat CPU 0 instructions: 126500740 cycles: 94288847 heartbeat IPC: 0.9491 cumulative IPC: 0.9382 (Simulation time: 00 hr 18 min 28 sec)
Heartbeat CPU 0 instructions: 127000740 cycles: 94826669 heartbeat IPC: 0.9297 cumulative IPC: 0.9382 (Simulation time: 00 hr 18 min 34 sec)
Heartbeat CPU 0 instructions: 127500740 cycles: 95360637 heartbeat IPC: 0.9364 cumulative IPC: 0.9382 (Simulation time: 00 hr 18 min 41 sec)
Heartbeat CPU 0 instructions: 128000740 cycles: 95893124 heartbeat IPC: 0.939 cumulative IPC: 0.9382 (Simulation time: 00 hr 18 min 47 sec)
Heartbeat CPU 0 instructions: 128500742 cycles: 96418237 heartbeat IPC: 0.9522 cumulative IPC: 0.9382 (Simulation time: 00 hr 18 min 53 sec)
Heartbeat CPU 0 instructions: 129000742 cycles: 96948494 heartbeat IPC: 0.9429 cumulative IPC: 0.9383 (Simulation time: 00 hr 19 min 00 sec)
Heartbeat CPU 0 instructions: 129500748 cycles: 97485177 heartbeat IPC: 0.9317 cumulative IPC: 0.9382 (Simulation time: 00 hr 19 min 06 sec)
Heartbeat CPU 0 instructions: 130000752 cycles: 98009330 heartbeat IPC: 0.9539 cumulative IPC: 0.9383 (Simulation time: 00 hr 19 min 12 sec)
Heartbeat CPU 0 instructions: 130500752 cycles: 98539991 heartbeat IPC: 0.9422 cumulative IPC: 0.9384 (Simulation time: 00 hr 19 min 19 sec)
Heartbeat CPU 0 instructions: 131000756 cycles: 99063051 heartbeat IPC: 0.9559 cumulative IPC: 0.9385 (Simulation time: 00 hr 19 min 25 sec)
Heartbeat CPU 0 instructions: 131500756 cycles: 99608074 heartbeat IPC: 0.9174 cumulative IPC: 0.9383 (Simulation time: 00 hr 19 min 32 sec)
Heartbeat CPU 0 instructions: 132000760 cycles: 100142038 heartbeat IPC: 0.9364 cumulative IPC: 0.9383 (Simulation time: 00 hr 19 min 38 sec)
Heartbeat CPU 0 instructions: 132500764 cycles: 100679206 heartbeat IPC: 0.9308 cumulative IPC: 0.9383 (Simulation time: 00 hr 19 min 45 sec)
Heartbeat CPU 0 instructions: 133000764 cycles: 101212492 heartbeat IPC: 0.9376 cumulative IPC: 0.9383 (Simulation time: 00 hr 19 min 51 sec)
Heartbeat CPU 0 instructions: 133500770 cycles: 101738070 heartbeat IPC: 0.9513 cumulative IPC: 0.9383 (Simulation time: 00 hr 19 min 57 sec)
Heartbeat CPU 0 instructions: 134000776 cycles: 102270005 heartbeat IPC: 0.94 cumulative IPC: 0.9384 (Simulation time: 00 hr 20 min 04 sec)
Heartbeat CPU 0 instructions: 134500780 cycles: 102808286 heartbeat IPC: 0.9289 cumulative IPC: 0.9383 (Simulation time: 00 hr 20 min 10 sec)
Heartbeat CPU 0 instructions: 135000786 cycles: 103340715 heartbeat IPC: 0.9391 cumulative IPC: 0.9383 (Simulation time: 00 hr 20 min 17 sec)
Heartbeat CPU 0 instructions: 135500792 cycles: 103875517 heartbeat IPC: 0.9349 cumulative IPC: 0.9383 (Simulation time: 00 hr 20 min 23 sec)
Heartbeat CPU 0 instructions: 136000792 cycles: 104402482 heartbeat IPC: 0.9488 cumulative IPC: 0.9383 (Simulation time: 00 hr 20 min 30 sec)
Heartbeat CPU 0 instructions: 136500796 cycles: 104931596 heartbeat IPC: 0.945 cumulative IPC: 0.9384 (Simulation time: 00 hr 20 min 36 sec)
Heartbeat CPU 0 instructions: 137000800 cycles: 105462156 heartbeat IPC: 0.9424 cumulative IPC: 0.9384 (Simulation time: 00 hr 20 min 42 sec)
Heartbeat CPU 0 instructions: 137500804 cycles: 105990577 heartbeat IPC: 0.9462 cumulative IPC: 0.9384 (Simulation time: 00 hr 20 min 49 sec)
Heartbeat CPU 0 instructions: 138000804 cycles: 106523212 heartbeat IPC: 0.9387 cumulative IPC: 0.9385 (Simulation time: 00 hr 20 min 55 sec)
Heartbeat CPU 0 instructions: 138500805 cycles: 107055683 heartbeat IPC: 0.939 cumulative IPC: 0.9385 (Simulation time: 00 hr 21 min 02 sec)
Heartbeat CPU 0 instructions: 139000808 cycles: 107595522 heartbeat IPC: 0.9262 cumulative IPC: 0.9384 (Simulation time: 00 hr 21 min 08 sec)
Heartbeat CPU 0 instructions: 139500810 cycles: 108130690 heartbeat IPC: 0.9343 cumulative IPC: 0.9384 (Simulation time: 00 hr 21 min 15 sec)
Heartbeat CPU 0 instructions: 140000812 cycles: 108668700 heartbeat IPC: 0.9294 cumulative IPC: 0.9383 (Simulation time: 00 hr 21 min 21 sec)
Heartbeat CPU 0 instructions: 140500816 cycles: 109202935 heartbeat IPC: 0.9359 cumulative IPC: 0.9383 (Simulation time: 00 hr 21 min 28 sec)
Heartbeat CPU 0 instructions: 141000820 cycles: 109736424 heartbeat IPC: 0.9372 cumulative IPC: 0.9383 (Simulation time: 00 hr 21 min 34 sec)
Heartbeat CPU 0 instructions: 141500820 cycles: 110277582 heartbeat IPC: 0.9239 cumulative IPC: 0.9382 (Simulation time: 00 hr 21 min 41 sec)
Heartbeat CPU 0 instructions: 142000820 cycles: 110812540 heartbeat IPC: 0.9347 cumulative IPC: 0.9382 (Simulation time: 00 hr 21 min 47 sec)
Heartbeat CPU 0 instructions: 142500824 cycles: 111332458 heartbeat IPC: 0.9617 cumulative IPC: 0.9383 (Simulation time: 00 hr 21 min 53 sec)
Heartbeat CPU 0 instructions: 143000824 cycles: 111870776 heartbeat IPC: 0.9288 cumulative IPC: 0.9383 (Simulation time: 00 hr 22 min 00 sec)
Heartbeat CPU 0 instructions: 143500828 cycles: 112392799 heartbeat IPC: 0.9578 cumulative IPC: 0.9384 (Simulation time: 00 hr 22 min 06 sec)
Heartbeat CPU 0 instructions: 144000832 cycles: 112922414 heartbeat IPC: 0.9441 cumulative IPC: 0.9384 (Simulation time: 00 hr 22 min 13 sec)
Heartbeat CPU 0 instructions: 144500836 cycles: 113457514 heartbeat IPC: 0.9344 cumulative IPC: 0.9384 (Simulation time: 00 hr 22 min 19 sec)
Heartbeat CPU 0 instructions: 145000840 cycles: 114000012 heartbeat IPC: 0.9217 cumulative IPC: 0.9383 (Simulation time: 00 hr 22 min 26 sec)
Heartbeat CPU 0 instructions: 145500840 cycles: 114538457 heartbeat IPC: 0.9286 cumulative IPC: 0.9382 (Simulation time: 00 hr 22 min 32 sec)
Heartbeat CPU 0 instructions: 146000840 cycles: 115066795 heartbeat IPC: 0.9464 cumulative IPC: 0.9383 (Simulation time: 00 hr 22 min 38 sec)
Heartbeat CPU 0 instructions: 146500840 cycles: 115605616 heartbeat IPC: 0.928 cumulative IPC: 0.9382 (Simulation time: 00 hr 22 min 45 sec)
Heartbeat CPU 0 instructions: 147000844 cycles: 116133486 heartbeat IPC: 0.9472 cumulative IPC: 0.9383 (Simulation time: 00 hr 22 min 51 sec)
Heartbeat CPU 0 instructions: 147500848 cycles: 116657422 heartbeat IPC: 0.9543 cumulative IPC: 0.9384 (Simulation time: 00 hr 22 min 58 sec)
Heartbeat CPU 0 instructions: 148000848 cycles: 117202632 heartbeat IPC: 0.9171 cumulative IPC: 0.9382 (Simulation time: 00 hr 23 min 04 sec)
Heartbeat CPU 0 instructions: 148500852 cycles: 117734902 heartbeat IPC: 0.9394 cumulative IPC: 0.9382 (Simulation time: 00 hr 23 min 11 sec)
Heartbeat CPU 0 instructions: 149000852 cycles: 118270249 heartbeat IPC: 0.934 cumulative IPC: 0.9382 (Simulation time: 00 hr 23 min 17 sec)
Heartbeat CPU 0 instructions: 149500856 cycles: 118794277 heartbeat IPC: 0.9542 cumulative IPC: 0.9383 (Simulation time: 00 hr 23 min 23 sec)
Heartbeat CPU 0 instructions: 150000858 cycles: 119327014 heartbeat IPC: 0.9386 cumulative IPC: 0.9383 (Simulation time: 00 hr 23 min 30 sec)
Heartbeat CPU 0 instructions: 150500860 cycles: 119857596 heartbeat IPC: 0.9424 cumulative IPC: 0.9383 (Simulation time: 00 hr 23 min 36 sec)
Heartbeat CPU 0 instructions: 151000860 cycles: 120387603 heartbeat IPC: 0.9434 cumulative IPC: 0.9383 (Simulation time: 00 hr 23 min 43 sec)
Heartbeat CPU 0 instructions: 151500860 cycles: 120914154 heartbeat IPC: 0.9496 cumulative IPC: 0.9384 (Simulation time: 00 hr 23 min 49 sec)
Heartbeat CPU 0 instructions: 152000864 cycles: 121445771 heartbeat IPC: 0.9405 cumulative IPC: 0.9384 (Simulation time: 00 hr 23 min 56 sec)
Heartbeat CPU 0 instructions: 152500870 cycles: 121980934 heartbeat IPC: 0.9343 cumulative IPC: 0.9384 (Simulation time: 00 hr 24 min 02 sec)
Heartbeat CPU 0 instructions: 153000872 cycles: 122511413 heartbeat IPC: 0.9425 cumulative IPC: 0.9384 (Simulation time: 00 hr 24 min 08 sec)
Heartbeat CPU 0 instructions: 153500876 cycles: 123061742 heartbeat IPC: 0.9086 cumulative IPC: 0.9383 (Simulation time: 00 hr 24 min 15 sec)
Heartbeat CPU 0 instructions: 154000876 cycles: 123595803 heartbeat IPC: 0.9362 cumulative IPC: 0.9383 (Simulation time: 00 hr 24 min 21 sec)
Heartbeat CPU 0 instructions: 154500876 cycles: 124135674 heartbeat IPC: 0.9261 cumulative IPC: 0.9382 (Simulation time: 00 hr 24 min 28 sec)
Heartbeat CPU 0 instructions: 155000876 cycles: 124670379 heartbeat IPC: 0.9351 cumulative IPC: 0.9382 (Simulation time: 00 hr 24 min 34 sec)
Heartbeat CPU 0 instructions: 155500876 cycles: 125188712 heartbeat IPC: 0.9646 cumulative IPC: 0.9383 (Simulation time: 00 hr 24 min 41 sec)
Heartbeat CPU 0 instructions: 156000878 cycles: 125724611 heartbeat IPC: 0.933 cumulative IPC: 0.9383 (Simulation time: 00 hr 24 min 47 sec)
Heartbeat CPU 0 instructions: 156500880 cycles: 126246122 heartbeat IPC: 0.9588 cumulative IPC: 0.9384 (Simulation time: 00 hr 24 min 53 sec)
Heartbeat CPU 0 instructions: 157000887 cycles: 126771806 heartbeat IPC: 0.9512 cumulative IPC: 0.9384 (Simulation time: 00 hr 25 min 00 sec)
Heartbeat CPU 0 instructions: 157500890 cycles: 127302190 heartbeat IPC: 0.9427 cumulative IPC: 0.9385 (Simulation time: 00 hr 25 min 06 sec)
Heartbeat CPU 0 instructions: 158000896 cycles: 127841349 heartbeat IPC: 0.9274 cumulative IPC: 0.9384 (Simulation time: 00 hr 25 min 13 sec)
Heartbeat CPU 0 instructions: 158500896 cycles: 128363511 heartbeat IPC: 0.9576 cumulative IPC: 0.9385 (Simulation time: 00 hr 25 min 19 sec)
Heartbeat CPU 0 instructions: 159000900 cycles: 128885094 heartbeat IPC: 0.9586 cumulative IPC: 0.9386 (Simulation time: 00 hr 25 min 25 sec)
Heartbeat CPU 0 instructions: 159500901 cycles: 129418595 heartbeat IPC: 0.9372 cumulative IPC: 0.9386 (Simulation time: 00 hr 25 min 32 sec)
Heartbeat CPU 0 instructions: 160000904 cycles: 129952127 heartbeat IPC: 0.9372 cumulative IPC: 0.9386 (Simulation time: 00 hr 25 min 38 sec)
Heartbeat CPU 0 instructions: 160500904 cycles: 130497615 heartbeat IPC: 0.9166 cumulative IPC: 0.9385 (Simulation time: 00 hr 25 min 45 sec)
Heartbeat CPU 0 instructions: 161000908 cycles: 131030767 heartbeat IPC: 0.9378 cumulative IPC: 0.9385 (Simulation time: 00 hr 25 min 51 sec)
Heartbeat CPU 0 instructions: 161500908 cycles: 131570652 heartbeat IPC: 0.9261 cumulative IPC: 0.9384 (Simulation time: 00 hr 25 min 58 sec)
Heartbeat CPU 0 instructions: 162000910 cycles: 132096017 heartbeat IPC: 0.9517 cumulative IPC: 0.9385 (Simulation time: 00 hr 26 min 04 sec)
Heartbeat CPU 0 instructions: 162500916 cycles: 132630577 heartbeat IPC: 0.9354 cumulative IPC: 0.9384 (Simulation time: 00 hr 26 min 11 sec)
Heartbeat CPU 0 instructions: 163000916 cycles: 133160498 heartbeat IPC: 0.9435 cumulative IPC: 0.9385 (Simulation time: 00 hr 26 min 17 sec)
Heartbeat CPU 0 instructions: 163500920 cycles: 133699665 heartbeat IPC: 0.9274 cumulative IPC: 0.9384 (Simulation time: 00 hr 26 min 24 sec)
Heartbeat CPU 0 instructions: 164000924 cycles: 134234153 heartbeat IPC: 0.9355 cumulative IPC: 0.9384 (Simulation time: 00 hr 26 min 30 sec)
Heartbeat CPU 0 instructions: 164500924 cycles: 134761065 heartbeat IPC: 0.9489 cumulative IPC: 0.9385 (Simulation time: 00 hr 26 min 36 sec)
Heartbeat CPU 0 instructions: 165000928 cycles: 135291579 heartbeat IPC: 0.9425 cumulative IPC: 0.9385 (Simulation time: 00 hr 26 min 43 sec)
Heartbeat CPU 0 instructions: 165500928 cycles: 135826800 heartbeat IPC: 0.9342 cumulative IPC: 0.9385 (Simulation time: 00 hr 26 min 49 sec)
Heartbeat CPU 0 instructions: 166000930 cycles: 136366112 heartbeat IPC: 0.9271 cumulative IPC: 0.9384 (Simulation time: 00 hr 26 min 56 sec)
Heartbeat CPU 0 instructions: 166500932 cycles: 136889500 heartbeat IPC: 0.9553 cumulative IPC: 0.9385 (Simulation time: 00 hr 27 min 02 sec)
Heartbeat CPU 0 instructions: 167000934 cycles: 137424948 heartbeat IPC: 0.9338 cumulative IPC: 0.9385 (Simulation time: 00 hr 27 min 09 sec)
Heartbeat CPU 0 instructions: 167500936 cycles: 137967058 heartbeat IPC: 0.9223 cumulative IPC: 0.9384 (Simulation time: 00 hr 27 min 15 sec)
Heartbeat CPU 0 instructions: 168000940 cycles: 138514958 heartbeat IPC: 0.9126 cumulative IPC: 0.9383 (Simulation time: 00 hr 27 min 22 sec)
Heartbeat CPU 0 instructions: 168500944 cycles: 139044707 heartbeat IPC: 0.9439 cumulative IPC: 0.9383 (Simulation time: 00 hr 27 min 28 sec)
Heartbeat CPU 0 instructions: 169000944 cycles: 139586236 heartbeat IPC: 0.9233 cumulative IPC: 0.9382 (Simulation time: 00 hr 27 min 35 sec)
Heartbeat CPU 0 instructions: 169500948 cycles: 140103218 heartbeat IPC: 0.9672 cumulative IPC: 0.9383 (Simulation time: 00 hr 27 min 41 sec)
Heartbeat CPU 0 instructions: 170000950 cycles: 140630344 heartbeat IPC: 0.9485 cumulative IPC: 0.9384 (Simulation time: 00 hr 27 min 48 sec)
Heartbeat CPU 0 instructions: 170500952 cycles: 141171696 heartbeat IPC: 0.9236 cumulative IPC: 0.9383 (Simulation time: 00 hr 27 min 54 sec)
Heartbeat CPU 0 instructions: 171000956 cycles: 141702409 heartbeat IPC: 0.9421 cumulative IPC: 0.9383 (Simulation time: 00 hr 28 min 01 sec)
Heartbeat CPU 0 instructions: 171500956 cycles: 142243045 heartbeat IPC: 0.9248 cumulative IPC: 0.9383 (Simulation time: 00 hr 28 min 07 sec)
Heartbeat CPU 0 instructions: 172000960 cycles: 142780342 heartbeat IPC: 0.9306 cumulative IPC: 0.9383 (Simulation time: 00 hr 28 min 14 sec)
Heartbeat CPU 0 instructions: 172500960 cycles: 143320466 heartbeat IPC: 0.9257 cumulative IPC: 0.9382 (Simulation time: 00 hr 28 min 20 sec)
Heartbeat CPU 0 instructions: 173000964 cycles: 143851856 heartbeat IPC: 0.9409 cumulative IPC: 0.9382 (Simulation time: 00 hr 28 min 27 sec)
Heartbeat CPU 0 instructions: 173500964 cycles: 144383017 heartbeat IPC: 0.9413 cumulative IPC: 0.9382 (Simulation time: 00 hr 28 min 33 sec)
Heartbeat CPU 0 instructions: 174000968 cycles: 144907149 heartbeat IPC: 0.954 cumulative IPC: 0.9383 (Simulation time: 00 hr 28 min 39 sec)
Heartbeat CPU 0 instructions: 174500972 cycles: 145453488 heartbeat IPC: 0.9152 cumulative IPC: 0.9382 (Simulation time: 00 hr 28 min 46 sec)
Heartbeat CPU 0 instructions: 175000972 cycles: 145972234 heartbeat IPC: 0.9639 cumulative IPC: 0.9383 (Simulation time: 00 hr 28 min 52 sec)
Heartbeat CPU 0 instructions: 175500974 cycles: 146503893 heartbeat IPC: 0.9405 cumulative IPC: 0.9383 (Simulation time: 00 hr 28 min 59 sec)
Heartbeat CPU 0 instructions: 176000980 cycles: 147033180 heartbeat IPC: 0.9447 cumulative IPC: 0.9383 (Simulation time: 00 hr 29 min 05 sec)
Heartbeat CPU 0 instructions: 176500980 cycles: 147569183 heartbeat IPC: 0.9328 cumulative IPC: 0.9383 (Simulation time: 00 hr 29 min 11 sec)
Heartbeat CPU 0 instructions: 177000980 cycles: 148095128 heartbeat IPC: 0.9507 cumulative IPC: 0.9384 (Simulation time: 00 hr 29 min 18 sec)
Heartbeat CPU 0 instructions: 177500984 cycles: 148620864 heartbeat IPC: 0.9511 cumulative IPC: 0.9384 (Simulation time: 00 hr 29 min 24 sec)
Heartbeat CPU 0 instructions: 178000984 cycles: 149162672 heartbeat IPC: 0.9228 cumulative IPC: 0.9383 (Simulation time: 00 hr 29 min 31 sec)
Heartbeat CPU 0 instructions: 178500988 cycles: 149675436 heartbeat IPC: 0.9751 cumulative IPC: 0.9385 (Simulation time: 00 hr 29 min 37 sec)
Heartbeat CPU 0 instructions: 179000992 cycles: 150187067 heartbeat IPC: 0.9773 cumulative IPC: 0.9386 (Simulation time: 00 hr 29 min 43 sec)
Heartbeat CPU 0 instructions: 179500992 cycles: 150704819 heartbeat IPC: 0.9657 cumulative IPC: 0.9387 (Simulation time: 00 hr 29 min 49 sec)
Heartbeat CPU 0 instructions: 180000996 cycles: 151249888 heartbeat IPC: 0.9173 cumulative IPC: 0.9386 (Simulation time: 00 hr 29 min 56 sec)
Heartbeat CPU 0 instructions: 180500996 cycles: 151790852 heartbeat IPC: 0.9243 cumulative IPC: 0.9386 (Simulation time: 00 hr 30 min 02 sec)
Heartbeat CPU 0 instructions: 181000998 cycles: 152315406 heartbeat IPC: 0.9532 cumulative IPC: 0.9386 (Simulation time: 00 hr 30 min 09 sec)
Heartbeat CPU 0 instructions: 181501000 cycles: 152851349 heartbeat IPC: 0.9329 cumulative IPC: 0.9386 (Simulation time: 00 hr 30 min 15 sec)
Heartbeat CPU 0 instructions: 182001004 cycles: 153397038 heartbeat IPC: 0.9163 cumulative IPC: 0.9385 (Simulation time: 00 hr 30 min 22 sec)
Heartbeat CPU 0 instructions: 182501006 cycles: 153937445 heartbeat IPC: 0.9252 cumulative IPC: 0.9385 (Simulation time: 00 hr 30 min 28 sec)
Heartbeat CPU 0 instructions: 183001012 cycles: 154466390 heartbeat IPC: 0.9453 cumulative IPC: 0.9385 (Simulation time: 00 hr 30 min 35 sec)
Heartbeat CPU 0 instructions: 183501016 cycles: 154994107 heartbeat IPC: 0.9475 cumulative IPC: 0.9385 (Simulation time: 00 hr 30 min 41 sec)
Heartbeat CPU 0 instructions: 184001020 cycles: 155527032 heartbeat IPC: 0.9382 cumulative IPC: 0.9385 (Simulation time: 00 hr 30 min 48 sec)
Heartbeat CPU 0 instructions: 184501024 cycles: 156053459 heartbeat IPC: 0.9498 cumulative IPC: 0.9386 (Simulation time: 00 hr 30 min 54 sec)
Heartbeat CPU 0 instructions: 185001028 cycles: 156593199 heartbeat IPC: 0.9264 cumulative IPC: 0.9385 (Simulation time: 00 hr 31 min 01 sec)
Heartbeat CPU 0 instructions: 185501028 cycles: 157123705 heartbeat IPC: 0.9425 cumulative IPC: 0.9385 (Simulation time: 00 hr 31 min 07 sec)
Heartbeat CPU 0 instructions: 186001032 cycles: 157651973 heartbeat IPC: 0.9465 cumulative IPC: 0.9386 (Simulation time: 00 hr 31 min 13 sec)
Heartbeat CPU 0 instructions: 186501032 cycles: 158182137 heartbeat IPC: 0.9431 cumulative IPC: 0.9386 (Simulation time: 00 hr 31 min 20 sec)
Heartbeat CPU 0 instructions: 187001032 cycles: 158714192 heartbeat IPC: 0.9398 cumulative IPC: 0.9386 (Simulation time: 00 hr 31 min 26 sec)
Heartbeat CPU 0 instructions: 187501032 cycles: 159238312 heartbeat IPC: 0.954 cumulative IPC: 0.9387 (Simulation time: 00 hr 31 min 33 sec)
Heartbeat CPU 0 instructions: 188001036 cycles: 159774913 heartbeat IPC: 0.9318 cumulative IPC: 0.9386 (Simulation time: 00 hr 31 min 39 sec)
Heartbeat CPU 0 instructions: 188501036 cycles: 160314322 heartbeat IPC: 0.9269 cumulative IPC: 0.9386 (Simulation time: 00 hr 31 min 46 sec)
Heartbeat CPU 0 instructions: 189001036 cycles: 160848598 heartbeat IPC: 0.9358 cumulative IPC: 0.9386 (Simulation time: 00 hr 31 min 52 sec)
Heartbeat CPU 0 instructions: 189501041 cycles: 161389227 heartbeat IPC: 0.9249 cumulative IPC: 0.9385 (Simulation time: 00 hr 31 min 59 sec)
Heartbeat CPU 0 instructions: 190001048 cycles: 161911393 heartbeat IPC: 0.9576 cumulative IPC: 0.9386 (Simulation time: 00 hr 32 min 05 sec)
Heartbeat CPU 0 instructions: 190501052 cycles: 162433347 heartbeat IPC: 0.9579 cumulative IPC: 0.9387 (Simulation time: 00 hr 32 min 11 sec)
Heartbeat CPU 0 instructions: 191001056 cycles: 162960132 heartbeat IPC: 0.9492 cumulative IPC: 0.9387 (Simulation time: 00 hr 32 min 18 sec)
Heartbeat CPU 0 instructions: 191501056 cycles: 163482562 heartbeat IPC: 0.9571 cumulative IPC: 0.9388 (Simulation time: 00 hr 32 min 24 sec)
Heartbeat CPU 0 instructions: 192001062 cycles: 164024458 heartbeat IPC: 0.9227 cumulative IPC: 0.9387 (Simulation time: 00 hr 32 min 30 sec)
Heartbeat CPU 0 instructions: 192501068 cycles: 164564231 heartbeat IPC: 0.9263 cumulative IPC: 0.9387 (Simulation time: 00 hr 32 min 37 sec)
Heartbeat CPU 0 instructions: 193001068 cycles: 165093716 heartbeat IPC: 0.9443 cumulative IPC: 0.9387 (Simulation time: 00 hr 32 min 43 sec)
Heartbeat CPU 0 instructions: 193501068 cycles: 165618967 heartbeat IPC: 0.9519 cumulative IPC: 0.9387 (Simulation time: 00 hr 32 min 50 sec)
Heartbeat CPU 0 instructions: 194001068 cycles: 166152292 heartbeat IPC: 0.9375 cumulative IPC: 0.9387 (Simulation time: 00 hr 32 min 56 sec)
Heartbeat CPU 0 instructions: 194501074 cycles: 166670916 heartbeat IPC: 0.9641 cumulative IPC: 0.9388 (Simulation time: 00 hr 33 min 03 sec)
Heartbeat CPU 0 instructions: 195001080 cycles: 167199340 heartbeat IPC: 0.9462 cumulative IPC: 0.9388 (Simulation time: 00 hr 33 min 09 sec)
Heartbeat CPU 0 instructions: 195501080 cycles: 167733973 heartbeat IPC: 0.9352 cumulative IPC: 0.9388 (Simulation time: 00 hr 33 min 15 sec)
Heartbeat CPU 0 instructions: 196001086 cycles: 168267803 heartbeat IPC: 0.9366 cumulative IPC: 0.9388 (Simulation time: 00 hr 33 min 22 sec)
Heartbeat CPU 0 instructions: 196501086 cycles: 168786502 heartbeat IPC: 0.964 cumulative IPC: 0.9389 (Simulation time: 00 hr 33 min 28 sec)
Heartbeat CPU 0 instructions: 197001092 cycles: 169323834 heartbeat IPC: 0.9305 cumulative IPC: 0.9389 (Simulation time: 00 hr 33 min 35 sec)
Heartbeat CPU 0 instructions: 197501092 cycles: 169856104 heartbeat IPC: 0.9394 cumulative IPC: 0.9389 (Simulation time: 00 hr 33 min 41 sec)
Heartbeat CPU 0 instructions: 198001098 cycles: 170387016 heartbeat IPC: 0.9418 cumulative IPC: 0.9389 (Simulation time: 00 hr 33 min 47 sec)
Heartbeat CPU 0 instructions: 198501104 cycles: 170924271 heartbeat IPC: 0.9307 cumulative IPC: 0.9388 (Simulation time: 00 hr 33 min 54 sec)
Heartbeat CPU 0 instructions: 199001104 cycles: 171465822 heartbeat IPC: 0.9233 cumulative IPC: 0.9388 (Simulation time: 00 hr 34 min 01 sec)
Heartbeat CPU 0 instructions: 199501108 cycles: 172011782 heartbeat IPC: 0.9158 cumulative IPC: 0.9387 (Simulation time: 00 hr 34 min 07 sec)
Heartbeat CPU 0 instructions: 200001108 cycles: 172559082 heartbeat IPC: 0.9136 cumulative IPC: 0.9386 (Simulation time: 00 hr 34 min 14 sec)
Heartbeat CPU 0 instructions: 200501112 cycles: 173108697 heartbeat IPC: 0.9097 cumulative IPC: 0.9385 (Simulation time: 00 hr 34 min 20 sec)
Heartbeat CPU 0 instructions: 201001116 cycles: 173630773 heartbeat IPC: 0.9577 cumulative IPC: 0.9386 (Simulation time: 00 hr 34 min 27 sec)
Heartbeat CPU 0 instructions: 201501120 cycles: 174168528 heartbeat IPC: 0.9298 cumulative IPC: 0.9386 (Simulation time: 00 hr 34 min 33 sec)
Heartbeat CPU 0 instructions: 202001120 cycles: 174713446 heartbeat IPC: 0.9176 cumulative IPC: 0.9385 (Simulation time: 00 hr 34 min 40 sec)
Heartbeat CPU 0 instructions: 202501124 cycles: 175252861 heartbeat IPC: 0.9269 cumulative IPC: 0.9385 (Simulation time: 00 hr 34 min 46 sec)
Heartbeat CPU 0 instructions: 203001124 cycles: 175782484 heartbeat IPC: 0.9441 cumulative IPC: 0.9385 (Simulation time: 00 hr 34 min 52 sec)
Heartbeat CPU 0 instructions: 203501128 cycles: 176328695 heartbeat IPC: 0.9154 cumulative IPC: 0.9384 (Simulation time: 00 hr 34 min 59 sec)
Heartbeat CPU 0 instructions: 204001130 cycles: 176847807 heartbeat IPC: 0.9632 cumulative IPC: 0.9385 (Simulation time: 00 hr 35 min 05 sec)
Heartbeat CPU 0 instructions: 204501132 cycles: 177368435 heartbeat IPC: 0.9604 cumulative IPC: 0.9385 (Simulation time: 00 hr 35 min 12 sec)
Heartbeat CPU 0 instructions: 205001136 cycles: 177913514 heartbeat IPC: 0.9173 cumulative IPC: 0.9385 (Simulation time: 00 hr 35 min 18 sec)
Heartbeat CPU 0 instructions: 205501136 cycles: 178441248 heartbeat IPC: 0.9474 cumulative IPC: 0.9385 (Simulation time: 00 hr 35 min 25 sec)
Heartbeat CPU 0 instructions: 206001140 cycles: 178972663 heartbeat IPC: 0.9409 cumulative IPC: 0.9385 (Simulation time: 00 hr 35 min 31 sec)
Heartbeat CPU 0 instructions: 206501140 cycles: 179491457 heartbeat IPC: 0.9638 cumulative IPC: 0.9386 (Simulation time: 00 hr 35 min 37 sec)
Heartbeat CPU 0 instructions: 207001145 cycles: 180037818 heartbeat IPC: 0.9152 cumulative IPC: 0.9385 (Simulation time: 00 hr 35 min 44 sec)
Heartbeat CPU 0 instructions: 207501148 cycles: 180572764 heartbeat IPC: 0.9347 cumulative IPC: 0.9385 (Simulation time: 00 hr 35 min 51 sec)
Heartbeat CPU 0 instructions: 208001148 cycles: 181118249 heartbeat IPC: 0.9166 cumulative IPC: 0.9384 (Simulation time: 00 hr 35 min 57 sec)
Heartbeat CPU 0 instructions: 208501154 cycles: 181636519 heartbeat IPC: 0.9648 cumulative IPC: 0.9385 (Simulation time: 00 hr 36 min 03 sec)
Heartbeat CPU 0 instructions: 209001160 cycles: 182177314 heartbeat IPC: 0.9246 cumulative IPC: 0.9385 (Simulation time: 00 hr 36 min 10 sec)
Heartbeat CPU 0 instructions: 209501160 cycles: 182695256 heartbeat IPC: 0.9654 cumulative IPC: 0.9385 (Simulation time: 00 hr 36 min 16 sec)
Heartbeat CPU 0 instructions: 210001164 cycles: 183219324 heartbeat IPC: 0.9541 cumulative IPC: 0.9386 (Simulation time: 00 hr 36 min 23 sec)
Heartbeat CPU 0 instructions: 210501170 cycles: 183746696 heartbeat IPC: 0.9481 cumulative IPC: 0.9386 (Simulation time: 00 hr 36 min 29 sec)
Heartbeat CPU 0 instructions: 211001172 cycles: 184275165 heartbeat IPC: 0.9461 cumulative IPC: 0.9386 (Simulation time: 00 hr 36 min 35 sec)
Heartbeat CPU 0 instructions: 211501172 cycles: 184805977 heartbeat IPC: 0.942 cumulative IPC: 0.9387 (Simulation time: 00 hr 36 min 42 sec)
Heartbeat CPU 0 instructions: 212001176 cycles: 185334141 heartbeat IPC: 0.9467 cumulative IPC: 0.9387 (Simulation time: 00 hr 36 min 48 sec)
Heartbeat CPU 0 instructions: 212501176 cycles: 185858250 heartbeat IPC: 0.954 cumulative IPC: 0.9387 (Simulation time: 00 hr 36 min 55 sec)
Heartbeat CPU 0 instructions: 213001180 cycles: 186394065 heartbeat IPC: 0.9332 cumulative IPC: 0.9387 (Simulation time: 00 hr 37 min 01 sec)
Heartbeat CPU 0 instructions: 213501180 cycles: 186923536 heartbeat IPC: 0.9443 cumulative IPC: 0.9387 (Simulation time: 00 hr 37 min 08 sec)
Heartbeat CPU 0 instructions: 214001180 cycles: 187460923 heartbeat IPC: 0.9304 cumulative IPC: 0.9387 (Simulation time: 00 hr 37 min 14 sec)
Heartbeat CPU 0 instructions: 214501184 cycles: 187989411 heartbeat IPC: 0.9461 cumulative IPC: 0.9387 (Simulation time: 00 hr 37 min 20 sec)
Heartbeat CPU 0 instructions: 215001188 cycles: 188531242 heartbeat IPC: 0.9228 cumulative IPC: 0.9387 (Simulation time: 00 hr 37 min 27 sec)
Heartbeat CPU 0 instructions: 215501192 cycles: 189068969 heartbeat IPC: 0.9298 cumulative IPC: 0.9387 (Simulation time: 00 hr 37 min 34 sec)
Heartbeat CPU 0 instructions: 216001192 cycles: 189597665 heartbeat IPC: 0.9457 cumulative IPC: 0.9387 (Simulation time: 00 hr 37 min 40 sec)
Heartbeat CPU 0 instructions: 216501196 cycles: 190124184 heartbeat IPC: 0.9496 cumulative IPC: 0.9387 (Simulation time: 00 hr 37 min 46 sec)
Heartbeat CPU 0 instructions: 217001198 cycles: 190672144 heartbeat IPC: 0.9125 cumulative IPC: 0.9386 (Simulation time: 00 hr 37 min 53 sec)
Heartbeat CPU 0 instructions: 217501200 cycles: 191193532 heartbeat IPC: 0.959 cumulative IPC: 0.9387 (Simulation time: 00 hr 37 min 59 sec)
Heartbeat CPU 0 instructions: 218001204 cycles: 191736002 heartbeat IPC: 0.9217 cumulative IPC: 0.9386 (Simulation time: 00 hr 38 min 06 sec)
Heartbeat CPU 0 instructions: 218501204 cycles: 192272972 heartbeat IPC: 0.9312 cumulative IPC: 0.9386 (Simulation time: 00 hr 38 min 12 sec)
Heartbeat CPU 0 instructions: 219001204 cycles: 192810356 heartbeat IPC: 0.9304 cumulative IPC: 0.9386 (Simulation time: 00 hr 38 min 19 sec)
Heartbeat CPU 0 instructions: 219501206 cycles: 193350454 heartbeat IPC: 0.9258 cumulative IPC: 0.9385 (Simulation time: 00 hr 38 min 25 sec)
Heartbeat CPU 0 instructions: 220001208 cycles: 193879354 heartbeat IPC: 0.9454 cumulative IPC: 0.9386 (Simulation time: 00 hr 38 min 32 sec)
Heartbeat CPU 0 instructions: 220501212 cycles: 194417691 heartbeat IPC: 0.9288 cumulative IPC: 0.9385 (Simulation time: 00 hr 38 min 38 sec)
Heartbeat CPU 0 instructions: 221001216 cycles: 194952591 heartbeat IPC: 0.9348 cumulative IPC: 0.9385 (Simulation time: 00 hr 38 min 45 sec)
Heartbeat CPU 0 instructions: 221501220 cycles: 195491806 heartbeat IPC: 0.9273 cumulative IPC: 0.9385 (Simulation time: 00 hr 38 min 51 sec)
Heartbeat CPU 0 instructions: 222001220 cycles: 196025555 heartbeat IPC: 0.9368 cumulative IPC: 0.9385 (Simulation time: 00 hr 38 min 58 sec)
Heartbeat CPU 0 instructions: 222501220 cycles: 196558686 heartbeat IPC: 0.9379 cumulative IPC: 0.9385 (Simulation time: 00 hr 39 min 04 sec)
Heartbeat CPU 0 instructions: 223001222 cycles: 197096017 heartbeat IPC: 0.9305 cumulative IPC: 0.9385 (Simulation time: 00 hr 39 min 11 sec)
Heartbeat CPU 0 instructions: 223501228 cycles: 197632568 heartbeat IPC: 0.9319 cumulative IPC: 0.9384 (Simulation time: 00 hr 39 min 17 sec)
Heartbeat CPU 0 instructions: 224001228 cycles: 198158260 heartbeat IPC: 0.9511 cumulative IPC: 0.9385 (Simulation time: 00 hr 39 min 24 sec)
Heartbeat CPU 0 instructions: 224501228 cycles: 198700766 heartbeat IPC: 0.9216 cumulative IPC: 0.9384 (Simulation time: 00 hr 39 min 30 sec)
Heartbeat CPU 0 instructions: 225001234 cycles: 199241447 heartbeat IPC: 0.9248 cumulative IPC: 0.9384 (Simulation time: 00 hr 39 min 37 sec)
Heartbeat CPU 0 instructions: 225501236 cycles: 199769886 heartbeat IPC: 0.9462 cumulative IPC: 0.9384 (Simulation time: 00 hr 39 min 43 sec)
Heartbeat CPU 0 instructions: 226001236 cycles: 200300073 heartbeat IPC: 0.9431 cumulative IPC: 0.9384 (Simulation time: 00 hr 39 min 50 sec)
Heartbeat CPU 0 instructions: 226501240 cycles: 200827798 heartbeat IPC: 0.9475 cumulative IPC: 0.9385 (Simulation time: 00 hr 39 min 56 sec)
Heartbeat CPU 0 instructions: 227001242 cycles: 201360812 heartbeat IPC: 0.9381 cumulative IPC: 0.9385 (Simulation time: 00 hr 40 min 02 sec)
Heartbeat CPU 0 instructions: 227501244 cycles: 201886182 heartbeat IPC: 0.9517 cumulative IPC: 0.9385 (Simulation time: 00 hr 40 min 09 sec)
Heartbeat CPU 0 instructions: 228001248 cycles: 202411666 heartbeat IPC: 0.9515 cumulative IPC: 0.9385 (Simulation time: 00 hr 40 min 15 sec)
Heartbeat CPU 0 instructions: 228501248 cycles: 202948333 heartbeat IPC: 0.9317 cumulative IPC: 0.9385 (Simulation time: 00 hr 40 min 22 sec)
Heartbeat CPU 0 instructions: 229001252 cycles: 203482443 heartbeat IPC: 0.9361 cumulative IPC: 0.9385 (Simulation time: 00 hr 40 min 28 sec)
Heartbeat CPU 0 instructions: 229501256 cycles: 204015636 heartbeat IPC: 0.9378 cumulative IPC: 0.9385 (Simulation time: 00 hr 40 min 35 sec)
Heartbeat CPU 0 instructions: 230001262 cycles: 204544719 heartbeat IPC: 0.945 cumulative IPC: 0.9385 (Simulation time: 00 hr 40 min 41 sec)
Heartbeat CPU 0 instructions: 230501268 cycles: 205079658 heartbeat IPC: 0.9347 cumulative IPC: 0.9385 (Simulation time: 00 hr 40 min 47 sec)
Heartbeat CPU 0 instructions: 231001270 cycles: 205622702 heartbeat IPC: 0.9207 cumulative IPC: 0.9385 (Simulation time: 00 hr 40 min 54 sec)
Heartbeat CPU 0 instructions: 231501276 cycles: 206169154 heartbeat IPC: 0.915 cumulative IPC: 0.9384 (Simulation time: 00 hr 41 min 01 sec)
Heartbeat CPU 0 instructions: 232001277 cycles: 206701351 heartbeat IPC: 0.9395 cumulative IPC: 0.9384 (Simulation time: 00 hr 41 min 07 sec)
Heartbeat CPU 0 instructions: 232501284 cycles: 207242697 heartbeat IPC: 0.9236 cumulative IPC: 0.9383 (Simulation time: 00 hr 41 min 14 sec)
Heartbeat CPU 0 instructions: 233001290 cycles: 207763554 heartbeat IPC: 0.96 cumulative IPC: 0.9384 (Simulation time: 00 hr 41 min 20 sec)
Heartbeat CPU 0 instructions: 233501296 cycles: 208298557 heartbeat IPC: 0.9346 cumulative IPC: 0.9384 (Simulation time: 00 hr 41 min 26 sec)
Heartbeat CPU 0 instructions: 234001300 cycles: 208816076 heartbeat IPC: 0.9662 cumulative IPC: 0.9385 (Simulation time: 00 hr 41 min 33 sec)
Heartbeat CPU 0 instructions: 234501300 cycles: 209339369 heartbeat IPC: 0.9555 cumulative IPC: 0.9385 (Simulation time: 00 hr 41 min 39 sec)
Heartbeat CPU 0 instructions: 235001304 cycles: 209867530 heartbeat IPC: 0.9467 cumulative IPC: 0.9385 (Simulation time: 00 hr 41 min 46 sec)
Heartbeat CPU 0 instructions: 235501308 cycles: 210406188 heartbeat IPC: 0.9282 cumulative IPC: 0.9385 (Simulation time: 00 hr 41 min 52 sec)
Heartbeat CPU 0 instructions: 236001308 cycles: 210930046 heartbeat IPC: 0.9545 cumulative IPC: 0.9386 (Simulation time: 00 hr 41 min 59 sec)
Heartbeat CPU 0 instructions: 236501308 cycles: 211464227 heartbeat IPC: 0.936 cumulative IPC: 0.9385 (Simulation time: 00 hr 42 min 05 sec)
Heartbeat CPU 0 instructions: 237001312 cycles: 211980640 heartbeat IPC: 0.9682 cumulative IPC: 0.9386 (Simulation time: 00 hr 42 min 11 sec)
Heartbeat CPU 0 instructions: 237501316 cycles: 212524218 heartbeat IPC: 0.9198 cumulative IPC: 0.9386 (Simulation time: 00 hr 42 min 18 sec)
Heartbeat CPU 0 instructions: 238001316 cycles: 213039944 heartbeat IPC: 0.9695 cumulative IPC: 0.9386 (Simulation time: 00 hr 42 min 24 sec)
Heartbeat CPU 0 instructions: 238501320 cycles: 213571876 heartbeat IPC: 0.94 cumulative IPC: 0.9387 (Simulation time: 00 hr 42 min 31 sec)
Heartbeat CPU 0 instructions: 239001322 cycles: 214109406 heartbeat IPC: 0.9302 cumulative IPC: 0.9386 (Simulation time: 00 hr 42 min 37 sec)
Heartbeat CPU 0 instructions: 239501326 cycles: 214642401 heartbeat IPC: 0.9381 cumulative IPC: 0.9386 (Simulation time: 00 hr 42 min 43 sec)
Heartbeat CPU 0 instructions: 240001328 cycles: 215172170 heartbeat IPC: 0.9438 cumulative IPC: 0.9386 (Simulation time: 00 hr 42 min 50 sec)
Heartbeat CPU 0 instructions: 240501334 cycles: 215706680 heartbeat IPC: 0.9354 cumulative IPC: 0.9386 (Simulation time: 00 hr 42 min 56 sec)
Heartbeat CPU 0 instructions: 241001340 cycles: 216250399 heartbeat IPC: 0.9196 cumulative IPC: 0.9386 (Simulation time: 00 hr 43 min 03 sec)
Heartbeat CPU 0 instructions: 241501340 cycles: 216793847 heartbeat IPC: 0.9201 cumulative IPC: 0.9385 (Simulation time: 00 hr 43 min 10 sec)
Heartbeat CPU 0 instructions: 242001344 cycles: 217328603 heartbeat IPC: 0.935 cumulative IPC: 0.9385 (Simulation time: 00 hr 43 min 16 sec)
Heartbeat CPU 0 instructions: 242501350 cycles: 217871339 heartbeat IPC: 0.9213 cumulative IPC: 0.9385 (Simulation time: 00 hr 43 min 22 sec)
Heartbeat CPU 0 instructions: 243001356 cycles: 218398587 heartbeat IPC: 0.9483 cumulative IPC: 0.9385 (Simulation time: 00 hr 43 min 29 sec)
Heartbeat CPU 0 instructions: 243501356 cycles: 218944583 heartbeat IPC: 0.9158 cumulative IPC: 0.9384 (Simulation time: 00 hr 43 min 35 sec)
Heartbeat CPU 0 instructions: 244001358 cycles: 219469577 heartbeat IPC: 0.9524 cumulative IPC: 0.9385 (Simulation time: 00 hr 43 min 42 sec)
Heartbeat CPU 0 instructions: 244501364 cycles: 220001003 heartbeat IPC: 0.9409 cumulative IPC: 0.9385 (Simulation time: 00 hr 43 min 48 sec)
Heartbeat CPU 0 instructions: 245001370 cycles: 220537712 heartbeat IPC: 0.9316 cumulative IPC: 0.9385 (Simulation time: 00 hr 43 min 55 sec)
Heartbeat CPU 0 instructions: 245501376 cycles: 221053727 heartbeat IPC: 0.969 cumulative IPC: 0.9385 (Simulation time: 00 hr 44 min 01 sec)
Heartbeat CPU 0 instructions: 246001382 cycles: 221584101 heartbeat IPC: 0.9427 cumulative IPC: 0.9386 (Simulation time: 00 hr 44 min 08 sec)
Heartbeat CPU 0 instructions: 246501384 cycles: 222097990 heartbeat IPC: 0.973 cumulative IPC: 0.9386 (Simulation time: 00 hr 44 min 14 sec)
Heartbeat CPU 0 instructions: 247001388 cycles: 222632767 heartbeat IPC: 0.935 cumulative IPC: 0.9386 (Simulation time: 00 hr 44 min 20 sec)
Heartbeat CPU 0 instructions: 247501392 cycles: 223172923 heartbeat IPC: 0.9257 cumulative IPC: 0.9386 (Simulation time: 00 hr 44 min 27 sec)
Heartbeat CPU 0 instructions: 248001396 cycles: 223701741 heartbeat IPC: 0.9455 cumulative IPC: 0.9386 (Simulation time: 00 hr 44 min 33 sec)
Heartbeat CPU 0 instructions: 248501396 cycles: 224229245 heartbeat IPC: 0.9479 cumulative IPC: 0.9386 (Simulation time: 00 hr 44 min 40 sec)
Heartbeat CPU 0 instructions: 249001400 cycles: 224757130 heartbeat IPC: 0.9472 cumulative IPC: 0.9387 (Simulation time: 00 hr 44 min 46 sec)
Heartbeat CPU 0 instructions: 249501400 cycles: 225287458 heartbeat IPC: 0.9428 cumulative IPC: 0.9387 (Simulation time: 00 hr 44 min 53 sec)
*** Reached end of trace: (0, "/local-ssd/ben/dpc4-traces/Graph/Ligra/ligra_CF.com-lj.ungraph.gcc_6.3.0_O3.drop_154750M.length_250M.champsimtrace.xz")
Simulation finished CPU 0 instructions: 200000007 cycles: 213072545 cumulative IPC: 0.9386 (Simulation time: 00 hr 44 min 59 sec)
Simulation complete CPU 0 instructions: 200000007 cycles: 213072545 cumulative IPC: 0.9386 (Simulation time: 00 hr 44 min 59 sec)

ChampSim completed all CPUs

=== Simulation ===
CPU 0 runs /local-ssd/ben/dpc4-traces/Graph/Ligra/ligra_CF.com-lj.ungraph.gcc_6.3.0_O3.drop_154750M.length_250M.champsimtrace.xz

Region of Interest Statistics

CPU 0 cumulative IPC: 0.9386 instructions: 200000007 cycles: 213072545
CPU 0 Branch Prediction Accuracy: 95.83% MPKI: 3.205 Average ROB Occupancy at Mispredict: 285.2
Branch type MPKI
BRANCH_DIRECT_JUMP: 0
BRANCH_INDIRECT: 0
BRANCH_CONDITIONAL: 3.205
BRANCH_DIRECT_CALL: 0
BRANCH_INDIRECT_CALL: 0
BRANCH_RETURN: 0

cpu0->cpu0_STLB TOTAL        ACCESS:      50239 HIT:          0 MISS:      50239 MSHR_MERGE:          0
cpu0->cpu0_STLB LOAD         ACCESS:      50239 HIT:          0 MISS:      50239 MSHR_MERGE:          0
cpu0->cpu0_STLB RFO          ACCESS:          0 HIT:          0 MISS:          0 MSHR_MERGE:          0
cpu0->cpu0_STLB PREFETCH     ACCESS:          0 HIT:          0 MISS:          0 MSHR_MERGE:          0
cpu0->cpu0_STLB WRITE        ACCESS:          0 HIT:          0 MISS:          0 MSHR_MERGE:          0
cpu0->cpu0_STLB TRANSLATION  ACCESS:          0 HIT:          0 MISS:          0 MSHR_MERGE:          0
cpu0->cpu0_STLB PREFETCH REQUESTED:          0 ISSUED:          0 USEFUL:          0 USELESS:          0
cpu0->cpu0_STLB AVERAGE MISS LATENCY: 230.9 cycles
cpu0->cpu0_L2C TOTAL        ACCESS:    6426768 HIT:    3205249 MISS:    3221519 MSHR_MERGE:          0
cpu0->cpu0_L2C LOAD         ACCESS:     638518 HIT:          0 MISS:     638518 MSHR_MERGE:          0
cpu0->cpu0_L2C RFO          ACCESS:          0 HIT:          0 MISS:          0 MSHR_MERGE:          0
cpu0->cpu0_L2C PREFETCH     ACCESS:    2576615 HIT:          0 MISS:    2576615 MSHR_MERGE:          0
cpu0->cpu0_L2C WRITE        ACCESS:    3205117 HIT:    3205117 MISS:          0 MSHR_MERGE:          0
cpu0->cpu0_L2C TRANSLATION  ACCESS:       6518 HIT:        132 MISS:       6386 MSHR_MERGE:          0
cpu0->cpu0_L2C PREFETCH REQUESTED:          0 ISSUED:          0 USEFUL:          0 USELESS:          0
cpu0->cpu0_L2C AVERAGE MISS LATENCY: 329.7 cycles
cpu0->cpu0_L1I TOTAL        ACCESS:   21153807 HIT:   21153807 MISS:          0 MSHR_MERGE:          0
cpu0->cpu0_L1I LOAD         ACCESS:   21153807 HIT:   21153807 MISS:          0 MSHR_MERGE:          0
cpu0->cpu0_L1I RFO          ACCESS:          0 HIT:          0 MISS:          0 MSHR_MERGE:          0
cpu0->cpu0_L1I PREFETCH     ACCESS:          0 HIT:          0 MISS:          0 MSHR_MERGE:          0
cpu0->cpu0_L1I WRITE        ACCESS:          0 HIT:          0 MISS:          0 MSHR_MERGE:          0
cpu0->cpu0_L1I TRANSLATION  ACCESS:          0 HIT:          0 MISS:          0 MSHR_MERGE:          0
cpu0->cpu0_L1I PREFETCH REQUESTED:          0 ISSUED:          0 USEFUL:          0 USELESS:          0
cpu0->cpu0_L1I AVERAGE MISS LATENCY: - cycles
cpu0->cpu0_L1D TOTAL        ACCESS:   50469467 HIT:   37913295 MISS:   12556172 MSHR_MERGE:    9334522
cpu0->cpu0_L1D LOAD         ACCESS:   17516053 HIT:   10277939 MISS:    7238114 MSHR_MERGE:    6599597
cpu0->cpu0_L1D RFO          ACCESS:          0 HIT:          0 MISS:          0 MSHR_MERGE:          0
cpu0->cpu0_L1D PREFETCH     ACCESS:    7211782 HIT:    1900242 MISS:    5311540 MSHR_MERGE:    2734925
cpu0->cpu0_L1D WRITE        ACCESS:   25641057 HIT:   25641057 MISS:          0 MSHR_MERGE:          0
cpu0->cpu0_L1D TRANSLATION  ACCESS:     100575 HIT:      94057 MISS:       6518 MSHR_MERGE:          0
cpu0->cpu0_L1D PREFETCH REQUESTED:    8839532 ISSUED:    7211774 USEFUL:    2576621 USELESS:          0
cpu0->cpu0_L1D AVERAGE MISS LATENCY: 265.8 cycles
cpu0->cpu0_ITLB TOTAL        ACCESS:   12179470 HIT:   12179470 MISS:          0 MSHR_MERGE:          0
cpu0->cpu0_ITLB LOAD         ACCESS:   12179470 HIT:   12179470 MISS:          0 MSHR_MERGE:          0
cpu0->cpu0_ITLB RFO          ACCESS:          0 HIT:          0 MISS:          0 MSHR_MERGE:          0
cpu0->cpu0_ITLB PREFETCH     ACCESS:          0 HIT:          0 MISS:          0 MSHR_MERGE:          0
cpu0->cpu0_ITLB WRITE        ACCESS:          0 HIT:          0 MISS:          0 MSHR_MERGE:          0
cpu0->cpu0_ITLB TRANSLATION  ACCESS:          0 HIT:          0 MISS:          0 MSHR_MERGE:          0
cpu0->cpu0_ITLB PREFETCH REQUESTED:          0 ISSUED:          0 USEFUL:          0 USELESS:          0
cpu0->cpu0_ITLB AVERAGE MISS LATENCY: - cycles
cpu0->cpu0_DTLB TOTAL        ACCESS:   39399858 HIT:   39141437 MISS:     258421 MSHR_MERGE:     208182
cpu0->cpu0_DTLB LOAD         ACCESS:   39399858 HIT:   39141437 MISS:     258421 MSHR_MERGE:     208182
cpu0->cpu0_DTLB RFO          ACCESS:          0 HIT:          0 MISS:          0 MSHR_MERGE:          0
cpu0->cpu0_DTLB PREFETCH     ACCESS:          0 HIT:          0 MISS:          0 MSHR_MERGE:          0
cpu0->cpu0_DTLB WRITE        ACCESS:          0 HIT:          0 MISS:          0 MSHR_MERGE:          0
cpu0->cpu0_DTLB TRANSLATION  ACCESS:          0 HIT:          0 MISS:          0 MSHR_MERGE:          0
cpu0->cpu0_DTLB PREFETCH REQUESTED:          0 ISSUED:          0 USEFUL:          0 USELESS:          0
cpu0->cpu0_DTLB AVERAGE MISS LATENCY: 236.9 cycles
cpu0->LLC TOTAL        ACCESS:    6426662 HIT:     102994 MISS:    6323668 MSHR_MERGE:          0
cpu0->LLC LOAD         ACCESS:     638518 HIT:          0 MISS:     638518 MSHR_MERGE:          0
cpu0->LLC RFO          ACCESS:          0 HIT:          0 MISS:          0 MSHR_MERGE:          0
cpu0->LLC PREFETCH     ACCESS:    2576615 HIT:          0 MISS:    2576615 MSHR_MERGE:          0
cpu0->LLC WRITE        ACCESS:    3205143 HIT:     102994 MISS:    3102149 MSHR_MERGE:          0
cpu0->LLC TRANSLATION  ACCESS:       6386 HIT:          0 MISS:       6386 MSHR_MERGE:          0
cpu0->LLC PREFETCH REQUESTED:          0 ISSUED:          0 USEFUL:          0 USELESS:          0
cpu0->LLC AVERAGE MISS LATENCY: 66.87 cycles

DRAM Statistics

Channel 0 RQ ROW_BUFFER_HIT:      41394
  ROW_BUFFER_MISS:    3180124
  AVG DBUS CONGESTED CYCLE: 12.85
Channel 0 WQ ROW_BUFFER_HIT:     755682
  ROW_BUFFER_MISS:    2449316
  FULL:      82812
Channel 0 REFRESHES ISSUED:      17755
