[VMEM] WARNING: physical memory size is smaller than virtual memory size.

*** ChampSim Multicore Out-of-Order Simulator ***
Warmup Instructions: 50000000
Simulation Instructions: 200000000
Number of CPUs: 1
Page size: 4096
Core 0: /local-ssd/ben/dpc4-traces/Graph/GMS/gms.k_clique_list_danisch_node_parallel.soc-pokec-relationships.slice-236.champsimstrace.gz
Off-chip DRAM Size: 64 GiB Channels: 1 Width: 64-bit Data Rate: 4807 MT/s
Heartbeat CPU 0 instructions: 500006 cycles: 106890 heartbeat IPC: 4.678 cumulative IPC: 4.678 (Simulation time: 00 hr 00 min 02 sec)
Heartbeat CPU 0 instructions: 1000011 cycles: 208314 heartbeat IPC: 4.93 cumulative IPC: 4.8 (Simulation time: 00 hr 00 min 03 sec)
Heartbeat CPU 0 instructions: 1500018 cycles: 308984 heartbeat IPC: 4.967 cumulative IPC: 4.855 (Simulation time: 00 hr 00 min 05 sec)
Heartbeat CPU 0 instructions: 2000021 cycles: 409626 heartbeat IPC: 4.968 cumulative IPC: 4.883 (Simulation time: 00 hr 00 min 06 sec)
Heartbeat CPU 0 instructions: 2500028 cycles: 510310 heartbeat IPC: 4.966 cumulative IPC: 4.899 (Simulation time: 00 hr 00 min 08 sec)
Heartbeat CPU 0 instructions: 3000034 cycles: 611126 heartbeat IPC: 4.96 cumulative IPC: 4.909 (Simulation time: 00 hr 00 min 09 sec)
Heartbeat CPU 0 instructions: 3500040 cycles: 711140 heartbeat IPC: 4.999 cumulative IPC: 4.922 (Simulation time: 00 hr 00 min 11 sec)
Heartbeat CPU 0 instructions: 4000043 cycles: 811332 heartbeat IPC: 4.99 cumulative IPC: 4.93 (Simulation time: 00 hr 00 min 13 sec)
Heartbeat CPU 0 instructions: 4500048 cycles: 912892 heartbeat IPC: 4.923 cumulative IPC: 4.929 (Simulation time: 00 hr 00 min 14 sec)
Heartbeat CPU 0 instructions: 5000050 cycles: 1016372 heartbeat IPC: 4.832 cumulative IPC: 4.92 (Simulation time: 00 hr 00 min 16 sec)
Heartbeat CPU 0 instructions: 5500054 cycles: 1117080 heartbeat IPC: 4.965 cumulative IPC: 4.924 (Simulation time: 00 hr 00 min 18 sec)
Heartbeat CPU 0 instructions: 6000059 cycles: 1217814 heartbeat IPC: 4.964 cumulative IPC: 4.927 (Simulation time: 00 hr 00 min 19 sec)
Heartbeat CPU 0 instructions: 6500062 cycles: 1318217 heartbeat IPC: 4.98 cumulative IPC: 4.931 (Simulation time: 00 hr 00 min 21 sec)
Heartbeat CPU 0 instructions: 7000068 cycles: 1418571 heartbeat IPC: 4.982 cumulative IPC: 4.935 (Simulation time: 00 hr 00 min 23 sec)
Heartbeat CPU 0 instructions: 7500068 cycles: 1519485 heartbeat IPC: 4.955 cumulative IPC: 4.936 (Simulation time: 00 hr 00 min 24 sec)
Heartbeat CPU 0 instructions: 8000071 cycles: 1620010 heartbeat IPC: 4.974 cumulative IPC: 4.938 (Simulation time: 00 hr 00 min 26 sec)
Heartbeat CPU 0 instructions: 8500072 cycles: 1720522 heartbeat IPC: 4.975 cumulative IPC: 4.94 (Simulation time: 00 hr 00 min 28 sec)
Heartbeat CPU 0 instructions: 9000075 cycles: 1821788 heartbeat IPC: 4.938 cumulative IPC: 4.94 (Simulation time: 00 hr 00 min 29 sec)
Heartbeat CPU 0 instructions: 9500077 cycles: 1922712 heartbeat IPC: 4.954 cumulative IPC: 4.941 (Simulation time: 00 hr 00 min 31 sec)
Heartbeat CPU 0 instructions: 10000077 cycles: 2023583 heartbeat IPC: 4.957 cumulative IPC: 4.942 (Simulation time: 00 hr 00 min 33 sec)
Heartbeat CPU 0 instructions: 10500082 cycles: 2124731 heartbeat IPC: 4.943 cumulative IPC: 4.942 (Simulation time: 00 hr 00 min 34 sec)
Heartbeat CPU 0 instructions: 11000084 cycles: 2224836 heartbeat IPC: 4.995 cumulative IPC: 4.944 (Simulation time: 00 hr 00 min 36 sec)
Heartbeat CPU 0 instructions: 11500087 cycles: 2325864 heartbeat IPC: 4.949 cumulative IPC: 4.944 (Simulation time: 00 hr 00 min 38 sec)
Heartbeat CPU 0 instructions: 12000094 cycles: 2426854 heartbeat IPC: 4.951 cumulative IPC: 4.945 (Simulation time: 00 hr 00 min 39 sec)
Heartbeat CPU 0 instructions: 12500094 cycles: 2527374 heartbeat IPC: 4.974 cumulative IPC: 4.946 (Simulation time: 00 hr 00 min 41 sec)
Heartbeat CPU 0 instructions: 13000098 cycles: 2628446 heartbeat IPC: 4.947 cumulative IPC: 4.946 (Simulation time: 00 hr 00 min 43 sec)
Heartbeat CPU 0 instructions: 13500099 cycles: 2728762 heartbeat IPC: 4.984 cumulative IPC: 4.947 (Simulation time: 00 hr 00 min 44 sec)
Heartbeat CPU 0 instructions: 14000099 cycles: 2828831 heartbeat IPC: 4.997 cumulative IPC: 4.949 (Simulation time: 00 hr 00 min 46 sec)
Heartbeat CPU 0 instructions: 14500104 cycles: 2929493 heartbeat IPC: 4.967 cumulative IPC: 4.95 (Simulation time: 00 hr 00 min 48 sec)
Heartbeat CPU 0 instructions: 15000105 cycles: 3031949 heartbeat IPC: 4.88 cumulative IPC: 4.947 (Simulation time: 00 hr 00 min 49 sec)
Heartbeat CPU 0 instructions: 15500105 cycles: 3132037 heartbeat IPC: 4.996 cumulative IPC: 4.949 (Simulation time: 00 hr 00 min 51 sec)
Heartbeat CPU 0 instructions: 16000108 cycles: 3232314 heartbeat IPC: 4.986 cumulative IPC: 4.95 (Simulation time: 00 hr 00 min 53 sec)
Heartbeat CPU 0 instructions: 16500111 cycles: 3332711 heartbeat IPC: 4.98 cumulative IPC: 4.951 (Simulation time: 00 hr 00 min 54 sec)
Heartbeat CPU 0 instructions: 17000118 cycles: 3433101 heartbeat IPC: 4.981 cumulative IPC: 4.952 (Simulation time: 00 hr 00 min 56 sec)
Heartbeat CPU 0 instructions: 17500118 cycles: 3535673 heartbeat IPC: 4.875 cumulative IPC: 4.95 (Simulation time: 00 hr 00 min 58 sec)
Heartbeat CPU 0 instructions: 18000124 cycles: 3637598 heartbeat IPC: 4.906 cumulative IPC: 4.948 (Simulation time: 00 hr 00 min 59 sec)
Heartbeat CPU 0 instructions: 18500130 cycles: 3738907 heartbeat IPC: 4.935 cumulative IPC: 4.948 (Simulation time: 00 hr 01 min 01 sec)
Heartbeat CPU 0 instructions: 19000135 cycles: 3839193 heartbeat IPC: 4.986 cumulative IPC: 4.949 (Simulation time: 00 hr 01 min 03 sec)
Heartbeat CPU 0 instructions: 19500135 cycles: 3939812 heartbeat IPC: 4.969 cumulative IPC: 4.95 (Simulation time: 00 hr 01 min 05 sec)
Heartbeat CPU 0 instructions: 20000140 cycles: 4039932 heartbeat IPC: 4.994 cumulative IPC: 4.951 (Simulation time: 00 hr 01 min 06 sec)
Heartbeat CPU 0 instructions: 20500147 cycles: 4141066 heartbeat IPC: 4.944 cumulative IPC: 4.95 (Simulation time: 00 hr 01 min 08 sec)
Heartbeat CPU 0 instructions: 21000147 cycles: 4242411 heartbeat IPC: 4.934 cumulative IPC: 4.95 (Simulation time: 00 hr 01 min 10 sec)
Heartbeat CPU 0 instructions: 21500153 cycles: 4344839 heartbeat IPC: 4.882 cumulative IPC: 4.948 (Simulation time: 00 hr 01 min 11 sec)
Heartbeat CPU 0 instructions: 22000160 cycles: 4445915 heartbeat IPC: 4.947 cumulative IPC: 4.948 (Simulation time: 00 hr 01 min 13 sec)
Heartbeat CPU 0 instructions: 22500161 cycles: 4546146 heartbeat IPC: 4.988 cumulative IPC: 4.949 (Simulation time: 00 hr 01 min 15 sec)
Heartbeat CPU 0 instructions: 23000163 cycles: 4647655 heartbeat IPC: 4.926 cumulative IPC: 4.949 (Simulation time: 00 hr 01 min 17 sec)
Heartbeat CPU 0 instructions: 23500165 cycles: 4748840 heartbeat IPC: 4.941 cumulative IPC: 4.949 (Simulation time: 00 hr 01 min 18 sec)
Heartbeat CPU 0 instructions: 24000169 cycles: 4851106 heartbeat IPC: 4.889 cumulative IPC: 4.947 (Simulation time: 00 hr 01 min 20 sec)
Heartbeat CPU 0 instructions: 24500169 cycles: 4952522 heartbeat IPC: 4.93 cumulative IPC: 4.947 (Simulation time: 00 hr 01 min 22 sec)
Heartbeat CPU 0 instructions: 25000171 cycles: 5053436 heartbeat IPC: 4.955 cumulative IPC: 4.947 (Simulation time: 00 hr 01 min 24 sec)
Heartbeat CPU 0 instructions: 25500177 cycles: 5155287 heartbeat IPC: 4.909 cumulative IPC: 4.946 (Simulation time: 00 hr 01 min 25 sec)
Heartbeat CPU 0 instructions: 26000180 cycles: 5256610 heartbeat IPC: 4.935 cumulative IPC: 4.946 (Simulation time: 00 hr 01 min 27 sec)
Heartbeat CPU 0 instructions: 26500185 cycles: 5358129 heartbeat IPC: 4.925 cumulative IPC: 4.946 (Simulation time: 00 hr 01 min 29 sec)
Heartbeat CPU 0 instructions: 27000189 cycles: 5459537 heartbeat IPC: 4.931 cumulative IPC: 4.946 (Simulation time: 00 hr 01 min 31 sec)
Heartbeat CPU 0 instructions: 27500196 cycles: 5561842 heartbeat IPC: 4.887 cumulative IPC: 4.944 (Simulation time: 00 hr 01 min 32 sec)
Heartbeat CPU 0 instructions: 28000201 cycles: 5663980 heartbeat IPC: 4.895 cumulative IPC: 4.944 (Simulation time: 00 hr 01 min 34 sec)
Heartbeat CPU 0 instructions: 28500204 cycles: 5765811 heartbeat IPC: 4.91 cumulative IPC: 4.943 (Simulation time: 00 hr 01 min 36 sec)
Heartbeat CPU 0 instructions: 29000208 cycles: 5867387 heartbeat IPC: 4.922 cumulative IPC: 4.943 (Simulation time: 00 hr 01 min 38 sec)
Heartbeat CPU 0 instructions: 29500215 cycles: 5969170 heartbeat IPC: 4.912 cumulative IPC: 4.942 (Simulation time: 00 hr 01 min 39 sec)
Heartbeat CPU 0 instructions: 30000222 cycles: 6071812 heartbeat IPC: 4.871 cumulative IPC: 4.941 (Simulation time: 00 hr 01 min 41 sec)
Heartbeat CPU 0 instructions: 30500224 cycles: 6173546 heartbeat IPC: 4.915 cumulative IPC: 4.94 (Simulation time: 00 hr 01 min 43 sec)
Heartbeat CPU 0 instructions: 31000224 cycles: 6277141 heartbeat IPC: 4.826 cumulative IPC: 4.939 (Simulation time: 00 hr 01 min 45 sec)
Heartbeat CPU 0 instructions: 31500228 cycles: 6379195 heartbeat IPC: 4.899 cumulative IPC: 4.938 (Simulation time: 00 hr 01 min 47 sec)
Heartbeat CPU 0 instructions: 32000234 cycles: 6482337 heartbeat IPC: 4.848 cumulative IPC: 4.937 (Simulation time: 00 hr 01 min 49 sec)
Heartbeat CPU 0 instructions: 32500236 cycles: 6586089 heartbeat IPC: 4.819 cumulative IPC: 4.935 (Simulation time: 00 hr 01 min 50 sec)
Heartbeat CPU 0 instructions: 33000242 cycles: 6690321 heartbeat IPC: 4.797 cumulative IPC: 4.933 (Simulation time: 00 hr 01 min 52 sec)
Heartbeat CPU 0 instructions: 33500244 cycles: 6794170 heartbeat IPC: 4.815 cumulative IPC: 4.931 (Simulation time: 00 hr 01 min 54 sec)
Heartbeat CPU 0 instructions: 34000250 cycles: 6899547 heartbeat IPC: 4.745 cumulative IPC: 4.928 (Simulation time: 00 hr 01 min 56 sec)
Heartbeat CPU 0 instructions: 34500253 cycles: 7048403 heartbeat IPC: 3.359 cumulative IPC: 4.895 (Simulation time: 00 hr 01 min 58 sec)
Heartbeat CPU 0 instructions: 35000253 cycles: 7194948 heartbeat IPC: 3.412 cumulative IPC: 4.865 (Simulation time: 00 hr 02 min 01 sec)
Heartbeat CPU 0 instructions: 35500256 cycles: 7320997 heartbeat IPC: 3.967 cumulative IPC: 4.849 (Simulation time: 00 hr 02 min 03 sec)
Heartbeat CPU 0 instructions: 36000257 cycles: 7422354 heartbeat IPC: 4.933 cumulative IPC: 4.85 (Simulation time: 00 hr 02 min 05 sec)
Heartbeat CPU 0 instructions: 36500259 cycles: 7525653 heartbeat IPC: 4.84 cumulative IPC: 4.85 (Simulation time: 00 hr 02 min 07 sec)
Heartbeat CPU 0 instructions: 37000263 cycles: 7626795 heartbeat IPC: 4.944 cumulative IPC: 4.851 (Simulation time: 00 hr 02 min 08 sec)
Heartbeat CPU 0 instructions: 37500263 cycles: 7727427 heartbeat IPC: 4.969 cumulative IPC: 4.853 (Simulation time: 00 hr 02 min 10 sec)
Heartbeat CPU 0 instructions: 38000267 cycles: 7827930 heartbeat IPC: 4.975 cumulative IPC: 4.854 (Simulation time: 00 hr 02 min 12 sec)
Heartbeat CPU 0 instructions: 38500271 cycles: 7928947 heartbeat IPC: 4.95 cumulative IPC: 4.856 (Simulation time: 00 hr 02 min 13 sec)
Heartbeat CPU 0 instructions: 39000276 cycles: 8029624 heartbeat IPC: 4.966 cumulative IPC: 4.857 (Simulation time: 00 hr 02 min 15 sec)
Heartbeat CPU 0 instructions: 39500283 cycles: 8131610 heartbeat IPC: 4.903 cumulative IPC: 4.858 (Simulation time: 00 hr 02 min 17 sec)
Heartbeat CPU 0 instructions: 40000283 cycles: 8232181 heartbeat IPC: 4.972 cumulative IPC: 4.859 (Simulation time: 00 hr 02 min 19 sec)
Heartbeat CPU 0 instructions: 40500283 cycles: 8333609 heartbeat IPC: 4.93 cumulative IPC: 4.86 (Simulation time: 00 hr 02 min 20 sec)
Heartbeat CPU 0 instructions: 41000284 cycles: 8436049 heartbeat IPC: 4.881 cumulative IPC: 4.86 (Simulation time: 00 hr 02 min 22 sec)
Heartbeat CPU 0 instructions: 41500286 cycles: 8538326 heartbeat IPC: 4.889 cumulative IPC: 4.86 (Simulation time: 00 hr 02 min 24 sec)
Heartbeat CPU 0 instructions: 42000288 cycles: 8640297 heartbeat IPC: 4.903 cumulative IPC: 4.861 (Simulation time: 00 hr 02 min 26 sec)
Heartbeat CPU 0 instructions: 42500292 cycles: 8742222 heartbeat IPC: 4.906 cumulative IPC: 4.861 (Simulation time: 00 hr 02 min 27 sec)
Heartbeat CPU 0 instructions: 43000296 cycles: 8843207 heartbeat IPC: 4.951 cumulative IPC: 4.863 (Simulation time: 00 hr 02 min 29 sec)
Heartbeat CPU 0 instructions: 43500303 cycles: 8944761 heartbeat IPC: 4.924 cumulative IPC: 4.863 (Simulation time: 00 hr 02 min 31 sec)
Heartbeat CPU 0 instructions: 44000304 cycles: 9047063 heartbeat IPC: 4.887 cumulative IPC: 4.863 (Simulation time: 00 hr 02 min 33 sec)
Heartbeat CPU 0 instructions: 44500304 cycles: 9148584 heartbeat IPC: 4.925 cumulative IPC: 4.864 (Simulation time: 00 hr 02 min 35 sec)
Heartbeat CPU 0 instructions: 45000308 cycles: 9250304 heartbeat IPC: 4.915 cumulative IPC: 4.865 (Simulation time: 00 hr 02 min 36 sec)
Heartbeat CPU 0 instructions: 45500311 cycles: 9352109 heartbeat IPC: 4.911 cumulative IPC: 4.865 (Simulation time: 00 hr 02 min 38 sec)
Heartbeat CPU 0 instructions: 46000318 cycles: 9454117 heartbeat IPC: 4.902 cumulative IPC: 4.866 (Simulation time: 00 hr 02 min 40 sec)
Heartbeat CPU 0 instructions: 46500319 cycles: 9556491 heartbeat IPC: 4.884 cumulative IPC: 4.866 (Simulation time: 00 hr 02 min 42 sec)
Heartbeat CPU 0 instructions: 47000320 cycles: 9659451 heartbeat IPC: 4.856 cumulative IPC: 4.866 (Simulation time: 00 hr 02 min 44 sec)
Heartbeat CPU 0 instructions: 47500326 cycles: 9762510 heartbeat IPC: 4.852 cumulative IPC: 4.866 (Simulation time: 00 hr 02 min 46 sec)
Heartbeat CPU 0 instructions: 48000330 cycles: 9866186 heartbeat IPC: 4.823 cumulative IPC: 4.865 (Simulation time: 00 hr 02 min 47 sec)
Heartbeat CPU 0 instructions: 48500335 cycles: 9970507 heartbeat IPC: 4.793 cumulative IPC: 4.864 (Simulation time: 00 hr 02 min 49 sec)
Heartbeat CPU 0 instructions: 49000335 cycles: 10074771 heartbeat IPC: 4.796 cumulative IPC: 4.864 (Simulation time: 00 hr 02 min 51 sec)
Heartbeat CPU 0 instructions: 49500340 cycles: 10179432 heartbeat IPC: 4.777 cumulative IPC: 4.863 (Simulation time: 00 hr 02 min 53 sec)
Warmup halting CPU 0 at instruction 50000003 cycle 10283094 for remainder of phase
Warmup finished CPU 0 instructions: 50000003 cycles: 10283094 cumulative IPC: 4.862 (Simulation time: 00 hr 02 min 55 sec)
Warmup complete CPU 0 instructions: 50000003 cycles: 10283094 cumulative IPC: 4.862 (Simulation time: 00 hr 02 min 55 sec)
Heartbeat CPU 0 instructions: 50000347 cycles: 10283158 heartbeat IPC: 4.82 cumulative IPC: 5.375 (Simulation time: 00 hr 02 min 55 sec)
Heartbeat CPU 0 instructions: 50500348 cycles: 10650674 heartbeat IPC: 1.36 cumulative IPC: 1.361 (Simulation time: 00 hr 02 min 58 sec)
Heartbeat CPU 0 instructions: 51000349 cycles: 11008109 heartbeat IPC: 1.399 cumulative IPC: 1.38 (Simulation time: 00 hr 03 min 01 sec)
Heartbeat CPU 0 instructions: 51500354 cycles: 11764335 heartbeat IPC: 0.6612 cumulative IPC: 1.013 (Simulation time: 00 hr 03 min 06 sec)
Heartbeat CPU 0 instructions: 52000359 cycles: 12955585 heartbeat IPC: 0.4197 cumulative IPC: 0.7485 (Simulation time: 00 hr 03 min 14 sec)
Heartbeat CPU 0 instructions: 52500361 cycles: 13310123 heartbeat IPC: 1.41 cumulative IPC: 0.826 (Simulation time: 00 hr 03 min 17 sec)
Heartbeat CPU 0 instructions: 53000362 cycles: 14115943 heartbeat IPC: 0.6205 cumulative IPC: 0.7828 (Simulation time: 00 hr 03 min 22 sec)
Heartbeat CPU 0 instructions: 53500366 cycles: 14473072 heartbeat IPC: 1.4 cumulative IPC: 0.8354 (Simulation time: 00 hr 03 min 25 sec)
Heartbeat CPU 0 instructions: 54000368 cycles: 15779366 heartbeat IPC: 0.3828 cumulative IPC: 0.7278 (Simulation time: 00 hr 03 min 34 sec)
Heartbeat CPU 0 instructions: 54500368 cycles: 16136328 heartbeat IPC: 1.401 cumulative IPC: 0.7689 (Simulation time: 00 hr 03 min 36 sec)
Heartbeat CPU 0 instructions: 55000372 cycles: 16892669 heartbeat IPC: 0.6611 cumulative IPC: 0.7565 (Simulation time: 00 hr 03 min 41 sec)
Heartbeat CPU 0 instructions: 55500378 cycles: 17284173 heartbeat IPC: 1.277 cumulative IPC: 0.7856 (Simulation time: 00 hr 03 min 44 sec)
Heartbeat CPU 0 instructions: 56000379 cycles: 17651968 heartbeat IPC: 1.359 cumulative IPC: 0.8143 (Simulation time: 00 hr 03 min 47 sec)
Heartbeat CPU 0 instructions: 56500380 cycles: 18026087 heartbeat IPC: 1.336 cumulative IPC: 0.8395 (Simulation time: 00 hr 03 min 50 sec)
Heartbeat CPU 0 instructions: 57000381 cycles: 18756605 heartbeat IPC: 0.6844 cumulative IPC: 0.8261 (Simulation time: 00 hr 03 min 56 sec)
Heartbeat CPU 0 instructions: 57500381 cycles: 19434976 heartbeat IPC: 0.7371 cumulative IPC: 0.8195 (Simulation time: 00 hr 04 min 00 sec)
Heartbeat CPU 0 instructions: 58000384 cycles: 20152385 heartbeat IPC: 0.697 cumulative IPC: 0.8106 (Simulation time: 00 hr 04 min 06 sec)
Heartbeat CPU 0 instructions: 58500387 cycles: 21229926 heartbeat IPC: 0.464 cumulative IPC: 0.7765 (Simulation time: 00 hr 04 min 13 sec)
Heartbeat CPU 0 instructions: 59000391 cycles: 21588802 heartbeat IPC: 1.393 cumulative IPC: 0.7961 (Simulation time: 00 hr 04 min 16 sec)
Heartbeat CPU 0 instructions: 59500392 cycles: 22351933 heartbeat IPC: 0.6552 cumulative IPC: 0.7872 (Simulation time: 00 hr 04 min 21 sec)
Heartbeat CPU 0 instructions: 60000392 cycles: 23437786 heartbeat IPC: 0.4605 cumulative IPC: 0.7602 (Simulation time: 00 hr 04 min 28 sec)
Heartbeat CPU 0 instructions: 60500398 cycles: 23851885 heartbeat IPC: 1.207 cumulative IPC: 0.7739 (Simulation time: 00 hr 04 min 31 sec)
Heartbeat CPU 0 instructions: 61000398 cycles: 24257782 heartbeat IPC: 1.232 cumulative IPC: 0.7872 (Simulation time: 00 hr 04 min 34 sec)
Heartbeat CPU 0 instructions: 61500404 cycles: 24651253 heartbeat IPC: 1.271 cumulative IPC: 0.8004 (Simulation time: 00 hr 04 min 37 sec)
Heartbeat CPU 0 instructions: 62000405 cycles: 25049240 heartbeat IPC: 1.256 cumulative IPC: 0.8127 (Simulation time: 00 hr 04 min 40 sec)
Heartbeat CPU 0 instructions: 62500407 cycles: 25427164 heartbeat IPC: 1.323 cumulative IPC: 0.8254 (Simulation time: 00 hr 04 min 43 sec)
Heartbeat CPU 0 instructions: 63000409 cycles: 25823443 heartbeat IPC: 1.262 cumulative IPC: 0.8366 (Simulation time: 00 hr 04 min 46 sec)
Heartbeat CPU 0 instructions: 63500410 cycles: 26188609 heartbeat IPC: 1.369 cumulative IPC: 0.8488 (Simulation time: 00 hr 04 min 48 sec)
Heartbeat CPU 0 instructions: 64000412 cycles: 26574726 heartbeat IPC: 1.295 cumulative IPC: 0.8594 (Simulation time: 00 hr 04 min 51 sec)
Heartbeat CPU 0 instructions: 64500413 cycles: 26956844 heartbeat IPC: 1.308 cumulative IPC: 0.8697 (Simulation time: 00 hr 04 min 54 sec)
Heartbeat CPU 0 instructions: 65000417 cycles: 27340285 heartbeat IPC: 1.304 cumulative IPC: 0.8794 (Simulation time: 00 hr 04 min 57 sec)
Heartbeat CPU 0 instructions: 65500420 cycles: 27736646 heartbeat IPC: 1.261 cumulative IPC: 0.8881 (Simulation time: 00 hr 05 min 00 sec)
Heartbeat CPU 0 instructions: 66000422 cycles: 28110793 heartbeat IPC: 1.336 cumulative IPC: 0.8975 (Simulation time: 00 hr 05 min 03 sec)
Heartbeat CPU 0 instructions: 66500423 cycles: 28805540 heartbeat IPC: 0.7197 cumulative IPC: 0.8908 (Simulation time: 00 hr 05 min 08 sec)
Heartbeat CPU 0 instructions: 67000423 cycles: 29821471 heartbeat IPC: 0.4922 cumulative IPC: 0.8701 (Simulation time: 00 hr 05 min 16 sec)
Heartbeat CPU 0 instructions: 67500429 cycles: 30879616 heartbeat IPC: 0.4725 cumulative IPC: 0.8497 (Simulation time: 00 hr 05 min 23 sec)
Heartbeat CPU 0 instructions: 68000432 cycles: 31284844 heartbeat IPC: 1.234 cumulative IPC: 0.8571 (Simulation time: 00 hr 05 min 26 sec)
Heartbeat CPU 0 instructions: 68500436 cycles: 31693193 heartbeat IPC: 1.224 cumulative IPC: 0.8641 (Simulation time: 00 hr 05 min 29 sec)
Heartbeat CPU 0 instructions: 69000437 cycles: 32101168 heartbeat IPC: 1.226 cumulative IPC: 0.8709 (Simulation time: 00 hr 05 min 32 sec)
Heartbeat CPU 0 instructions: 69500439 cycles: 32493954 heartbeat IPC: 1.273 cumulative IPC: 0.878 (Simulation time: 00 hr 05 min 35 sec)
Heartbeat CPU 0 instructions: 70000446 cycles: 32908779 heartbeat IPC: 1.205 cumulative IPC: 0.884 (Simulation time: 00 hr 05 min 38 sec)
Heartbeat CPU 0 instructions: 70500449 cycles: 33311014 heartbeat IPC: 1.243 cumulative IPC: 0.8902 (Simulation time: 00 hr 05 min 41 sec)
Heartbeat CPU 0 instructions: 71000449 cycles: 33710485 heartbeat IPC: 1.252 cumulative IPC: 0.8964 (Simulation time: 00 hr 05 min 44 sec)
Heartbeat CPU 0 instructions: 71500449 cycles: 34121186 heartbeat IPC: 1.217 cumulative IPC: 0.9019 (Simulation time: 00 hr 05 min 47 sec)
Heartbeat CPU 0 instructions: 72000450 cycles: 34532540 heartbeat IPC: 1.216 cumulative IPC: 0.9073 (Simulation time: 00 hr 05 min 50 sec)
Heartbeat CPU 0 instructions: 72500451 cycles: 34951467 heartbeat IPC: 1.194 cumulative IPC: 0.9121 (Simulation time: 00 hr 05 min 53 sec)
Heartbeat CPU 0 instructions: 73000456 cycles: 35358624 heartbeat IPC: 1.228 cumulative IPC: 0.9172 (Simulation time: 00 hr 05 min 56 sec)
Heartbeat CPU 0 instructions: 73500458 cycles: 35768874 heartbeat IPC: 1.219 cumulative IPC: 0.9221 (Simulation time: 00 hr 05 min 59 sec)
Heartbeat CPU 0 instructions: 74000465 cycles: 36182102 heartbeat IPC: 1.21 cumulative IPC: 0.9267 (Simulation time: 00 hr 06 min 02 sec)
Heartbeat CPU 0 instructions: 74500469 cycles: 36581004 heartbeat IPC: 1.253 cumulative IPC: 0.9317 (Simulation time: 00 hr 06 min 05 sec)
Heartbeat CPU 0 instructions: 75000470 cycles: 36997195 heartbeat IPC: 1.201 cumulative IPC: 0.9359 (Simulation time: 00 hr 06 min 08 sec)
Heartbeat CPU 0 instructions: 75500470 cycles: 37404310 heartbeat IPC: 1.228 cumulative IPC: 0.9402 (Simulation time: 00 hr 06 min 11 sec)
Heartbeat CPU 0 instructions: 76000470 cycles: 37811490 heartbeat IPC: 1.228 cumulative IPC: 0.9445 (Simulation time: 00 hr 06 min 14 sec)
Heartbeat CPU 0 instructions: 76500473 cycles: 38229818 heartbeat IPC: 1.195 cumulative IPC: 0.9482 (Simulation time: 00 hr 06 min 17 sec)
Heartbeat CPU 0 instructions: 77000477 cycles: 38637493 heartbeat IPC: 1.226 cumulative IPC: 0.9522 (Simulation time: 00 hr 06 min 20 sec)
Heartbeat CPU 0 instructions: 77500477 cycles: 39033085 heartbeat IPC: 1.264 cumulative IPC: 0.9565 (Simulation time: 00 hr 06 min 22 sec)
Heartbeat CPU 0 instructions: 78000478 cycles: 39404109 heartbeat IPC: 1.348 cumulative IPC: 0.9615 (Simulation time: 00 hr 06 min 25 sec)
Heartbeat CPU 0 instructions: 78500478 cycles: 39800660 heartbeat IPC: 1.261 cumulative IPC: 0.9655 (Simulation time: 00 hr 06 min 28 sec)
Heartbeat CPU 0 instructions: 79000480 cycles: 40198595 heartbeat IPC: 1.256 cumulative IPC: 0.9694 (Simulation time: 00 hr 06 min 31 sec)
Heartbeat CPU 0 instructions: 79500483 cycles: 40614743 heartbeat IPC: 1.202 cumulative IPC: 0.9726 (Simulation time: 00 hr 06 min 34 sec)
Heartbeat CPU 0 instructions: 80000484 cycles: 41025001 heartbeat IPC: 1.219 cumulative IPC: 0.9759 (Simulation time: 00 hr 06 min 37 sec)
Heartbeat CPU 0 instructions: 80500487 cycles: 41425670 heartbeat IPC: 1.248 cumulative IPC: 0.9794 (Simulation time: 00 hr 06 min 40 sec)
Heartbeat CPU 0 instructions: 81000490 cycles: 41808562 heartbeat IPC: 1.306 cumulative IPC: 0.9833 (Simulation time: 00 hr 06 min 43 sec)
Heartbeat CPU 0 instructions: 81500491 cycles: 42204678 heartbeat IPC: 1.262 cumulative IPC: 0.9868 (Simulation time: 00 hr 06 min 46 sec)
Heartbeat CPU 0 instructions: 82000491 cycles: 42572507 heartbeat IPC: 1.359 cumulative IPC: 0.9911 (Simulation time: 00 hr 06 min 49 sec)
Heartbeat CPU 0 instructions: 82500492 cycles: 42936365 heartbeat IPC: 1.374 cumulative IPC: 0.9953 (Simulation time: 00 hr 06 min 51 sec)
Heartbeat CPU 0 instructions: 83000493 cycles: 43327287 heartbeat IPC: 1.279 cumulative IPC: 0.9987 (Simulation time: 00 hr 06 min 54 sec)
Heartbeat CPU 0 instructions: 83500499 cycles: 43729000 heartbeat IPC: 1.245 cumulative IPC: 1.002 (Simulation time: 00 hr 06 min 57 sec)
Heartbeat CPU 0 instructions: 84000499 cycles: 44103763 heartbeat IPC: 1.334 cumulative IPC: 1.005 (Simulation time: 00 hr 07 min 00 sec)
Heartbeat CPU 0 instructions: 84500500 cycles: 44481380 heartbeat IPC: 1.324 cumulative IPC: 1.009 (Simulation time: 00 hr 07 min 03 sec)
Heartbeat CPU 0 instructions: 85000502 cycles: 44872605 heartbeat IPC: 1.278 cumulative IPC: 1.012 (Simulation time: 00 hr 07 min 06 sec)
Heartbeat CPU 0 instructions: 85500509 cycles: 45279474 heartbeat IPC: 1.229 cumulative IPC: 1.014 (Simulation time: 00 hr 07 min 09 sec)
Heartbeat CPU 0 instructions: 86000511 cycles: 45667539 heartbeat IPC: 1.288 cumulative IPC: 1.017 (Simulation time: 00 hr 07 min 12 sec)
Heartbeat CPU 0 instructions: 86500515 cycles: 46047407 heartbeat IPC: 1.316 cumulative IPC: 1.021 (Simulation time: 00 hr 07 min 15 sec)
Heartbeat CPU 0 instructions: 87000516 cycles: 46443959 heartbeat IPC: 1.261 cumulative IPC: 1.023 (Simulation time: 00 hr 07 min 17 sec)
Heartbeat CPU 0 instructions: 87500518 cycles: 46838153 heartbeat IPC: 1.268 cumulative IPC: 1.026 (Simulation time: 00 hr 07 min 20 sec)
Heartbeat CPU 0 instructions: 88000518 cycles: 47247659 heartbeat IPC: 1.221 cumulative IPC: 1.028 (Simulation time: 00 hr 07 min 23 sec)
Heartbeat CPU 0 instructions: 88500519 cycles: 47650732 heartbeat IPC: 1.24 cumulative IPC: 1.03 (Simulation time: 00 hr 07 min 26 sec)
Heartbeat CPU 0 instructions: 89000520 cycles: 48061505 heartbeat IPC: 1.217 cumulative IPC: 1.032 (Simulation time: 00 hr 07 min 29 sec)
Heartbeat CPU 0 instructions: 89500523 cycles: 48469094 heartbeat IPC: 1.227 cumulative IPC: 1.034 (Simulation time: 00 hr 07 min 32 sec)
Heartbeat CPU 0 instructions: 90000529 cycles: 48877327 heartbeat IPC: 1.225 cumulative IPC: 1.036 (Simulation time: 00 hr 07 min 35 sec)
Heartbeat CPU 0 instructions: 90500530 cycles: 49284040 heartbeat IPC: 1.229 cumulative IPC: 1.038 (Simulation time: 00 hr 07 min 38 sec)
Heartbeat CPU 0 instructions: 91000530 cycles: 49677645 heartbeat IPC: 1.27 cumulative IPC: 1.041 (Simulation time: 00 hr 07 min 41 sec)
Heartbeat CPU 0 instructions: 91500531 cycles: 50077328 heartbeat IPC: 1.251 cumulative IPC: 1.043 (Simulation time: 00 hr 07 min 44 sec)
Heartbeat CPU 0 instructions: 92000532 cycles: 50454920 heartbeat IPC: 1.324 cumulative IPC: 1.046 (Simulation time: 00 hr 07 min 47 sec)
Heartbeat CPU 0 instructions: 92500533 cycles: 50845892 heartbeat IPC: 1.279 cumulative IPC: 1.048 (Simulation time: 00 hr 07 min 50 sec)
Heartbeat CPU 0 instructions: 93000536 cycles: 51242051 heartbeat IPC: 1.262 cumulative IPC: 1.05 (Simulation time: 00 hr 07 min 53 sec)
Heartbeat CPU 0 instructions: 93500538 cycles: 51638696 heartbeat IPC: 1.261 cumulative IPC: 1.052 (Simulation time: 00 hr 07 min 56 sec)
Heartbeat CPU 0 instructions: 94000541 cycles: 52053702 heartbeat IPC: 1.205 cumulative IPC: 1.053 (Simulation time: 00 hr 07 min 59 sec)
Heartbeat CPU 0 instructions: 94500542 cycles: 52469475 heartbeat IPC: 1.203 cumulative IPC: 1.055 (Simulation time: 00 hr 08 min 02 sec)
Heartbeat CPU 0 instructions: 95000543 cycles: 52881605 heartbeat IPC: 1.213 cumulative IPC: 1.056 (Simulation time: 00 hr 08 min 05 sec)
Heartbeat CPU 0 instructions: 95500543 cycles: 53295063 heartbeat IPC: 1.209 cumulative IPC: 1.058 (Simulation time: 00 hr 08 min 08 sec)
Heartbeat CPU 0 instructions: 96000549 cycles: 53711458 heartbeat IPC: 1.201 cumulative IPC: 1.059 (Simulation time: 00 hr 08 min 11 sec)
Heartbeat CPU 0 instructions: 96500552 cycles: 54122138 heartbeat IPC: 1.218 cumulative IPC: 1.061 (Simulation time: 00 hr 08 min 14 sec)
Heartbeat CPU 0 instructions: 97000554 cycles: 54539049 heartbeat IPC: 1.199 cumulative IPC: 1.062 (Simulation time: 00 hr 08 min 17 sec)
Heartbeat CPU 0 instructions: 97500559 cycles: 54957383 heartbeat IPC: 1.195 cumulative IPC: 1.063 (Simulation time: 00 hr 08 min 20 sec)
Heartbeat CPU 0 instructions: 98000565 cycles: 55372068 heartbeat IPC: 1.206 cumulative IPC: 1.065 (Simulation time: 00 hr 08 min 23 sec)
Heartbeat CPU 0 instructions: 98500567 cycles: 55785065 heartbeat IPC: 1.211 cumulative IPC: 1.066 (Simulation time: 00 hr 08 min 26 sec)
Heartbeat CPU 0 instructions: 99000571 cycles: 56187782 heartbeat IPC: 1.242 cumulative IPC: 1.067 (Simulation time: 00 hr 08 min 29 sec)
Heartbeat CPU 0 instructions: 99500574 cycles: 56587400 heartbeat IPC: 1.251 cumulative IPC: 1.069 (Simulation time: 00 hr 08 min 32 sec)
Heartbeat CPU 0 instructions: 100000575 cycles: 56995734 heartbeat IPC: 1.224 cumulative IPC: 1.07 (Simulation time: 00 hr 08 min 35 sec)
Heartbeat CPU 0 instructions: 100500576 cycles: 57403918 heartbeat IPC: 1.225 cumulative IPC: 1.072 (Simulation time: 00 hr 08 min 38 sec)
Heartbeat CPU 0 instructions: 101000579 cycles: 57810692 heartbeat IPC: 1.229 cumulative IPC: 1.073 (Simulation time: 00 hr 08 min 41 sec)
Heartbeat CPU 0 instructions: 101500585 cycles: 58218683 heartbeat IPC: 1.226 cumulative IPC: 1.074 (Simulation time: 00 hr 08 min 44 sec)
Heartbeat CPU 0 instructions: 102000586 cycles: 58625212 heartbeat IPC: 1.23 cumulative IPC: 1.076 (Simulation time: 00 hr 08 min 47 sec)
Heartbeat CPU 0 instructions: 102500586 cycles: 59024844 heartbeat IPC: 1.251 cumulative IPC: 1.077 (Simulation time: 00 hr 08 min 50 sec)
Heartbeat CPU 0 instructions: 103000593 cycles: 59416415 heartbeat IPC: 1.277 cumulative IPC: 1.079 (Simulation time: 00 hr 08 min 53 sec)
Heartbeat CPU 0 instructions: 103500593 cycles: 59807223 heartbeat IPC: 1.279 cumulative IPC: 1.08 (Simulation time: 00 hr 08 min 56 sec)
Heartbeat CPU 0 instructions: 104000594 cycles: 60214777 heartbeat IPC: 1.227 cumulative IPC: 1.081 (Simulation time: 00 hr 08 min 59 sec)
Heartbeat CPU 0 instructions: 104500599 cycles: 60620946 heartbeat IPC: 1.231 cumulative IPC: 1.083 (Simulation time: 00 hr 09 min 02 sec)
Heartbeat CPU 0 instructions: 105000600 cycles: 61028728 heartbeat IPC: 1.226 cumulative IPC: 1.084 (Simulation time: 00 hr 09 min 05 sec)
Heartbeat CPU 0 instructions: 105500601 cycles: 61433036 heartbeat IPC: 1.237 cumulative IPC: 1.085 (Simulation time: 00 hr 09 min 08 sec)
Heartbeat CPU 0 instructions: 106000601 cycles: 61837182 heartbeat IPC: 1.237 cumulative IPC: 1.086 (Simulation time: 00 hr 09 min 11 sec)
Heartbeat CPU 0 instructions: 106500602 cycles: 62248941 heartbeat IPC: 1.214 cumulative IPC: 1.087 (Simulation time: 00 hr 09 min 14 sec)
Heartbeat CPU 0 instructions: 107000605 cycles: 62663748 heartbeat IPC: 1.205 cumulative IPC: 1.088 (Simulation time: 00 hr 09 min 17 sec)
Heartbeat CPU 0 instructions: 107500608 cycles: 63074775 heartbeat IPC: 1.216 cumulative IPC: 1.089 (Simulation time: 00 hr 09 min 20 sec)
Heartbeat CPU 0 instructions: 108000609 cycles: 63489299 heartbeat IPC: 1.206 cumulative IPC: 1.09 (Simulation time: 00 hr 09 min 23 sec)
Heartbeat CPU 0 instructions: 108500615 cycles: 63902167 heartbeat IPC: 1.211 cumulative IPC: 1.091 (Simulation time: 00 hr 09 min 26 sec)
Heartbeat CPU 0 instructions: 109000616 cycles: 64310041 heartbeat IPC: 1.226 cumulative IPC: 1.092 (Simulation time: 00 hr 09 min 29 sec)
Heartbeat CPU 0 instructions: 109500616 cycles: 64723668 heartbeat IPC: 1.209 cumulative IPC: 1.093 (Simulation time: 00 hr 09 min 32 sec)
Heartbeat CPU 0 instructions: 110000620 cycles: 65135187 heartbeat IPC: 1.215 cumulative IPC: 1.094 (Simulation time: 00 hr 09 min 35 sec)
Heartbeat CPU 0 instructions: 110500620 cycles: 65550601 heartbeat IPC: 1.204 cumulative IPC: 1.095 (Simulation time: 00 hr 09 min 38 sec)
Heartbeat CPU 0 instructions: 111000624 cycles: 65961426 heartbeat IPC: 1.217 cumulative IPC: 1.096 (Simulation time: 00 hr 09 min 41 sec)
Heartbeat CPU 0 instructions: 111500628 cycles: 66373367 heartbeat IPC: 1.214 cumulative IPC: 1.096 (Simulation time: 00 hr 09 min 44 sec)
Heartbeat CPU 0 instructions: 112000628 cycles: 66776764 heartbeat IPC: 1.239 cumulative IPC: 1.097 (Simulation time: 00 hr 09 min 47 sec)
Heartbeat CPU 0 instructions: 112500628 cycles: 67188769 heartbeat IPC: 1.214 cumulative IPC: 1.098 (Simulation time: 00 hr 09 min 51 sec)
Heartbeat CPU 0 instructions: 113000631 cycles: 67599182 heartbeat IPC: 1.218 cumulative IPC: 1.099 (Simulation time: 00 hr 09 min 54 sec)
Heartbeat CPU 0 instructions: 113500631 cycles: 68002375 heartbeat IPC: 1.24 cumulative IPC: 1.1 (Simulation time: 00 hr 09 min 58 sec)
Heartbeat CPU 0 instructions: 114000631 cycles: 68418817 heartbeat IPC: 1.201 cumulative IPC: 1.101 (Simulation time: 00 hr 10 min 01 sec)
Heartbeat CPU 0 instructions: 114500631 cycles: 68829035 heartbeat IPC: 1.219 cumulative IPC: 1.102 (Simulation time: 00 hr 10 min 05 sec)
Heartbeat CPU 0 instructions: 115000633 cycles: 69241781 heartbeat IPC: 1.211 cumulative IPC: 1.102 (Simulation time: 00 hr 10 min 08 sec)
Heartbeat CPU 0 instructions: 115500633 cycles: 69654676 heartbeat IPC: 1.211 cumulative IPC: 1.103 (Simulation time: 00 hr 10 min 12 sec)
Heartbeat CPU 0 instructions: 116000633 cycles: 70062653 heartbeat IPC: 1.226 cumulative IPC: 1.104 (Simulation time: 00 hr 10 min 15 sec)
Heartbeat CPU 0 instructions: 116500636 cycles: 70460669 heartbeat IPC: 1.256 cumulative IPC: 1.105 (Simulation time: 00 hr 10 min 18 sec)
Heartbeat CPU 0 instructions: 117000636 cycles: 70875842 heartbeat IPC: 1.204 cumulative IPC: 1.106 (Simulation time: 00 hr 10 min 22 sec)
Heartbeat CPU 0 instructions: 117500636 cycles: 71284114 heartbeat IPC: 1.225 cumulative IPC: 1.107 (Simulation time: 00 hr 10 min 25 sec)
Heartbeat CPU 0 instructions: 118000636 cycles: 71690486 heartbeat IPC: 1.23 cumulative IPC: 1.107 (Simulation time: 00 hr 10 min 29 sec)
Heartbeat CPU 0 instructions: 118500637 cycles: 72091221 heartbeat IPC: 1.248 cumulative IPC: 1.108 (Simulation time: 00 hr 10 min 32 sec)
Heartbeat CPU 0 instructions: 119000644 cycles: 72496101 heartbeat IPC: 1.235 cumulative IPC: 1.109 (Simulation time: 00 hr 10 min 36 sec)
Heartbeat CPU 0 instructions: 119500649 cycles: 72898979 heartbeat IPC: 1.241 cumulative IPC: 1.11 (Simulation time: 00 hr 10 min 39 sec)
Heartbeat CPU 0 instructions: 120000653 cycles: 73298006 heartbeat IPC: 1.253 cumulative IPC: 1.111 (Simulation time: 00 hr 10 min 42 sec)
Heartbeat CPU 0 instructions: 120500658 cycles: 73700736 heartbeat IPC: 1.242 cumulative IPC: 1.112 (Simulation time: 00 hr 10 min 46 sec)
Heartbeat CPU 0 instructions: 121000663 cycles: 74103300 heartbeat IPC: 1.242 cumulative IPC: 1.113 (Simulation time: 00 hr 10 min 49 sec)
Heartbeat CPU 0 instructions: 121500667 cycles: 74486121 heartbeat IPC: 1.306 cumulative IPC: 1.114 (Simulation time: 00 hr 10 min 52 sec)
Heartbeat CPU 0 instructions: 122000670 cycles: 74877930 heartbeat IPC: 1.276 cumulative IPC: 1.115 (Simulation time: 00 hr 10 min 56 sec)
Heartbeat CPU 0 instructions: 122500670 cycles: 75258289 heartbeat IPC: 1.315 cumulative IPC: 1.116 (Simulation time: 00 hr 10 min 59 sec)
Heartbeat CPU 0 instructions: 123000677 cycles: 75624046 heartbeat IPC: 1.367 cumulative IPC: 1.117 (Simulation time: 00 hr 11 min 02 sec)
Heartbeat CPU 0 instructions: 123500679 cycles: 76622055 heartbeat IPC: 0.501 cumulative IPC: 1.108 (Simulation time: 00 hr 11 min 10 sec)
Heartbeat CPU 0 instructions: 124000685 cycles: 77021110 heartbeat IPC: 1.253 cumulative IPC: 1.109 (Simulation time: 00 hr 11 min 14 sec)
Heartbeat CPU 0 instructions: 124500685 cycles: 77420178 heartbeat IPC: 1.253 cumulative IPC: 1.11 (Simulation time: 00 hr 11 min 17 sec)
Heartbeat CPU 0 instructions: 125000686 cycles: 77811474 heartbeat IPC: 1.278 cumulative IPC: 1.111 (Simulation time: 00 hr 11 min 20 sec)
Heartbeat CPU 0 instructions: 125500688 cycles: 78357132 heartbeat IPC: 0.9163 cumulative IPC: 1.109 (Simulation time: 00 hr 11 min 25 sec)
Heartbeat CPU 0 instructions: 126000692 cycles: 79014261 heartbeat IPC: 0.7609 cumulative IPC: 1.106 (Simulation time: 00 hr 11 min 30 sec)
Heartbeat CPU 0 instructions: 126500695 cycles: 79390140 heartbeat IPC: 1.33 cumulative IPC: 1.107 (Simulation time: 00 hr 11 min 33 sec)
Heartbeat CPU 0 instructions: 127000697 cycles: 79745450 heartbeat IPC: 1.407 cumulative IPC: 1.109 (Simulation time: 00 hr 11 min 36 sec)
Heartbeat CPU 0 instructions: 127500697 cycles: 80885209 heartbeat IPC: 0.4387 cumulative IPC: 1.098 (Simulation time: 00 hr 11 min 46 sec)
Heartbeat CPU 0 instructions: 128000698 cycles: 81267559 heartbeat IPC: 1.308 cumulative IPC: 1.099 (Simulation time: 00 hr 11 min 49 sec)
Heartbeat CPU 0 instructions: 128500700 cycles: 82032276 heartbeat IPC: 0.6538 cumulative IPC: 1.094 (Simulation time: 00 hr 11 min 55 sec)
Heartbeat CPU 0 instructions: 129000700 cycles: 82448651 heartbeat IPC: 1.201 cumulative IPC: 1.095 (Simulation time: 00 hr 11 min 58 sec)
Heartbeat CPU 0 instructions: 129500700 cycles: 82856588 heartbeat IPC: 1.226 cumulative IPC: 1.095 (Simulation time: 00 hr 12 min 02 sec)
Heartbeat CPU 0 instructions: 130000700 cycles: 83254377 heartbeat IPC: 1.257 cumulative IPC: 1.096 (Simulation time: 00 hr 12 min 05 sec)
Heartbeat CPU 0 instructions: 130500700 cycles: 83663723 heartbeat IPC: 1.221 cumulative IPC: 1.097 (Simulation time: 00 hr 12 min 09 sec)
Heartbeat CPU 0 instructions: 131000701 cycles: 84055921 heartbeat IPC: 1.275 cumulative IPC: 1.098 (Simulation time: 00 hr 12 min 12 sec)
Heartbeat CPU 0 instructions: 131500703 cycles: 84447693 heartbeat IPC: 1.276 cumulative IPC: 1.099 (Simulation time: 00 hr 12 min 15 sec)
Heartbeat CPU 0 instructions: 132000704 cycles: 84843127 heartbeat IPC: 1.264 cumulative IPC: 1.1 (Simulation time: 00 hr 12 min 19 sec)
Heartbeat CPU 0 instructions: 132500704 cycles: 85235658 heartbeat IPC: 1.274 cumulative IPC: 1.101 (Simulation time: 00 hr 12 min 22 sec)
Heartbeat CPU 0 instructions: 133000705 cycles: 85649672 heartbeat IPC: 1.208 cumulative IPC: 1.101 (Simulation time: 00 hr 12 min 26 sec)
Heartbeat CPU 0 instructions: 133500706 cycles: 86399624 heartbeat IPC: 0.6667 cumulative IPC: 1.097 (Simulation time: 00 hr 12 min 31 sec)
Heartbeat CPU 0 instructions: 134000712 cycles: 86759006 heartbeat IPC: 1.391 cumulative IPC: 1.098 (Simulation time: 00 hr 12 min 35 sec)
Heartbeat CPU 0 instructions: 134500712 cycles: 87850389 heartbeat IPC: 0.4581 cumulative IPC: 1.089 (Simulation time: 00 hr 12 min 43 sec)
Heartbeat CPU 0 instructions: 135000712 cycles: 88229597 heartbeat IPC: 1.319 cumulative IPC: 1.091 (Simulation time: 00 hr 12 min 46 sec)
Heartbeat CPU 0 instructions: 135500714 cycles: 88717996 heartbeat IPC: 1.024 cumulative IPC: 1.09 (Simulation time: 00 hr 12 min 51 sec)
Heartbeat CPU 0 instructions: 136000716 cycles: 89572332 heartbeat IPC: 0.5853 cumulative IPC: 1.085 (Simulation time: 00 hr 12 min 57 sec)
Heartbeat CPU 0 instructions: 136500716 cycles: 89961019 heartbeat IPC: 1.286 cumulative IPC: 1.086 (Simulation time: 00 hr 13 min 00 sec)
Heartbeat CPU 0 instructions: 137000722 cycles: 90339630 heartbeat IPC: 1.321 cumulative IPC: 1.087 (Simulation time: 00 hr 13 min 04 sec)
Heartbeat CPU 0 instructions: 137500727 cycles: 90700933 heartbeat IPC: 1.384 cumulative IPC: 1.088 (Simulation time: 00 hr 13 min 07 sec)
Heartbeat CPU 0 instructions: 138000727 cycles: 91939345 heartbeat IPC: 0.4037 cumulative IPC: 1.078 (Simulation time: 00 hr 13 min 17 sec)
Heartbeat CPU 0 instructions: 138500728 cycles: 92712380 heartbeat IPC: 0.6468 cumulative IPC: 1.074 (Simulation time: 00 hr 13 min 24 sec)
Heartbeat CPU 0 instructions: 139000732 cycles: 93829311 heartbeat IPC: 0.4477 cumulative IPC: 1.065 (Simulation time: 00 hr 13 min 33 sec)
Heartbeat CPU 0 instructions: 139500738 cycles: 94506012 heartbeat IPC: 0.7389 cumulative IPC: 1.063 (Simulation time: 00 hr 13 min 38 sec)
Heartbeat CPU 0 instructions: 140000743 cycles: 94892617 heartbeat IPC: 1.293 cumulative IPC: 1.064 (Simulation time: 00 hr 13 min 42 sec)
Heartbeat CPU 0 instructions: 140500744 cycles: 95559581 heartbeat IPC: 0.7497 cumulative IPC: 1.061 (Simulation time: 00 hr 13 min 47 sec)
Heartbeat CPU 0 instructions: 141000751 cycles: 96293756 heartbeat IPC: 0.681 cumulative IPC: 1.058 (Simulation time: 00 hr 13 min 53 sec)
Heartbeat CPU 0 instructions: 141500756 cycles: 96698690 heartbeat IPC: 1.235 cumulative IPC: 1.059 (Simulation time: 00 hr 13 min 56 sec)
Heartbeat CPU 0 instructions: 142000760 cycles: 97113771 heartbeat IPC: 1.205 cumulative IPC: 1.06 (Simulation time: 00 hr 14 min 00 sec)
Heartbeat CPU 0 instructions: 142500766 cycles: 97530641 heartbeat IPC: 1.199 cumulative IPC: 1.06 (Simulation time: 00 hr 14 min 03 sec)
Heartbeat CPU 0 instructions: 143000766 cycles: 97946247 heartbeat IPC: 1.203 cumulative IPC: 1.061 (Simulation time: 00 hr 14 min 07 sec)
Heartbeat CPU 0 instructions: 143500770 cycles: 98347960 heartbeat IPC: 1.245 cumulative IPC: 1.062 (Simulation time: 00 hr 14 min 10 sec)
Heartbeat CPU 0 instructions: 144000773 cycles: 98749135 heartbeat IPC: 1.246 cumulative IPC: 1.063 (Simulation time: 00 hr 14 min 14 sec)
Heartbeat CPU 0 instructions: 144500774 cycles: 99138010 heartbeat IPC: 1.286 cumulative IPC: 1.064 (Simulation time: 00 hr 14 min 17 sec)
Heartbeat CPU 0 instructions: 145000781 cycles: 99526081 heartbeat IPC: 1.288 cumulative IPC: 1.065 (Simulation time: 00 hr 14 min 20 sec)
Heartbeat CPU 0 instructions: 145500782 cycles: 99922468 heartbeat IPC: 1.261 cumulative IPC: 1.065 (Simulation time: 00 hr 14 min 24 sec)
Heartbeat CPU 0 instructions: 146000783 cycles: 100330902 heartbeat IPC: 1.224 cumulative IPC: 1.066 (Simulation time: 00 hr 14 min 27 sec)
Heartbeat CPU 0 instructions: 146500789 cycles: 100742970 heartbeat IPC: 1.213 cumulative IPC: 1.067 (Simulation time: 00 hr 14 min 31 sec)
Heartbeat CPU 0 instructions: 147000793 cycles: 101155343 heartbeat IPC: 1.213 cumulative IPC: 1.067 (Simulation time: 00 hr 14 min 34 sec)
Heartbeat CPU 0 instructions: 147500794 cycles: 101550477 heartbeat IPC: 1.265 cumulative IPC: 1.068 (Simulation time: 00 hr 14 min 37 sec)
Heartbeat CPU 0 instructions: 148000797 cycles: 101954080 heartbeat IPC: 1.239 cumulative IPC: 1.069 (Simulation time: 00 hr 14 min 41 sec)
Heartbeat CPU 0 instructions: 148500804 cycles: 102356310 heartbeat IPC: 1.243 cumulative IPC: 1.07 (Simulation time: 00 hr 14 min 44 sec)
Heartbeat CPU 0 instructions: 149000811 cycles: 102747010 heartbeat IPC: 1.28 cumulative IPC: 1.071 (Simulation time: 00 hr 14 min 48 sec)
Heartbeat CPU 0 instructions: 149500812 cycles: 103482304 heartbeat IPC: 0.68 cumulative IPC: 1.068 (Simulation time: 00 hr 14 min 54 sec)
Heartbeat CPU 0 instructions: 150000814 cycles: 104212234 heartbeat IPC: 0.685 cumulative IPC: 1.065 (Simulation time: 00 hr 15 min 00 sec)
Heartbeat CPU 0 instructions: 150500815 cycles: 104612024 heartbeat IPC: 1.251 cumulative IPC: 1.065 (Simulation time: 00 hr 15 min 03 sec)
Heartbeat CPU 0 instructions: 151000816 cycles: 104984821 heartbeat IPC: 1.341 cumulative IPC: 1.067 (Simulation time: 00 hr 15 min 06 sec)
Heartbeat CPU 0 instructions: 151500817 cycles: 105666306 heartbeat IPC: 0.7337 cumulative IPC: 1.064 (Simulation time: 00 hr 15 min 12 sec)
Heartbeat CPU 0 instructions: 152000817 cycles: 106279463 heartbeat IPC: 0.8155 cumulative IPC: 1.063 (Simulation time: 00 hr 15 min 17 sec)
Heartbeat CPU 0 instructions: 152500817 cycles: 107581585 heartbeat IPC: 0.384 cumulative IPC: 1.053 (Simulation time: 00 hr 15 min 28 sec)
Heartbeat CPU 0 instructions: 153000817 cycles: 107958886 heartbeat IPC: 1.325 cumulative IPC: 1.055 (Simulation time: 00 hr 15 min 31 sec)
Heartbeat CPU 0 instructions: 153500823 cycles: 108327933 heartbeat IPC: 1.355 cumulative IPC: 1.056 (Simulation time: 00 hr 15 min 34 sec)
Heartbeat CPU 0 instructions: 154000823 cycles: 108772413 heartbeat IPC: 1.125 cumulative IPC: 1.056 (Simulation time: 00 hr 15 min 38 sec)
Heartbeat CPU 0 instructions: 154500823 cycles: 109401086 heartbeat IPC: 0.7953 cumulative IPC: 1.054 (Simulation time: 00 hr 15 min 43 sec)
Heartbeat CPU 0 instructions: 155000829 cycles: 110109660 heartbeat IPC: 0.7057 cumulative IPC: 1.052 (Simulation time: 00 hr 15 min 49 sec)
Heartbeat CPU 0 instructions: 155500834 cycles: 110487975 heartbeat IPC: 1.322 cumulative IPC: 1.053 (Simulation time: 00 hr 15 min 52 sec)
Heartbeat CPU 0 instructions: 156000836 cycles: 110954320 heartbeat IPC: 1.072 cumulative IPC: 1.053 (Simulation time: 00 hr 15 min 56 sec)
Heartbeat CPU 0 instructions: 156500836 cycles: 111507172 heartbeat IPC: 0.9044 cumulative IPC: 1.052 (Simulation time: 00 hr 16 min 00 sec)
Heartbeat CPU 0 instructions: 157000842 cycles: 112105279 heartbeat IPC: 0.836 cumulative IPC: 1.051 (Simulation time: 00 hr 16 min 05 sec)
Heartbeat CPU 0 instructions: 157500845 cycles: 112785691 heartbeat IPC: 0.7349 cumulative IPC: 1.049 (Simulation time: 00 hr 16 min 11 sec)
Heartbeat CPU 0 instructions: 158000847 cycles: 113473447 heartbeat IPC: 0.727 cumulative IPC: 1.047 (Simulation time: 00 hr 16 min 16 sec)
Heartbeat CPU 0 instructions: 158500847 cycles: 113997800 heartbeat IPC: 0.9536 cumulative IPC: 1.046 (Simulation time: 00 hr 16 min 21 sec)
Heartbeat CPU 0 instructions: 159000847 cycles: 114531878 heartbeat IPC: 0.9362 cumulative IPC: 1.046 (Simulation time: 00 hr 16 min 25 sec)
Heartbeat CPU 0 instructions: 159500847 cycles: 114919111 heartbeat IPC: 1.291 cumulative IPC: 1.046 (Simulation time: 00 hr 16 min 28 sec)
Heartbeat CPU 0 instructions: 160000848 cycles: 115929439 heartbeat IPC: 0.4949 cumulative IPC: 1.041 (Simulation time: 00 hr 16 min 36 sec)
Heartbeat CPU 0 instructions: 160500854 cycles: 116297139 heartbeat IPC: 1.36 cumulative IPC: 1.042 (Simulation time: 00 hr 16 min 40 sec)
Heartbeat CPU 0 instructions: 161000857 cycles: 116974594 heartbeat IPC: 0.7381 cumulative IPC: 1.04 (Simulation time: 00 hr 16 min 45 sec)
Heartbeat CPU 0 instructions: 161500859 cycles: 117340088 heartbeat IPC: 1.368 cumulative IPC: 1.042 (Simulation time: 00 hr 16 min 48 sec)
Heartbeat CPU 0 instructions: 162000861 cycles: 117697638 heartbeat IPC: 1.398 cumulative IPC: 1.043 (Simulation time: 00 hr 16 min 51 sec)
Heartbeat CPU 0 instructions: 162500861 cycles: 118374406 heartbeat IPC: 0.7388 cumulative IPC: 1.041 (Simulation time: 00 hr 16 min 57 sec)
Heartbeat CPU 0 instructions: 163000862 cycles: 118737223 heartbeat IPC: 1.378 cumulative IPC: 1.042 (Simulation time: 00 hr 17 min 00 sec)
Heartbeat CPU 0 instructions: 163500862 cycles: 119494655 heartbeat IPC: 0.6601 cumulative IPC: 1.039 (Simulation time: 00 hr 17 min 06 sec)
Heartbeat CPU 0 instructions: 164000862 cycles: 120348089 heartbeat IPC: 0.5859 cumulative IPC: 1.036 (Simulation time: 00 hr 17 min 13 sec)
Heartbeat CPU 0 instructions: 164500863 cycles: 121225005 heartbeat IPC: 0.5702 cumulative IPC: 1.032 (Simulation time: 00 hr 17 min 20 sec)
Heartbeat CPU 0 instructions: 165000863 cycles: 121626970 heartbeat IPC: 1.244 cumulative IPC: 1.033 (Simulation time: 00 hr 17 min 23 sec)
Heartbeat CPU 0 instructions: 165500866 cycles: 122024867 heartbeat IPC: 1.257 cumulative IPC: 1.034 (Simulation time: 00 hr 17 min 27 sec)
Heartbeat CPU 0 instructions: 166000872 cycles: 122430257 heartbeat IPC: 1.233 cumulative IPC: 1.034 (Simulation time: 00 hr 17 min 30 sec)
Heartbeat CPU 0 instructions: 166500874 cycles: 122824365 heartbeat IPC: 1.269 cumulative IPC: 1.035 (Simulation time: 00 hr 17 min 33 sec)
Heartbeat CPU 0 instructions: 167000880 cycles: 123221284 heartbeat IPC: 1.26 cumulative IPC: 1.036 (Simulation time: 00 hr 17 min 37 sec)
Heartbeat CPU 0 instructions: 167500885 cycles: 123617664 heartbeat IPC: 1.261 cumulative IPC: 1.037 (Simulation time: 00 hr 17 min 40 sec)
Heartbeat CPU 0 instructions: 168000890 cycles: 124002083 heartbeat IPC: 1.301 cumulative IPC: 1.038 (Simulation time: 00 hr 17 min 43 sec)
Heartbeat CPU 0 instructions: 168500891 cycles: 124671384 heartbeat IPC: 0.747 cumulative IPC: 1.036 (Simulation time: 00 hr 17 min 49 sec)
Heartbeat CPU 0 instructions: 169000894 cycles: 125067639 heartbeat IPC: 1.262 cumulative IPC: 1.037 (Simulation time: 00 hr 17 min 52 sec)
Heartbeat CPU 0 instructions: 169500896 cycles: 125452034 heartbeat IPC: 1.301 cumulative IPC: 1.038 (Simulation time: 00 hr 17 min 55 sec)
Heartbeat CPU 0 instructions: 170000896 cycles: 125877986 heartbeat IPC: 1.174 cumulative IPC: 1.038 (Simulation time: 00 hr 17 min 59 sec)
Heartbeat CPU 0 instructions: 170500897 cycles: 126891234 heartbeat IPC: 0.4935 cumulative IPC: 1.033 (Simulation time: 00 hr 18 min 07 sec)
Heartbeat CPU 0 instructions: 171000898 cycles: 127304037 heartbeat IPC: 1.211 cumulative IPC: 1.034 (Simulation time: 00 hr 18 min 11 sec)
Heartbeat CPU 0 instructions: 171500905 cycles: 127720839 heartbeat IPC: 1.2 cumulative IPC: 1.035 (Simulation time: 00 hr 18 min 14 sec)
Heartbeat CPU 0 instructions: 172000905 cycles: 128121926 heartbeat IPC: 1.247 cumulative IPC: 1.035 (Simulation time: 00 hr 18 min 17 sec)
Heartbeat CPU 0 instructions: 172500906 cycles: 128521203 heartbeat IPC: 1.252 cumulative IPC: 1.036 (Simulation time: 00 hr 18 min 21 sec)
Heartbeat CPU 0 instructions: 173000906 cycles: 128924909 heartbeat IPC: 1.239 cumulative IPC: 1.037 (Simulation time: 00 hr 18 min 24 sec)
Heartbeat CPU 0 instructions: 173500909 cycles: 129324867 heartbeat IPC: 1.25 cumulative IPC: 1.037 (Simulation time: 00 hr 18 min 28 sec)
Heartbeat CPU 0 instructions: 174000909 cycles: 129713719 heartbeat IPC: 1.286 cumulative IPC: 1.038 (Simulation time: 00 hr 18 min 31 sec)
Heartbeat CPU 0 instructions: 174500914 cycles: 130417473 heartbeat IPC: 0.7105 cumulative IPC: 1.036 (Simulation time: 00 hr 18 min 37 sec)
Heartbeat CPU 0 instructions: 175000917 cycles: 130805516 heartbeat IPC: 1.289 cumulative IPC: 1.037 (Simulation time: 00 hr 18 min 40 sec)
Heartbeat CPU 0 instructions: 175500917 cycles: 131185859 heartbeat IPC: 1.315 cumulative IPC: 1.038 (Simulation time: 00 hr 18 min 43 sec)
Heartbeat CPU 0 instructions: 176000918 cycles: 131849351 heartbeat IPC: 0.7536 cumulative IPC: 1.036 (Simulation time: 00 hr 18 min 49 sec)
Heartbeat CPU 0 instructions: 176500925 cycles: 133061719 heartbeat IPC: 0.4124 cumulative IPC: 1.03 (Simulation time: 00 hr 18 min 58 sec)
Heartbeat CPU 0 instructions: 177000926 cycles: 133452301 heartbeat IPC: 1.28 cumulative IPC: 1.031 (Simulation time: 00 hr 19 min 01 sec)
Heartbeat CPU 0 instructions: 177500926 cycles: 133833952 heartbeat IPC: 1.31 cumulative IPC: 1.032 (Simulation time: 00 hr 19 min 05 sec)
Heartbeat CPU 0 instructions: 178000926 cycles: 134487024 heartbeat IPC: 0.7656 cumulative IPC: 1.031 (Simulation time: 00 hr 19 min 10 sec)
Heartbeat CPU 0 instructions: 178500927 cycles: 135157014 heartbeat IPC: 0.7463 cumulative IPC: 1.029 (Simulation time: 00 hr 19 min 15 sec)
Heartbeat CPU 0 instructions: 179000929 cycles: 135535654 heartbeat IPC: 1.321 cumulative IPC: 1.03 (Simulation time: 00 hr 19 min 19 sec)
Heartbeat CPU 0 instructions: 179500936 cycles: 135893691 heartbeat IPC: 1.397 cumulative IPC: 1.031 (Simulation time: 00 hr 19 min 22 sec)
Heartbeat CPU 0 instructions: 180000938 cycles: 136609424 heartbeat IPC: 0.6986 cumulative IPC: 1.029 (Simulation time: 00 hr 19 min 27 sec)
Heartbeat CPU 0 instructions: 180500938 cycles: 136976192 heartbeat IPC: 1.363 cumulative IPC: 1.03 (Simulation time: 00 hr 19 min 30 sec)
Heartbeat CPU 0 instructions: 181000940 cycles: 137349334 heartbeat IPC: 1.34 cumulative IPC: 1.031 (Simulation time: 00 hr 19 min 34 sec)
Heartbeat CPU 0 instructions: 181500940 cycles: 137714944 heartbeat IPC: 1.368 cumulative IPC: 1.032 (Simulation time: 00 hr 19 min 37 sec)
Heartbeat CPU 0 instructions: 182000941 cycles: 138260475 heartbeat IPC: 0.9165 cumulative IPC: 1.031 (Simulation time: 00 hr 19 min 42 sec)
Heartbeat CPU 0 instructions: 182500945 cycles: 138740727 heartbeat IPC: 1.041 cumulative IPC: 1.031 (Simulation time: 00 hr 19 min 46 sec)
Heartbeat CPU 0 instructions: 183000949 cycles: 139427214 heartbeat IPC: 0.7284 cumulative IPC: 1.03 (Simulation time: 00 hr 19 min 51 sec)
Heartbeat CPU 0 instructions: 183500953 cycles: 140104600 heartbeat IPC: 0.7381 cumulative IPC: 1.028 (Simulation time: 00 hr 19 min 57 sec)
Heartbeat CPU 0 instructions: 184000953 cycles: 140511516 heartbeat IPC: 1.229 cumulative IPC: 1.029 (Simulation time: 00 hr 20 min 00 sec)
Heartbeat CPU 0 instructions: 184500955 cycles: 140910220 heartbeat IPC: 1.254 cumulative IPC: 1.03 (Simulation time: 00 hr 20 min 03 sec)
Heartbeat CPU 0 instructions: 185000956 cycles: 141316317 heartbeat IPC: 1.231 cumulative IPC: 1.03 (Simulation time: 00 hr 20 min 07 sec)
Heartbeat CPU 0 instructions: 185500962 cycles: 141697186 heartbeat IPC: 1.313 cumulative IPC: 1.031 (Simulation time: 00 hr 20 min 10 sec)
Heartbeat CPU 0 instructions: 186000965 cycles: 142097048 heartbeat IPC: 1.25 cumulative IPC: 1.032 (Simulation time: 00 hr 20 min 14 sec)
Heartbeat CPU 0 instructions: 186500969 cycles: 142488095 heartbeat IPC: 1.279 cumulative IPC: 1.032 (Simulation time: 00 hr 20 min 17 sec)
Heartbeat CPU 0 instructions: 187000974 cycles: 142861102 heartbeat IPC: 1.34 cumulative IPC: 1.033 (Simulation time: 00 hr 20 min 20 sec)
Heartbeat CPU 0 instructions: 187500977 cycles: 143465038 heartbeat IPC: 0.8279 cumulative IPC: 1.032 (Simulation time: 00 hr 20 min 25 sec)
Heartbeat CPU 0 instructions: 188000978 cycles: 144054350 heartbeat IPC: 0.8484 cumulative IPC: 1.032 (Simulation time: 00 hr 20 min 30 sec)
Heartbeat CPU 0 instructions: 188500979 cycles: 144967037 heartbeat IPC: 0.5478 cumulative IPC: 1.028 (Simulation time: 00 hr 20 min 37 sec)
Heartbeat CPU 0 instructions: 189000986 cycles: 145350417 heartbeat IPC: 1.304 cumulative IPC: 1.029 (Simulation time: 00 hr 20 min 41 sec)
Heartbeat CPU 0 instructions: 189500991 cycles: 145734598 heartbeat IPC: 1.301 cumulative IPC: 1.03 (Simulation time: 00 hr 20 min 44 sec)
Heartbeat CPU 0 instructions: 190000992 cycles: 146102581 heartbeat IPC: 1.359 cumulative IPC: 1.031 (Simulation time: 00 hr 20 min 47 sec)
Heartbeat CPU 0 instructions: 190500992 cycles: 146466990 heartbeat IPC: 1.372 cumulative IPC: 1.032 (Simulation time: 00 hr 20 min 51 sec)
Heartbeat CPU 0 instructions: 191000995 cycles: 146835228 heartbeat IPC: 1.358 cumulative IPC: 1.033 (Simulation time: 00 hr 20 min 54 sec)
Heartbeat CPU 0 instructions: 191500995 cycles: 147587222 heartbeat IPC: 0.6649 cumulative IPC: 1.031 (Simulation time: 00 hr 21 min 00 sec)
Heartbeat CPU 0 instructions: 192001000 cycles: 147980072 heartbeat IPC: 1.273 cumulative IPC: 1.031 (Simulation time: 00 hr 21 min 03 sec)
Heartbeat CPU 0 instructions: 192501003 cycles: 148363281 heartbeat IPC: 1.305 cumulative IPC: 1.032 (Simulation time: 00 hr 21 min 06 sec)
Heartbeat CPU 0 instructions: 193001004 cycles: 148750255 heartbeat IPC: 1.292 cumulative IPC: 1.033 (Simulation time: 00 hr 21 min 10 sec)
Heartbeat CPU 0 instructions: 193501006 cycles: 149115398 heartbeat IPC: 1.369 cumulative IPC: 1.034 (Simulation time: 00 hr 21 min 13 sec)
Heartbeat CPU 0 instructions: 194001010 cycles: 149500626 heartbeat IPC: 1.298 cumulative IPC: 1.034 (Simulation time: 00 hr 21 min 16 sec)
Heartbeat CPU 0 instructions: 194501015 cycles: 150260341 heartbeat IPC: 0.6581 cumulative IPC: 1.032 (Simulation time: 00 hr 21 min 22 sec)
Heartbeat CPU 0 instructions: 195001015 cycles: 150668654 heartbeat IPC: 1.225 cumulative IPC: 1.033 (Simulation time: 00 hr 21 min 25 sec)
Heartbeat CPU 0 instructions: 195501015 cycles: 151069403 heartbeat IPC: 1.248 cumulative IPC: 1.033 (Simulation time: 00 hr 21 min 29 sec)
Heartbeat CPU 0 instructions: 196001022 cycles: 151475360 heartbeat IPC: 1.232 cumulative IPC: 1.034 (Simulation time: 00 hr 21 min 32 sec)
Heartbeat CPU 0 instructions: 196501023 cycles: 151866519 heartbeat IPC: 1.278 cumulative IPC: 1.035 (Simulation time: 00 hr 21 min 36 sec)
Heartbeat CPU 0 instructions: 197001027 cycles: 152238283 heartbeat IPC: 1.345 cumulative IPC: 1.036 (Simulation time: 00 hr 21 min 39 sec)
Heartbeat CPU 0 instructions: 197501028 cycles: 152639572 heartbeat IPC: 1.246 cumulative IPC: 1.036 (Simulation time: 00 hr 21 min 42 sec)
Heartbeat CPU 0 instructions: 198001028 cycles: 153043467 heartbeat IPC: 1.238 cumulative IPC: 1.037 (Simulation time: 00 hr 21 min 46 sec)
Heartbeat CPU 0 instructions: 198501028 cycles: 153436124 heartbeat IPC: 1.273 cumulative IPC: 1.037 (Simulation time: 00 hr 21 min 49 sec)
Heartbeat CPU 0 instructions: 199001028 cycles: 153816549 heartbeat IPC: 1.314 cumulative IPC: 1.038 (Simulation time: 00 hr 21 min 52 sec)
Heartbeat CPU 0 instructions: 199501034 cycles: 154220231 heartbeat IPC: 1.239 cumulative IPC: 1.039 (Simulation time: 00 hr 21 min 56 sec)
Heartbeat CPU 0 instructions: 200001036 cycles: 154607256 heartbeat IPC: 1.292 cumulative IPC: 1.039 (Simulation time: 00 hr 21 min 59 sec)
Heartbeat CPU 0 instructions: 200501037 cycles: 154991552 heartbeat IPC: 1.301 cumulative IPC: 1.04 (Simulation time: 00 hr 22 min 02 sec)
Heartbeat CPU 0 instructions: 201001041 cycles: 155381044 heartbeat IPC: 1.284 cumulative IPC: 1.041 (Simulation time: 00 hr 22 min 06 sec)
Heartbeat CPU 0 instructions: 201501042 cycles: 156205637 heartbeat IPC: 0.6064 cumulative IPC: 1.038 (Simulation time: 00 hr 22 min 12 sec)
Heartbeat CPU 0 instructions: 202001046 cycles: 156766189 heartbeat IPC: 0.892 cumulative IPC: 1.038 (Simulation time: 00 hr 22 min 17 sec)
Heartbeat CPU 0 instructions: 202501052 cycles: 157157671 heartbeat IPC: 1.277 cumulative IPC: 1.038 (Simulation time: 00 hr 22 min 20 sec)
Heartbeat CPU 0 instructions: 203001053 cycles: 157559469 heartbeat IPC: 1.244 cumulative IPC: 1.039 (Simulation time: 00 hr 22 min 24 sec)
Heartbeat CPU 0 instructions: 203501058 cycles: 157963169 heartbeat IPC: 1.239 cumulative IPC: 1.039 (Simulation time: 00 hr 22 min 27 sec)
Heartbeat CPU 0 instructions: 204001059 cycles: 158489698 heartbeat IPC: 0.9496 cumulative IPC: 1.039 (Simulation time: 00 hr 22 min 32 sec)
Heartbeat CPU 0 instructions: 204501060 cycles: 159334919 heartbeat IPC: 0.5916 cumulative IPC: 1.037 (Simulation time: 00 hr 22 min 38 sec)
Heartbeat CPU 0 instructions: 205001062 cycles: 159712142 heartbeat IPC: 1.325 cumulative IPC: 1.037 (Simulation time: 00 hr 22 min 41 sec)
Heartbeat CPU 0 instructions: 205501067 cycles: 160082893 heartbeat IPC: 1.349 cumulative IPC: 1.038 (Simulation time: 00 hr 22 min 44 sec)
Heartbeat CPU 0 instructions: 206001067 cycles: 160444627 heartbeat IPC: 1.382 cumulative IPC: 1.039 (Simulation time: 00 hr 22 min 48 sec)
Heartbeat CPU 0 instructions: 206501070 cycles: 160811152 heartbeat IPC: 1.364 cumulative IPC: 1.04 (Simulation time: 00 hr 22 min 51 sec)
Heartbeat CPU 0 instructions: 207001070 cycles: 161439604 heartbeat IPC: 0.7956 cumulative IPC: 1.039 (Simulation time: 00 hr 22 min 56 sec)
Heartbeat CPU 0 instructions: 207501072 cycles: 162185868 heartbeat IPC: 0.67 cumulative IPC: 1.037 (Simulation time: 00 hr 23 min 02 sec)
Heartbeat CPU 0 instructions: 208001074 cycles: 162552980 heartbeat IPC: 1.362 cumulative IPC: 1.038 (Simulation time: 00 hr 23 min 05 sec)
Heartbeat CPU 0 instructions: 208501074 cycles: 163239388 heartbeat IPC: 0.7284 cumulative IPC: 1.036 (Simulation time: 00 hr 23 min 11 sec)
Heartbeat CPU 0 instructions: 209001080 cycles: 163896406 heartbeat IPC: 0.761 cumulative IPC: 1.035 (Simulation time: 00 hr 23 min 16 sec)
Heartbeat CPU 0 instructions: 209501082 cycles: 164317429 heartbeat IPC: 1.188 cumulative IPC: 1.035 (Simulation time: 00 hr 23 min 20 sec)
Heartbeat CPU 0 instructions: 210001082 cycles: 165046966 heartbeat IPC: 0.6854 cumulative IPC: 1.034 (Simulation time: 00 hr 23 min 25 sec)
Heartbeat CPU 0 instructions: 210501082 cycles: 165412758 heartbeat IPC: 1.367 cumulative IPC: 1.035 (Simulation time: 00 hr 23 min 29 sec)
Heartbeat CPU 0 instructions: 211001084 cycles: 166098172 heartbeat IPC: 0.7295 cumulative IPC: 1.033 (Simulation time: 00 hr 23 min 34 sec)
Heartbeat CPU 0 instructions: 211501084 cycles: 166810504 heartbeat IPC: 0.7019 cumulative IPC: 1.032 (Simulation time: 00 hr 23 min 40 sec)
Heartbeat CPU 0 instructions: 212001087 cycles: 167423850 heartbeat IPC: 0.8152 cumulative IPC: 1.031 (Simulation time: 00 hr 23 min 45 sec)
Heartbeat CPU 0 instructions: 212501087 cycles: 167784685 heartbeat IPC: 1.386 cumulative IPC: 1.032 (Simulation time: 00 hr 23 min 48 sec)
Heartbeat CPU 0 instructions: 213001091 cycles: 168139516 heartbeat IPC: 1.409 cumulative IPC: 1.033 (Simulation time: 00 hr 23 min 51 sec)
Heartbeat CPU 0 instructions: 213501091 cycles: 168495783 heartbeat IPC: 1.403 cumulative IPC: 1.033 (Simulation time: 00 hr 23 min 55 sec)
Heartbeat CPU 0 instructions: 214001091 cycles: 169672877 heartbeat IPC: 0.4248 cumulative IPC: 1.029 (Simulation time: 00 hr 24 min 04 sec)
Heartbeat CPU 0 instructions: 214501094 cycles: 170072316 heartbeat IPC: 1.252 cumulative IPC: 1.029 (Simulation time: 00 hr 24 min 07 sec)
Heartbeat CPU 0 instructions: 215001095 cycles: 170460103 heartbeat IPC: 1.289 cumulative IPC: 1.03 (Simulation time: 00 hr 24 min 11 sec)
Heartbeat CPU 0 instructions: 215501096 cycles: 170864769 heartbeat IPC: 1.236 cumulative IPC: 1.031 (Simulation time: 00 hr 24 min 14 sec)
Heartbeat CPU 0 instructions: 216001098 cycles: 171267521 heartbeat IPC: 1.241 cumulative IPC: 1.031 (Simulation time: 00 hr 24 min 18 sec)
Heartbeat CPU 0 instructions: 216501101 cycles: 171668705 heartbeat IPC: 1.246 cumulative IPC: 1.032 (Simulation time: 00 hr 24 min 21 sec)
Heartbeat CPU 0 instructions: 217001104 cycles: 172059226 heartbeat IPC: 1.28 cumulative IPC: 1.032 (Simulation time: 00 hr 24 min 24 sec)
Heartbeat CPU 0 instructions: 217501108 cycles: 172452727 heartbeat IPC: 1.271 cumulative IPC: 1.033 (Simulation time: 00 hr 24 min 28 sec)
Heartbeat CPU 0 instructions: 218001108 cycles: 172839076 heartbeat IPC: 1.294 cumulative IPC: 1.033 (Simulation time: 00 hr 24 min 31 sec)
Heartbeat CPU 0 instructions: 218501110 cycles: 173656364 heartbeat IPC: 0.6118 cumulative IPC: 1.031 (Simulation time: 00 hr 24 min 38 sec)
Heartbeat CPU 0 instructions: 219001114 cycles: 174500987 heartbeat IPC: 0.592 cumulative IPC: 1.029 (Simulation time: 00 hr 24 min 44 sec)
Heartbeat CPU 0 instructions: 219501114 cycles: 174884751 heartbeat IPC: 1.303 cumulative IPC: 1.03 (Simulation time: 00 hr 24 min 48 sec)
Heartbeat CPU 0 instructions: 220001116 cycles: 175267937 heartbeat IPC: 1.305 cumulative IPC: 1.03 (Simulation time: 00 hr 24 min 51 sec)
Heartbeat CPU 0 instructions: 220501116 cycles: 176230335 heartbeat IPC: 0.5195 cumulative IPC: 1.027 (Simulation time: 00 hr 24 min 59 sec)
Heartbeat CPU 0 instructions: 221001119 cycles: 176962818 heartbeat IPC: 0.6826 cumulative IPC: 1.026 (Simulation time: 00 hr 25 min 04 sec)
Heartbeat CPU 0 instructions: 221501124 cycles: 177340041 heartbeat IPC: 1.325 cumulative IPC: 1.027 (Simulation time: 00 hr 25 min 08 sec)
Heartbeat CPU 0 instructions: 222001127 cycles: 177724599 heartbeat IPC: 1.3 cumulative IPC: 1.027 (Simulation time: 00 hr 25 min 11 sec)
Heartbeat CPU 0 instructions: 222501130 cycles: 178122397 heartbeat IPC: 1.257 cumulative IPC: 1.028 (Simulation time: 00 hr 25 min 15 sec)
Heartbeat CPU 0 instructions: 223001130 cycles: 178803500 heartbeat IPC: 0.7341 cumulative IPC: 1.027 (Simulation time: 00 hr 25 min 20 sec)
Heartbeat CPU 0 instructions: 223501136 cycles: 179205098 heartbeat IPC: 1.245 cumulative IPC: 1.027 (Simulation time: 00 hr 25 min 23 sec)
Heartbeat CPU 0 instructions: 224001140 cycles: 179595465 heartbeat IPC: 1.281 cumulative IPC: 1.028 (Simulation time: 00 hr 25 min 27 sec)
Heartbeat CPU 0 instructions: 224501141 cycles: 180336287 heartbeat IPC: 0.6749 cumulative IPC: 1.026 (Simulation time: 00 hr 25 min 32 sec)
Heartbeat CPU 0 instructions: 225001141 cycles: 180710543 heartbeat IPC: 1.336 cumulative IPC: 1.027 (Simulation time: 00 hr 25 min 36 sec)
Heartbeat CPU 0 instructions: 225501145 cycles: 181090351 heartbeat IPC: 1.316 cumulative IPC: 1.027 (Simulation time: 00 hr 25 min 39 sec)
Heartbeat CPU 0 instructions: 226001149 cycles: 181463195 heartbeat IPC: 1.341 cumulative IPC: 1.028 (Simulation time: 00 hr 25 min 42 sec)
Heartbeat CPU 0 instructions: 226501153 cycles: 181843391 heartbeat IPC: 1.315 cumulative IPC: 1.029 (Simulation time: 00 hr 25 min 46 sec)
Heartbeat CPU 0 instructions: 227001154 cycles: 182206310 heartbeat IPC: 1.378 cumulative IPC: 1.03 (Simulation time: 00 hr 25 min 49 sec)
Heartbeat CPU 0 instructions: 227501155 cycles: 182561631 heartbeat IPC: 1.407 cumulative IPC: 1.03 (Simulation time: 00 hr 25 min 52 sec)
Heartbeat CPU 0 instructions: 228001158 cycles: 182902739 heartbeat IPC: 1.466 cumulative IPC: 1.031 (Simulation time: 00 hr 25 min 55 sec)
Heartbeat CPU 0 instructions: 228501159 cycles: 183654155 heartbeat IPC: 0.6654 cumulative IPC: 1.03 (Simulation time: 00 hr 26 min 01 sec)
Heartbeat CPU 0 instructions: 229001164 cycles: 184055256 heartbeat IPC: 1.247 cumulative IPC: 1.03 (Simulation time: 00 hr 26 min 04 sec)
Heartbeat CPU 0 instructions: 229501167 cycles: 184455983 heartbeat IPC: 1.248 cumulative IPC: 1.031 (Simulation time: 00 hr 26 min 08 sec)
Heartbeat CPU 0 instructions: 230001170 cycles: 184856167 heartbeat IPC: 1.249 cumulative IPC: 1.031 (Simulation time: 00 hr 26 min 11 sec)
Heartbeat CPU 0 instructions: 230501170 cycles: 185238420 heartbeat IPC: 1.308 cumulative IPC: 1.032 (Simulation time: 00 hr 26 min 14 sec)
Heartbeat CPU 0 instructions: 231001170 cycles: 185630647 heartbeat IPC: 1.275 cumulative IPC: 1.032 (Simulation time: 00 hr 26 min 18 sec)
Heartbeat CPU 0 instructions: 231501171 cycles: 186016105 heartbeat IPC: 1.297 cumulative IPC: 1.033 (Simulation time: 00 hr 26 min 21 sec)
Heartbeat CPU 0 instructions: 232001173 cycles: 186632997 heartbeat IPC: 0.8105 cumulative IPC: 1.032 (Simulation time: 00 hr 26 min 27 sec)
Heartbeat CPU 0 instructions: 232501174 cycles: 187385521 heartbeat IPC: 0.6644 cumulative IPC: 1.03 (Simulation time: 00 hr 26 min 32 sec)
Heartbeat CPU 0 instructions: 233001174 cycles: 187781459 heartbeat IPC: 1.263 cumulative IPC: 1.031 (Simulation time: 00 hr 26 min 36 sec)
Heartbeat CPU 0 instructions: 233501176 cycles: 188164468 heartbeat IPC: 1.305 cumulative IPC: 1.032 (Simulation time: 00 hr 26 min 39 sec)
Heartbeat CPU 0 instructions: 234001177 cycles: 188837794 heartbeat IPC: 0.7426 cumulative IPC: 1.031 (Simulation time: 00 hr 26 min 45 sec)
Heartbeat CPU 0 instructions: 234501178 cycles: 189750493 heartbeat IPC: 0.5478 cumulative IPC: 1.028 (Simulation time: 00 hr 26 min 52 sec)
Heartbeat CPU 0 instructions: 235001182 cycles: 190487818 heartbeat IPC: 0.6781 cumulative IPC: 1.027 (Simulation time: 00 hr 26 min 58 sec)
Heartbeat CPU 0 instructions: 235501182 cycles: 190880651 heartbeat IPC: 1.273 cumulative IPC: 1.027 (Simulation time: 00 hr 27 min 01 sec)
Heartbeat CPU 0 instructions: 236001184 cycles: 191332891 heartbeat IPC: 1.106 cumulative IPC: 1.027 (Simulation time: 00 hr 27 min 05 sec)
Heartbeat CPU 0 instructions: 236501188 cycles: 192422533 heartbeat IPC: 0.4589 cumulative IPC: 1.024 (Simulation time: 00 hr 27 min 14 sec)
Heartbeat CPU 0 instructions: 237001191 cycles: 193119885 heartbeat IPC: 0.717 cumulative IPC: 1.023 (Simulation time: 00 hr 27 min 20 sec)
Heartbeat CPU 0 instructions: 237501196 cycles: 193494676 heartbeat IPC: 1.334 cumulative IPC: 1.023 (Simulation time: 00 hr 27 min 23 sec)
Heartbeat CPU 0 instructions: 238001197 cycles: 194164419 heartbeat IPC: 0.7466 cumulative IPC: 1.022 (Simulation time: 00 hr 27 min 28 sec)
Heartbeat CPU 0 instructions: 238501197 cycles: 194552990 heartbeat IPC: 1.287 cumulative IPC: 1.023 (Simulation time: 00 hr 27 min 32 sec)
Heartbeat CPU 0 instructions: 239001197 cycles: 194955520 heartbeat IPC: 1.242 cumulative IPC: 1.023 (Simulation time: 00 hr 27 min 35 sec)
Heartbeat CPU 0 instructions: 239501198 cycles: 195348245 heartbeat IPC: 1.273 cumulative IPC: 1.024 (Simulation time: 00 hr 27 min 39 sec)
Heartbeat CPU 0 instructions: 240001203 cycles: 195737033 heartbeat IPC: 1.286 cumulative IPC: 1.025 (Simulation time: 00 hr 27 min 42 sec)
Heartbeat CPU 0 instructions: 240501204 cycles: 196120024 heartbeat IPC: 1.306 cumulative IPC: 1.025 (Simulation time: 00 hr 27 min 45 sec)
Heartbeat CPU 0 instructions: 241001205 cycles: 196827558 heartbeat IPC: 0.7067 cumulative IPC: 1.024 (Simulation time: 00 hr 27 min 51 sec)
Heartbeat CPU 0 instructions: 241501208 cycles: 197273655 heartbeat IPC: 1.121 cumulative IPC: 1.024 (Simulation time: 00 hr 27 min 55 sec)
Heartbeat CPU 0 instructions: 242001214 cycles: 198178277 heartbeat IPC: 0.5527 cumulative IPC: 1.022 (Simulation time: 00 hr 28 min 02 sec)
Heartbeat CPU 0 instructions: 242501214 cycles: 198516699 heartbeat IPC: 1.477 cumulative IPC: 1.023 (Simulation time: 00 hr 28 min 05 sec)
Heartbeat CPU 0 instructions: 243001217 cycles: 199258421 heartbeat IPC: 0.6741 cumulative IPC: 1.021 (Simulation time: 00 hr 28 min 11 sec)
Heartbeat CPU 0 instructions: 243501219 cycles: 199808786 heartbeat IPC: 0.9085 cumulative IPC: 1.021 (Simulation time: 00 hr 28 min 15 sec)
Heartbeat CPU 0 instructions: 244001223 cycles: 200214925 heartbeat IPC: 1.231 cumulative IPC: 1.021 (Simulation time: 00 hr 28 min 19 sec)
Heartbeat CPU 0 instructions: 244501224 cycles: 200619089 heartbeat IPC: 1.237 cumulative IPC: 1.022 (Simulation time: 00 hr 28 min 22 sec)
Heartbeat CPU 0 instructions: 245001227 cycles: 201018426 heartbeat IPC: 1.252 cumulative IPC: 1.022 (Simulation time: 00 hr 28 min 26 sec)
Heartbeat CPU 0 instructions: 245501232 cycles: 201419208 heartbeat IPC: 1.248 cumulative IPC: 1.023 (Simulation time: 00 hr 28 min 29 sec)
Heartbeat CPU 0 instructions: 246001233 cycles: 201814684 heartbeat IPC: 1.264 cumulative IPC: 1.023 (Simulation time: 00 hr 28 min 33 sec)
Heartbeat CPU 0 instructions: 246501235 cycles: 202206205 heartbeat IPC: 1.277 cumulative IPC: 1.024 (Simulation time: 00 hr 28 min 36 sec)
Heartbeat CPU 0 instructions: 247001236 cycles: 202869394 heartbeat IPC: 0.7539 cumulative IPC: 1.023 (Simulation time: 00 hr 28 min 42 sec)
Heartbeat CPU 0 instructions: 247501240 cycles: 203403412 heartbeat IPC: 0.9363 cumulative IPC: 1.023 (Simulation time: 00 hr 28 min 46 sec)
Heartbeat CPU 0 instructions: 248001247 cycles: 204037360 heartbeat IPC: 0.7887 cumulative IPC: 1.022 (Simulation time: 00 hr 28 min 51 sec)
Heartbeat CPU 0 instructions: 248501247 cycles: 204421345 heartbeat IPC: 1.302 cumulative IPC: 1.022 (Simulation time: 00 hr 28 min 55 sec)
Heartbeat CPU 0 instructions: 249001247 cycles: 204793251 heartbeat IPC: 1.344 cumulative IPC: 1.023 (Simulation time: 00 hr 28 min 58 sec)
Heartbeat CPU 0 instructions: 249501249 cycles: 205469942 heartbeat IPC: 0.7389 cumulative IPC: 1.022 (Simulation time: 00 hr 29 min 03 sec)
Simulation finished CPU 0 instructions: 200000000 cycles: 195584393 cumulative IPC: 1.023 (Simulation time: 00 hr 29 min 07 sec)
Simulation complete CPU 0 instructions: 200000000 cycles: 195584393 cumulative IPC: 1.023 (Simulation time: 00 hr 29 min 07 sec)

ChampSim completed all CPUs

=== Simulation ===
CPU 0 runs /local-ssd/ben/dpc4-traces/Graph/GMS/gms.k_clique_list_danisch_node_parallel.soc-pokec-relationships.slice-236.champsimstrace.gz

Region of Interest Statistics

CPU 0 cumulative IPC: 1.023 instructions: 200000000 cycles: 195584393
CPU 0 Branch Prediction Accuracy: 82.22% MPKI: 25.02 Average ROB Occupancy at Mispredict: 16.1
Branch type MPKI
BRANCH_DIRECT_JUMP: 0
BRANCH_INDIRECT: 0
BRANCH_CONDITIONAL: 25.02
BRANCH_DIRECT_CALL: 0
BRANCH_INDIRECT_CALL: 0
BRANCH_RETURN: 0

cpu0->cpu0_STLB TOTAL        ACCESS:    1791151 HIT:    1655406 MISS:     135745 MSHR_MERGE:          0
cpu0->cpu0_STLB LOAD         ACCESS:    1791151 HIT:    1655406 MISS:     135745 MSHR_MERGE:          0
cpu0->cpu0_STLB RFO          ACCESS:          0 HIT:          0 MISS:          0 MSHR_MERGE:          0
cpu0->cpu0_STLB PREFETCH     ACCESS:          0 HIT:          0 MISS:          0 MSHR_MERGE:          0
cpu0->cpu0_STLB WRITE        ACCESS:          0 HIT:          0 MISS:          0 MSHR_MERGE:          0
cpu0->cpu0_STLB TRANSLATION  ACCESS:          0 HIT:          0 MISS:          0 MSHR_MERGE:          0
cpu0->cpu0_STLB PREFETCH REQUESTED:          0 ISSUED:          0 USEFUL:          0 USELESS:          0
cpu0->cpu0_STLB AVERAGE MISS LATENCY: 75.3 cycles
cpu0->cpu0_L2C TOTAL        ACCESS:    1995583 HIT:    1182138 MISS:     813445 MSHR_MERGE:          0
cpu0->cpu0_L2C LOAD         ACCESS:    1536771 HIT:     883387 MISS:     653384 MSHR_MERGE:          0
cpu0->cpu0_L2C RFO          ACCESS:      88124 HIT:      72315 MISS:      15809 MSHR_MERGE:          0
cpu0->cpu0_L2C PREFETCH     ACCESS:     145811 HIT:      24748 MISS:     121063 MSHR_MERGE:          0
cpu0->cpu0_L2C WRITE        ACCESS:     114292 HIT:     114277 MISS:         15 MSHR_MERGE:          0
cpu0->cpu0_L2C TRANSLATION  ACCESS:     110585 HIT:      87411 MISS:      23174 MSHR_MERGE:          0
cpu0->cpu0_L2C PREFETCH REQUESTED:          0 ISSUED:          0 USEFUL:          0 USELESS:          0
cpu0->cpu0_L2C AVERAGE MISS LATENCY: 151.8 cycles
cpu0->cpu0_L1I TOTAL        ACCESS:    1628896 HIT:    1628896 MISS:          0 MSHR_MERGE:          0
cpu0->cpu0_L1I LOAD         ACCESS:    1628896 HIT:    1628896 MISS:          0 MSHR_MERGE:          0
cpu0->cpu0_L1I RFO          ACCESS:          0 HIT:          0 MISS:          0 MSHR_MERGE:          0
cpu0->cpu0_L1I PREFETCH     ACCESS:          0 HIT:          0 MISS:          0 MSHR_MERGE:          0
cpu0->cpu0_L1I WRITE        ACCESS:          0 HIT:          0 MISS:          0 MSHR_MERGE:          0
cpu0->cpu0_L1I TRANSLATION  ACCESS:          0 HIT:          0 MISS:          0 MSHR_MERGE:          0
cpu0->cpu0_L1I PREFETCH REQUESTED:          0 ISSUED:          0 USEFUL:          0 USELESS:          0
cpu0->cpu0_L1I AVERAGE MISS LATENCY: - cycles
cpu0->cpu0_L1D TOTAL        ACCESS:   81394361 HIT:   78867496 MISS:    2526865 MSHR_MERGE:     645570
cpu0->cpu0_L1D LOAD         ACCESS:   45473699 HIT:   43389405 MISS:    2084294 MSHR_MERGE:     547522
cpu0->cpu0_L1D RFO          ACCESS:          0 HIT:          0 MISS:          0 MSHR_MERGE:          0
cpu0->cpu0_L1D PREFETCH     ACCESS:    4852039 HIT:    4624569 MISS:     227470 MSHR_MERGE:      81659
cpu0->cpu0_L1D WRITE        ACCESS:   30793149 HIT:   30690502 MISS:     102647 MSHR_MERGE:      14520
cpu0->cpu0_L1D TRANSLATION  ACCESS:     275474 HIT:     163020 MISS:     112454 MSHR_MERGE:       1869
cpu0->cpu0_L1D PREFETCH REQUESTED:    6402271 ISSUED:    4852031 USEFUL:      67528 USELESS:      78250
cpu0->cpu0_L1D AVERAGE MISS LATENCY: 69.99 cycles
cpu0->cpu0_ITLB TOTAL        ACCESS:    1530552 HIT:    1530552 MISS:          0 MSHR_MERGE:          0
cpu0->cpu0_ITLB LOAD         ACCESS:    1530552 HIT:    1530552 MISS:          0 MSHR_MERGE:          0
cpu0->cpu0_ITLB RFO          ACCESS:          0 HIT:          0 MISS:          0 MSHR_MERGE:          0
cpu0->cpu0_ITLB PREFETCH     ACCESS:          0 HIT:          0 MISS:          0 MSHR_MERGE:          0
cpu0->cpu0_ITLB WRITE        ACCESS:          0 HIT:          0 MISS:          0 MSHR_MERGE:          0
cpu0->cpu0_ITLB TRANSLATION  ACCESS:          0 HIT:          0 MISS:          0 MSHR_MERGE:          0
cpu0->cpu0_ITLB PREFETCH REQUESTED:          0 ISSUED:          0 USEFUL:          0 USELESS:          0
cpu0->cpu0_ITLB AVERAGE MISS LATENCY: - cycles
cpu0->cpu0_DTLB TOTAL        ACCESS:   76734980 HIT:   74443959 MISS:    2291021 MSHR_MERGE:     499870
cpu0->cpu0_DTLB LOAD         ACCESS:   76734980 HIT:   74443959 MISS:    2291021 MSHR_MERGE:     499870
cpu0->cpu0_DTLB RFO          ACCESS:          0 HIT:          0 MISS:          0 MSHR_MERGE:          0
cpu0->cpu0_DTLB PREFETCH     ACCESS:          0 HIT:          0 MISS:          0 MSHR_MERGE:          0
cpu0->cpu0_DTLB WRITE        ACCESS:          0 HIT:          0 MISS:          0 MSHR_MERGE:          0
cpu0->cpu0_DTLB TRANSLATION  ACCESS:          0 HIT:          0 MISS:          0 MSHR_MERGE:          0
cpu0->cpu0_DTLB PREFETCH REQUESTED:          0 ISSUED:          0 USEFUL:          0 USELESS:          0
cpu0->cpu0_DTLB AVERAGE MISS LATENCY: 10.86 cycles
cpu0->LLC TOTAL        ACCESS:     843239 HIT:     333346 MISS:     509893 MSHR_MERGE:          0
cpu0->LLC LOAD         ACCESS:     653384 HIT:     284388 MISS:     368996 MSHR_MERGE:          0
cpu0->LLC RFO          ACCESS:      15809 HIT:       9928 MISS:       5881 MSHR_MERGE:          0
cpu0->LLC PREFETCH     ACCESS:     121063 HIT:       8182 MISS:     112881 MSHR_MERGE:          0
cpu0->LLC WRITE        ACCESS:      29809 HIT:      20804 MISS:       9005 MSHR_MERGE:          0
cpu0->LLC TRANSLATION  ACCESS:      23174 HIT:      10044 MISS:      13130 MSHR_MERGE:          0
cpu0->LLC PREFETCH REQUESTED:          0 ISSUED:          0 USEFUL:          0 USELESS:          0
cpu0->LLC AVERAGE MISS LATENCY: 225.7 cycles

DRAM Statistics

Channel 0 RQ ROW_BUFFER_HIT:        269
  ROW_BUFFER_MISS:     500616
  AVG DBUS CONGESTED CYCLE: 13.04
Channel 0 WQ ROW_BUFFER_HIT:       1373
  ROW_BUFFER_MISS:       4149
  FULL:          0
Channel 0 REFRESHES ISSUED:      16298
