[VMEM] WARNING: physical memory size is smaller than virtual memory size.

*** ChampSim Multicore Out-of-Order Simulator ***
Warmup Instructions: 50000000
Simulation Instructions: 200000000
Number of CPUs: 1
Page size: 4096
Core 0: /local-ssd/ben/dpc4-traces/Graph/Ligra/ligra_BFSCC.com-lj.ungraph.gcc_6.3.0_O3.drop_15500M.length_250M.champsimtrace.xz
Off-chip DRAM Size: 64 GiB Channels: 1 Width: 64-bit Data Rate: 4807 MT/s
Heartbeat CPU 0 instructions: 500003 cycles: 165910 heartbeat IPC: 3.014 cumulative IPC: 3.014 (Simulation time: 00 hr 00 min 02 sec)
Heartbeat CPU 0 instructions: 1000004 cycles: 330550 heartbeat IPC: 3.037 cumulative IPC: 3.025 (Simulation time: 00 hr 00 min 03 sec)
Heartbeat CPU 0 instructions: 1500008 cycles: 495338 heartbeat IPC: 3.034 cumulative IPC: 3.028 (Simulation time: 00 hr 00 min 05 sec)
Heartbeat CPU 0 instructions: 2000010 cycles: 659803 heartbeat IPC: 3.04 cumulative IPC: 3.031 (Simulation time: 00 hr 00 min 07 sec)
Heartbeat CPU 0 instructions: 2500012 cycles: 824572 heartbeat IPC: 3.035 cumulative IPC: 3.032 (Simulation time: 00 hr 00 min 08 sec)
Heartbeat CPU 0 instructions: 3000015 cycles: 989231 heartbeat IPC: 3.037 cumulative IPC: 3.033 (Simulation time: 00 hr 00 min 10 sec)
Heartbeat CPU 0 instructions: 3500018 cycles: 1153814 heartbeat IPC: 3.038 cumulative IPC: 3.033 (Simulation time: 00 hr 00 min 12 sec)
Heartbeat CPU 0 instructions: 4000020 cycles: 1318659 heartbeat IPC: 3.033 cumulative IPC: 3.033 (Simulation time: 00 hr 00 min 13 sec)
Heartbeat CPU 0 instructions: 4500020 cycles: 1483307 heartbeat IPC: 3.037 cumulative IPC: 3.034 (Simulation time: 00 hr 00 min 15 sec)
Heartbeat CPU 0 instructions: 5000025 cycles: 1647703 heartbeat IPC: 3.041 cumulative IPC: 3.035 (Simulation time: 00 hr 00 min 17 sec)
Heartbeat CPU 0 instructions: 5500031 cycles: 1812572 heartbeat IPC: 3.033 cumulative IPC: 3.034 (Simulation time: 00 hr 00 min 19 sec)
Heartbeat CPU 0 instructions: 6000038 cycles: 1977132 heartbeat IPC: 3.038 cumulative IPC: 3.035 (Simulation time: 00 hr 00 min 21 sec)
Heartbeat CPU 0 instructions: 6500040 cycles: 2141591 heartbeat IPC: 3.04 cumulative IPC: 3.035 (Simulation time: 00 hr 00 min 22 sec)
Heartbeat CPU 0 instructions: 7000044 cycles: 2306584 heartbeat IPC: 3.03 cumulative IPC: 3.035 (Simulation time: 00 hr 00 min 24 sec)
Heartbeat CPU 0 instructions: 7500045 cycles: 2471225 heartbeat IPC: 3.037 cumulative IPC: 3.035 (Simulation time: 00 hr 00 min 26 sec)
Heartbeat CPU 0 instructions: 8000048 cycles: 2636024 heartbeat IPC: 3.034 cumulative IPC: 3.035 (Simulation time: 00 hr 00 min 28 sec)
Heartbeat CPU 0 instructions: 8500050 cycles: 2800481 heartbeat IPC: 3.04 cumulative IPC: 3.035 (Simulation time: 00 hr 00 min 29 sec)
Heartbeat CPU 0 instructions: 9000052 cycles: 2965383 heartbeat IPC: 3.032 cumulative IPC: 3.035 (Simulation time: 00 hr 00 min 31 sec)
Heartbeat CPU 0 instructions: 9500055 cycles: 3129923 heartbeat IPC: 3.039 cumulative IPC: 3.035 (Simulation time: 00 hr 00 min 33 sec)
Heartbeat CPU 0 instructions: 10000060 cycles: 3294465 heartbeat IPC: 3.039 cumulative IPC: 3.035 (Simulation time: 00 hr 00 min 35 sec)
Heartbeat CPU 0 instructions: 10500060 cycles: 3459365 heartbeat IPC: 3.032 cumulative IPC: 3.035 (Simulation time: 00 hr 00 min 36 sec)
Heartbeat CPU 0 instructions: 11000063 cycles: 3623824 heartbeat IPC: 3.04 cumulative IPC: 3.035 (Simulation time: 00 hr 00 min 38 sec)
Heartbeat CPU 0 instructions: 11500065 cycles: 3788407 heartbeat IPC: 3.038 cumulative IPC: 3.036 (Simulation time: 00 hr 00 min 40 sec)
Heartbeat CPU 0 instructions: 12000068 cycles: 3953246 heartbeat IPC: 3.033 cumulative IPC: 3.035 (Simulation time: 00 hr 00 min 42 sec)
Heartbeat CPU 0 instructions: 12500070 cycles: 4117835 heartbeat IPC: 3.038 cumulative IPC: 3.036 (Simulation time: 00 hr 00 min 44 sec)
Heartbeat CPU 0 instructions: 13000073 cycles: 4282294 heartbeat IPC: 3.04 cumulative IPC: 3.036 (Simulation time: 00 hr 00 min 45 sec)
Heartbeat CPU 0 instructions: 13500076 cycles: 4447454 heartbeat IPC: 3.027 cumulative IPC: 3.035 (Simulation time: 00 hr 00 min 47 sec)
Heartbeat CPU 0 instructions: 14000076 cycles: 4611724 heartbeat IPC: 3.044 cumulative IPC: 3.036 (Simulation time: 00 hr 00 min 49 sec)
Heartbeat CPU 0 instructions: 14500076 cycles: 4776701 heartbeat IPC: 3.031 cumulative IPC: 3.036 (Simulation time: 00 hr 00 min 51 sec)
Heartbeat CPU 0 instructions: 15000081 cycles: 4941164 heartbeat IPC: 3.04 cumulative IPC: 3.036 (Simulation time: 00 hr 00 min 52 sec)
Heartbeat CPU 0 instructions: 15500084 cycles: 5105816 heartbeat IPC: 3.037 cumulative IPC: 3.036 (Simulation time: 00 hr 00 min 54 sec)
Heartbeat CPU 0 instructions: 16000088 cycles: 5270602 heartbeat IPC: 3.034 cumulative IPC: 3.036 (Simulation time: 00 hr 00 min 56 sec)
Heartbeat CPU 0 instructions: 16500090 cycles: 5435067 heartbeat IPC: 3.04 cumulative IPC: 3.036 (Simulation time: 00 hr 00 min 58 sec)
Heartbeat CPU 0 instructions: 17000092 cycles: 5599844 heartbeat IPC: 3.034 cumulative IPC: 3.036 (Simulation time: 00 hr 00 min 59 sec)
Heartbeat CPU 0 instructions: 17500095 cycles: 5764501 heartbeat IPC: 3.037 cumulative IPC: 3.036 (Simulation time: 00 hr 01 min 01 sec)
Heartbeat CPU 0 instructions: 18000098 cycles: 5929094 heartbeat IPC: 3.038 cumulative IPC: 3.036 (Simulation time: 00 hr 01 min 03 sec)
Heartbeat CPU 0 instructions: 18500100 cycles: 6093935 heartbeat IPC: 3.033 cumulative IPC: 3.036 (Simulation time: 00 hr 01 min 05 sec)
Heartbeat CPU 0 instructions: 19000100 cycles: 6258551 heartbeat IPC: 3.037 cumulative IPC: 3.036 (Simulation time: 00 hr 01 min 07 sec)
Heartbeat CPU 0 instructions: 19500105 cycles: 6422973 heartbeat IPC: 3.041 cumulative IPC: 3.036 (Simulation time: 00 hr 01 min 08 sec)
Heartbeat CPU 0 instructions: 20000108 cycles: 6587828 heartbeat IPC: 3.033 cumulative IPC: 3.036 (Simulation time: 00 hr 01 min 10 sec)
Heartbeat CPU 0 instructions: 20500110 cycles: 6752419 heartbeat IPC: 3.038 cumulative IPC: 3.036 (Simulation time: 00 hr 01 min 12 sec)
Heartbeat CPU 0 instructions: 21000113 cycles: 6917088 heartbeat IPC: 3.036 cumulative IPC: 3.036 (Simulation time: 00 hr 01 min 14 sec)
Heartbeat CPU 0 instructions: 21500115 cycles: 7081864 heartbeat IPC: 3.034 cumulative IPC: 3.036 (Simulation time: 00 hr 01 min 15 sec)
Heartbeat CPU 0 instructions: 22000118 cycles: 7246332 heartbeat IPC: 3.04 cumulative IPC: 3.036 (Simulation time: 00 hr 01 min 17 sec)
Heartbeat CPU 0 instructions: 22500120 cycles: 7411329 heartbeat IPC: 3.03 cumulative IPC: 3.036 (Simulation time: 00 hr 01 min 19 sec)
Heartbeat CPU 0 instructions: 23000124 cycles: 7575975 heartbeat IPC: 3.037 cumulative IPC: 3.036 (Simulation time: 00 hr 01 min 21 sec)
Heartbeat CPU 0 instructions: 23500124 cycles: 7740656 heartbeat IPC: 3.036 cumulative IPC: 3.036 (Simulation time: 00 hr 01 min 23 sec)
Heartbeat CPU 0 instructions: 24000128 cycles: 7905220 heartbeat IPC: 3.038 cumulative IPC: 3.036 (Simulation time: 00 hr 01 min 24 sec)
Heartbeat CPU 0 instructions: 24500135 cycles: 8069921 heartbeat IPC: 3.036 cumulative IPC: 3.036 (Simulation time: 00 hr 01 min 26 sec)
Heartbeat CPU 0 instructions: 25000140 cycles: 8234653 heartbeat IPC: 3.035 cumulative IPC: 3.036 (Simulation time: 00 hr 01 min 28 sec)
Heartbeat CPU 0 instructions: 25500143 cycles: 8399104 heartbeat IPC: 3.04 cumulative IPC: 3.036 (Simulation time: 00 hr 01 min 30 sec)
Heartbeat CPU 0 instructions: 26000145 cycles: 8563695 heartbeat IPC: 3.038 cumulative IPC: 3.036 (Simulation time: 00 hr 01 min 32 sec)
Heartbeat CPU 0 instructions: 26500148 cycles: 8728534 heartbeat IPC: 3.033 cumulative IPC: 3.036 (Simulation time: 00 hr 01 min 33 sec)
Heartbeat CPU 0 instructions: 27000150 cycles: 8893121 heartbeat IPC: 3.038 cumulative IPC: 3.036 (Simulation time: 00 hr 01 min 35 sec)
Heartbeat CPU 0 instructions: 27500153 cycles: 9057582 heartbeat IPC: 3.04 cumulative IPC: 3.036 (Simulation time: 00 hr 01 min 37 sec)
Heartbeat CPU 0 instructions: 28000156 cycles: 9222705 heartbeat IPC: 3.028 cumulative IPC: 3.036 (Simulation time: 00 hr 01 min 39 sec)
Heartbeat CPU 0 instructions: 28500156 cycles: 9387012 heartbeat IPC: 3.043 cumulative IPC: 3.036 (Simulation time: 00 hr 01 min 40 sec)
Heartbeat CPU 0 instructions: 29000160 cycles: 9551772 heartbeat IPC: 3.035 cumulative IPC: 3.036 (Simulation time: 00 hr 01 min 42 sec)
Heartbeat CPU 0 instructions: 29500163 cycles: 9716448 heartbeat IPC: 3.036 cumulative IPC: 3.036 (Simulation time: 00 hr 01 min 44 sec)
Heartbeat CPU 0 instructions: 30000164 cycles: 9880906 heartbeat IPC: 3.04 cumulative IPC: 3.036 (Simulation time: 00 hr 01 min 46 sec)
Heartbeat CPU 0 instructions: 30500168 cycles: 10045900 heartbeat IPC: 3.03 cumulative IPC: 3.036 (Simulation time: 00 hr 01 min 48 sec)
Heartbeat CPU 0 instructions: 31000170 cycles: 10210545 heartbeat IPC: 3.037 cumulative IPC: 3.036 (Simulation time: 00 hr 01 min 49 sec)
Heartbeat CPU 0 instructions: 31500172 cycles: 10375341 heartbeat IPC: 3.034 cumulative IPC: 3.036 (Simulation time: 00 hr 01 min 51 sec)
Heartbeat CPU 0 instructions: 32000175 cycles: 10539801 heartbeat IPC: 3.04 cumulative IPC: 3.036 (Simulation time: 00 hr 01 min 53 sec)
Heartbeat CPU 0 instructions: 32500178 cycles: 10704393 heartbeat IPC: 3.038 cumulative IPC: 3.036 (Simulation time: 00 hr 01 min 55 sec)
Heartbeat CPU 0 instructions: 33000180 cycles: 10869251 heartbeat IPC: 3.033 cumulative IPC: 3.036 (Simulation time: 00 hr 01 min 57 sec)
Heartbeat CPU 0 instructions: 33500183 cycles: 11033837 heartbeat IPC: 3.038 cumulative IPC: 3.036 (Simulation time: 00 hr 01 min 58 sec)
Heartbeat CPU 0 instructions: 34000185 cycles: 11198301 heartbeat IPC: 3.04 cumulative IPC: 3.036 (Simulation time: 00 hr 02 min 00 sec)
Heartbeat CPU 0 instructions: 34500188 cycles: 11363148 heartbeat IPC: 3.033 cumulative IPC: 3.036 (Simulation time: 00 hr 02 min 02 sec)
Heartbeat CPU 0 instructions: 35000190 cycles: 11527737 heartbeat IPC: 3.038 cumulative IPC: 3.036 (Simulation time: 00 hr 02 min 04 sec)
Heartbeat CPU 0 instructions: 35500193 cycles: 11692394 heartbeat IPC: 3.037 cumulative IPC: 3.036 (Simulation time: 00 hr 02 min 05 sec)
Heartbeat CPU 0 instructions: 36000195 cycles: 11857161 heartbeat IPC: 3.035 cumulative IPC: 3.036 (Simulation time: 00 hr 02 min 07 sec)
Heartbeat CPU 0 instructions: 36500198 cycles: 12021618 heartbeat IPC: 3.04 cumulative IPC: 3.036 (Simulation time: 00 hr 02 min 09 sec)
Heartbeat CPU 0 instructions: 37000200 cycles: 12186409 heartbeat IPC: 3.034 cumulative IPC: 3.036 (Simulation time: 00 hr 02 min 11 sec)
Heartbeat CPU 0 instructions: 37500203 cycles: 12351044 heartbeat IPC: 3.037 cumulative IPC: 3.036 (Simulation time: 00 hr 02 min 13 sec)
Heartbeat CPU 0 instructions: 38000204 cycles: 12516110 heartbeat IPC: 3.029 cumulative IPC: 3.036 (Simulation time: 00 hr 02 min 14 sec)
Heartbeat CPU 0 instructions: 38500208 cycles: 12680504 heartbeat IPC: 3.041 cumulative IPC: 3.036 (Simulation time: 00 hr 02 min 16 sec)
Heartbeat CPU 0 instructions: 39000215 cycles: 12845175 heartbeat IPC: 3.036 cumulative IPC: 3.036 (Simulation time: 00 hr 02 min 18 sec)
Heartbeat CPU 0 instructions: 39500220 cycles: 13009931 heartbeat IPC: 3.035 cumulative IPC: 3.036 (Simulation time: 00 hr 02 min 20 sec)
Heartbeat CPU 0 instructions: 40000223 cycles: 13174392 heartbeat IPC: 3.04 cumulative IPC: 3.036 (Simulation time: 00 hr 02 min 22 sec)
Heartbeat CPU 0 instructions: 40500228 cycles: 13338980 heartbeat IPC: 3.038 cumulative IPC: 3.036 (Simulation time: 00 hr 02 min 23 sec)
Heartbeat CPU 0 instructions: 41000228 cycles: 13503830 heartbeat IPC: 3.033 cumulative IPC: 3.036 (Simulation time: 00 hr 02 min 25 sec)
Heartbeat CPU 0 instructions: 41500230 cycles: 13668419 heartbeat IPC: 3.038 cumulative IPC: 3.036 (Simulation time: 00 hr 02 min 27 sec)
Heartbeat CPU 0 instructions: 42000233 cycles: 13833078 heartbeat IPC: 3.037 cumulative IPC: 3.036 (Simulation time: 00 hr 02 min 29 sec)
Heartbeat CPU 0 instructions: 42500236 cycles: 13997970 heartbeat IPC: 3.032 cumulative IPC: 3.036 (Simulation time: 00 hr 02 min 31 sec)
Heartbeat CPU 0 instructions: 43000236 cycles: 14162308 heartbeat IPC: 3.043 cumulative IPC: 3.036 (Simulation time: 00 hr 02 min 32 sec)
Heartbeat CPU 0 instructions: 43500239 cycles: 14327246 heartbeat IPC: 3.031 cumulative IPC: 3.036 (Simulation time: 00 hr 02 min 34 sec)
Heartbeat CPU 0 instructions: 44000243 cycles: 14491746 heartbeat IPC: 3.04 cumulative IPC: 3.036 (Simulation time: 00 hr 02 min 36 sec)
Heartbeat CPU 0 instructions: 44500244 cycles: 14656212 heartbeat IPC: 3.04 cumulative IPC: 3.036 (Simulation time: 00 hr 02 min 38 sec)
Heartbeat CPU 0 instructions: 45000248 cycles: 14821010 heartbeat IPC: 3.034 cumulative IPC: 3.036 (Simulation time: 00 hr 02 min 40 sec)
Heartbeat CPU 0 instructions: 45500250 cycles: 14985659 heartbeat IPC: 3.037 cumulative IPC: 3.036 (Simulation time: 00 hr 02 min 41 sec)
Heartbeat CPU 0 instructions: 46000252 cycles: 15150660 heartbeat IPC: 3.03 cumulative IPC: 3.036 (Simulation time: 00 hr 02 min 43 sec)
Heartbeat CPU 0 instructions: 46500255 cycles: 15315119 heartbeat IPC: 3.04 cumulative IPC: 3.036 (Simulation time: 00 hr 02 min 45 sec)
Heartbeat CPU 0 instructions: 47000260 cycles: 15480078 heartbeat IPC: 3.031 cumulative IPC: 3.036 (Simulation time: 00 hr 02 min 47 sec)
Heartbeat CPU 0 instructions: 47500260 cycles: 15644549 heartbeat IPC: 3.04 cumulative IPC: 3.036 (Simulation time: 00 hr 02 min 49 sec)
Heartbeat CPU 0 instructions: 48000263 cycles: 15809111 heartbeat IPC: 3.038 cumulative IPC: 3.036 (Simulation time: 00 hr 02 min 50 sec)
Heartbeat CPU 0 instructions: 48500264 cycles: 15973974 heartbeat IPC: 3.033 cumulative IPC: 3.036 (Simulation time: 00 hr 02 min 52 sec)
Heartbeat CPU 0 instructions: 49000268 cycles: 16138436 heartbeat IPC: 3.04 cumulative IPC: 3.036 (Simulation time: 00 hr 02 min 54 sec)
Heartbeat CPU 0 instructions: 49500270 cycles: 16303019 heartbeat IPC: 3.038 cumulative IPC: 3.036 (Simulation time: 00 hr 02 min 56 sec)
Warmup halting CPU 0 at instruction 50000003 cycle 16467604 for remainder of phase
Warmup finished CPU 0 instructions: 50000003 cycles: 16467604 cumulative IPC: 3.036 (Simulation time: 00 hr 02 min 58 sec)
Warmup complete CPU 0 instructions: 50000003 cycles: 16467604 cumulative IPC: 3.036 (Simulation time: 00 hr 02 min 58 sec)
Heartbeat CPU 0 instructions: 50000276 cycles: 16467827 heartbeat IPC: 3.034 cumulative IPC: 1.224 (Simulation time: 00 hr 02 min 58 sec)
Heartbeat CPU 0 instructions: 50500280 cycles: 17004593 heartbeat IPC: 0.9315 cumulative IPC: 0.9316 (Simulation time: 00 hr 03 min 04 sec)
Heartbeat CPU 0 instructions: 51000280 cycles: 17555334 heartbeat IPC: 0.9079 cumulative IPC: 0.9196 (Simulation time: 00 hr 03 min 11 sec)
Heartbeat CPU 0 instructions: 51500280 cycles: 18102652 heartbeat IPC: 0.9135 cumulative IPC: 0.9176 (Simulation time: 00 hr 03 min 17 sec)
Heartbeat CPU 0 instructions: 52000280 cycles: 18659879 heartbeat IPC: 0.8973 cumulative IPC: 0.9124 (Simulation time: 00 hr 03 min 24 sec)
Heartbeat CPU 0 instructions: 52500280 cycles: 19212414 heartbeat IPC: 0.9049 cumulative IPC: 0.9109 (Simulation time: 00 hr 03 min 31 sec)
Heartbeat CPU 0 instructions: 53000280 cycles: 19752415 heartbeat IPC: 0.9259 cumulative IPC: 0.9134 (Simulation time: 00 hr 03 min 37 sec)
Heartbeat CPU 0 instructions: 53500280 cycles: 20309595 heartbeat IPC: 0.8974 cumulative IPC: 0.9111 (Simulation time: 00 hr 03 min 44 sec)
Heartbeat CPU 0 instructions: 54000280 cycles: 20851497 heartbeat IPC: 0.9227 cumulative IPC: 0.9125 (Simulation time: 00 hr 03 min 51 sec)
Heartbeat CPU 0 instructions: 54500280 cycles: 21407908 heartbeat IPC: 0.8986 cumulative IPC: 0.9109 (Simulation time: 00 hr 03 min 58 sec)
Heartbeat CPU 0 instructions: 55000280 cycles: 21952963 heartbeat IPC: 0.9173 cumulative IPC: 0.9116 (Simulation time: 00 hr 04 min 04 sec)
Heartbeat CPU 0 instructions: 55500280 cycles: 22490753 heartbeat IPC: 0.9297 cumulative IPC: 0.9132 (Simulation time: 00 hr 04 min 11 sec)
Heartbeat CPU 0 instructions: 56000280 cycles: 23050699 heartbeat IPC: 0.8929 cumulative IPC: 0.9115 (Simulation time: 00 hr 04 min 18 sec)
Heartbeat CPU 0 instructions: 56500280 cycles: 23597494 heartbeat IPC: 0.9144 cumulative IPC: 0.9117 (Simulation time: 00 hr 04 min 24 sec)
Heartbeat CPU 0 instructions: 57000280 cycles: 24149242 heartbeat IPC: 0.9062 cumulative IPC: 0.9113 (Simulation time: 00 hr 04 min 31 sec)
Heartbeat CPU 0 instructions: 57500280 cycles: 24699046 heartbeat IPC: 0.9094 cumulative IPC: 0.9112 (Simulation time: 00 hr 04 min 38 sec)
Heartbeat CPU 0 instructions: 58000280 cycles: 25246934 heartbeat IPC: 0.9126 cumulative IPC: 0.9113 (Simulation time: 00 hr 04 min 44 sec)
Heartbeat CPU 0 instructions: 58500280 cycles: 25788127 heartbeat IPC: 0.9239 cumulative IPC: 0.912 (Simulation time: 00 hr 04 min 51 sec)
Heartbeat CPU 0 instructions: 59000280 cycles: 26340202 heartbeat IPC: 0.9057 cumulative IPC: 0.9116 (Simulation time: 00 hr 04 min 58 sec)
Heartbeat CPU 0 instructions: 59500280 cycles: 26895065 heartbeat IPC: 0.9011 cumulative IPC: 0.9111 (Simulation time: 00 hr 05 min 04 sec)
Heartbeat CPU 0 instructions: 60000280 cycles: 27439749 heartbeat IPC: 0.918 cumulative IPC: 0.9114 (Simulation time: 00 hr 05 min 11 sec)
Heartbeat CPU 0 instructions: 60500280 cycles: 27985762 heartbeat IPC: 0.9157 cumulative IPC: 0.9116 (Simulation time: 00 hr 05 min 18 sec)
Heartbeat CPU 0 instructions: 61000280 cycles: 28785899 heartbeat IPC: 0.6249 cumulative IPC: 0.893 (Simulation time: 00 hr 05 min 25 sec)
Heartbeat CPU 0 instructions: 61500280 cycles: 29632182 heartbeat IPC: 0.5908 cumulative IPC: 0.8736 (Simulation time: 00 hr 05 min 33 sec)
Heartbeat CPU 0 instructions: 62000280 cycles: 30510173 heartbeat IPC: 0.5695 cumulative IPC: 0.8546 (Simulation time: 00 hr 05 min 42 sec)
Heartbeat CPU 0 instructions: 62500280 cycles: 31396225 heartbeat IPC: 0.5643 cumulative IPC: 0.8373 (Simulation time: 00 hr 05 min 50 sec)
Heartbeat CPU 0 instructions: 63000280 cycles: 32286937 heartbeat IPC: 0.5613 cumulative IPC: 0.8218 (Simulation time: 00 hr 05 min 58 sec)
Heartbeat CPU 0 instructions: 63500280 cycles: 33168322 heartbeat IPC: 0.5673 cumulative IPC: 0.8084 (Simulation time: 00 hr 06 min 07 sec)
Heartbeat CPU 0 instructions: 64000280 cycles: 34054921 heartbeat IPC: 0.564 cumulative IPC: 0.796 (Simulation time: 00 hr 06 min 15 sec)
Heartbeat CPU 0 instructions: 64500280 cycles: 34949254 heartbeat IPC: 0.5591 cumulative IPC: 0.7846 (Simulation time: 00 hr 06 min 24 sec)
Heartbeat CPU 0 instructions: 65000280 cycles: 35832238 heartbeat IPC: 0.5663 cumulative IPC: 0.7746 (Simulation time: 00 hr 06 min 32 sec)
Heartbeat CPU 0 instructions: 65500280 cycles: 36711612 heartbeat IPC: 0.5686 cumulative IPC: 0.7657 (Simulation time: 00 hr 06 min 40 sec)
Heartbeat CPU 0 instructions: 66000280 cycles: 37241502 heartbeat IPC: 0.9436 cumulative IPC: 0.7702 (Simulation time: 00 hr 06 min 46 sec)
Heartbeat CPU 0 instructions: 66500282 cycles: 37669868 heartbeat IPC: 1.167 cumulative IPC: 0.7782 (Simulation time: 00 hr 06 min 51 sec)
Heartbeat CPU 0 instructions: 67000283 cycles: 38104120 heartbeat IPC: 1.151 cumulative IPC: 0.7857 (Simulation time: 00 hr 06 min 57 sec)
Heartbeat CPU 0 instructions: 67500288 cycles: 38519326 heartbeat IPC: 1.204 cumulative IPC: 0.7936 (Simulation time: 00 hr 07 min 01 sec)
Heartbeat CPU 0 instructions: 68000291 cycles: 38922529 heartbeat IPC: 1.24 cumulative IPC: 0.8016 (Simulation time: 00 hr 07 min 06 sec)
Heartbeat CPU 0 instructions: 68500295 cycles: 39330213 heartbeat IPC: 1.226 cumulative IPC: 0.8092 (Simulation time: 00 hr 07 min 11 sec)
Heartbeat CPU 0 instructions: 69000295 cycles: 39736554 heartbeat IPC: 1.23 cumulative IPC: 0.8166 (Simulation time: 00 hr 07 min 16 sec)
Heartbeat CPU 0 instructions: 69500295 cycles: 40127033 heartbeat IPC: 1.28 cumulative IPC: 0.8242 (Simulation time: 00 hr 07 min 20 sec)
Heartbeat CPU 0 instructions: 70000299 cycles: 40511937 heartbeat IPC: 1.299 cumulative IPC: 0.8318 (Simulation time: 00 hr 07 min 25 sec)
Heartbeat CPU 0 instructions: 70500299 cycles: 40908125 heartbeat IPC: 1.262 cumulative IPC: 0.8388 (Simulation time: 00 hr 07 min 29 sec)
Heartbeat CPU 0 instructions: 71000299 cycles: 41270198 heartbeat IPC: 1.381 cumulative IPC: 0.8467 (Simulation time: 00 hr 07 min 34 sec)
Heartbeat CPU 0 instructions: 71500303 cycles: 41644072 heartbeat IPC: 1.337 cumulative IPC: 0.854 (Simulation time: 00 hr 07 min 38 sec)
Heartbeat CPU 0 instructions: 72000308 cycles: 42024870 heartbeat IPC: 1.313 cumulative IPC: 0.8608 (Simulation time: 00 hr 07 min 43 sec)
Heartbeat CPU 0 instructions: 72500311 cycles: 42414696 heartbeat IPC: 1.283 cumulative IPC: 0.8672 (Simulation time: 00 hr 07 min 47 sec)
Heartbeat CPU 0 instructions: 73000315 cycles: 42802221 heartbeat IPC: 1.29 cumulative IPC: 0.8734 (Simulation time: 00 hr 07 min 52 sec)
Heartbeat CPU 0 instructions: 73500319 cycles: 43185987 heartbeat IPC: 1.303 cumulative IPC: 0.8796 (Simulation time: 00 hr 07 min 56 sec)
Heartbeat CPU 0 instructions: 74000319 cycles: 43570304 heartbeat IPC: 1.301 cumulative IPC: 0.8855 (Simulation time: 00 hr 08 min 01 sec)
Heartbeat CPU 0 instructions: 74500319 cycles: 43950633 heartbeat IPC: 1.315 cumulative IPC: 0.8915 (Simulation time: 00 hr 08 min 05 sec)
Heartbeat CPU 0 instructions: 75000319 cycles: 44344081 heartbeat IPC: 1.271 cumulative IPC: 0.8968 (Simulation time: 00 hr 08 min 10 sec)
Heartbeat CPU 0 instructions: 75500319 cycles: 44742191 heartbeat IPC: 1.256 cumulative IPC: 0.9019 (Simulation time: 00 hr 08 min 15 sec)
Heartbeat CPU 0 instructions: 76000319 cycles: 45127417 heartbeat IPC: 1.298 cumulative IPC: 0.9072 (Simulation time: 00 hr 08 min 19 sec)
Heartbeat CPU 0 instructions: 76500319 cycles: 45523652 heartbeat IPC: 1.262 cumulative IPC: 0.912 (Simulation time: 00 hr 08 min 24 sec)
Heartbeat CPU 0 instructions: 77000324 cycles: 45921417 heartbeat IPC: 1.257 cumulative IPC: 0.9167 (Simulation time: 00 hr 08 min 28 sec)
Heartbeat CPU 0 instructions: 77500327 cycles: 46303579 heartbeat IPC: 1.308 cumulative IPC: 0.9217 (Simulation time: 00 hr 08 min 32 sec)
Heartbeat CPU 0 instructions: 78000329 cycles: 46702845 heartbeat IPC: 1.252 cumulative IPC: 0.9261 (Simulation time: 00 hr 08 min 37 sec)
Heartbeat CPU 0 instructions: 78500335 cycles: 47102520 heartbeat IPC: 1.251 cumulative IPC: 0.9303 (Simulation time: 00 hr 08 min 42 sec)
Heartbeat CPU 0 instructions: 79000335 cycles: 47484014 heartbeat IPC: 1.311 cumulative IPC: 0.935 (Simulation time: 00 hr 08 min 46 sec)
Heartbeat CPU 0 instructions: 79500335 cycles: 47881686 heartbeat IPC: 1.257 cumulative IPC: 0.9391 (Simulation time: 00 hr 08 min 51 sec)
Heartbeat CPU 0 instructions: 80000335 cycles: 48274003 heartbeat IPC: 1.274 cumulative IPC: 0.9432 (Simulation time: 00 hr 08 min 55 sec)
Heartbeat CPU 0 instructions: 80500335 cycles: 48655981 heartbeat IPC: 1.309 cumulative IPC: 0.9476 (Simulation time: 00 hr 09 min 00 sec)
Heartbeat CPU 0 instructions: 81000335 cycles: 49032927 heartbeat IPC: 1.326 cumulative IPC: 0.9519 (Simulation time: 00 hr 09 min 04 sec)
Heartbeat CPU 0 instructions: 81500335 cycles: 49427045 heartbeat IPC: 1.269 cumulative IPC: 0.9557 (Simulation time: 00 hr 09 min 09 sec)
Heartbeat CPU 0 instructions: 82000335 cycles: 49816522 heartbeat IPC: 1.284 cumulative IPC: 0.9596 (Simulation time: 00 hr 09 min 13 sec)
Heartbeat CPU 0 instructions: 82500335 cycles: 50208904 heartbeat IPC: 1.274 cumulative IPC: 0.9632 (Simulation time: 00 hr 09 min 18 sec)
Heartbeat CPU 0 instructions: 83000335 cycles: 50598105 heartbeat IPC: 1.285 cumulative IPC: 0.9669 (Simulation time: 00 hr 09 min 22 sec)
Heartbeat CPU 0 instructions: 83500342 cycles: 50997112 heartbeat IPC: 1.253 cumulative IPC: 0.9702 (Simulation time: 00 hr 09 min 27 sec)
Heartbeat CPU 0 instructions: 84000347 cycles: 51402856 heartbeat IPC: 1.232 cumulative IPC: 0.9732 (Simulation time: 00 hr 09 min 32 sec)
Heartbeat CPU 0 instructions: 84500347 cycles: 51804223 heartbeat IPC: 1.246 cumulative IPC: 0.9763 (Simulation time: 00 hr 09 min 36 sec)
Heartbeat CPU 0 instructions: 85000347 cycles: 52203385 heartbeat IPC: 1.253 cumulative IPC: 0.9794 (Simulation time: 00 hr 09 min 41 sec)
Heartbeat CPU 0 instructions: 85500347 cycles: 52618708 heartbeat IPC: 1.204 cumulative IPC: 0.982 (Simulation time: 00 hr 09 min 45 sec)
Heartbeat CPU 0 instructions: 86000352 cycles: 53015937 heartbeat IPC: 1.259 cumulative IPC: 0.985 (Simulation time: 00 hr 09 min 50 sec)
Heartbeat CPU 0 instructions: 86500355 cycles: 53407145 heartbeat IPC: 1.278 cumulative IPC: 0.9881 (Simulation time: 00 hr 09 min 56 sec)
Heartbeat CPU 0 instructions: 87000358 cycles: 53807846 heartbeat IPC: 1.248 cumulative IPC: 0.9909 (Simulation time: 00 hr 10 min 01 sec)
Heartbeat CPU 0 instructions: 87500363 cycles: 54187916 heartbeat IPC: 1.316 cumulative IPC: 0.9942 (Simulation time: 00 hr 10 min 06 sec)
Heartbeat CPU 0 instructions: 88000363 cycles: 54577876 heartbeat IPC: 1.282 cumulative IPC: 0.9971 (Simulation time: 00 hr 10 min 11 sec)
Heartbeat CPU 0 instructions: 88500367 cycles: 54953616 heartbeat IPC: 1.331 cumulative IPC: 1 (Simulation time: 00 hr 10 min 16 sec)
Heartbeat CPU 0 instructions: 89000373 cycles: 55354310 heartbeat IPC: 1.248 cumulative IPC: 1.003 (Simulation time: 00 hr 10 min 21 sec)
Heartbeat CPU 0 instructions: 89500375 cycles: 55745604 heartbeat IPC: 1.278 cumulative IPC: 1.006 (Simulation time: 00 hr 10 min 26 sec)
Heartbeat CPU 0 instructions: 90000380 cycles: 56153842 heartbeat IPC: 1.225 cumulative IPC: 1.008 (Simulation time: 00 hr 10 min 32 sec)
Heartbeat CPU 0 instructions: 90500383 cycles: 56531715 heartbeat IPC: 1.323 cumulative IPC: 1.011 (Simulation time: 00 hr 10 min 37 sec)
Heartbeat CPU 0 instructions: 91000387 cycles: 56914585 heartbeat IPC: 1.306 cumulative IPC: 1.014 (Simulation time: 00 hr 10 min 42 sec)
Heartbeat CPU 0 instructions: 91500391 cycles: 57306036 heartbeat IPC: 1.277 cumulative IPC: 1.016 (Simulation time: 00 hr 10 min 47 sec)
Heartbeat CPU 0 instructions: 92000391 cycles: 57707971 heartbeat IPC: 1.244 cumulative IPC: 1.018 (Simulation time: 00 hr 10 min 52 sec)
Heartbeat CPU 0 instructions: 92500395 cycles: 58103765 heartbeat IPC: 1.263 cumulative IPC: 1.021 (Simulation time: 00 hr 10 min 57 sec)
Heartbeat CPU 0 instructions: 93000399 cycles: 58499502 heartbeat IPC: 1.263 cumulative IPC: 1.023 (Simulation time: 00 hr 11 min 03 sec)
Heartbeat CPU 0 instructions: 93500404 cycles: 58899410 heartbeat IPC: 1.25 cumulative IPC: 1.025 (Simulation time: 00 hr 11 min 08 sec)
Heartbeat CPU 0 instructions: 94000410 cycles: 59312220 heartbeat IPC: 1.211 cumulative IPC: 1.027 (Simulation time: 00 hr 11 min 13 sec)
Heartbeat CPU 0 instructions: 94500411 cycles: 59718071 heartbeat IPC: 1.232 cumulative IPC: 1.029 (Simulation time: 00 hr 11 min 18 sec)
Heartbeat CPU 0 instructions: 95000414 cycles: 60127982 heartbeat IPC: 1.22 cumulative IPC: 1.031 (Simulation time: 00 hr 11 min 24 sec)
Heartbeat CPU 0 instructions: 95500415 cycles: 60530309 heartbeat IPC: 1.243 cumulative IPC: 1.033 (Simulation time: 00 hr 11 min 29 sec)
Heartbeat CPU 0 instructions: 96000416 cycles: 60935226 heartbeat IPC: 1.235 cumulative IPC: 1.034 (Simulation time: 00 hr 11 min 34 sec)
Heartbeat CPU 0 instructions: 96500423 cycles: 61310736 heartbeat IPC: 1.332 cumulative IPC: 1.037 (Simulation time: 00 hr 11 min 39 sec)
Heartbeat CPU 0 instructions: 97000428 cycles: 61716730 heartbeat IPC: 1.232 cumulative IPC: 1.039 (Simulation time: 00 hr 11 min 44 sec)
Heartbeat CPU 0 instructions: 97500435 cycles: 62098025 heartbeat IPC: 1.311 cumulative IPC: 1.041 (Simulation time: 00 hr 11 min 49 sec)
Heartbeat CPU 0 instructions: 98000439 cycles: 62468148 heartbeat IPC: 1.351 cumulative IPC: 1.043 (Simulation time: 00 hr 11 min 55 sec)
Heartbeat CPU 0 instructions: 98500443 cycles: 62839362 heartbeat IPC: 1.347 cumulative IPC: 1.046 (Simulation time: 00 hr 12 min 00 sec)
Heartbeat CPU 0 instructions: 99000443 cycles: 63211967 heartbeat IPC: 1.342 cumulative IPC: 1.048 (Simulation time: 00 hr 12 min 05 sec)
Heartbeat CPU 0 instructions: 99500445 cycles: 63606628 heartbeat IPC: 1.267 cumulative IPC: 1.05 (Simulation time: 00 hr 12 min 10 sec)
Heartbeat CPU 0 instructions: 100000447 cycles: 63969210 heartbeat IPC: 1.379 cumulative IPC: 1.053 (Simulation time: 00 hr 12 min 15 sec)
Heartbeat CPU 0 instructions: 100500451 cycles: 64342494 heartbeat IPC: 1.339 cumulative IPC: 1.055 (Simulation time: 00 hr 12 min 20 sec)
Heartbeat CPU 0 instructions: 101000455 cycles: 64731103 heartbeat IPC: 1.287 cumulative IPC: 1.057 (Simulation time: 00 hr 12 min 26 sec)
Heartbeat CPU 0 instructions: 101500459 cycles: 65102861 heartbeat IPC: 1.345 cumulative IPC: 1.059 (Simulation time: 00 hr 12 min 31 sec)
Heartbeat CPU 0 instructions: 102000459 cycles: 65483335 heartbeat IPC: 1.314 cumulative IPC: 1.061 (Simulation time: 00 hr 12 min 36 sec)
Heartbeat CPU 0 instructions: 102500463 cycles: 65862819 heartbeat IPC: 1.318 cumulative IPC: 1.063 (Simulation time: 00 hr 12 min 41 sec)
Heartbeat CPU 0 instructions: 103000463 cycles: 66242317 heartbeat IPC: 1.318 cumulative IPC: 1.065 (Simulation time: 00 hr 12 min 46 sec)
Heartbeat CPU 0 instructions: 103500463 cycles: 66612415 heartbeat IPC: 1.351 cumulative IPC: 1.067 (Simulation time: 00 hr 12 min 51 sec)
Heartbeat CPU 0 instructions: 104000463 cycles: 66994783 heartbeat IPC: 1.308 cumulative IPC: 1.069 (Simulation time: 00 hr 12 min 56 sec)
Heartbeat CPU 0 instructions: 104500467 cycles: 67367201 heartbeat IPC: 1.343 cumulative IPC: 1.071 (Simulation time: 00 hr 13 min 01 sec)
Heartbeat CPU 0 instructions: 105000467 cycles: 67763593 heartbeat IPC: 1.261 cumulative IPC: 1.072 (Simulation time: 00 hr 13 min 07 sec)
Heartbeat CPU 0 instructions: 105500467 cycles: 68137806 heartbeat IPC: 1.336 cumulative IPC: 1.074 (Simulation time: 00 hr 13 min 12 sec)
Heartbeat CPU 0 instructions: 106000471 cycles: 68509850 heartbeat IPC: 1.344 cumulative IPC: 1.076 (Simulation time: 00 hr 13 min 17 sec)
Heartbeat CPU 0 instructions: 106500471 cycles: 68891696 heartbeat IPC: 1.309 cumulative IPC: 1.078 (Simulation time: 00 hr 13 min 22 sec)
Heartbeat CPU 0 instructions: 107000471 cycles: 69276355 heartbeat IPC: 1.3 cumulative IPC: 1.079 (Simulation time: 00 hr 13 min 27 sec)
Heartbeat CPU 0 instructions: 107500471 cycles: 69652556 heartbeat IPC: 1.329 cumulative IPC: 1.081 (Simulation time: 00 hr 13 min 32 sec)
Heartbeat CPU 0 instructions: 108000475 cycles: 70033104 heartbeat IPC: 1.314 cumulative IPC: 1.083 (Simulation time: 00 hr 13 min 38 sec)
Heartbeat CPU 0 instructions: 108500479 cycles: 70407893 heartbeat IPC: 1.334 cumulative IPC: 1.085 (Simulation time: 00 hr 13 min 43 sec)
Heartbeat CPU 0 instructions: 109000483 cycles: 70793839 heartbeat IPC: 1.296 cumulative IPC: 1.086 (Simulation time: 00 hr 13 min 48 sec)
Heartbeat CPU 0 instructions: 109500488 cycles: 71167886 heartbeat IPC: 1.337 cumulative IPC: 1.088 (Simulation time: 00 hr 13 min 53 sec)
Heartbeat CPU 0 instructions: 110000495 cycles: 71544981 heartbeat IPC: 1.326 cumulative IPC: 1.089 (Simulation time: 00 hr 13 min 58 sec)
Heartbeat CPU 0 instructions: 110500500 cycles: 71932545 heartbeat IPC: 1.29 cumulative IPC: 1.091 (Simulation time: 00 hr 14 min 03 sec)
Heartbeat CPU 0 instructions: 111000503 cycles: 72315988 heartbeat IPC: 1.304 cumulative IPC: 1.092 (Simulation time: 00 hr 14 min 08 sec)
Heartbeat CPU 0 instructions: 111500507 cycles: 72703817 heartbeat IPC: 1.289 cumulative IPC: 1.094 (Simulation time: 00 hr 14 min 14 sec)
Heartbeat CPU 0 instructions: 112000507 cycles: 73091805 heartbeat IPC: 1.289 cumulative IPC: 1.095 (Simulation time: 00 hr 14 min 19 sec)
Heartbeat CPU 0 instructions: 112500507 cycles: 73475667 heartbeat IPC: 1.303 cumulative IPC: 1.096 (Simulation time: 00 hr 14 min 24 sec)
Heartbeat CPU 0 instructions: 113000507 cycles: 73858216 heartbeat IPC: 1.307 cumulative IPC: 1.098 (Simulation time: 00 hr 14 min 29 sec)
Heartbeat CPU 0 instructions: 113500507 cycles: 74248316 heartbeat IPC: 1.282 cumulative IPC: 1.099 (Simulation time: 00 hr 14 min 34 sec)
Heartbeat CPU 0 instructions: 114000511 cycles: 74642554 heartbeat IPC: 1.268 cumulative IPC: 1.1 (Simulation time: 00 hr 14 min 40 sec)
Heartbeat CPU 0 instructions: 114500511 cycles: 75025073 heartbeat IPC: 1.307 cumulative IPC: 1.101 (Simulation time: 00 hr 14 min 45 sec)
Heartbeat CPU 0 instructions: 115000515 cycles: 75407386 heartbeat IPC: 1.308 cumulative IPC: 1.103 (Simulation time: 00 hr 14 min 50 sec)
Heartbeat CPU 0 instructions: 115500515 cycles: 75792703 heartbeat IPC: 1.298 cumulative IPC: 1.104 (Simulation time: 00 hr 14 min 55 sec)
Heartbeat CPU 0 instructions: 116000519 cycles: 76187306 heartbeat IPC: 1.267 cumulative IPC: 1.105 (Simulation time: 00 hr 15 min 00 sec)
Heartbeat CPU 0 instructions: 116500523 cycles: 76573934 heartbeat IPC: 1.293 cumulative IPC: 1.106 (Simulation time: 00 hr 15 min 05 sec)
Heartbeat CPU 0 instructions: 117000527 cycles: 76962353 heartbeat IPC: 1.287 cumulative IPC: 1.108 (Simulation time: 00 hr 15 min 11 sec)
Heartbeat CPU 0 instructions: 117500527 cycles: 77347279 heartbeat IPC: 1.299 cumulative IPC: 1.109 (Simulation time: 00 hr 15 min 16 sec)
Heartbeat CPU 0 instructions: 118000527 cycles: 77738156 heartbeat IPC: 1.279 cumulative IPC: 1.11 (Simulation time: 00 hr 15 min 21 sec)
Heartbeat CPU 0 instructions: 118500527 cycles: 78115727 heartbeat IPC: 1.324 cumulative IPC: 1.111 (Simulation time: 00 hr 15 min 26 sec)
Heartbeat CPU 0 instructions: 119000527 cycles: 78503666 heartbeat IPC: 1.289 cumulative IPC: 1.112 (Simulation time: 00 hr 15 min 31 sec)
Heartbeat CPU 0 instructions: 119500531 cycles: 78884538 heartbeat IPC: 1.313 cumulative IPC: 1.113 (Simulation time: 00 hr 15 min 36 sec)
Heartbeat CPU 0 instructions: 120000532 cycles: 79274500 heartbeat IPC: 1.282 cumulative IPC: 1.115 (Simulation time: 00 hr 15 min 41 sec)
Heartbeat CPU 0 instructions: 120500536 cycles: 79653517 heartbeat IPC: 1.319 cumulative IPC: 1.116 (Simulation time: 00 hr 15 min 46 sec)
Heartbeat CPU 0 instructions: 121000543 cycles: 80049663 heartbeat IPC: 1.262 cumulative IPC: 1.117 (Simulation time: 00 hr 15 min 52 sec)
Heartbeat CPU 0 instructions: 121500547 cycles: 80435449 heartbeat IPC: 1.296 cumulative IPC: 1.118 (Simulation time: 00 hr 15 min 57 sec)
Heartbeat CPU 0 instructions: 122000547 cycles: 80822362 heartbeat IPC: 1.292 cumulative IPC: 1.119 (Simulation time: 00 hr 16 min 02 sec)
Heartbeat CPU 0 instructions: 122500547 cycles: 81223932 heartbeat IPC: 1.245 cumulative IPC: 1.12 (Simulation time: 00 hr 16 min 07 sec)
Heartbeat CPU 0 instructions: 123000547 cycles: 81608366 heartbeat IPC: 1.301 cumulative IPC: 1.121 (Simulation time: 00 hr 16 min 12 sec)
Heartbeat CPU 0 instructions: 123500547 cycles: 82012345 heartbeat IPC: 1.238 cumulative IPC: 1.121 (Simulation time: 00 hr 16 min 17 sec)
Heartbeat CPU 0 instructions: 124000547 cycles: 82413760 heartbeat IPC: 1.246 cumulative IPC: 1.122 (Simulation time: 00 hr 16 min 23 sec)
Heartbeat CPU 0 instructions: 124500551 cycles: 82786006 heartbeat IPC: 1.343 cumulative IPC: 1.123 (Simulation time: 00 hr 16 min 28 sec)
Heartbeat CPU 0 instructions: 125000551 cycles: 83180819 heartbeat IPC: 1.266 cumulative IPC: 1.124 (Simulation time: 00 hr 16 min 33 sec)
Heartbeat CPU 0 instructions: 125500554 cycles: 83576091 heartbeat IPC: 1.265 cumulative IPC: 1.125 (Simulation time: 00 hr 16 min 38 sec)
Heartbeat CPU 0 instructions: 126000559 cycles: 83965859 heartbeat IPC: 1.283 cumulative IPC: 1.126 (Simulation time: 00 hr 16 min 43 sec)
Heartbeat CPU 0 instructions: 126500564 cycles: 84359191 heartbeat IPC: 1.271 cumulative IPC: 1.127 (Simulation time: 00 hr 16 min 48 sec)
Heartbeat CPU 0 instructions: 127000571 cycles: 84756522 heartbeat IPC: 1.258 cumulative IPC: 1.128 (Simulation time: 00 hr 16 min 54 sec)
Heartbeat CPU 0 instructions: 127500571 cycles: 85148345 heartbeat IPC: 1.276 cumulative IPC: 1.128 (Simulation time: 00 hr 16 min 59 sec)
Heartbeat CPU 0 instructions: 128000571 cycles: 85546037 heartbeat IPC: 1.257 cumulative IPC: 1.129 (Simulation time: 00 hr 17 min 04 sec)
Heartbeat CPU 0 instructions: 128500575 cycles: 85944936 heartbeat IPC: 1.253 cumulative IPC: 1.13 (Simulation time: 00 hr 17 min 09 sec)
Heartbeat CPU 0 instructions: 129000577 cycles: 86330618 heartbeat IPC: 1.296 cumulative IPC: 1.131 (Simulation time: 00 hr 17 min 14 sec)
Heartbeat CPU 0 instructions: 129500578 cycles: 86722676 heartbeat IPC: 1.275 cumulative IPC: 1.132 (Simulation time: 00 hr 17 min 19 sec)
Heartbeat CPU 0 instructions: 130000583 cycles: 87127078 heartbeat IPC: 1.236 cumulative IPC: 1.132 (Simulation time: 00 hr 17 min 25 sec)
Heartbeat CPU 0 instructions: 130500587 cycles: 87514378 heartbeat IPC: 1.291 cumulative IPC: 1.133 (Simulation time: 00 hr 17 min 30 sec)
Heartbeat CPU 0 instructions: 131000587 cycles: 87917220 heartbeat IPC: 1.241 cumulative IPC: 1.134 (Simulation time: 00 hr 17 min 35 sec)
Heartbeat CPU 0 instructions: 131500590 cycles: 88322245 heartbeat IPC: 1.234 cumulative IPC: 1.134 (Simulation time: 00 hr 17 min 40 sec)
Heartbeat CPU 0 instructions: 132000591 cycles: 88716313 heartbeat IPC: 1.269 cumulative IPC: 1.135 (Simulation time: 00 hr 17 min 45 sec)
Heartbeat CPU 0 instructions: 132500595 cycles: 89116704 heartbeat IPC: 1.249 cumulative IPC: 1.136 (Simulation time: 00 hr 17 min 51 sec)
Heartbeat CPU 0 instructions: 133000595 cycles: 89506972 heartbeat IPC: 1.281 cumulative IPC: 1.136 (Simulation time: 00 hr 17 min 56 sec)
Heartbeat CPU 0 instructions: 133500602 cycles: 89907922 heartbeat IPC: 1.247 cumulative IPC: 1.137 (Simulation time: 00 hr 18 min 01 sec)
Heartbeat CPU 0 instructions: 134000607 cycles: 90305942 heartbeat IPC: 1.256 cumulative IPC: 1.138 (Simulation time: 00 hr 18 min 06 sec)
Heartbeat CPU 0 instructions: 134500614 cycles: 90696131 heartbeat IPC: 1.281 cumulative IPC: 1.138 (Simulation time: 00 hr 18 min 11 sec)
Heartbeat CPU 0 instructions: 135000615 cycles: 91097643 heartbeat IPC: 1.245 cumulative IPC: 1.139 (Simulation time: 00 hr 18 min 16 sec)
Heartbeat CPU 0 instructions: 135500620 cycles: 91503409 heartbeat IPC: 1.232 cumulative IPC: 1.139 (Simulation time: 00 hr 18 min 21 sec)
Heartbeat CPU 0 instructions: 136000627 cycles: 91905193 heartbeat IPC: 1.244 cumulative IPC: 1.14 (Simulation time: 00 hr 18 min 27 sec)
Heartbeat CPU 0 instructions: 136500634 cycles: 92324934 heartbeat IPC: 1.191 cumulative IPC: 1.14 (Simulation time: 00 hr 18 min 32 sec)
Heartbeat CPU 0 instructions: 137000637 cycles: 92744798 heartbeat IPC: 1.191 cumulative IPC: 1.141 (Simulation time: 00 hr 18 min 37 sec)
Heartbeat CPU 0 instructions: 137500643 cycles: 93161883 heartbeat IPC: 1.199 cumulative IPC: 1.141 (Simulation time: 00 hr 18 min 42 sec)
Heartbeat CPU 0 instructions: 138000643 cycles: 93568376 heartbeat IPC: 1.23 cumulative IPC: 1.141 (Simulation time: 00 hr 18 min 47 sec)
Heartbeat CPU 0 instructions: 138500647 cycles: 93968211 heartbeat IPC: 1.251 cumulative IPC: 1.142 (Simulation time: 00 hr 18 min 53 sec)
Heartbeat CPU 0 instructions: 139000651 cycles: 94359296 heartbeat IPC: 1.279 cumulative IPC: 1.143 (Simulation time: 00 hr 18 min 58 sec)
Heartbeat CPU 0 instructions: 139500655 cycles: 94781413 heartbeat IPC: 1.185 cumulative IPC: 1.143 (Simulation time: 00 hr 19 min 03 sec)
Heartbeat CPU 0 instructions: 140000655 cycles: 95204788 heartbeat IPC: 1.181 cumulative IPC: 1.143 (Simulation time: 00 hr 19 min 08 sec)
Heartbeat CPU 0 instructions: 140500655 cycles: 95624507 heartbeat IPC: 1.191 cumulative IPC: 1.143 (Simulation time: 00 hr 19 min 13 sec)
Heartbeat CPU 0 instructions: 141000655 cycles: 95994172 heartbeat IPC: 1.353 cumulative IPC: 1.144 (Simulation time: 00 hr 19 min 18 sec)
Heartbeat CPU 0 instructions: 141500659 cycles: 96377352 heartbeat IPC: 1.305 cumulative IPC: 1.145 (Simulation time: 00 hr 19 min 23 sec)
Heartbeat CPU 0 instructions: 142000659 cycles: 96786336 heartbeat IPC: 1.223 cumulative IPC: 1.145 (Simulation time: 00 hr 19 min 29 sec)
Heartbeat CPU 0 instructions: 142500659 cycles: 97214907 heartbeat IPC: 1.167 cumulative IPC: 1.146 (Simulation time: 00 hr 19 min 34 sec)
Heartbeat CPU 0 instructions: 143000663 cycles: 97640583 heartbeat IPC: 1.175 cumulative IPC: 1.146 (Simulation time: 00 hr 19 min 39 sec)
Heartbeat CPU 0 instructions: 143500668 cycles: 98054470 heartbeat IPC: 1.208 cumulative IPC: 1.146 (Simulation time: 00 hr 19 min 44 sec)
Heartbeat CPU 0 instructions: 144000675 cycles: 98489624 heartbeat IPC: 1.149 cumulative IPC: 1.146 (Simulation time: 00 hr 19 min 50 sec)
Heartbeat CPU 0 instructions: 144500679 cycles: 98915452 heartbeat IPC: 1.174 cumulative IPC: 1.146 (Simulation time: 00 hr 19 min 55 sec)
Heartbeat CPU 0 instructions: 145000679 cycles: 99358764 heartbeat IPC: 1.128 cumulative IPC: 1.146 (Simulation time: 00 hr 20 min 00 sec)
Heartbeat CPU 0 instructions: 145500682 cycles: 99788635 heartbeat IPC: 1.163 cumulative IPC: 1.146 (Simulation time: 00 hr 20 min 05 sec)
Heartbeat CPU 0 instructions: 146000683 cycles: 100234119 heartbeat IPC: 1.122 cumulative IPC: 1.146 (Simulation time: 00 hr 20 min 11 sec)
Heartbeat CPU 0 instructions: 146500684 cycles: 100680500 heartbeat IPC: 1.12 cumulative IPC: 1.146 (Simulation time: 00 hr 20 min 16 sec)
Heartbeat CPU 0 instructions: 147000687 cycles: 101110572 heartbeat IPC: 1.163 cumulative IPC: 1.146 (Simulation time: 00 hr 20 min 21 sec)
Heartbeat CPU 0 instructions: 147500691 cycles: 101537817 heartbeat IPC: 1.17 cumulative IPC: 1.146 (Simulation time: 00 hr 20 min 26 sec)
Heartbeat CPU 0 instructions: 148000691 cycles: 101955999 heartbeat IPC: 1.196 cumulative IPC: 1.146 (Simulation time: 00 hr 20 min 31 sec)
Heartbeat CPU 0 instructions: 148500695 cycles: 102399606 heartbeat IPC: 1.127 cumulative IPC: 1.146 (Simulation time: 00 hr 20 min 36 sec)
Heartbeat CPU 0 instructions: 149000699 cycles: 102872345 heartbeat IPC: 1.058 cumulative IPC: 1.146 (Simulation time: 00 hr 20 min 42 sec)
Heartbeat CPU 0 instructions: 149500703 cycles: 103360722 heartbeat IPC: 1.024 cumulative IPC: 1.145 (Simulation time: 00 hr 20 min 47 sec)
Heartbeat CPU 0 instructions: 150000710 cycles: 103856394 heartbeat IPC: 1.009 cumulative IPC: 1.144 (Simulation time: 00 hr 20 min 53 sec)
Heartbeat CPU 0 instructions: 150500712 cycles: 104331168 heartbeat IPC: 1.053 cumulative IPC: 1.144 (Simulation time: 00 hr 20 min 58 sec)
Heartbeat CPU 0 instructions: 151000718 cycles: 104841840 heartbeat IPC: 0.9791 cumulative IPC: 1.143 (Simulation time: 00 hr 21 min 03 sec)
Heartbeat CPU 0 instructions: 151500719 cycles: 105335836 heartbeat IPC: 1.012 cumulative IPC: 1.142 (Simulation time: 00 hr 21 min 09 sec)
Heartbeat CPU 0 instructions: 152000723 cycles: 105867873 heartbeat IPC: 0.9398 cumulative IPC: 1.141 (Simulation time: 00 hr 21 min 14 sec)
Heartbeat CPU 0 instructions: 152500727 cycles: 106333474 heartbeat IPC: 1.074 cumulative IPC: 1.141 (Simulation time: 00 hr 21 min 20 sec)
Heartbeat CPU 0 instructions: 153000731 cycles: 106725302 heartbeat IPC: 1.276 cumulative IPC: 1.141 (Simulation time: 00 hr 21 min 25 sec)
Heartbeat CPU 0 instructions: 153500731 cycles: 107094110 heartbeat IPC: 1.356 cumulative IPC: 1.142 (Simulation time: 00 hr 21 min 30 sec)
Heartbeat CPU 0 instructions: 154000736 cycles: 107474523 heartbeat IPC: 1.314 cumulative IPC: 1.143 (Simulation time: 00 hr 21 min 34 sec)
Heartbeat CPU 0 instructions: 154500743 cycles: 107858912 heartbeat IPC: 1.301 cumulative IPC: 1.143 (Simulation time: 00 hr 21 min 39 sec)
Heartbeat CPU 0 instructions: 155000743 cycles: 108252741 heartbeat IPC: 1.27 cumulative IPC: 1.144 (Simulation time: 00 hr 21 min 44 sec)
Heartbeat CPU 0 instructions: 155500748 cycles: 108635585 heartbeat IPC: 1.306 cumulative IPC: 1.145 (Simulation time: 00 hr 21 min 49 sec)
Heartbeat CPU 0 instructions: 156000751 cycles: 109020301 heartbeat IPC: 1.3 cumulative IPC: 1.145 (Simulation time: 00 hr 21 min 54 sec)
Heartbeat CPU 0 instructions: 156500755 cycles: 109418941 heartbeat IPC: 1.254 cumulative IPC: 1.146 (Simulation time: 00 hr 21 min 59 sec)
Heartbeat CPU 0 instructions: 157000755 cycles: 109802351 heartbeat IPC: 1.304 cumulative IPC: 1.146 (Simulation time: 00 hr 22 min 04 sec)
Heartbeat CPU 0 instructions: 157500759 cycles: 110214602 heartbeat IPC: 1.213 cumulative IPC: 1.147 (Simulation time: 00 hr 22 min 10 sec)
Heartbeat CPU 0 instructions: 158000763 cycles: 110605728 heartbeat IPC: 1.278 cumulative IPC: 1.147 (Simulation time: 00 hr 22 min 15 sec)
Heartbeat CPU 0 instructions: 158500763 cycles: 110998804 heartbeat IPC: 1.272 cumulative IPC: 1.148 (Simulation time: 00 hr 22 min 20 sec)
Heartbeat CPU 0 instructions: 159000763 cycles: 111392803 heartbeat IPC: 1.269 cumulative IPC: 1.148 (Simulation time: 00 hr 22 min 25 sec)
Heartbeat CPU 0 instructions: 159500763 cycles: 111789183 heartbeat IPC: 1.261 cumulative IPC: 1.149 (Simulation time: 00 hr 22 min 30 sec)
Heartbeat CPU 0 instructions: 160000763 cycles: 112173311 heartbeat IPC: 1.302 cumulative IPC: 1.149 (Simulation time: 00 hr 22 min 35 sec)
Heartbeat CPU 0 instructions: 160500763 cycles: 112563541 heartbeat IPC: 1.281 cumulative IPC: 1.15 (Simulation time: 00 hr 22 min 41 sec)
Heartbeat CPU 0 instructions: 161000763 cycles: 112961516 heartbeat IPC: 1.256 cumulative IPC: 1.15 (Simulation time: 00 hr 22 min 46 sec)
Heartbeat CPU 0 instructions: 161500765 cycles: 113353220 heartbeat IPC: 1.276 cumulative IPC: 1.151 (Simulation time: 00 hr 22 min 51 sec)
Heartbeat CPU 0 instructions: 162000767 cycles: 113743034 heartbeat IPC: 1.283 cumulative IPC: 1.151 (Simulation time: 00 hr 22 min 56 sec)
Heartbeat CPU 0 instructions: 162500767 cycles: 114226070 heartbeat IPC: 1.035 cumulative IPC: 1.151 (Simulation time: 00 hr 23 min 02 sec)
Heartbeat CPU 0 instructions: 163000772 cycles: 114806093 heartbeat IPC: 0.862 cumulative IPC: 1.149 (Simulation time: 00 hr 23 min 08 sec)
Heartbeat CPU 0 instructions: 163500773 cycles: 115318632 heartbeat IPC: 0.9755 cumulative IPC: 1.148 (Simulation time: 00 hr 23 min 13 sec)
Heartbeat CPU 0 instructions: 164000776 cycles: 115973938 heartbeat IPC: 0.763 cumulative IPC: 1.146 (Simulation time: 00 hr 23 min 20 sec)
Heartbeat CPU 0 instructions: 164500783 cycles: 116431056 heartbeat IPC: 1.094 cumulative IPC: 1.145 (Simulation time: 00 hr 23 min 25 sec)
Heartbeat CPU 0 instructions: 165000783 cycles: 116870742 heartbeat IPC: 1.137 cumulative IPC: 1.145 (Simulation time: 00 hr 23 min 30 sec)
Heartbeat CPU 0 instructions: 165500783 cycles: 117361279 heartbeat IPC: 1.019 cumulative IPC: 1.145 (Simulation time: 00 hr 23 min 36 sec)
Heartbeat CPU 0 instructions: 166000783 cycles: 117884941 heartbeat IPC: 0.9548 cumulative IPC: 1.144 (Simulation time: 00 hr 23 min 41 sec)
Heartbeat CPU 0 instructions: 166500787 cycles: 118338375 heartbeat IPC: 1.103 cumulative IPC: 1.144 (Simulation time: 00 hr 23 min 47 sec)
Heartbeat CPU 0 instructions: 167000792 cycles: 118728871 heartbeat IPC: 1.28 cumulative IPC: 1.144 (Simulation time: 00 hr 23 min 52 sec)
Heartbeat CPU 0 instructions: 167500795 cycles: 119093743 heartbeat IPC: 1.37 cumulative IPC: 1.145 (Simulation time: 00 hr 23 min 56 sec)
Heartbeat CPU 0 instructions: 168000795 cycles: 119481560 heartbeat IPC: 1.289 cumulative IPC: 1.145 (Simulation time: 00 hr 24 min 01 sec)
Heartbeat CPU 0 instructions: 168500799 cycles: 119868025 heartbeat IPC: 1.294 cumulative IPC: 1.146 (Simulation time: 00 hr 24 min 06 sec)
Heartbeat CPU 0 instructions: 169000799 cycles: 120254203 heartbeat IPC: 1.295 cumulative IPC: 1.147 (Simulation time: 00 hr 24 min 11 sec)
Heartbeat CPU 0 instructions: 169500799 cycles: 120658323 heartbeat IPC: 1.237 cumulative IPC: 1.147 (Simulation time: 00 hr 24 min 17 sec)
Heartbeat CPU 0 instructions: 170000799 cycles: 121050854 heartbeat IPC: 1.274 cumulative IPC: 1.147 (Simulation time: 00 hr 24 min 22 sec)
Heartbeat CPU 0 instructions: 170500799 cycles: 121447731 heartbeat IPC: 1.26 cumulative IPC: 1.148 (Simulation time: 00 hr 24 min 27 sec)
Heartbeat CPU 0 instructions: 171000803 cycles: 121843889 heartbeat IPC: 1.262 cumulative IPC: 1.148 (Simulation time: 00 hr 24 min 32 sec)
Heartbeat CPU 0 instructions: 171500803 cycles: 122257655 heartbeat IPC: 1.208 cumulative IPC: 1.149 (Simulation time: 00 hr 24 min 37 sec)
Heartbeat CPU 0 instructions: 172000803 cycles: 122645731 heartbeat IPC: 1.288 cumulative IPC: 1.149 (Simulation time: 00 hr 24 min 42 sec)
Heartbeat CPU 0 instructions: 172500807 cycles: 123056165 heartbeat IPC: 1.218 cumulative IPC: 1.149 (Simulation time: 00 hr 24 min 48 sec)
Heartbeat CPU 0 instructions: 173000811 cycles: 123455349 heartbeat IPC: 1.253 cumulative IPC: 1.15 (Simulation time: 00 hr 24 min 53 sec)
Heartbeat CPU 0 instructions: 173500812 cycles: 123845736 heartbeat IPC: 1.281 cumulative IPC: 1.15 (Simulation time: 00 hr 24 min 58 sec)
Heartbeat CPU 0 instructions: 174000816 cycles: 124242205 heartbeat IPC: 1.261 cumulative IPC: 1.151 (Simulation time: 00 hr 25 min 03 sec)
Heartbeat CPU 0 instructions: 174500822 cycles: 124647836 heartbeat IPC: 1.233 cumulative IPC: 1.151 (Simulation time: 00 hr 25 min 08 sec)
Heartbeat CPU 0 instructions: 175000827 cycles: 125055785 heartbeat IPC: 1.226 cumulative IPC: 1.151 (Simulation time: 00 hr 25 min 13 sec)
Heartbeat CPU 0 instructions: 175500831 cycles: 125449582 heartbeat IPC: 1.27 cumulative IPC: 1.152 (Simulation time: 00 hr 25 min 18 sec)
Heartbeat CPU 0 instructions: 176000835 cycles: 125838641 heartbeat IPC: 1.285 cumulative IPC: 1.152 (Simulation time: 00 hr 25 min 24 sec)
Heartbeat CPU 0 instructions: 176500835 cycles: 126232177 heartbeat IPC: 1.271 cumulative IPC: 1.152 (Simulation time: 00 hr 25 min 29 sec)
Heartbeat CPU 0 instructions: 177000835 cycles: 126630976 heartbeat IPC: 1.254 cumulative IPC: 1.153 (Simulation time: 00 hr 25 min 34 sec)
Heartbeat CPU 0 instructions: 177500839 cycles: 127023236 heartbeat IPC: 1.275 cumulative IPC: 1.153 (Simulation time: 00 hr 25 min 39 sec)
Heartbeat CPU 0 instructions: 178000843 cycles: 127425766 heartbeat IPC: 1.242 cumulative IPC: 1.154 (Simulation time: 00 hr 25 min 44 sec)
Heartbeat CPU 0 instructions: 178500843 cycles: 127823849 heartbeat IPC: 1.256 cumulative IPC: 1.154 (Simulation time: 00 hr 25 min 50 sec)
Heartbeat CPU 0 instructions: 179000843 cycles: 128232208 heartbeat IPC: 1.224 cumulative IPC: 1.154 (Simulation time: 00 hr 25 min 55 sec)
Heartbeat CPU 0 instructions: 179500843 cycles: 128631943 heartbeat IPC: 1.251 cumulative IPC: 1.155 (Simulation time: 00 hr 26 min 00 sec)
Heartbeat CPU 0 instructions: 180000847 cycles: 129028814 heartbeat IPC: 1.26 cumulative IPC: 1.155 (Simulation time: 00 hr 26 min 05 sec)
Heartbeat CPU 0 instructions: 180500851 cycles: 129426836 heartbeat IPC: 1.256 cumulative IPC: 1.155 (Simulation time: 00 hr 26 min 10 sec)
Heartbeat CPU 0 instructions: 181000856 cycles: 129832023 heartbeat IPC: 1.234 cumulative IPC: 1.156 (Simulation time: 00 hr 26 min 15 sec)
Heartbeat CPU 0 instructions: 181500863 cycles: 130247838 heartbeat IPC: 1.202 cumulative IPC: 1.156 (Simulation time: 00 hr 26 min 21 sec)
Heartbeat CPU 0 instructions: 182000867 cycles: 130632755 heartbeat IPC: 1.299 cumulative IPC: 1.156 (Simulation time: 00 hr 26 min 26 sec)
Heartbeat CPU 0 instructions: 182500867 cycles: 131032280 heartbeat IPC: 1.251 cumulative IPC: 1.157 (Simulation time: 00 hr 26 min 31 sec)
Heartbeat CPU 0 instructions: 183000871 cycles: 131427818 heartbeat IPC: 1.264 cumulative IPC: 1.157 (Simulation time: 00 hr 26 min 36 sec)
Heartbeat CPU 0 instructions: 183500875 cycles: 131824341 heartbeat IPC: 1.261 cumulative IPC: 1.157 (Simulation time: 00 hr 26 min 41 sec)
Heartbeat CPU 0 instructions: 184000875 cycles: 132241856 heartbeat IPC: 1.198 cumulative IPC: 1.157 (Simulation time: 00 hr 26 min 46 sec)
Heartbeat CPU 0 instructions: 184500875 cycles: 132642622 heartbeat IPC: 1.248 cumulative IPC: 1.158 (Simulation time: 00 hr 26 min 51 sec)
Heartbeat CPU 0 instructions: 185000880 cycles: 133042631 heartbeat IPC: 1.25 cumulative IPC: 1.158 (Simulation time: 00 hr 26 min 56 sec)
Heartbeat CPU 0 instructions: 185500881 cycles: 133456084 heartbeat IPC: 1.209 cumulative IPC: 1.158 (Simulation time: 00 hr 27 min 02 sec)
Heartbeat CPU 0 instructions: 186000883 cycles: 133856580 heartbeat IPC: 1.248 cumulative IPC: 1.159 (Simulation time: 00 hr 27 min 07 sec)
Heartbeat CPU 0 instructions: 186500883 cycles: 134258678 heartbeat IPC: 1.243 cumulative IPC: 1.159 (Simulation time: 00 hr 27 min 12 sec)
Heartbeat CPU 0 instructions: 187000887 cycles: 134662772 heartbeat IPC: 1.237 cumulative IPC: 1.159 (Simulation time: 00 hr 27 min 17 sec)
Heartbeat CPU 0 instructions: 187500887 cycles: 135076782 heartbeat IPC: 1.208 cumulative IPC: 1.159 (Simulation time: 00 hr 27 min 22 sec)
Heartbeat CPU 0 instructions: 188000891 cycles: 135473382 heartbeat IPC: 1.261 cumulative IPC: 1.16 (Simulation time: 00 hr 27 min 27 sec)
Heartbeat CPU 0 instructions: 188500895 cycles: 135879345 heartbeat IPC: 1.232 cumulative IPC: 1.16 (Simulation time: 00 hr 27 min 33 sec)
Heartbeat CPU 0 instructions: 189000895 cycles: 136288257 heartbeat IPC: 1.223 cumulative IPC: 1.16 (Simulation time: 00 hr 27 min 38 sec)
Heartbeat CPU 0 instructions: 189500899 cycles: 136706853 heartbeat IPC: 1.194 cumulative IPC: 1.16 (Simulation time: 00 hr 27 min 43 sec)
Heartbeat CPU 0 instructions: 190000903 cycles: 137124714 heartbeat IPC: 1.197 cumulative IPC: 1.16 (Simulation time: 00 hr 27 min 48 sec)
Heartbeat CPU 0 instructions: 190500903 cycles: 137521493 heartbeat IPC: 1.26 cumulative IPC: 1.161 (Simulation time: 00 hr 27 min 53 sec)
Heartbeat CPU 0 instructions: 191000903 cycles: 137928152 heartbeat IPC: 1.23 cumulative IPC: 1.161 (Simulation time: 00 hr 27 min 58 sec)
Heartbeat CPU 0 instructions: 191500905 cycles: 138347201 heartbeat IPC: 1.193 cumulative IPC: 1.161 (Simulation time: 00 hr 28 min 04 sec)
Heartbeat CPU 0 instructions: 192000911 cycles: 138743684 heartbeat IPC: 1.261 cumulative IPC: 1.161 (Simulation time: 00 hr 28 min 09 sec)
Heartbeat CPU 0 instructions: 192500911 cycles: 139147009 heartbeat IPC: 1.24 cumulative IPC: 1.162 (Simulation time: 00 hr 28 min 14 sec)
Heartbeat CPU 0 instructions: 193000911 cycles: 139552709 heartbeat IPC: 1.232 cumulative IPC: 1.162 (Simulation time: 00 hr 28 min 19 sec)
Heartbeat CPU 0 instructions: 193500911 cycles: 139962380 heartbeat IPC: 1.22 cumulative IPC: 1.162 (Simulation time: 00 hr 28 min 24 sec)
Heartbeat CPU 0 instructions: 194000915 cycles: 140368524 heartbeat IPC: 1.231 cumulative IPC: 1.162 (Simulation time: 00 hr 28 min 29 sec)
Heartbeat CPU 0 instructions: 194500915 cycles: 140772640 heartbeat IPC: 1.237 cumulative IPC: 1.162 (Simulation time: 00 hr 28 min 34 sec)
Heartbeat CPU 0 instructions: 195000915 cycles: 141176319 heartbeat IPC: 1.239 cumulative IPC: 1.163 (Simulation time: 00 hr 28 min 40 sec)
Heartbeat CPU 0 instructions: 195500917 cycles: 141587191 heartbeat IPC: 1.217 cumulative IPC: 1.163 (Simulation time: 00 hr 28 min 45 sec)
Heartbeat CPU 0 instructions: 196000923 cycles: 141991034 heartbeat IPC: 1.238 cumulative IPC: 1.163 (Simulation time: 00 hr 28 min 50 sec)
Heartbeat CPU 0 instructions: 196500923 cycles: 142405586 heartbeat IPC: 1.206 cumulative IPC: 1.163 (Simulation time: 00 hr 28 min 55 sec)
Heartbeat CPU 0 instructions: 197000923 cycles: 142819006 heartbeat IPC: 1.209 cumulative IPC: 1.163 (Simulation time: 00 hr 29 min 00 sec)
Heartbeat CPU 0 instructions: 197500925 cycles: 143226329 heartbeat IPC: 1.228 cumulative IPC: 1.164 (Simulation time: 00 hr 29 min 05 sec)
Heartbeat CPU 0 instructions: 198000932 cycles: 143622054 heartbeat IPC: 1.264 cumulative IPC: 1.164 (Simulation time: 00 hr 29 min 10 sec)
Heartbeat CPU 0 instructions: 198500936 cycles: 144024187 heartbeat IPC: 1.243 cumulative IPC: 1.164 (Simulation time: 00 hr 29 min 15 sec)
Heartbeat CPU 0 instructions: 199000937 cycles: 144451960 heartbeat IPC: 1.169 cumulative IPC: 1.164 (Simulation time: 00 hr 29 min 21 sec)
Heartbeat CPU 0 instructions: 199500939 cycles: 144870978 heartbeat IPC: 1.193 cumulative IPC: 1.164 (Simulation time: 00 hr 29 min 26 sec)
Heartbeat CPU 0 instructions: 200000944 cycles: 145294890 heartbeat IPC: 1.18 cumulative IPC: 1.164 (Simulation time: 00 hr 29 min 31 sec)
Heartbeat CPU 0 instructions: 200500947 cycles: 145712648 heartbeat IPC: 1.197 cumulative IPC: 1.164 (Simulation time: 00 hr 29 min 36 sec)
Heartbeat CPU 0 instructions: 201000947 cycles: 146143858 heartbeat IPC: 1.16 cumulative IPC: 1.164 (Simulation time: 00 hr 29 min 42 sec)
Heartbeat CPU 0 instructions: 201500951 cycles: 146543941 heartbeat IPC: 1.25 cumulative IPC: 1.165 (Simulation time: 00 hr 29 min 47 sec)
Heartbeat CPU 0 instructions: 202000955 cycles: 146967323 heartbeat IPC: 1.181 cumulative IPC: 1.165 (Simulation time: 00 hr 29 min 52 sec)
Heartbeat CPU 0 instructions: 202500955 cycles: 147372293 heartbeat IPC: 1.235 cumulative IPC: 1.165 (Simulation time: 00 hr 29 min 57 sec)
Heartbeat CPU 0 instructions: 203000959 cycles: 147782830 heartbeat IPC: 1.218 cumulative IPC: 1.165 (Simulation time: 00 hr 30 min 02 sec)
Heartbeat CPU 0 instructions: 203500959 cycles: 148177298 heartbeat IPC: 1.268 cumulative IPC: 1.165 (Simulation time: 00 hr 30 min 07 sec)
Heartbeat CPU 0 instructions: 204000959 cycles: 148609199 heartbeat IPC: 1.158 cumulative IPC: 1.165 (Simulation time: 00 hr 30 min 12 sec)
Heartbeat CPU 0 instructions: 204500959 cycles: 149019617 heartbeat IPC: 1.218 cumulative IPC: 1.166 (Simulation time: 00 hr 30 min 18 sec)
Heartbeat CPU 0 instructions: 205000963 cycles: 149431846 heartbeat IPC: 1.213 cumulative IPC: 1.166 (Simulation time: 00 hr 30 min 23 sec)
Heartbeat CPU 0 instructions: 205500967 cycles: 149814315 heartbeat IPC: 1.307 cumulative IPC: 1.166 (Simulation time: 00 hr 30 min 28 sec)
Heartbeat CPU 0 instructions: 206000967 cycles: 150204217 heartbeat IPC: 1.282 cumulative IPC: 1.166 (Simulation time: 00 hr 30 min 33 sec)
Heartbeat CPU 0 instructions: 206500972 cycles: 150597325 heartbeat IPC: 1.272 cumulative IPC: 1.167 (Simulation time: 00 hr 30 min 38 sec)
Heartbeat CPU 0 instructions: 207000973 cycles: 151007466 heartbeat IPC: 1.219 cumulative IPC: 1.167 (Simulation time: 00 hr 30 min 43 sec)
Heartbeat CPU 0 instructions: 207500973 cycles: 151409748 heartbeat IPC: 1.243 cumulative IPC: 1.167 (Simulation time: 00 hr 30 min 48 sec)
Heartbeat CPU 0 instructions: 208000976 cycles: 151829904 heartbeat IPC: 1.19 cumulative IPC: 1.167 (Simulation time: 00 hr 30 min 53 sec)
Heartbeat CPU 0 instructions: 208500978 cycles: 152249708 heartbeat IPC: 1.191 cumulative IPC: 1.167 (Simulation time: 00 hr 30 min 59 sec)
Heartbeat CPU 0 instructions: 209000983 cycles: 152644005 heartbeat IPC: 1.268 cumulative IPC: 1.168 (Simulation time: 00 hr 31 min 04 sec)
Heartbeat CPU 0 instructions: 209500987 cycles: 153043034 heartbeat IPC: 1.253 cumulative IPC: 1.168 (Simulation time: 00 hr 31 min 09 sec)
Heartbeat CPU 0 instructions: 210000987 cycles: 153463936 heartbeat IPC: 1.188 cumulative IPC: 1.168 (Simulation time: 00 hr 31 min 14 sec)
Heartbeat CPU 0 instructions: 210500992 cycles: 153891144 heartbeat IPC: 1.17 cumulative IPC: 1.168 (Simulation time: 00 hr 31 min 19 sec)
Heartbeat CPU 0 instructions: 211000997 cycles: 154336152 heartbeat IPC: 1.124 cumulative IPC: 1.168 (Simulation time: 00 hr 31 min 25 sec)
Heartbeat CPU 0 instructions: 211501003 cycles: 154757681 heartbeat IPC: 1.186 cumulative IPC: 1.168 (Simulation time: 00 hr 31 min 30 sec)
Heartbeat CPU 0 instructions: 212001007 cycles: 155153835 heartbeat IPC: 1.262 cumulative IPC: 1.168 (Simulation time: 00 hr 31 min 35 sec)
Heartbeat CPU 0 instructions: 212501007 cycles: 155561924 heartbeat IPC: 1.225 cumulative IPC: 1.168 (Simulation time: 00 hr 31 min 40 sec)
Heartbeat CPU 0 instructions: 213001012 cycles: 155975900 heartbeat IPC: 1.208 cumulative IPC: 1.168 (Simulation time: 00 hr 31 min 45 sec)
Heartbeat CPU 0 instructions: 213501012 cycles: 156372585 heartbeat IPC: 1.26 cumulative IPC: 1.169 (Simulation time: 00 hr 31 min 50 sec)
Heartbeat CPU 0 instructions: 214001017 cycles: 156785576 heartbeat IPC: 1.211 cumulative IPC: 1.169 (Simulation time: 00 hr 31 min 55 sec)
Heartbeat CPU 0 instructions: 214501019 cycles: 157190363 heartbeat IPC: 1.235 cumulative IPC: 1.169 (Simulation time: 00 hr 32 min 00 sec)
Heartbeat CPU 0 instructions: 215001019 cycles: 157606324 heartbeat IPC: 1.202 cumulative IPC: 1.169 (Simulation time: 00 hr 32 min 06 sec)
Heartbeat CPU 0 instructions: 215501019 cycles: 158012985 heartbeat IPC: 1.23 cumulative IPC: 1.169 (Simulation time: 00 hr 32 min 11 sec)
Heartbeat CPU 0 instructions: 216001023 cycles: 158405735 heartbeat IPC: 1.273 cumulative IPC: 1.17 (Simulation time: 00 hr 32 min 16 sec)
Heartbeat CPU 0 instructions: 216501023 cycles: 158814710 heartbeat IPC: 1.223 cumulative IPC: 1.17 (Simulation time: 00 hr 32 min 21 sec)
Heartbeat CPU 0 instructions: 217001027 cycles: 159228399 heartbeat IPC: 1.209 cumulative IPC: 1.17 (Simulation time: 00 hr 32 min 26 sec)
Heartbeat CPU 0 instructions: 217501029 cycles: 159640118 heartbeat IPC: 1.214 cumulative IPC: 1.17 (Simulation time: 00 hr 32 min 31 sec)
Heartbeat CPU 0 instructions: 218001035 cycles: 160069188 heartbeat IPC: 1.165 cumulative IPC: 1.17 (Simulation time: 00 hr 32 min 36 sec)
Heartbeat CPU 0 instructions: 218501039 cycles: 160488504 heartbeat IPC: 1.192 cumulative IPC: 1.17 (Simulation time: 00 hr 32 min 42 sec)
Heartbeat CPU 0 instructions: 219001039 cycles: 160896612 heartbeat IPC: 1.225 cumulative IPC: 1.17 (Simulation time: 00 hr 32 min 47 sec)
Heartbeat CPU 0 instructions: 219501043 cycles: 161309458 heartbeat IPC: 1.211 cumulative IPC: 1.17 (Simulation time: 00 hr 32 min 52 sec)
Heartbeat CPU 0 instructions: 220001043 cycles: 161719194 heartbeat IPC: 1.22 cumulative IPC: 1.17 (Simulation time: 00 hr 32 min 57 sec)
Heartbeat CPU 0 instructions: 220501047 cycles: 162135899 heartbeat IPC: 1.2 cumulative IPC: 1.17 (Simulation time: 00 hr 33 min 02 sec)
Heartbeat CPU 0 instructions: 221001051 cycles: 162550510 heartbeat IPC: 1.206 cumulative IPC: 1.171 (Simulation time: 00 hr 33 min 07 sec)
Heartbeat CPU 0 instructions: 221501051 cycles: 162990765 heartbeat IPC: 1.136 cumulative IPC: 1.17 (Simulation time: 00 hr 33 min 13 sec)
Heartbeat CPU 0 instructions: 222001051 cycles: 163393972 heartbeat IPC: 1.24 cumulative IPC: 1.171 (Simulation time: 00 hr 33 min 18 sec)
Heartbeat CPU 0 instructions: 222501055 cycles: 163796877 heartbeat IPC: 1.241 cumulative IPC: 1.171 (Simulation time: 00 hr 33 min 23 sec)
Heartbeat CPU 0 instructions: 223001059 cycles: 164196031 heartbeat IPC: 1.253 cumulative IPC: 1.171 (Simulation time: 00 hr 33 min 28 sec)
Heartbeat CPU 0 instructions: 223501063 cycles: 164604939 heartbeat IPC: 1.223 cumulative IPC: 1.171 (Simulation time: 00 hr 33 min 33 sec)
Heartbeat CPU 0 instructions: 224001063 cycles: 165008286 heartbeat IPC: 1.24 cumulative IPC: 1.171 (Simulation time: 00 hr 33 min 38 sec)
Heartbeat CPU 0 instructions: 224501064 cycles: 165423502 heartbeat IPC: 1.204 cumulative IPC: 1.171 (Simulation time: 00 hr 33 min 43 sec)
Heartbeat CPU 0 instructions: 225001067 cycles: 165846432 heartbeat IPC: 1.182 cumulative IPC: 1.172 (Simulation time: 00 hr 33 min 48 sec)
Heartbeat CPU 0 instructions: 225501069 cycles: 166261533 heartbeat IPC: 1.205 cumulative IPC: 1.172 (Simulation time: 00 hr 33 min 54 sec)
Heartbeat CPU 0 instructions: 226001071 cycles: 166677861 heartbeat IPC: 1.201 cumulative IPC: 1.172 (Simulation time: 00 hr 33 min 59 sec)
Heartbeat CPU 0 instructions: 226501075 cycles: 167098384 heartbeat IPC: 1.189 cumulative IPC: 1.172 (Simulation time: 00 hr 34 min 04 sec)
Heartbeat CPU 0 instructions: 227001080 cycles: 167515360 heartbeat IPC: 1.199 cumulative IPC: 1.172 (Simulation time: 00 hr 34 min 09 sec)
Heartbeat CPU 0 instructions: 227501087 cycles: 167950017 heartbeat IPC: 1.15 cumulative IPC: 1.172 (Simulation time: 00 hr 34 min 14 sec)
Heartbeat CPU 0 instructions: 228001091 cycles: 168350109 heartbeat IPC: 1.25 cumulative IPC: 1.172 (Simulation time: 00 hr 34 min 19 sec)
Heartbeat CPU 0 instructions: 228501095 cycles: 168721420 heartbeat IPC: 1.347 cumulative IPC: 1.172 (Simulation time: 00 hr 34 min 25 sec)
Heartbeat CPU 0 instructions: 229001096 cycles: 169120320 heartbeat IPC: 1.253 cumulative IPC: 1.173 (Simulation time: 00 hr 34 min 29 sec)
Heartbeat CPU 0 instructions: 229501103 cycles: 169522154 heartbeat IPC: 1.244 cumulative IPC: 1.173 (Simulation time: 00 hr 34 min 34 sec)
Heartbeat CPU 0 instructions: 230001103 cycles: 169933462 heartbeat IPC: 1.216 cumulative IPC: 1.173 (Simulation time: 00 hr 34 min 40 sec)
Heartbeat CPU 0 instructions: 230501106 cycles: 170357768 heartbeat IPC: 1.178 cumulative IPC: 1.173 (Simulation time: 00 hr 34 min 45 sec)
Heartbeat CPU 0 instructions: 231001106 cycles: 170788648 heartbeat IPC: 1.16 cumulative IPC: 1.173 (Simulation time: 00 hr 34 min 50 sec)
Heartbeat CPU 0 instructions: 231501111 cycles: 171220627 heartbeat IPC: 1.157 cumulative IPC: 1.173 (Simulation time: 00 hr 34 min 55 sec)
Heartbeat CPU 0 instructions: 232001113 cycles: 171634608 heartbeat IPC: 1.208 cumulative IPC: 1.173 (Simulation time: 00 hr 35 min 00 sec)
Heartbeat CPU 0 instructions: 232501115 cycles: 172046395 heartbeat IPC: 1.214 cumulative IPC: 1.173 (Simulation time: 00 hr 35 min 06 sec)
Heartbeat CPU 0 instructions: 233001119 cycles: 172502824 heartbeat IPC: 1.095 cumulative IPC: 1.173 (Simulation time: 00 hr 35 min 11 sec)
Heartbeat CPU 0 instructions: 233501119 cycles: 172937855 heartbeat IPC: 1.149 cumulative IPC: 1.173 (Simulation time: 00 hr 35 min 16 sec)
Heartbeat CPU 0 instructions: 234001119 cycles: 173349775 heartbeat IPC: 1.214 cumulative IPC: 1.173 (Simulation time: 00 hr 35 min 21 sec)
Heartbeat CPU 0 instructions: 234501120 cycles: 173756581 heartbeat IPC: 1.229 cumulative IPC: 1.173 (Simulation time: 00 hr 35 min 27 sec)
Heartbeat CPU 0 instructions: 235001126 cycles: 174184901 heartbeat IPC: 1.167 cumulative IPC: 1.173 (Simulation time: 00 hr 35 min 32 sec)
Heartbeat CPU 0 instructions: 235501127 cycles: 174586443 heartbeat IPC: 1.245 cumulative IPC: 1.173 (Simulation time: 00 hr 35 min 37 sec)
Heartbeat CPU 0 instructions: 236001129 cycles: 175002111 heartbeat IPC: 1.203 cumulative IPC: 1.173 (Simulation time: 00 hr 35 min 42 sec)
Heartbeat CPU 0 instructions: 236501135 cycles: 175412146 heartbeat IPC: 1.219 cumulative IPC: 1.173 (Simulation time: 00 hr 35 min 47 sec)
Heartbeat CPU 0 instructions: 237001139 cycles: 175826580 heartbeat IPC: 1.206 cumulative IPC: 1.173 (Simulation time: 00 hr 35 min 52 sec)
Heartbeat CPU 0 instructions: 237501143 cycles: 176245515 heartbeat IPC: 1.194 cumulative IPC: 1.174 (Simulation time: 00 hr 35 min 57 sec)
Heartbeat CPU 0 instructions: 238001144 cycles: 176661605 heartbeat IPC: 1.202 cumulative IPC: 1.174 (Simulation time: 00 hr 36 min 02 sec)
Heartbeat CPU 0 instructions: 238501144 cycles: 177069935 heartbeat IPC: 1.224 cumulative IPC: 1.174 (Simulation time: 00 hr 36 min 08 sec)
Heartbeat CPU 0 instructions: 239001151 cycles: 177486200 heartbeat IPC: 1.201 cumulative IPC: 1.174 (Simulation time: 00 hr 36 min 13 sec)
Heartbeat CPU 0 instructions: 239501155 cycles: 177905797 heartbeat IPC: 1.192 cumulative IPC: 1.174 (Simulation time: 00 hr 36 min 18 sec)
Heartbeat CPU 0 instructions: 240001155 cycles: 178398974 heartbeat IPC: 1.014 cumulative IPC: 1.173 (Simulation time: 00 hr 36 min 24 sec)
Heartbeat CPU 0 instructions: 240501159 cycles: 178806751 heartbeat IPC: 1.226 cumulative IPC: 1.173 (Simulation time: 00 hr 36 min 29 sec)
Heartbeat CPU 0 instructions: 241001160 cycles: 179231228 heartbeat IPC: 1.178 cumulative IPC: 1.173 (Simulation time: 00 hr 36 min 34 sec)
Heartbeat CPU 0 instructions: 241501167 cycles: 179670865 heartbeat IPC: 1.137 cumulative IPC: 1.173 (Simulation time: 00 hr 36 min 39 sec)
Heartbeat CPU 0 instructions: 242001167 cycles: 180103309 heartbeat IPC: 1.156 cumulative IPC: 1.173 (Simulation time: 00 hr 36 min 44 sec)
Heartbeat CPU 0 instructions: 242501167 cycles: 180518328 heartbeat IPC: 1.205 cumulative IPC: 1.173 (Simulation time: 00 hr 36 min 49 sec)
Heartbeat CPU 0 instructions: 243001171 cycles: 180944763 heartbeat IPC: 1.173 cumulative IPC: 1.173 (Simulation time: 00 hr 36 min 55 sec)
Heartbeat CPU 0 instructions: 243501175 cycles: 181375915 heartbeat IPC: 1.16 cumulative IPC: 1.173 (Simulation time: 00 hr 37 min 00 sec)
Heartbeat CPU 0 instructions: 244001181 cycles: 181789388 heartbeat IPC: 1.209 cumulative IPC: 1.173 (Simulation time: 00 hr 37 min 05 sec)
Heartbeat CPU 0 instructions: 244501187 cycles: 182199767 heartbeat IPC: 1.218 cumulative IPC: 1.174 (Simulation time: 00 hr 37 min 10 sec)
Heartbeat CPU 0 instructions: 245001190 cycles: 182624292 heartbeat IPC: 1.178 cumulative IPC: 1.174 (Simulation time: 00 hr 37 min 15 sec)
Heartbeat CPU 0 instructions: 245501191 cycles: 183051656 heartbeat IPC: 1.17 cumulative IPC: 1.174 (Simulation time: 00 hr 37 min 20 sec)
Heartbeat CPU 0 instructions: 246001198 cycles: 183465294 heartbeat IPC: 1.209 cumulative IPC: 1.174 (Simulation time: 00 hr 37 min 25 sec)
Heartbeat CPU 0 instructions: 246501203 cycles: 183880163 heartbeat IPC: 1.205 cumulative IPC: 1.174 (Simulation time: 00 hr 37 min 31 sec)
Heartbeat CPU 0 instructions: 247001207 cycles: 184300749 heartbeat IPC: 1.189 cumulative IPC: 1.174 (Simulation time: 00 hr 37 min 36 sec)
Heartbeat CPU 0 instructions: 247501207 cycles: 184732251 heartbeat IPC: 1.159 cumulative IPC: 1.174 (Simulation time: 00 hr 37 min 41 sec)
Heartbeat CPU 0 instructions: 248001213 cycles: 185146152 heartbeat IPC: 1.208 cumulative IPC: 1.174 (Simulation time: 00 hr 37 min 46 sec)
Heartbeat CPU 0 instructions: 248501219 cycles: 185560327 heartbeat IPC: 1.207 cumulative IPC: 1.174 (Simulation time: 00 hr 37 min 51 sec)
Heartbeat CPU 0 instructions: 249001223 cycles: 185986434 heartbeat IPC: 1.173 cumulative IPC: 1.174 (Simulation time: 00 hr 37 min 56 sec)
Heartbeat CPU 0 instructions: 249501225 cycles: 186416438 heartbeat IPC: 1.163 cumulative IPC: 1.174 (Simulation time: 00 hr 38 min 02 sec)
*** Reached end of trace: (0, "/local-ssd/ben/dpc4-traces/Graph/Ligra/ligra_BFSCC.com-lj.ungraph.gcc_6.3.0_O3.drop_15500M.length_250M.champsimtrace.xz")
Simulation finished CPU 0 instructions: 200000005 cycles: 170366069 cumulative IPC: 1.174 (Simulation time: 00 hr 38 min 07 sec)
Simulation complete CPU 0 instructions: 200000005 cycles: 170366069 cumulative IPC: 1.174 (Simulation time: 00 hr 38 min 07 sec)

ChampSim completed all CPUs

=== Simulation ===
CPU 0 runs /local-ssd/ben/dpc4-traces/Graph/Ligra/ligra_BFSCC.com-lj.ungraph.gcc_6.3.0_O3.drop_15500M.length_250M.champsimtrace.xz

Region of Interest Statistics

CPU 0 cumulative IPC: 1.174 instructions: 200000005 cycles: 170366069
CPU 0 Branch Prediction Accuracy: 97.56% MPKI: 2.84 Average ROB Occupancy at Mispredict: 151.3
Branch type MPKI
BRANCH_DIRECT_JUMP: 1e-05
BRANCH_INDIRECT: 0
BRANCH_CONDITIONAL: 2.84
BRANCH_DIRECT_CALL: 1e-05
BRANCH_INDIRECT_CALL: 0
BRANCH_RETURN: 1e-05

cpu0->cpu0_STLB TOTAL        ACCESS:      70538 HIT:          0 MISS:      70538 MSHR_MERGE:          0
cpu0->cpu0_STLB LOAD         ACCESS:      70538 HIT:          0 MISS:      70538 MSHR_MERGE:          0
cpu0->cpu0_STLB RFO          ACCESS:          0 HIT:          0 MISS:          0 MSHR_MERGE:          0
cpu0->cpu0_STLB PREFETCH     ACCESS:          0 HIT:          0 MISS:          0 MSHR_MERGE:          0
cpu0->cpu0_STLB WRITE        ACCESS:          0 HIT:          0 MISS:          0 MSHR_MERGE:          0
cpu0->cpu0_STLB TRANSLATION  ACCESS:          0 HIT:          0 MISS:          0 MSHR_MERGE:          0
cpu0->cpu0_STLB PREFETCH REQUESTED:          0 ISSUED:          0 USEFUL:          0 USELESS:          0
cpu0->cpu0_STLB AVERAGE MISS LATENCY: 260.2 cycles
cpu0->cpu0_L2C TOTAL        ACCESS:    7510253 HIT:    2988447 MISS:    4521806 MSHR_MERGE:          0
cpu0->cpu0_L2C LOAD         ACCESS:     178933 HIT:         92 MISS:     178841 MSHR_MERGE:          0
cpu0->cpu0_L2C RFO          ACCESS:    2985637 HIT:          0 MISS:    2985637 MSHR_MERGE:          0
cpu0->cpu0_L2C PREFETCH     ACCESS:    1348372 HIT:         19 MISS:    1348353 MSHR_MERGE:          0
cpu0->cpu0_L2C WRITE        ACCESS:    2985858 HIT:    2985858 MISS:          0 MSHR_MERGE:          0
cpu0->cpu0_L2C TRANSLATION  ACCESS:      11453 HIT:       2478 MISS:       8975 MSHR_MERGE:          0
cpu0->cpu0_L2C PREFETCH REQUESTED:          0 ISSUED:          0 USEFUL:          0 USELESS:          0
cpu0->cpu0_L2C AVERAGE MISS LATENCY: 409.1 cycles
cpu0->cpu0_L1I TOTAL        ACCESS:    7649478 HIT:    7649469 MISS:          9 MSHR_MERGE:          0
cpu0->cpu0_L1I LOAD         ACCESS:    7649478 HIT:    7649469 MISS:          9 MSHR_MERGE:          0
cpu0->cpu0_L1I RFO          ACCESS:          0 HIT:          0 MISS:          0 MSHR_MERGE:          0
cpu0->cpu0_L1I PREFETCH     ACCESS:          0 HIT:          0 MISS:          0 MSHR_MERGE:          0
cpu0->cpu0_L1I WRITE        ACCESS:          0 HIT:          0 MISS:          0 MSHR_MERGE:          0
cpu0->cpu0_L1I TRANSLATION  ACCESS:          0 HIT:          0 MISS:          0 MSHR_MERGE:          0
cpu0->cpu0_L1I PREFETCH REQUESTED:          0 ISSUED:          0 USEFUL:          0 USELESS:          0
cpu0->cpu0_L1I AVERAGE MISS LATENCY: 336.9 cycles
cpu0->cpu0_L1D TOTAL        ACCESS:   59241472 HIT:   10529483 MISS:   48711989 MSHR_MERGE:   44187603
cpu0->cpu0_L1D LOAD         ACCESS:   12589605 HIT:    8421128 MISS:    4168477 MSHR_MERGE:    3989553
cpu0->cpu0_L1D RFO          ACCESS:          0 HIT:          0 MISS:          0 MSHR_MERGE:          0
cpu0->cpu0_L1D PREFETCH     ACCESS:    4583755 HIT:    1533699 MISS:    3050056 MSHR_MERGE:    1701684
cpu0->cpu0_L1D WRITE        ACCESS:   41926890 HIT:     444887 MISS:   41482003 MSHR_MERGE:   38496366
cpu0->cpu0_L1D TRANSLATION  ACCESS:     141222 HIT:     129769 MISS:      11453 MSHR_MERGE:          0
cpu0->cpu0_L1D PREFETCH REQUESTED:    7738569 ISSUED:    4583747 USEFUL:    1348286 USELESS:         75
cpu0->cpu0_L1D AVERAGE MISS LATENCY: 394.7 cycles
cpu0->cpu0_ITLB TOTAL        ACCESS:    7649442 HIT:    7649442 MISS:          0 MSHR_MERGE:          0
cpu0->cpu0_ITLB LOAD         ACCESS:    7649442 HIT:    7649442 MISS:          0 MSHR_MERGE:          0
cpu0->cpu0_ITLB RFO          ACCESS:          0 HIT:          0 MISS:          0 MSHR_MERGE:          0
cpu0->cpu0_ITLB PREFETCH     ACCESS:          0 HIT:          0 MISS:          0 MSHR_MERGE:          0
cpu0->cpu0_ITLB WRITE        ACCESS:          0 HIT:          0 MISS:          0 MSHR_MERGE:          0
cpu0->cpu0_ITLB TRANSLATION  ACCESS:          0 HIT:          0 MISS:          0 MSHR_MERGE:          0
cpu0->cpu0_ITLB PREFETCH REQUESTED:          0 ISSUED:          0 USEFUL:          0 USELESS:          0
cpu0->cpu0_ITLB AVERAGE MISS LATENCY: - cycles
cpu0->cpu0_DTLB TOTAL        ACCESS:   51781351 HIT:   50941676 MISS:     839675 MSHR_MERGE:     769135
cpu0->cpu0_DTLB LOAD         ACCESS:   51781351 HIT:   50941676 MISS:     839675 MSHR_MERGE:     769135
cpu0->cpu0_DTLB RFO          ACCESS:          0 HIT:          0 MISS:          0 MSHR_MERGE:          0
cpu0->cpu0_DTLB PREFETCH     ACCESS:          0 HIT:          0 MISS:          0 MSHR_MERGE:          0
cpu0->cpu0_DTLB WRITE        ACCESS:          0 HIT:          0 MISS:          0 MSHR_MERGE:          0
cpu0->cpu0_DTLB TRANSLATION  ACCESS:          0 HIT:          0 MISS:          0 MSHR_MERGE:          0
cpu0->cpu0_DTLB PREFETCH REQUESTED:          0 ISSUED:          0 USEFUL:          0 USELESS:          0
cpu0->cpu0_DTLB AVERAGE MISS LATENCY: 266.2 cycles
cpu0->LLC TOTAL        ACCESS:    7515572 HIT:     712162 MISS:    6803410 MSHR_MERGE:          0
cpu0->LLC LOAD         ACCESS:     178841 HIT:          0 MISS:     178841 MSHR_MERGE:          0
cpu0->LLC RFO          ACCESS:    2985637 HIT:          0 MISS:    2985637 MSHR_MERGE:          0
cpu0->LLC PREFETCH     ACCESS:    1348351 HIT:          0 MISS:    1348351 MSHR_MERGE:          0
cpu0->LLC WRITE        ACCESS:    2993768 HIT:     712140 MISS:    2281628 MSHR_MERGE:          0
cpu0->LLC TRANSLATION  ACCESS:       8975 HIT:         22 MISS:       8953 MSHR_MERGE:          0
cpu0->LLC PREFETCH REQUESTED:          0 ISSUED:          0 USEFUL:          0 USELESS:          0
cpu0->LLC AVERAGE MISS LATENCY: 231.7 cycles

DRAM Statistics

Channel 0 RQ ROW_BUFFER_HIT:     187353
  ROW_BUFFER_MISS:    4334425
  AVG DBUS CONGESTED CYCLE: 12.53
Channel 0 WQ ROW_BUFFER_HIT:     469127
  ROW_BUFFER_MISS:    2528749
  FULL:     949629
Channel 0 REFRESHES ISSUED:      14196
