[VMEM] WARNING: physical memory size is smaller than virtual memory size.

*** ChampSim Multicore Out-of-Order Simulator ***
Warmup Instructions: 50000000
Simulation Instructions: 200000000
Number of CPUs: 1
Page size: 4096
Core 0: /local-ssd/ben/dpc4-traces/Graph/GMS/gms.k_clique_list_danisch_edge_parallel.soc-pokec-relationships.slice-80.champsimtrace.gz
Off-chip DRAM Size: 64 GiB Channels: 1 Width: 64-bit Data Rate: 4807 MT/s
Heartbeat CPU 0 instructions: 500003 cycles: 183066 heartbeat IPC: 2.731 cumulative IPC: 2.731 (Simulation time: 00 hr 00 min 02 sec)
Heartbeat CPU 0 instructions: 1000005 cycles: 329183 heartbeat IPC: 3.422 cumulative IPC: 3.038 (Simulation time: 00 hr 00 min 04 sec)
Heartbeat CPU 0 instructions: 1500006 cycles: 478401 heartbeat IPC: 3.351 cumulative IPC: 3.135 (Simulation time: 00 hr 00 min 06 sec)
Heartbeat CPU 0 instructions: 2000009 cycles: 622602 heartbeat IPC: 3.467 cumulative IPC: 3.212 (Simulation time: 00 hr 00 min 08 sec)
Heartbeat CPU 0 instructions: 2500011 cycles: 767833 heartbeat IPC: 3.443 cumulative IPC: 3.256 (Simulation time: 00 hr 00 min 09 sec)
Heartbeat CPU 0 instructions: 3000016 cycles: 911857 heartbeat IPC: 3.472 cumulative IPC: 3.29 (Simulation time: 00 hr 00 min 11 sec)
Heartbeat CPU 0 instructions: 3500021 cycles: 1052992 heartbeat IPC: 3.543 cumulative IPC: 3.324 (Simulation time: 00 hr 00 min 13 sec)
Heartbeat CPU 0 instructions: 4000026 cycles: 1193761 heartbeat IPC: 3.552 cumulative IPC: 3.351 (Simulation time: 00 hr 00 min 15 sec)
Heartbeat CPU 0 instructions: 4500032 cycles: 1333905 heartbeat IPC: 3.568 cumulative IPC: 3.374 (Simulation time: 00 hr 00 min 17 sec)
Heartbeat CPU 0 instructions: 5000036 cycles: 1475326 heartbeat IPC: 3.536 cumulative IPC: 3.389 (Simulation time: 00 hr 00 min 19 sec)
Heartbeat CPU 0 instructions: 5500038 cycles: 1616993 heartbeat IPC: 3.529 cumulative IPC: 3.401 (Simulation time: 00 hr 00 min 20 sec)
Heartbeat CPU 0 instructions: 6000043 cycles: 1756816 heartbeat IPC: 3.576 cumulative IPC: 3.415 (Simulation time: 00 hr 00 min 22 sec)
Heartbeat CPU 0 instructions: 6500045 cycles: 1897467 heartbeat IPC: 3.555 cumulative IPC: 3.426 (Simulation time: 00 hr 00 min 24 sec)
Heartbeat CPU 0 instructions: 7000046 cycles: 2039335 heartbeat IPC: 3.524 cumulative IPC: 3.433 (Simulation time: 00 hr 00 min 26 sec)
Heartbeat CPU 0 instructions: 7500047 cycles: 2172738 heartbeat IPC: 3.748 cumulative IPC: 3.452 (Simulation time: 00 hr 00 min 28 sec)
Heartbeat CPU 0 instructions: 8000048 cycles: 2286446 heartbeat IPC: 4.397 cumulative IPC: 3.499 (Simulation time: 00 hr 00 min 30 sec)
Heartbeat CPU 0 instructions: 8500053 cycles: 2413494 heartbeat IPC: 3.936 cumulative IPC: 3.522 (Simulation time: 00 hr 00 min 32 sec)
Heartbeat CPU 0 instructions: 9000054 cycles: 2535268 heartbeat IPC: 4.106 cumulative IPC: 3.55 (Simulation time: 00 hr 00 min 33 sec)
Heartbeat CPU 0 instructions: 9500060 cycles: 2673147 heartbeat IPC: 3.626 cumulative IPC: 3.554 (Simulation time: 00 hr 00 min 35 sec)
Heartbeat CPU 0 instructions: 10000066 cycles: 2802988 heartbeat IPC: 3.851 cumulative IPC: 3.568 (Simulation time: 00 hr 00 min 37 sec)
Heartbeat CPU 0 instructions: 10500069 cycles: 2928597 heartbeat IPC: 3.981 cumulative IPC: 3.585 (Simulation time: 00 hr 00 min 39 sec)
Heartbeat CPU 0 instructions: 11000074 cycles: 3058854 heartbeat IPC: 3.839 cumulative IPC: 3.596 (Simulation time: 00 hr 00 min 41 sec)
Heartbeat CPU 0 instructions: 11500079 cycles: 3192758 heartbeat IPC: 3.734 cumulative IPC: 3.602 (Simulation time: 00 hr 00 min 43 sec)
Heartbeat CPU 0 instructions: 12000082 cycles: 3317013 heartbeat IPC: 4.024 cumulative IPC: 3.618 (Simulation time: 00 hr 00 min 45 sec)
Heartbeat CPU 0 instructions: 12500082 cycles: 3427991 heartbeat IPC: 4.505 cumulative IPC: 3.646 (Simulation time: 00 hr 00 min 47 sec)
Heartbeat CPU 0 instructions: 13000085 cycles: 3536815 heartbeat IPC: 4.595 cumulative IPC: 3.676 (Simulation time: 00 hr 00 min 48 sec)
Heartbeat CPU 0 instructions: 13500086 cycles: 3655833 heartbeat IPC: 4.201 cumulative IPC: 3.693 (Simulation time: 00 hr 00 min 50 sec)
Heartbeat CPU 0 instructions: 14000089 cycles: 3776607 heartbeat IPC: 4.14 cumulative IPC: 3.707 (Simulation time: 00 hr 00 min 52 sec)
Heartbeat CPU 0 instructions: 14500093 cycles: 3905662 heartbeat IPC: 3.874 cumulative IPC: 3.713 (Simulation time: 00 hr 00 min 54 sec)
Heartbeat CPU 0 instructions: 15000094 cycles: 4031207 heartbeat IPC: 3.983 cumulative IPC: 3.721 (Simulation time: 00 hr 00 min 56 sec)
Heartbeat CPU 0 instructions: 15500096 cycles: 4162188 heartbeat IPC: 3.817 cumulative IPC: 3.724 (Simulation time: 00 hr 00 min 58 sec)
Heartbeat CPU 0 instructions: 16000099 cycles: 4288717 heartbeat IPC: 3.952 cumulative IPC: 3.731 (Simulation time: 00 hr 00 min 59 sec)
Heartbeat CPU 0 instructions: 16500099 cycles: 4417515 heartbeat IPC: 3.882 cumulative IPC: 3.735 (Simulation time: 00 hr 01 min 01 sec)
Heartbeat CPU 0 instructions: 17000104 cycles: 4545905 heartbeat IPC: 3.894 cumulative IPC: 3.74 (Simulation time: 00 hr 01 min 03 sec)
Heartbeat CPU 0 instructions: 17500108 cycles: 4667560 heartbeat IPC: 4.11 cumulative IPC: 3.749 (Simulation time: 00 hr 01 min 05 sec)
Heartbeat CPU 0 instructions: 18000109 cycles: 4796523 heartbeat IPC: 3.877 cumulative IPC: 3.753 (Simulation time: 00 hr 01 min 07 sec)
Heartbeat CPU 0 instructions: 18500109 cycles: 4928865 heartbeat IPC: 3.778 cumulative IPC: 3.753 (Simulation time: 00 hr 01 min 09 sec)
Heartbeat CPU 0 instructions: 19000112 cycles: 5057433 heartbeat IPC: 3.889 cumulative IPC: 3.757 (Simulation time: 00 hr 01 min 11 sec)
Heartbeat CPU 0 instructions: 19500113 cycles: 5182720 heartbeat IPC: 3.991 cumulative IPC: 3.763 (Simulation time: 00 hr 01 min 12 sec)
Heartbeat CPU 0 instructions: 20000115 cycles: 5308833 heartbeat IPC: 3.965 cumulative IPC: 3.767 (Simulation time: 00 hr 01 min 14 sec)
Heartbeat CPU 0 instructions: 20500116 cycles: 5436280 heartbeat IPC: 3.923 cumulative IPC: 3.771 (Simulation time: 00 hr 01 min 16 sec)
Heartbeat CPU 0 instructions: 21000121 cycles: 5557683 heartbeat IPC: 4.119 cumulative IPC: 3.779 (Simulation time: 00 hr 01 min 18 sec)
Heartbeat CPU 0 instructions: 21500123 cycles: 5681186 heartbeat IPC: 4.049 cumulative IPC: 3.784 (Simulation time: 00 hr 01 min 19 sec)
Heartbeat CPU 0 instructions: 22000125 cycles: 5797150 heartbeat IPC: 4.312 cumulative IPC: 3.795 (Simulation time: 00 hr 01 min 21 sec)
Heartbeat CPU 0 instructions: 22500125 cycles: 5919161 heartbeat IPC: 4.098 cumulative IPC: 3.801 (Simulation time: 00 hr 01 min 23 sec)
Heartbeat CPU 0 instructions: 23000132 cycles: 6037844 heartbeat IPC: 4.213 cumulative IPC: 3.809 (Simulation time: 00 hr 01 min 25 sec)
Heartbeat CPU 0 instructions: 23500132 cycles: 6161421 heartbeat IPC: 4.046 cumulative IPC: 3.814 (Simulation time: 00 hr 01 min 26 sec)
Heartbeat CPU 0 instructions: 24000138 cycles: 6285545 heartbeat IPC: 4.028 cumulative IPC: 3.818 (Simulation time: 00 hr 01 min 28 sec)
Heartbeat CPU 0 instructions: 24500143 cycles: 6403590 heartbeat IPC: 4.236 cumulative IPC: 3.826 (Simulation time: 00 hr 01 min 30 sec)
Heartbeat CPU 0 instructions: 25000146 cycles: 6526624 heartbeat IPC: 4.064 cumulative IPC: 3.83 (Simulation time: 00 hr 01 min 31 sec)
Heartbeat CPU 0 instructions: 25500146 cycles: 6649564 heartbeat IPC: 4.067 cumulative IPC: 3.835 (Simulation time: 00 hr 01 min 33 sec)
Heartbeat CPU 0 instructions: 26000146 cycles: 6771235 heartbeat IPC: 4.109 cumulative IPC: 3.84 (Simulation time: 00 hr 01 min 35 sec)
Heartbeat CPU 0 instructions: 26500149 cycles: 6900073 heartbeat IPC: 3.881 cumulative IPC: 3.841 (Simulation time: 00 hr 01 min 37 sec)
Heartbeat CPU 0 instructions: 27000152 cycles: 7021608 heartbeat IPC: 4.114 cumulative IPC: 3.845 (Simulation time: 00 hr 01 min 39 sec)
Heartbeat CPU 0 instructions: 27500158 cycles: 7143013 heartbeat IPC: 4.118 cumulative IPC: 3.85 (Simulation time: 00 hr 01 min 40 sec)
Heartbeat CPU 0 instructions: 28000162 cycles: 7256347 heartbeat IPC: 4.412 cumulative IPC: 3.859 (Simulation time: 00 hr 01 min 42 sec)
Heartbeat CPU 0 instructions: 28500166 cycles: 7378338 heartbeat IPC: 4.099 cumulative IPC: 3.863 (Simulation time: 00 hr 01 min 44 sec)
Heartbeat CPU 0 instructions: 29000168 cycles: 7505234 heartbeat IPC: 3.94 cumulative IPC: 3.864 (Simulation time: 00 hr 01 min 46 sec)
Heartbeat CPU 0 instructions: 29500173 cycles: 7627683 heartbeat IPC: 4.083 cumulative IPC: 3.868 (Simulation time: 00 hr 01 min 47 sec)
Heartbeat CPU 0 instructions: 30000173 cycles: 7751321 heartbeat IPC: 4.044 cumulative IPC: 3.87 (Simulation time: 00 hr 01 min 49 sec)
Heartbeat CPU 0 instructions: 30500173 cycles: 7871891 heartbeat IPC: 4.147 cumulative IPC: 3.875 (Simulation time: 00 hr 01 min 51 sec)
Heartbeat CPU 0 instructions: 31000175 cycles: 7995227 heartbeat IPC: 4.054 cumulative IPC: 3.877 (Simulation time: 00 hr 01 min 52 sec)
Heartbeat CPU 0 instructions: 31500182 cycles: 8110313 heartbeat IPC: 4.345 cumulative IPC: 3.884 (Simulation time: 00 hr 01 min 54 sec)
Heartbeat CPU 0 instructions: 32000185 cycles: 8230762 heartbeat IPC: 4.151 cumulative IPC: 3.888 (Simulation time: 00 hr 01 min 56 sec)
Heartbeat CPU 0 instructions: 32500191 cycles: 8343115 heartbeat IPC: 4.45 cumulative IPC: 3.895 (Simulation time: 00 hr 01 min 57 sec)
Heartbeat CPU 0 instructions: 33000195 cycles: 8450778 heartbeat IPC: 4.644 cumulative IPC: 3.905 (Simulation time: 00 hr 01 min 59 sec)
Heartbeat CPU 0 instructions: 33500202 cycles: 8559662 heartbeat IPC: 4.592 cumulative IPC: 3.914 (Simulation time: 00 hr 02 min 01 sec)
Heartbeat CPU 0 instructions: 34000204 cycles: 8677801 heartbeat IPC: 4.232 cumulative IPC: 3.918 (Simulation time: 00 hr 02 min 03 sec)
Heartbeat CPU 0 instructions: 34500207 cycles: 8791427 heartbeat IPC: 4.4 cumulative IPC: 3.924 (Simulation time: 00 hr 02 min 04 sec)
Heartbeat CPU 0 instructions: 35000214 cycles: 8909714 heartbeat IPC: 4.227 cumulative IPC: 3.928 (Simulation time: 00 hr 02 min 06 sec)
Heartbeat CPU 0 instructions: 35500215 cycles: 9027408 heartbeat IPC: 4.248 cumulative IPC: 3.932 (Simulation time: 00 hr 02 min 08 sec)
Heartbeat CPU 0 instructions: 36000215 cycles: 9145358 heartbeat IPC: 4.239 cumulative IPC: 3.936 (Simulation time: 00 hr 02 min 09 sec)
Heartbeat CPU 0 instructions: 36500218 cycles: 9261763 heartbeat IPC: 4.295 cumulative IPC: 3.941 (Simulation time: 00 hr 02 min 11 sec)
Heartbeat CPU 0 instructions: 37000222 cycles: 9365722 heartbeat IPC: 4.81 cumulative IPC: 3.951 (Simulation time: 00 hr 02 min 13 sec)
Heartbeat CPU 0 instructions: 37500222 cycles: 9468175 heartbeat IPC: 4.88 cumulative IPC: 3.961 (Simulation time: 00 hr 02 min 14 sec)
Heartbeat CPU 0 instructions: 38000224 cycles: 9578988 heartbeat IPC: 4.512 cumulative IPC: 3.967 (Simulation time: 00 hr 02 min 16 sec)
Heartbeat CPU 0 instructions: 38500229 cycles: 9695011 heartbeat IPC: 4.31 cumulative IPC: 3.971 (Simulation time: 00 hr 02 min 18 sec)
Heartbeat CPU 0 instructions: 39000229 cycles: 9809152 heartbeat IPC: 4.381 cumulative IPC: 3.976 (Simulation time: 00 hr 02 min 19 sec)
Heartbeat CPU 0 instructions: 39500230 cycles: 9921588 heartbeat IPC: 4.447 cumulative IPC: 3.981 (Simulation time: 00 hr 02 min 21 sec)
Heartbeat CPU 0 instructions: 40000231 cycles: 10036108 heartbeat IPC: 4.366 cumulative IPC: 3.986 (Simulation time: 00 hr 02 min 23 sec)
Heartbeat CPU 0 instructions: 40500234 cycles: 10146842 heartbeat IPC: 4.515 cumulative IPC: 3.991 (Simulation time: 00 hr 02 min 24 sec)
Heartbeat CPU 0 instructions: 41000237 cycles: 10257608 heartbeat IPC: 4.514 cumulative IPC: 3.997 (Simulation time: 00 hr 02 min 26 sec)
Heartbeat CPU 0 instructions: 41500243 cycles: 10375663 heartbeat IPC: 4.235 cumulative IPC: 4 (Simulation time: 00 hr 02 min 28 sec)
Heartbeat CPU 0 instructions: 42000244 cycles: 10489238 heartbeat IPC: 4.402 cumulative IPC: 4.004 (Simulation time: 00 hr 02 min 29 sec)
Heartbeat CPU 0 instructions: 42500247 cycles: 10611757 heartbeat IPC: 4.081 cumulative IPC: 4.005 (Simulation time: 00 hr 02 min 31 sec)
Heartbeat CPU 0 instructions: 43000253 cycles: 10716547 heartbeat IPC: 4.772 cumulative IPC: 4.013 (Simulation time: 00 hr 02 min 33 sec)
Heartbeat CPU 0 instructions: 43500259 cycles: 10828395 heartbeat IPC: 4.47 cumulative IPC: 4.017 (Simulation time: 00 hr 02 min 35 sec)
Heartbeat CPU 0 instructions: 44000260 cycles: 10947344 heartbeat IPC: 4.203 cumulative IPC: 4.019 (Simulation time: 00 hr 02 min 36 sec)
Heartbeat CPU 0 instructions: 44500263 cycles: 11066929 heartbeat IPC: 4.181 cumulative IPC: 4.021 (Simulation time: 00 hr 02 min 38 sec)
Heartbeat CPU 0 instructions: 45000267 cycles: 11181863 heartbeat IPC: 4.35 cumulative IPC: 4.024 (Simulation time: 00 hr 02 min 40 sec)
Heartbeat CPU 0 instructions: 45500268 cycles: 11302400 heartbeat IPC: 4.148 cumulative IPC: 4.026 (Simulation time: 00 hr 02 min 41 sec)
Heartbeat CPU 0 instructions: 46000274 cycles: 11430696 heartbeat IPC: 3.897 cumulative IPC: 4.024 (Simulation time: 00 hr 02 min 43 sec)
Heartbeat CPU 0 instructions: 46500275 cycles: 11555246 heartbeat IPC: 4.014 cumulative IPC: 4.024 (Simulation time: 00 hr 02 min 45 sec)
Heartbeat CPU 0 instructions: 47000282 cycles: 11674969 heartbeat IPC: 4.176 cumulative IPC: 4.026 (Simulation time: 00 hr 02 min 47 sec)
Heartbeat CPU 0 instructions: 47500287 cycles: 11799207 heartbeat IPC: 4.025 cumulative IPC: 4.026 (Simulation time: 00 hr 02 min 48 sec)
Heartbeat CPU 0 instructions: 48000289 cycles: 11923202 heartbeat IPC: 4.032 cumulative IPC: 4.026 (Simulation time: 00 hr 02 min 50 sec)
Heartbeat CPU 0 instructions: 48500291 cycles: 12055037 heartbeat IPC: 3.793 cumulative IPC: 4.023 (Simulation time: 00 hr 02 min 52 sec)
Heartbeat CPU 0 instructions: 49000294 cycles: 12182134 heartbeat IPC: 3.934 cumulative IPC: 4.022 (Simulation time: 00 hr 02 min 54 sec)
Heartbeat CPU 0 instructions: 49500299 cycles: 12308126 heartbeat IPC: 3.969 cumulative IPC: 4.022 (Simulation time: 00 hr 02 min 55 sec)
Warmup halting CPU 0 at instruction 50000006 cycle 12428518 for remainder of phase
Warmup finished CPU 0 instructions: 50000006 cycles: 12428518 cumulative IPC: 4.023 (Simulation time: 00 hr 02 min 57 sec)
Warmup complete CPU 0 instructions: 50000006 cycles: 12428518 cumulative IPC: 4.023 (Simulation time: 00 hr 02 min 57 sec)
Heartbeat CPU 0 instructions: 50000302 cycles: 12428555 heartbeat IPC: 4.152 cumulative IPC: 8 (Simulation time: 00 hr 02 min 57 sec)
Heartbeat CPU 0 instructions: 50500303 cycles: 12846563 heartbeat IPC: 1.196 cumulative IPC: 1.197 (Simulation time: 00 hr 03 min 01 sec)
Heartbeat CPU 0 instructions: 51000307 cycles: 13252537 heartbeat IPC: 1.232 cumulative IPC: 1.214 (Simulation time: 00 hr 03 min 06 sec)
Heartbeat CPU 0 instructions: 51500307 cycles: 13608028 heartbeat IPC: 1.407 cumulative IPC: 1.272 (Simulation time: 00 hr 03 min 09 sec)
Heartbeat CPU 0 instructions: 52000309 cycles: 14082774 heartbeat IPC: 1.053 cumulative IPC: 1.209 (Simulation time: 00 hr 03 min 13 sec)
Heartbeat CPU 0 instructions: 52500312 cycles: 14711665 heartbeat IPC: 0.7951 cumulative IPC: 1.095 (Simulation time: 00 hr 03 min 18 sec)
Heartbeat CPU 0 instructions: 53000317 cycles: 15138763 heartbeat IPC: 1.171 cumulative IPC: 1.107 (Simulation time: 00 hr 03 min 22 sec)
Heartbeat CPU 0 instructions: 53500321 cycles: 15503266 heartbeat IPC: 1.372 cumulative IPC: 1.138 (Simulation time: 00 hr 03 min 26 sec)
Heartbeat CPU 0 instructions: 54000321 cycles: 15868151 heartbeat IPC: 1.37 cumulative IPC: 1.163 (Simulation time: 00 hr 03 min 30 sec)
Heartbeat CPU 0 instructions: 54500322 cycles: 16224384 heartbeat IPC: 1.404 cumulative IPC: 1.186 (Simulation time: 00 hr 03 min 34 sec)
Heartbeat CPU 0 instructions: 55000326 cycles: 16545865 heartbeat IPC: 1.555 cumulative IPC: 1.214 (Simulation time: 00 hr 03 min 37 sec)
Heartbeat CPU 0 instructions: 55500328 cycles: 16870073 heartbeat IPC: 1.542 cumulative IPC: 1.238 (Simulation time: 00 hr 03 min 41 sec)
Heartbeat CPU 0 instructions: 56000329 cycles: 17185878 heartbeat IPC: 1.583 cumulative IPC: 1.261 (Simulation time: 00 hr 03 min 44 sec)
Heartbeat CPU 0 instructions: 56500329 cycles: 17495076 heartbeat IPC: 1.617 cumulative IPC: 1.283 (Simulation time: 00 hr 03 min 48 sec)
Heartbeat CPU 0 instructions: 57000329 cycles: 17802731 heartbeat IPC: 1.625 cumulative IPC: 1.303 (Simulation time: 00 hr 03 min 51 sec)
Heartbeat CPU 0 instructions: 57500330 cycles: 18120244 heartbeat IPC: 1.575 cumulative IPC: 1.318 (Simulation time: 00 hr 03 min 55 sec)
Heartbeat CPU 0 instructions: 58000330 cycles: 18409388 heartbeat IPC: 1.729 cumulative IPC: 1.338 (Simulation time: 00 hr 03 min 58 sec)
Heartbeat CPU 0 instructions: 58500330 cycles: 18945916 heartbeat IPC: 0.9319 cumulative IPC: 1.304 (Simulation time: 00 hr 04 min 03 sec)
Heartbeat CPU 0 instructions: 59000330 cycles: 19415395 heartbeat IPC: 1.065 cumulative IPC: 1.288 (Simulation time: 00 hr 04 min 07 sec)
Heartbeat CPU 0 instructions: 59500330 cycles: 19890981 heartbeat IPC: 1.051 cumulative IPC: 1.273 (Simulation time: 00 hr 04 min 12 sec)
Heartbeat CPU 0 instructions: 60000333 cycles: 20422567 heartbeat IPC: 0.9406 cumulative IPC: 1.251 (Simulation time: 00 hr 04 min 16 sec)
Heartbeat CPU 0 instructions: 60500333 cycles: 20948833 heartbeat IPC: 0.9501 cumulative IPC: 1.232 (Simulation time: 00 hr 04 min 20 sec)
Heartbeat CPU 0 instructions: 61000335 cycles: 21429081 heartbeat IPC: 1.041 cumulative IPC: 1.222 (Simulation time: 00 hr 04 min 25 sec)
Heartbeat CPU 0 instructions: 61500337 cycles: 21967385 heartbeat IPC: 0.9288 cumulative IPC: 1.206 (Simulation time: 00 hr 04 min 29 sec)
Heartbeat CPU 0 instructions: 62000338 cycles: 22396748 heartbeat IPC: 1.165 cumulative IPC: 1.204 (Simulation time: 00 hr 04 min 33 sec)
Heartbeat CPU 0 instructions: 62500343 cycles: 22829475 heartbeat IPC: 1.155 cumulative IPC: 1.202 (Simulation time: 00 hr 04 min 37 sec)
Heartbeat CPU 0 instructions: 63000350 cycles: 23327391 heartbeat IPC: 1.004 cumulative IPC: 1.193 (Simulation time: 00 hr 04 min 42 sec)
Heartbeat CPU 0 instructions: 63500350 cycles: 23929924 heartbeat IPC: 0.8298 cumulative IPC: 1.174 (Simulation time: 00 hr 04 min 47 sec)
Heartbeat CPU 0 instructions: 64000357 cycles: 24463522 heartbeat IPC: 0.937 cumulative IPC: 1.163 (Simulation time: 00 hr 04 min 51 sec)
Heartbeat CPU 0 instructions: 64500357 cycles: 25069770 heartbeat IPC: 0.8247 cumulative IPC: 1.147 (Simulation time: 00 hr 04 min 56 sec)
Heartbeat CPU 0 instructions: 65000358 cycles: 25590788 heartbeat IPC: 0.9597 cumulative IPC: 1.14 (Simulation time: 00 hr 05 min 00 sec)
Heartbeat CPU 0 instructions: 65500360 cycles: 26045467 heartbeat IPC: 1.1 cumulative IPC: 1.138 (Simulation time: 00 hr 05 min 04 sec)
Heartbeat CPU 0 instructions: 66000360 cycles: 26417431 heartbeat IPC: 1.344 cumulative IPC: 1.144 (Simulation time: 00 hr 05 min 08 sec)
Heartbeat CPU 0 instructions: 66500361 cycles: 26929617 heartbeat IPC: 0.9762 cumulative IPC: 1.138 (Simulation time: 00 hr 05 min 12 sec)
Heartbeat CPU 0 instructions: 67000361 cycles: 27594969 heartbeat IPC: 0.7515 cumulative IPC: 1.121 (Simulation time: 00 hr 05 min 18 sec)
Heartbeat CPU 0 instructions: 67500365 cycles: 28194814 heartbeat IPC: 0.8336 cumulative IPC: 1.11 (Simulation time: 00 hr 05 min 24 sec)
Heartbeat CPU 0 instructions: 68000365 cycles: 28718287 heartbeat IPC: 0.9552 cumulative IPC: 1.105 (Simulation time: 00 hr 05 min 28 sec)
Heartbeat CPU 0 instructions: 68500370 cycles: 29149478 heartbeat IPC: 1.16 cumulative IPC: 1.106 (Simulation time: 00 hr 05 min 32 sec)
Heartbeat CPU 0 instructions: 69000371 cycles: 29650927 heartbeat IPC: 0.9971 cumulative IPC: 1.103 (Simulation time: 00 hr 05 min 36 sec)
Heartbeat CPU 0 instructions: 69500373 cycles: 30251065 heartbeat IPC: 0.8331 cumulative IPC: 1.094 (Simulation time: 00 hr 05 min 41 sec)
Heartbeat CPU 0 instructions: 70000373 cycles: 30811096 heartbeat IPC: 0.8928 cumulative IPC: 1.088 (Simulation time: 00 hr 05 min 46 sec)
Heartbeat CPU 0 instructions: 70500380 cycles: 31332242 heartbeat IPC: 0.9594 cumulative IPC: 1.084 (Simulation time: 00 hr 05 min 50 sec)
Heartbeat CPU 0 instructions: 71000382 cycles: 31785235 heartbeat IPC: 1.104 cumulative IPC: 1.085 (Simulation time: 00 hr 05 min 53 sec)
Heartbeat CPU 0 instructions: 71500383 cycles: 32238124 heartbeat IPC: 1.104 cumulative IPC: 1.085 (Simulation time: 00 hr 05 min 57 sec)
Heartbeat CPU 0 instructions: 72000383 cycles: 32630384 heartbeat IPC: 1.275 cumulative IPC: 1.089 (Simulation time: 00 hr 06 min 00 sec)
Heartbeat CPU 0 instructions: 72500384 cycles: 33009465 heartbeat IPC: 1.319 cumulative IPC: 1.093 (Simulation time: 00 hr 06 min 04 sec)
Heartbeat CPU 0 instructions: 73000387 cycles: 33337454 heartbeat IPC: 1.524 cumulative IPC: 1.1 (Simulation time: 00 hr 06 min 07 sec)
Heartbeat CPU 0 instructions: 73500391 cycles: 33826167 heartbeat IPC: 1.023 cumulative IPC: 1.098 (Simulation time: 00 hr 06 min 11 sec)
Heartbeat CPU 0 instructions: 74000392 cycles: 34244955 heartbeat IPC: 1.194 cumulative IPC: 1.1 (Simulation time: 00 hr 06 min 14 sec)
Heartbeat CPU 0 instructions: 74500398 cycles: 34643864 heartbeat IPC: 1.253 cumulative IPC: 1.103 (Simulation time: 00 hr 06 min 18 sec)
Heartbeat CPU 0 instructions: 75000400 cycles: 35195141 heartbeat IPC: 0.907 cumulative IPC: 1.098 (Simulation time: 00 hr 06 min 23 sec)
Heartbeat CPU 0 instructions: 75500403 cycles: 35608907 heartbeat IPC: 1.208 cumulative IPC: 1.1 (Simulation time: 00 hr 06 min 27 sec)
Heartbeat CPU 0 instructions: 76000404 cycles: 36143009 heartbeat IPC: 0.9362 cumulative IPC: 1.096 (Simulation time: 00 hr 06 min 32 sec)
Heartbeat CPU 0 instructions: 76500404 cycles: 36666650 heartbeat IPC: 0.9549 cumulative IPC: 1.093 (Simulation time: 00 hr 06 min 36 sec)
Heartbeat CPU 0 instructions: 77000404 cycles: 37136927 heartbeat IPC: 1.063 cumulative IPC: 1.093 (Simulation time: 00 hr 06 min 39 sec)
Heartbeat CPU 0 instructions: 77500408 cycles: 37572273 heartbeat IPC: 1.149 cumulative IPC: 1.094 (Simulation time: 00 hr 06 min 43 sec)
Heartbeat CPU 0 instructions: 78000411 cycles: 38027923 heartbeat IPC: 1.097 cumulative IPC: 1.094 (Simulation time: 00 hr 06 min 47 sec)
Heartbeat CPU 0 instructions: 78500415 cycles: 38610812 heartbeat IPC: 0.8578 cumulative IPC: 1.089 (Simulation time: 00 hr 06 min 51 sec)
Heartbeat CPU 0 instructions: 79000416 cycles: 39078588 heartbeat IPC: 1.069 cumulative IPC: 1.088 (Simulation time: 00 hr 06 min 55 sec)
Heartbeat CPU 0 instructions: 79500417 cycles: 39507578 heartbeat IPC: 1.166 cumulative IPC: 1.089 (Simulation time: 00 hr 06 min 59 sec)
Heartbeat CPU 0 instructions: 80000422 cycles: 39945615 heartbeat IPC: 1.141 cumulative IPC: 1.09 (Simulation time: 00 hr 07 min 04 sec)
Heartbeat CPU 0 instructions: 80500422 cycles: 40292463 heartbeat IPC: 1.442 cumulative IPC: 1.095 (Simulation time: 00 hr 07 min 07 sec)
Heartbeat CPU 0 instructions: 81000423 cycles: 40773972 heartbeat IPC: 1.038 cumulative IPC: 1.094 (Simulation time: 00 hr 07 min 11 sec)
Heartbeat CPU 0 instructions: 81500426 cycles: 41266293 heartbeat IPC: 1.016 cumulative IPC: 1.092 (Simulation time: 00 hr 07 min 16 sec)
Heartbeat CPU 0 instructions: 82000428 cycles: 41782912 heartbeat IPC: 0.9678 cumulative IPC: 1.09 (Simulation time: 00 hr 07 min 20 sec)
Heartbeat CPU 0 instructions: 82500428 cycles: 42271577 heartbeat IPC: 1.023 cumulative IPC: 1.089 (Simulation time: 00 hr 07 min 24 sec)
Heartbeat CPU 0 instructions: 83000429 cycles: 42757021 heartbeat IPC: 1.03 cumulative IPC: 1.088 (Simulation time: 00 hr 07 min 28 sec)
Heartbeat CPU 0 instructions: 83500434 cycles: 43171892 heartbeat IPC: 1.205 cumulative IPC: 1.09 (Simulation time: 00 hr 07 min 32 sec)
Heartbeat CPU 0 instructions: 84000436 cycles: 43718278 heartbeat IPC: 0.9151 cumulative IPC: 1.087 (Simulation time: 00 hr 07 min 36 sec)
Heartbeat CPU 0 instructions: 84500437 cycles: 44249185 heartbeat IPC: 0.9418 cumulative IPC: 1.084 (Simulation time: 00 hr 07 min 41 sec)
Heartbeat CPU 0 instructions: 85000438 cycles: 44738939 heartbeat IPC: 1.021 cumulative IPC: 1.083 (Simulation time: 00 hr 07 min 45 sec)
Heartbeat CPU 0 instructions: 85500444 cycles: 45229285 heartbeat IPC: 1.02 cumulative IPC: 1.082 (Simulation time: 00 hr 07 min 49 sec)
Heartbeat CPU 0 instructions: 86000444 cycles: 45747768 heartbeat IPC: 0.9644 cumulative IPC: 1.08 (Simulation time: 00 hr 07 min 53 sec)
Heartbeat CPU 0 instructions: 86500449 cycles: 46158498 heartbeat IPC: 1.217 cumulative IPC: 1.082 (Simulation time: 00 hr 07 min 57 sec)
Heartbeat CPU 0 instructions: 87000450 cycles: 46579481 heartbeat IPC: 1.188 cumulative IPC: 1.083 (Simulation time: 00 hr 08 min 01 sec)
Heartbeat CPU 0 instructions: 87500450 cycles: 47165408 heartbeat IPC: 0.8533 cumulative IPC: 1.08 (Simulation time: 00 hr 08 min 06 sec)
Heartbeat CPU 0 instructions: 88000450 cycles: 47661709 heartbeat IPC: 1.007 cumulative IPC: 1.079 (Simulation time: 00 hr 08 min 10 sec)
Heartbeat CPU 0 instructions: 88500454 cycles: 48170375 heartbeat IPC: 0.983 cumulative IPC: 1.077 (Simulation time: 00 hr 08 min 15 sec)
Heartbeat CPU 0 instructions: 89000457 cycles: 48594791 heartbeat IPC: 1.178 cumulative IPC: 1.078 (Simulation time: 00 hr 08 min 19 sec)
Heartbeat CPU 0 instructions: 89500458 cycles: 49007969 heartbeat IPC: 1.21 cumulative IPC: 1.08 (Simulation time: 00 hr 08 min 23 sec)
Heartbeat CPU 0 instructions: 90000459 cycles: 49386042 heartbeat IPC: 1.322 cumulative IPC: 1.082 (Simulation time: 00 hr 08 min 27 sec)
Heartbeat CPU 0 instructions: 90500463 cycles: 49814733 heartbeat IPC: 1.166 cumulative IPC: 1.083 (Simulation time: 00 hr 08 min 31 sec)
Heartbeat CPU 0 instructions: 91000465 cycles: 50327968 heartbeat IPC: 0.9742 cumulative IPC: 1.082 (Simulation time: 00 hr 08 min 35 sec)
Heartbeat CPU 0 instructions: 91500467 cycles: 50843635 heartbeat IPC: 0.9696 cumulative IPC: 1.08 (Simulation time: 00 hr 08 min 39 sec)
Heartbeat CPU 0 instructions: 92000468 cycles: 51307589 heartbeat IPC: 1.078 cumulative IPC: 1.08 (Simulation time: 00 hr 08 min 43 sec)
Heartbeat CPU 0 instructions: 92500468 cycles: 51809229 heartbeat IPC: 0.9967 cumulative IPC: 1.079 (Simulation time: 00 hr 08 min 47 sec)
Heartbeat CPU 0 instructions: 93000469 cycles: 52294316 heartbeat IPC: 1.031 cumulative IPC: 1.079 (Simulation time: 00 hr 08 min 51 sec)
Heartbeat CPU 0 instructions: 93500470 cycles: 52688930 heartbeat IPC: 1.267 cumulative IPC: 1.08 (Simulation time: 00 hr 08 min 55 sec)
Heartbeat CPU 0 instructions: 94000473 cycles: 53115780 heartbeat IPC: 1.171 cumulative IPC: 1.081 (Simulation time: 00 hr 08 min 59 sec)
Heartbeat CPU 0 instructions: 94500474 cycles: 53573408 heartbeat IPC: 1.093 cumulative IPC: 1.082 (Simulation time: 00 hr 09 min 03 sec)
Heartbeat CPU 0 instructions: 95000477 cycles: 54035391 heartbeat IPC: 1.082 cumulative IPC: 1.082 (Simulation time: 00 hr 09 min 07 sec)
Heartbeat CPU 0 instructions: 95500478 cycles: 54539075 heartbeat IPC: 0.9927 cumulative IPC: 1.081 (Simulation time: 00 hr 09 min 12 sec)
Heartbeat CPU 0 instructions: 96000484 cycles: 55098892 heartbeat IPC: 0.8932 cumulative IPC: 1.078 (Simulation time: 00 hr 09 min 17 sec)
Heartbeat CPU 0 instructions: 96500485 cycles: 55590348 heartbeat IPC: 1.017 cumulative IPC: 1.077 (Simulation time: 00 hr 09 min 21 sec)
Heartbeat CPU 0 instructions: 97000489 cycles: 56222922 heartbeat IPC: 0.7904 cumulative IPC: 1.073 (Simulation time: 00 hr 09 min 26 sec)
Heartbeat CPU 0 instructions: 97500490 cycles: 56693730 heartbeat IPC: 1.062 cumulative IPC: 1.073 (Simulation time: 00 hr 09 min 30 sec)
Heartbeat CPU 0 instructions: 98000494 cycles: 57142396 heartbeat IPC: 1.114 cumulative IPC: 1.074 (Simulation time: 00 hr 09 min 34 sec)
Heartbeat CPU 0 instructions: 98500494 cycles: 57765592 heartbeat IPC: 0.8023 cumulative IPC: 1.07 (Simulation time: 00 hr 09 min 39 sec)
Heartbeat CPU 0 instructions: 99000495 cycles: 58232419 heartbeat IPC: 1.071 cumulative IPC: 1.07 (Simulation time: 00 hr 09 min 43 sec)
Heartbeat CPU 0 instructions: 99500495 cycles: 58686055 heartbeat IPC: 1.102 cumulative IPC: 1.07 (Simulation time: 00 hr 09 min 47 sec)
Heartbeat CPU 0 instructions: 100000497 cycles: 59121598 heartbeat IPC: 1.148 cumulative IPC: 1.071 (Simulation time: 00 hr 09 min 52 sec)
Heartbeat CPU 0 instructions: 100500499 cycles: 59653641 heartbeat IPC: 0.9398 cumulative IPC: 1.069 (Simulation time: 00 hr 09 min 57 sec)
Heartbeat CPU 0 instructions: 101000500 cycles: 60050976 heartbeat IPC: 1.258 cumulative IPC: 1.071 (Simulation time: 00 hr 10 min 02 sec)
Heartbeat CPU 0 instructions: 101500506 cycles: 60521590 heartbeat IPC: 1.062 cumulative IPC: 1.071 (Simulation time: 00 hr 10 min 07 sec)
Heartbeat CPU 0 instructions: 102000509 cycles: 60903671 heartbeat IPC: 1.309 cumulative IPC: 1.073 (Simulation time: 00 hr 10 min 11 sec)
Heartbeat CPU 0 instructions: 102500512 cycles: 61254714 heartbeat IPC: 1.424 cumulative IPC: 1.075 (Simulation time: 00 hr 10 min 15 sec)
Heartbeat CPU 0 instructions: 103000512 cycles: 61571170 heartbeat IPC: 1.58 cumulative IPC: 1.079 (Simulation time: 00 hr 10 min 19 sec)
Heartbeat CPU 0 instructions: 103500512 cycles: 62053590 heartbeat IPC: 1.036 cumulative IPC: 1.078 (Simulation time: 00 hr 10 min 24 sec)
Heartbeat CPU 0 instructions: 104000512 cycles: 62666695 heartbeat IPC: 0.8155 cumulative IPC: 1.075 (Simulation time: 00 hr 10 min 30 sec)
Heartbeat CPU 0 instructions: 104500512 cycles: 63197317 heartbeat IPC: 0.9423 cumulative IPC: 1.074 (Simulation time: 00 hr 10 min 35 sec)
Heartbeat CPU 0 instructions: 105000517 cycles: 63767661 heartbeat IPC: 0.8767 cumulative IPC: 1.071 (Simulation time: 00 hr 10 min 40 sec)
Heartbeat CPU 0 instructions: 105500521 cycles: 64296669 heartbeat IPC: 0.9452 cumulative IPC: 1.07 (Simulation time: 00 hr 10 min 45 sec)
Heartbeat CPU 0 instructions: 106000523 cycles: 64758763 heartbeat IPC: 1.082 cumulative IPC: 1.07 (Simulation time: 00 hr 10 min 49 sec)
Heartbeat CPU 0 instructions: 106500524 cycles: 65340978 heartbeat IPC: 0.8588 cumulative IPC: 1.068 (Simulation time: 00 hr 10 min 55 sec)
Heartbeat CPU 0 instructions: 107000526 cycles: 65792182 heartbeat IPC: 1.108 cumulative IPC: 1.068 (Simulation time: 00 hr 10 min 59 sec)
Heartbeat CPU 0 instructions: 107500526 cycles: 66272773 heartbeat IPC: 1.04 cumulative IPC: 1.068 (Simulation time: 00 hr 11 min 04 sec)
Heartbeat CPU 0 instructions: 108000531 cycles: 66689949 heartbeat IPC: 1.199 cumulative IPC: 1.069 (Simulation time: 00 hr 11 min 08 sec)
Heartbeat CPU 0 instructions: 108500531 cycles: 67216065 heartbeat IPC: 0.9504 cumulative IPC: 1.068 (Simulation time: 00 hr 11 min 13 sec)
Heartbeat CPU 0 instructions: 109000531 cycles: 67780387 heartbeat IPC: 0.886 cumulative IPC: 1.066 (Simulation time: 00 hr 11 min 18 sec)
Heartbeat CPU 0 instructions: 109500532 cycles: 68252637 heartbeat IPC: 1.059 cumulative IPC: 1.066 (Simulation time: 00 hr 11 min 22 sec)
Heartbeat CPU 0 instructions: 110000533 cycles: 68676436 heartbeat IPC: 1.18 cumulative IPC: 1.067 (Simulation time: 00 hr 11 min 26 sec)
Heartbeat CPU 0 instructions: 110500534 cycles: 69109769 heartbeat IPC: 1.154 cumulative IPC: 1.067 (Simulation time: 00 hr 11 min 31 sec)
Heartbeat CPU 0 instructions: 111000534 cycles: 69610345 heartbeat IPC: 0.9988 cumulative IPC: 1.067 (Simulation time: 00 hr 11 min 35 sec)
Heartbeat CPU 0 instructions: 111500535 cycles: 70039380 heartbeat IPC: 1.165 cumulative IPC: 1.068 (Simulation time: 00 hr 11 min 39 sec)
Heartbeat CPU 0 instructions: 112000537 cycles: 70533788 heartbeat IPC: 1.011 cumulative IPC: 1.067 (Simulation time: 00 hr 11 min 44 sec)
Heartbeat CPU 0 instructions: 112500540 cycles: 70971550 heartbeat IPC: 1.142 cumulative IPC: 1.068 (Simulation time: 00 hr 11 min 48 sec)
Heartbeat CPU 0 instructions: 113000541 cycles: 71421161 heartbeat IPC: 1.112 cumulative IPC: 1.068 (Simulation time: 00 hr 11 min 52 sec)
Heartbeat CPU 0 instructions: 113500541 cycles: 71815243 heartbeat IPC: 1.269 cumulative IPC: 1.069 (Simulation time: 00 hr 11 min 56 sec)
Heartbeat CPU 0 instructions: 114000545 cycles: 72217089 heartbeat IPC: 1.244 cumulative IPC: 1.07 (Simulation time: 00 hr 12 min 00 sec)
Heartbeat CPU 0 instructions: 114500545 cycles: 72574526 heartbeat IPC: 1.399 cumulative IPC: 1.072 (Simulation time: 00 hr 12 min 05 sec)
Heartbeat CPU 0 instructions: 115000547 cycles: 72901527 heartbeat IPC: 1.529 cumulative IPC: 1.075 (Simulation time: 00 hr 12 min 08 sec)
Heartbeat CPU 0 instructions: 115500547 cycles: 73295646 heartbeat IPC: 1.269 cumulative IPC: 1.076 (Simulation time: 00 hr 12 min 13 sec)
Heartbeat CPU 0 instructions: 116000548 cycles: 73837891 heartbeat IPC: 0.9221 cumulative IPC: 1.075 (Simulation time: 00 hr 12 min 18 sec)
Heartbeat CPU 0 instructions: 116500548 cycles: 74321262 heartbeat IPC: 1.034 cumulative IPC: 1.074 (Simulation time: 00 hr 12 min 23 sec)
Heartbeat CPU 0 instructions: 117000551 cycles: 74774014 heartbeat IPC: 1.104 cumulative IPC: 1.075 (Simulation time: 00 hr 12 min 28 sec)
Heartbeat CPU 0 instructions: 117500551 cycles: 75304181 heartbeat IPC: 0.9431 cumulative IPC: 1.074 (Simulation time: 00 hr 12 min 33 sec)
Heartbeat CPU 0 instructions: 118000552 cycles: 75825098 heartbeat IPC: 0.9598 cumulative IPC: 1.073 (Simulation time: 00 hr 12 min 38 sec)
Heartbeat CPU 0 instructions: 118500558 cycles: 76279159 heartbeat IPC: 1.101 cumulative IPC: 1.073 (Simulation time: 00 hr 12 min 42 sec)
Heartbeat CPU 0 instructions: 119000559 cycles: 76882307 heartbeat IPC: 0.829 cumulative IPC: 1.071 (Simulation time: 00 hr 12 min 48 sec)
Heartbeat CPU 0 instructions: 119500559 cycles: 77298011 heartbeat IPC: 1.203 cumulative IPC: 1.071 (Simulation time: 00 hr 12 min 52 sec)
Heartbeat CPU 0 instructions: 120000559 cycles: 77837404 heartbeat IPC: 0.927 cumulative IPC: 1.07 (Simulation time: 00 hr 12 min 58 sec)
Heartbeat CPU 0 instructions: 120500561 cycles: 78279698 heartbeat IPC: 1.13 cumulative IPC: 1.071 (Simulation time: 00 hr 13 min 02 sec)
Heartbeat CPU 0 instructions: 121000563 cycles: 78774607 heartbeat IPC: 1.01 cumulative IPC: 1.07 (Simulation time: 00 hr 13 min 07 sec)
Heartbeat CPU 0 instructions: 121500566 cycles: 79223299 heartbeat IPC: 1.114 cumulative IPC: 1.07 (Simulation time: 00 hr 13 min 11 sec)
Heartbeat CPU 0 instructions: 122000567 cycles: 79596310 heartbeat IPC: 1.34 cumulative IPC: 1.072 (Simulation time: 00 hr 13 min 15 sec)
Heartbeat CPU 0 instructions: 122500569 cycles: 79952284 heartbeat IPC: 1.405 cumulative IPC: 1.074 (Simulation time: 00 hr 13 min 19 sec)
Heartbeat CPU 0 instructions: 123000569 cycles: 80473328 heartbeat IPC: 0.9596 cumulative IPC: 1.073 (Simulation time: 00 hr 13 min 24 sec)
Heartbeat CPU 0 instructions: 123500569 cycles: 80946478 heartbeat IPC: 1.057 cumulative IPC: 1.073 (Simulation time: 00 hr 13 min 28 sec)
Heartbeat CPU 0 instructions: 124000572 cycles: 81408680 heartbeat IPC: 1.082 cumulative IPC: 1.073 (Simulation time: 00 hr 13 min 32 sec)
Heartbeat CPU 0 instructions: 124500573 cycles: 81797930 heartbeat IPC: 1.285 cumulative IPC: 1.074 (Simulation time: 00 hr 13 min 36 sec)
Heartbeat CPU 0 instructions: 125000573 cycles: 82251247 heartbeat IPC: 1.103 cumulative IPC: 1.074 (Simulation time: 00 hr 13 min 41 sec)
Heartbeat CPU 0 instructions: 125500574 cycles: 82654040 heartbeat IPC: 1.241 cumulative IPC: 1.075 (Simulation time: 00 hr 13 min 44 sec)
Heartbeat CPU 0 instructions: 126000580 cycles: 83073644 heartbeat IPC: 1.192 cumulative IPC: 1.076 (Simulation time: 00 hr 13 min 49 sec)
Heartbeat CPU 0 instructions: 126500581 cycles: 83516798 heartbeat IPC: 1.128 cumulative IPC: 1.076 (Simulation time: 00 hr 13 min 53 sec)
Heartbeat CPU 0 instructions: 127000581 cycles: 83898509 heartbeat IPC: 1.31 cumulative IPC: 1.077 (Simulation time: 00 hr 13 min 57 sec)
Heartbeat CPU 0 instructions: 127500581 cycles: 84291765 heartbeat IPC: 1.271 cumulative IPC: 1.078 (Simulation time: 00 hr 14 min 01 sec)
Heartbeat CPU 0 instructions: 128000585 cycles: 84736909 heartbeat IPC: 1.123 cumulative IPC: 1.079 (Simulation time: 00 hr 14 min 05 sec)
Heartbeat CPU 0 instructions: 128500587 cycles: 85288969 heartbeat IPC: 0.9057 cumulative IPC: 1.077 (Simulation time: 00 hr 14 min 11 sec)
Heartbeat CPU 0 instructions: 129000587 cycles: 85825419 heartbeat IPC: 0.9321 cumulative IPC: 1.076 (Simulation time: 00 hr 14 min 16 sec)
Heartbeat CPU 0 instructions: 129500593 cycles: 86259990 heartbeat IPC: 1.151 cumulative IPC: 1.077 (Simulation time: 00 hr 14 min 20 sec)
Heartbeat CPU 0 instructions: 130000597 cycles: 86699306 heartbeat IPC: 1.138 cumulative IPC: 1.077 (Simulation time: 00 hr 14 min 24 sec)
Heartbeat CPU 0 instructions: 130500600 cycles: 87116367 heartbeat IPC: 1.199 cumulative IPC: 1.078 (Simulation time: 00 hr 14 min 28 sec)
Heartbeat CPU 0 instructions: 131000600 cycles: 87559546 heartbeat IPC: 1.128 cumulative IPC: 1.078 (Simulation time: 00 hr 14 min 33 sec)
Heartbeat CPU 0 instructions: 131500602 cycles: 88027350 heartbeat IPC: 1.069 cumulative IPC: 1.078 (Simulation time: 00 hr 14 min 37 sec)
Heartbeat CPU 0 instructions: 132000602 cycles: 88522221 heartbeat IPC: 1.01 cumulative IPC: 1.078 (Simulation time: 00 hr 14 min 43 sec)
Heartbeat CPU 0 instructions: 132500605 cycles: 88973676 heartbeat IPC: 1.108 cumulative IPC: 1.078 (Simulation time: 00 hr 14 min 47 sec)
Heartbeat CPU 0 instructions: 133000611 cycles: 89521658 heartbeat IPC: 0.9124 cumulative IPC: 1.077 (Simulation time: 00 hr 14 min 52 sec)
Heartbeat CPU 0 instructions: 133500614 cycles: 89967212 heartbeat IPC: 1.122 cumulative IPC: 1.077 (Simulation time: 00 hr 14 min 56 sec)
Heartbeat CPU 0 instructions: 134000618 cycles: 90396500 heartbeat IPC: 1.165 cumulative IPC: 1.077 (Simulation time: 00 hr 15 min 00 sec)
Heartbeat CPU 0 instructions: 134500624 cycles: 90869743 heartbeat IPC: 1.057 cumulative IPC: 1.077 (Simulation time: 00 hr 15 min 05 sec)
Heartbeat CPU 0 instructions: 135000630 cycles: 91308375 heartbeat IPC: 1.14 cumulative IPC: 1.078 (Simulation time: 00 hr 15 min 09 sec)
Heartbeat CPU 0 instructions: 135500630 cycles: 91820008 heartbeat IPC: 0.9773 cumulative IPC: 1.077 (Simulation time: 00 hr 15 min 14 sec)
Heartbeat CPU 0 instructions: 136000632 cycles: 92254667 heartbeat IPC: 1.15 cumulative IPC: 1.077 (Simulation time: 00 hr 15 min 18 sec)
Heartbeat CPU 0 instructions: 136500632 cycles: 92779298 heartbeat IPC: 0.9531 cumulative IPC: 1.077 (Simulation time: 00 hr 15 min 23 sec)
Heartbeat CPU 0 instructions: 137000632 cycles: 93276439 heartbeat IPC: 1.006 cumulative IPC: 1.076 (Simulation time: 00 hr 15 min 27 sec)
Heartbeat CPU 0 instructions: 137500634 cycles: 93765444 heartbeat IPC: 1.022 cumulative IPC: 1.076 (Simulation time: 00 hr 15 min 32 sec)
Heartbeat CPU 0 instructions: 138000634 cycles: 94297734 heartbeat IPC: 0.9393 cumulative IPC: 1.075 (Simulation time: 00 hr 15 min 37 sec)
Heartbeat CPU 0 instructions: 138500634 cycles: 94792824 heartbeat IPC: 1.01 cumulative IPC: 1.075 (Simulation time: 00 hr 15 min 41 sec)
Heartbeat CPU 0 instructions: 139000634 cycles: 95232451 heartbeat IPC: 1.137 cumulative IPC: 1.075 (Simulation time: 00 hr 15 min 45 sec)
Heartbeat CPU 0 instructions: 139500636 cycles: 95654145 heartbeat IPC: 1.186 cumulative IPC: 1.075 (Simulation time: 00 hr 15 min 49 sec)
Heartbeat CPU 0 instructions: 140000637 cycles: 96091183 heartbeat IPC: 1.144 cumulative IPC: 1.076 (Simulation time: 00 hr 15 min 53 sec)
Heartbeat CPU 0 instructions: 140500637 cycles: 96639644 heartbeat IPC: 0.9116 cumulative IPC: 1.075 (Simulation time: 00 hr 15 min 58 sec)
Heartbeat CPU 0 instructions: 141000644 cycles: 97168370 heartbeat IPC: 0.9457 cumulative IPC: 1.074 (Simulation time: 00 hr 16 min 03 sec)
Heartbeat CPU 0 instructions: 141500646 cycles: 97632120 heartbeat IPC: 1.078 cumulative IPC: 1.074 (Simulation time: 00 hr 16 min 08 sec)
Heartbeat CPU 0 instructions: 142000648 cycles: 98096131 heartbeat IPC: 1.078 cumulative IPC: 1.074 (Simulation time: 00 hr 16 min 12 sec)
Heartbeat CPU 0 instructions: 142500648 cycles: 98643468 heartbeat IPC: 0.9135 cumulative IPC: 1.073 (Simulation time: 00 hr 16 min 17 sec)
Heartbeat CPU 0 instructions: 143000651 cycles: 99022815 heartbeat IPC: 1.318 cumulative IPC: 1.074 (Simulation time: 00 hr 16 min 21 sec)
Heartbeat CPU 0 instructions: 143500652 cycles: 99566090 heartbeat IPC: 0.9203 cumulative IPC: 1.073 (Simulation time: 00 hr 16 min 26 sec)
Heartbeat CPU 0 instructions: 144000653 cycles: 100064192 heartbeat IPC: 1.004 cumulative IPC: 1.073 (Simulation time: 00 hr 16 min 31 sec)
Heartbeat CPU 0 instructions: 144500658 cycles: 100493520 heartbeat IPC: 1.165 cumulative IPC: 1.073 (Simulation time: 00 hr 16 min 36 sec)
Heartbeat CPU 0 instructions: 145000659 cycles: 100965903 heartbeat IPC: 1.058 cumulative IPC: 1.073 (Simulation time: 00 hr 16 min 40 sec)
Heartbeat CPU 0 instructions: 145500662 cycles: 101441030 heartbeat IPC: 1.052 cumulative IPC: 1.073 (Simulation time: 00 hr 16 min 45 sec)
Heartbeat CPU 0 instructions: 146000666 cycles: 101884638 heartbeat IPC: 1.127 cumulative IPC: 1.073 (Simulation time: 00 hr 16 min 50 sec)
Heartbeat CPU 0 instructions: 146500672 cycles: 102400229 heartbeat IPC: 0.9698 cumulative IPC: 1.073 (Simulation time: 00 hr 16 min 55 sec)
Heartbeat CPU 0 instructions: 147000672 cycles: 102888279 heartbeat IPC: 1.024 cumulative IPC: 1.072 (Simulation time: 00 hr 17 min 00 sec)
Heartbeat CPU 0 instructions: 147500678 cycles: 103433386 heartbeat IPC: 0.9173 cumulative IPC: 1.071 (Simulation time: 00 hr 17 min 05 sec)
Heartbeat CPU 0 instructions: 148000680 cycles: 103896320 heartbeat IPC: 1.08 cumulative IPC: 1.071 (Simulation time: 00 hr 17 min 10 sec)
Heartbeat CPU 0 instructions: 148500681 cycles: 104426699 heartbeat IPC: 0.9427 cumulative IPC: 1.071 (Simulation time: 00 hr 17 min 15 sec)
Heartbeat CPU 0 instructions: 149000684 cycles: 104961168 heartbeat IPC: 0.9355 cumulative IPC: 1.07 (Simulation time: 00 hr 17 min 20 sec)
Heartbeat CPU 0 instructions: 149500684 cycles: 105518346 heartbeat IPC: 0.8974 cumulative IPC: 1.069 (Simulation time: 00 hr 17 min 25 sec)
Heartbeat CPU 0 instructions: 150000684 cycles: 105995887 heartbeat IPC: 1.047 cumulative IPC: 1.069 (Simulation time: 00 hr 17 min 30 sec)
Heartbeat CPU 0 instructions: 150500687 cycles: 106369032 heartbeat IPC: 1.34 cumulative IPC: 1.07 (Simulation time: 00 hr 17 min 34 sec)
Heartbeat CPU 0 instructions: 151000689 cycles: 106872142 heartbeat IPC: 0.9938 cumulative IPC: 1.069 (Simulation time: 00 hr 17 min 39 sec)
Heartbeat CPU 0 instructions: 151500689 cycles: 107333883 heartbeat IPC: 1.083 cumulative IPC: 1.069 (Simulation time: 00 hr 17 min 43 sec)
Heartbeat CPU 0 instructions: 152000690 cycles: 107897126 heartbeat IPC: 0.8877 cumulative IPC: 1.068 (Simulation time: 00 hr 17 min 49 sec)
Heartbeat CPU 0 instructions: 152500691 cycles: 108300272 heartbeat IPC: 1.24 cumulative IPC: 1.069 (Simulation time: 00 hr 17 min 53 sec)
Heartbeat CPU 0 instructions: 153000692 cycles: 108627062 heartbeat IPC: 1.53 cumulative IPC: 1.071 (Simulation time: 00 hr 17 min 57 sec)
Heartbeat CPU 0 instructions: 153500692 cycles: 109060735 heartbeat IPC: 1.153 cumulative IPC: 1.071 (Simulation time: 00 hr 18 min 02 sec)
Heartbeat CPU 0 instructions: 154000692 cycles: 109539961 heartbeat IPC: 1.043 cumulative IPC: 1.071 (Simulation time: 00 hr 18 min 06 sec)
Heartbeat CPU 0 instructions: 154500697 cycles: 110111369 heartbeat IPC: 0.875 cumulative IPC: 1.07 (Simulation time: 00 hr 18 min 11 sec)
Heartbeat CPU 0 instructions: 155000702 cycles: 110550520 heartbeat IPC: 1.139 cumulative IPC: 1.07 (Simulation time: 00 hr 18 min 15 sec)
Heartbeat CPU 0 instructions: 155500702 cycles: 111043479 heartbeat IPC: 1.014 cumulative IPC: 1.07 (Simulation time: 00 hr 18 min 19 sec)
Heartbeat CPU 0 instructions: 156000708 cycles: 111476041 heartbeat IPC: 1.156 cumulative IPC: 1.07 (Simulation time: 00 hr 18 min 24 sec)
Heartbeat CPU 0 instructions: 156500714 cycles: 112024650 heartbeat IPC: 0.9114 cumulative IPC: 1.069 (Simulation time: 00 hr 18 min 29 sec)
Heartbeat CPU 0 instructions: 157000714 cycles: 112548603 heartbeat IPC: 0.9543 cumulative IPC: 1.069 (Simulation time: 00 hr 18 min 34 sec)
Heartbeat CPU 0 instructions: 157500721 cycles: 112989351 heartbeat IPC: 1.134 cumulative IPC: 1.069 (Simulation time: 00 hr 18 min 39 sec)
Heartbeat CPU 0 instructions: 158000728 cycles: 113478670 heartbeat IPC: 1.022 cumulative IPC: 1.069 (Simulation time: 00 hr 18 min 43 sec)
Heartbeat CPU 0 instructions: 158500728 cycles: 114008068 heartbeat IPC: 0.9445 cumulative IPC: 1.068 (Simulation time: 00 hr 18 min 49 sec)
Heartbeat CPU 0 instructions: 159000728 cycles: 114515456 heartbeat IPC: 0.9854 cumulative IPC: 1.068 (Simulation time: 00 hr 18 min 54 sec)
Heartbeat CPU 0 instructions: 159500730 cycles: 115071791 heartbeat IPC: 0.8987 cumulative IPC: 1.067 (Simulation time: 00 hr 18 min 59 sec)
Heartbeat CPU 0 instructions: 160000731 cycles: 115574617 heartbeat IPC: 0.9944 cumulative IPC: 1.066 (Simulation time: 00 hr 19 min 04 sec)
Heartbeat CPU 0 instructions: 160500733 cycles: 116098558 heartbeat IPC: 0.9543 cumulative IPC: 1.066 (Simulation time: 00 hr 19 min 09 sec)
Heartbeat CPU 0 instructions: 161000733 cycles: 116669038 heartbeat IPC: 0.8765 cumulative IPC: 1.065 (Simulation time: 00 hr 19 min 14 sec)
Heartbeat CPU 0 instructions: 161500739 cycles: 117154256 heartbeat IPC: 1.03 cumulative IPC: 1.065 (Simulation time: 00 hr 19 min 19 sec)
Heartbeat CPU 0 instructions: 162000740 cycles: 117551908 heartbeat IPC: 1.257 cumulative IPC: 1.065 (Simulation time: 00 hr 19 min 23 sec)
Heartbeat CPU 0 instructions: 162500741 cycles: 118073973 heartbeat IPC: 0.9577 cumulative IPC: 1.065 (Simulation time: 00 hr 19 min 28 sec)
Heartbeat CPU 0 instructions: 163000741 cycles: 118593240 heartbeat IPC: 0.9629 cumulative IPC: 1.064 (Simulation time: 00 hr 19 min 33 sec)
Heartbeat CPU 0 instructions: 163500742 cycles: 119053566 heartbeat IPC: 1.086 cumulative IPC: 1.064 (Simulation time: 00 hr 19 min 38 sec)
Heartbeat CPU 0 instructions: 164000742 cycles: 119491960 heartbeat IPC: 1.141 cumulative IPC: 1.065 (Simulation time: 00 hr 19 min 43 sec)
Heartbeat CPU 0 instructions: 164500743 cycles: 119929532 heartbeat IPC: 1.143 cumulative IPC: 1.065 (Simulation time: 00 hr 19 min 47 sec)
Heartbeat CPU 0 instructions: 165000746 cycles: 120417481 heartbeat IPC: 1.025 cumulative IPC: 1.065 (Simulation time: 00 hr 19 min 52 sec)
Heartbeat CPU 0 instructions: 165500746 cycles: 120914272 heartbeat IPC: 1.006 cumulative IPC: 1.065 (Simulation time: 00 hr 19 min 57 sec)
Heartbeat CPU 0 instructions: 166000747 cycles: 121386127 heartbeat IPC: 1.06 cumulative IPC: 1.065 (Simulation time: 00 hr 20 min 02 sec)
Heartbeat CPU 0 instructions: 166500750 cycles: 121864060 heartbeat IPC: 1.046 cumulative IPC: 1.065 (Simulation time: 00 hr 20 min 07 sec)
Heartbeat CPU 0 instructions: 167000750 cycles: 122264631 heartbeat IPC: 1.248 cumulative IPC: 1.065 (Simulation time: 00 hr 20 min 11 sec)
Heartbeat CPU 0 instructions: 167500751 cycles: 122730995 heartbeat IPC: 1.072 cumulative IPC: 1.065 (Simulation time: 00 hr 20 min 15 sec)
Heartbeat CPU 0 instructions: 168000753 cycles: 123126989 heartbeat IPC: 1.263 cumulative IPC: 1.066 (Simulation time: 00 hr 20 min 19 sec)
Heartbeat CPU 0 instructions: 168500759 cycles: 123561136 heartbeat IPC: 1.152 cumulative IPC: 1.066 (Simulation time: 00 hr 20 min 24 sec)
Heartbeat CPU 0 instructions: 169000759 cycles: 124024206 heartbeat IPC: 1.08 cumulative IPC: 1.066 (Simulation time: 00 hr 20 min 28 sec)
Heartbeat CPU 0 instructions: 169500765 cycles: 124464482 heartbeat IPC: 1.136 cumulative IPC: 1.067 (Simulation time: 00 hr 20 min 33 sec)
Heartbeat CPU 0 instructions: 170000765 cycles: 124987590 heartbeat IPC: 0.9558 cumulative IPC: 1.066 (Simulation time: 00 hr 20 min 38 sec)
Heartbeat CPU 0 instructions: 170500766 cycles: 125471639 heartbeat IPC: 1.033 cumulative IPC: 1.066 (Simulation time: 00 hr 20 min 43 sec)
Heartbeat CPU 0 instructions: 171000768 cycles: 125894145 heartbeat IPC: 1.183 cumulative IPC: 1.066 (Simulation time: 00 hr 20 min 47 sec)
Heartbeat CPU 0 instructions: 171500769 cycles: 126340612 heartbeat IPC: 1.12 cumulative IPC: 1.067 (Simulation time: 00 hr 20 min 52 sec)
Heartbeat CPU 0 instructions: 172000770 cycles: 126719733 heartbeat IPC: 1.319 cumulative IPC: 1.067 (Simulation time: 00 hr 20 min 56 sec)
Heartbeat CPU 0 instructions: 172500771 cycles: 127220013 heartbeat IPC: 0.9994 cumulative IPC: 1.067 (Simulation time: 00 hr 21 min 00 sec)
Heartbeat CPU 0 instructions: 173000773 cycles: 127676159 heartbeat IPC: 1.096 cumulative IPC: 1.067 (Simulation time: 00 hr 21 min 05 sec)
Heartbeat CPU 0 instructions: 173500775 cycles: 128171357 heartbeat IPC: 1.01 cumulative IPC: 1.067 (Simulation time: 00 hr 21 min 10 sec)
Heartbeat CPU 0 instructions: 174000776 cycles: 128556387 heartbeat IPC: 1.299 cumulative IPC: 1.068 (Simulation time: 00 hr 21 min 14 sec)
Heartbeat CPU 0 instructions: 174500777 cycles: 129037030 heartbeat IPC: 1.04 cumulative IPC: 1.068 (Simulation time: 00 hr 21 min 18 sec)
Heartbeat CPU 0 instructions: 175000779 cycles: 129522075 heartbeat IPC: 1.031 cumulative IPC: 1.068 (Simulation time: 00 hr 21 min 23 sec)
Heartbeat CPU 0 instructions: 175500781 cycles: 129945821 heartbeat IPC: 1.18 cumulative IPC: 1.068 (Simulation time: 00 hr 21 min 27 sec)
Heartbeat CPU 0 instructions: 176000783 cycles: 130296651 heartbeat IPC: 1.425 cumulative IPC: 1.069 (Simulation time: 00 hr 21 min 31 sec)
Heartbeat CPU 0 instructions: 176500789 cycles: 130777971 heartbeat IPC: 1.039 cumulative IPC: 1.069 (Simulation time: 00 hr 21 min 35 sec)
Heartbeat CPU 0 instructions: 177000793 cycles: 131159723 heartbeat IPC: 1.31 cumulative IPC: 1.07 (Simulation time: 00 hr 21 min 39 sec)
Heartbeat CPU 0 instructions: 177500797 cycles: 131636791 heartbeat IPC: 1.048 cumulative IPC: 1.07 (Simulation time: 00 hr 21 min 44 sec)
Heartbeat CPU 0 instructions: 178000799 cycles: 132124898 heartbeat IPC: 1.024 cumulative IPC: 1.069 (Simulation time: 00 hr 21 min 49 sec)
Heartbeat CPU 0 instructions: 178500804 cycles: 132603563 heartbeat IPC: 1.045 cumulative IPC: 1.069 (Simulation time: 00 hr 21 min 54 sec)
Heartbeat CPU 0 instructions: 179000809 cycles: 132929086 heartbeat IPC: 1.536 cumulative IPC: 1.071 (Simulation time: 00 hr 21 min 58 sec)
Heartbeat CPU 0 instructions: 179500809 cycles: 133236651 heartbeat IPC: 1.626 cumulative IPC: 1.072 (Simulation time: 00 hr 22 min 02 sec)
Heartbeat CPU 0 instructions: 180000811 cycles: 133552077 heartbeat IPC: 1.585 cumulative IPC: 1.073 (Simulation time: 00 hr 22 min 06 sec)
Heartbeat CPU 0 instructions: 180500813 cycles: 133890629 heartbeat IPC: 1.477 cumulative IPC: 1.074 (Simulation time: 00 hr 22 min 11 sec)
Heartbeat CPU 0 instructions: 181000813 cycles: 134233498 heartbeat IPC: 1.458 cumulative IPC: 1.075 (Simulation time: 00 hr 22 min 15 sec)
Heartbeat CPU 0 instructions: 181500819 cycles: 134575707 heartbeat IPC: 1.461 cumulative IPC: 1.077 (Simulation time: 00 hr 22 min 19 sec)
Heartbeat CPU 0 instructions: 182000820 cycles: 134884306 heartbeat IPC: 1.62 cumulative IPC: 1.078 (Simulation time: 00 hr 22 min 23 sec)
Heartbeat CPU 0 instructions: 182500821 cycles: 135211846 heartbeat IPC: 1.527 cumulative IPC: 1.079 (Simulation time: 00 hr 22 min 27 sec)
Heartbeat CPU 0 instructions: 183000823 cycles: 135560814 heartbeat IPC: 1.433 cumulative IPC: 1.08 (Simulation time: 00 hr 22 min 31 sec)
Heartbeat CPU 0 instructions: 183500824 cycles: 135876093 heartbeat IPC: 1.586 cumulative IPC: 1.081 (Simulation time: 00 hr 22 min 35 sec)
Heartbeat CPU 0 instructions: 184000828 cycles: 136183475 heartbeat IPC: 1.627 cumulative IPC: 1.083 (Simulation time: 00 hr 22 min 39 sec)
Heartbeat CPU 0 instructions: 184500828 cycles: 136492423 heartbeat IPC: 1.618 cumulative IPC: 1.084 (Simulation time: 00 hr 22 min 43 sec)
Heartbeat CPU 0 instructions: 185000833 cycles: 136793069 heartbeat IPC: 1.663 cumulative IPC: 1.086 (Simulation time: 00 hr 22 min 47 sec)
Heartbeat CPU 0 instructions: 185500837 cycles: 137089305 heartbeat IPC: 1.688 cumulative IPC: 1.087 (Simulation time: 00 hr 22 min 51 sec)
Heartbeat CPU 0 instructions: 186000842 cycles: 137385409 heartbeat IPC: 1.689 cumulative IPC: 1.088 (Simulation time: 00 hr 22 min 55 sec)
Heartbeat CPU 0 instructions: 186500844 cycles: 137679353 heartbeat IPC: 1.701 cumulative IPC: 1.09 (Simulation time: 00 hr 22 min 59 sec)
Heartbeat CPU 0 instructions: 187000844 cycles: 137968267 heartbeat IPC: 1.731 cumulative IPC: 1.091 (Simulation time: 00 hr 23 min 02 sec)
Heartbeat CPU 0 instructions: 187500845 cycles: 138257521 heartbeat IPC: 1.729 cumulative IPC: 1.093 (Simulation time: 00 hr 23 min 06 sec)
Heartbeat CPU 0 instructions: 188000848 cycles: 138547857 heartbeat IPC: 1.722 cumulative IPC: 1.094 (Simulation time: 00 hr 23 min 10 sec)
Heartbeat CPU 0 instructions: 188500852 cycles: 138833063 heartbeat IPC: 1.753 cumulative IPC: 1.096 (Simulation time: 00 hr 23 min 14 sec)
Heartbeat CPU 0 instructions: 189000856 cycles: 139118578 heartbeat IPC: 1.751 cumulative IPC: 1.097 (Simulation time: 00 hr 23 min 17 sec)
Heartbeat CPU 0 instructions: 189500857 cycles: 139401978 heartbeat IPC: 1.764 cumulative IPC: 1.099 (Simulation time: 00 hr 23 min 21 sec)
Heartbeat CPU 0 instructions: 190000858 cycles: 139685473 heartbeat IPC: 1.764 cumulative IPC: 1.1 (Simulation time: 00 hr 23 min 25 sec)
Heartbeat CPU 0 instructions: 190500858 cycles: 139971697 heartbeat IPC: 1.747 cumulative IPC: 1.102 (Simulation time: 00 hr 23 min 29 sec)
Heartbeat CPU 0 instructions: 191000858 cycles: 140255429 heartbeat IPC: 1.762 cumulative IPC: 1.103 (Simulation time: 00 hr 23 min 32 sec)
Heartbeat CPU 0 instructions: 191500860 cycles: 140539763 heartbeat IPC: 1.759 cumulative IPC: 1.105 (Simulation time: 00 hr 23 min 36 sec)
Heartbeat CPU 0 instructions: 192000860 cycles: 140818176 heartbeat IPC: 1.796 cumulative IPC: 1.106 (Simulation time: 00 hr 23 min 40 sec)
Heartbeat CPU 0 instructions: 192500864 cycles: 141100527 heartbeat IPC: 1.771 cumulative IPC: 1.107 (Simulation time: 00 hr 23 min 43 sec)
Heartbeat CPU 0 instructions: 193000867 cycles: 141373402 heartbeat IPC: 1.832 cumulative IPC: 1.109 (Simulation time: 00 hr 23 min 47 sec)
Heartbeat CPU 0 instructions: 193500868 cycles: 141639221 heartbeat IPC: 1.881 cumulative IPC: 1.111 (Simulation time: 00 hr 23 min 51 sec)
Heartbeat CPU 0 instructions: 194000868 cycles: 141906094 heartbeat IPC: 1.874 cumulative IPC: 1.112 (Simulation time: 00 hr 23 min 54 sec)
Heartbeat CPU 0 instructions: 194500869 cycles: 142495049 heartbeat IPC: 0.849 cumulative IPC: 1.111 (Simulation time: 00 hr 24 min 00 sec)
Heartbeat CPU 0 instructions: 195000869 cycles: 143026784 heartbeat IPC: 0.9403 cumulative IPC: 1.11 (Simulation time: 00 hr 24 min 04 sec)
Heartbeat CPU 0 instructions: 195500870 cycles: 143503900 heartbeat IPC: 1.048 cumulative IPC: 1.11 (Simulation time: 00 hr 24 min 08 sec)
Heartbeat CPU 0 instructions: 196000872 cycles: 143938936 heartbeat IPC: 1.149 cumulative IPC: 1.11 (Simulation time: 00 hr 24 min 12 sec)
Heartbeat CPU 0 instructions: 196500872 cycles: 144354220 heartbeat IPC: 1.204 cumulative IPC: 1.11 (Simulation time: 00 hr 24 min 16 sec)
Heartbeat CPU 0 instructions: 197000872 cycles: 144739607 heartbeat IPC: 1.297 cumulative IPC: 1.111 (Simulation time: 00 hr 24 min 20 sec)
Heartbeat CPU 0 instructions: 197500873 cycles: 145076566 heartbeat IPC: 1.484 cumulative IPC: 1.112 (Simulation time: 00 hr 24 min 24 sec)
Heartbeat CPU 0 instructions: 198000874 cycles: 145552867 heartbeat IPC: 1.05 cumulative IPC: 1.112 (Simulation time: 00 hr 24 min 29 sec)
Heartbeat CPU 0 instructions: 198500878 cycles: 146059382 heartbeat IPC: 0.9871 cumulative IPC: 1.111 (Simulation time: 00 hr 24 min 33 sec)
Heartbeat CPU 0 instructions: 199000881 cycles: 146525995 heartbeat IPC: 1.072 cumulative IPC: 1.111 (Simulation time: 00 hr 24 min 37 sec)
Heartbeat CPU 0 instructions: 199500884 cycles: 146991199 heartbeat IPC: 1.075 cumulative IPC: 1.111 (Simulation time: 00 hr 24 min 41 sec)
Heartbeat CPU 0 instructions: 200000887 cycles: 147390702 heartbeat IPC: 1.252 cumulative IPC: 1.111 (Simulation time: 00 hr 24 min 45 sec)
Heartbeat CPU 0 instructions: 200500893 cycles: 147841923 heartbeat IPC: 1.108 cumulative IPC: 1.111 (Simulation time: 00 hr 24 min 49 sec)
Heartbeat CPU 0 instructions: 201000898 cycles: 148328177 heartbeat IPC: 1.028 cumulative IPC: 1.111 (Simulation time: 00 hr 24 min 54 sec)
Heartbeat CPU 0 instructions: 201500899 cycles: 148758509 heartbeat IPC: 1.162 cumulative IPC: 1.111 (Simulation time: 00 hr 24 min 58 sec)
Heartbeat CPU 0 instructions: 202000900 cycles: 149169719 heartbeat IPC: 1.216 cumulative IPC: 1.112 (Simulation time: 00 hr 25 min 02 sec)
Heartbeat CPU 0 instructions: 202500901 cycles: 149509177 heartbeat IPC: 1.473 cumulative IPC: 1.112 (Simulation time: 00 hr 25 min 05 sec)
Heartbeat CPU 0 instructions: 203000903 cycles: 150014351 heartbeat IPC: 0.9898 cumulative IPC: 1.112 (Simulation time: 00 hr 25 min 11 sec)
Heartbeat CPU 0 instructions: 203500906 cycles: 150555645 heartbeat IPC: 0.9237 cumulative IPC: 1.111 (Simulation time: 00 hr 25 min 16 sec)
Heartbeat CPU 0 instructions: 204000907 cycles: 151067155 heartbeat IPC: 0.9775 cumulative IPC: 1.111 (Simulation time: 00 hr 25 min 21 sec)
Heartbeat CPU 0 instructions: 204500907 cycles: 151643838 heartbeat IPC: 0.867 cumulative IPC: 1.11 (Simulation time: 00 hr 25 min 26 sec)
Heartbeat CPU 0 instructions: 205000909 cycles: 152188756 heartbeat IPC: 0.9176 cumulative IPC: 1.109 (Simulation time: 00 hr 25 min 31 sec)
Heartbeat CPU 0 instructions: 205500911 cycles: 152719968 heartbeat IPC: 0.9412 cumulative IPC: 1.108 (Simulation time: 00 hr 25 min 36 sec)
Heartbeat CPU 0 instructions: 206000911 cycles: 153105522 heartbeat IPC: 1.297 cumulative IPC: 1.109 (Simulation time: 00 hr 25 min 40 sec)
Heartbeat CPU 0 instructions: 206500912 cycles: 153635389 heartbeat IPC: 0.9436 cumulative IPC: 1.108 (Simulation time: 00 hr 25 min 45 sec)
Heartbeat CPU 0 instructions: 207000914 cycles: 154122920 heartbeat IPC: 1.026 cumulative IPC: 1.108 (Simulation time: 00 hr 25 min 51 sec)
Heartbeat CPU 0 instructions: 207500915 cycles: 154528180 heartbeat IPC: 1.234 cumulative IPC: 1.108 (Simulation time: 00 hr 25 min 55 sec)
Heartbeat CPU 0 instructions: 208000917 cycles: 155002475 heartbeat IPC: 1.054 cumulative IPC: 1.108 (Simulation time: 00 hr 26 min 00 sec)
Heartbeat CPU 0 instructions: 208500917 cycles: 155478426 heartbeat IPC: 1.051 cumulative IPC: 1.108 (Simulation time: 00 hr 26 min 06 sec)
Heartbeat CPU 0 instructions: 209000923 cycles: 155874639 heartbeat IPC: 1.262 cumulative IPC: 1.108 (Simulation time: 00 hr 26 min 10 sec)
Heartbeat CPU 0 instructions: 209500926 cycles: 156207975 heartbeat IPC: 1.5 cumulative IPC: 1.109 (Simulation time: 00 hr 26 min 14 sec)
Heartbeat CPU 0 instructions: 210000928 cycles: 156646608 heartbeat IPC: 1.14 cumulative IPC: 1.109 (Simulation time: 00 hr 26 min 18 sec)
Heartbeat CPU 0 instructions: 210500930 cycles: 157185642 heartbeat IPC: 0.9276 cumulative IPC: 1.109 (Simulation time: 00 hr 26 min 24 sec)
Heartbeat CPU 0 instructions: 211000930 cycles: 157666701 heartbeat IPC: 1.039 cumulative IPC: 1.109 (Simulation time: 00 hr 26 min 28 sec)
Heartbeat CPU 0 instructions: 211500936 cycles: 158274557 heartbeat IPC: 0.8226 cumulative IPC: 1.107 (Simulation time: 00 hr 26 min 34 sec)
Heartbeat CPU 0 instructions: 212000936 cycles: 158882294 heartbeat IPC: 0.8227 cumulative IPC: 1.106 (Simulation time: 00 hr 26 min 41 sec)
Heartbeat CPU 0 instructions: 212500936 cycles: 159430849 heartbeat IPC: 0.9115 cumulative IPC: 1.105 (Simulation time: 00 hr 26 min 46 sec)
Heartbeat CPU 0 instructions: 213000939 cycles: 159847698 heartbeat IPC: 1.199 cumulative IPC: 1.106 (Simulation time: 00 hr 26 min 51 sec)
Heartbeat CPU 0 instructions: 213500940 cycles: 160282451 heartbeat IPC: 1.15 cumulative IPC: 1.106 (Simulation time: 00 hr 26 min 55 sec)
Heartbeat CPU 0 instructions: 214000940 cycles: 160700612 heartbeat IPC: 1.196 cumulative IPC: 1.106 (Simulation time: 00 hr 27 min 00 sec)
Heartbeat CPU 0 instructions: 214500942 cycles: 161132086 heartbeat IPC: 1.159 cumulative IPC: 1.106 (Simulation time: 00 hr 27 min 05 sec)
Heartbeat CPU 0 instructions: 215000945 cycles: 161549141 heartbeat IPC: 1.199 cumulative IPC: 1.106 (Simulation time: 00 hr 27 min 09 sec)
Heartbeat CPU 0 instructions: 215500947 cycles: 161959798 heartbeat IPC: 1.218 cumulative IPC: 1.107 (Simulation time: 00 hr 27 min 14 sec)
Heartbeat CPU 0 instructions: 216000949 cycles: 162372968 heartbeat IPC: 1.21 cumulative IPC: 1.107 (Simulation time: 00 hr 27 min 19 sec)
Heartbeat CPU 0 instructions: 216500952 cycles: 162778680 heartbeat IPC: 1.232 cumulative IPC: 1.107 (Simulation time: 00 hr 27 min 23 sec)
Heartbeat CPU 0 instructions: 217000953 cycles: 163164370 heartbeat IPC: 1.296 cumulative IPC: 1.108 (Simulation time: 00 hr 27 min 28 sec)
Heartbeat CPU 0 instructions: 217500954 cycles: 163515088 heartbeat IPC: 1.426 cumulative IPC: 1.109 (Simulation time: 00 hr 27 min 32 sec)
Heartbeat CPU 0 instructions: 218000956 cycles: 163878911 heartbeat IPC: 1.374 cumulative IPC: 1.109 (Simulation time: 00 hr 27 min 37 sec)
Heartbeat CPU 0 instructions: 218500956 cycles: 164220869 heartbeat IPC: 1.462 cumulative IPC: 1.11 (Simulation time: 00 hr 27 min 41 sec)
Heartbeat CPU 0 instructions: 219000958 cycles: 164551049 heartbeat IPC: 1.514 cumulative IPC: 1.111 (Simulation time: 00 hr 27 min 45 sec)
Heartbeat CPU 0 instructions: 219500959 cycles: 164871282 heartbeat IPC: 1.561 cumulative IPC: 1.112 (Simulation time: 00 hr 27 min 49 sec)
Heartbeat CPU 0 instructions: 220000959 cycles: 165203298 heartbeat IPC: 1.506 cumulative IPC: 1.113 (Simulation time: 00 hr 27 min 53 sec)
Heartbeat CPU 0 instructions: 220500962 cycles: 165510354 heartbeat IPC: 1.628 cumulative IPC: 1.114 (Simulation time: 00 hr 27 min 57 sec)
Heartbeat CPU 0 instructions: 221000963 cycles: 165803815 heartbeat IPC: 1.704 cumulative IPC: 1.115 (Simulation time: 00 hr 28 min 01 sec)
Heartbeat CPU 0 instructions: 221500968 cycles: 166112972 heartbeat IPC: 1.617 cumulative IPC: 1.116 (Simulation time: 00 hr 28 min 04 sec)
Heartbeat CPU 0 instructions: 222000968 cycles: 166414105 heartbeat IPC: 1.66 cumulative IPC: 1.117 (Simulation time: 00 hr 28 min 08 sec)
Heartbeat CPU 0 instructions: 222500972 cycles: 166702018 heartbeat IPC: 1.737 cumulative IPC: 1.118 (Simulation time: 00 hr 28 min 12 sec)
Heartbeat CPU 0 instructions: 223000976 cycles: 166994283 heartbeat IPC: 1.711 cumulative IPC: 1.119 (Simulation time: 00 hr 28 min 16 sec)
Heartbeat CPU 0 instructions: 223500977 cycles: 167277607 heartbeat IPC: 1.765 cumulative IPC: 1.12 (Simulation time: 00 hr 28 min 20 sec)
Heartbeat CPU 0 instructions: 224000977 cycles: 167562315 heartbeat IPC: 1.756 cumulative IPC: 1.122 (Simulation time: 00 hr 28 min 23 sec)
Heartbeat CPU 0 instructions: 224500977 cycles: 167848245 heartbeat IPC: 1.749 cumulative IPC: 1.123 (Simulation time: 00 hr 28 min 27 sec)
Heartbeat CPU 0 instructions: 225000978 cycles: 168128094 heartbeat IPC: 1.787 cumulative IPC: 1.124 (Simulation time: 00 hr 28 min 31 sec)
Heartbeat CPU 0 instructions: 225500981 cycles: 168405975 heartbeat IPC: 1.799 cumulative IPC: 1.125 (Simulation time: 00 hr 28 min 34 sec)
Heartbeat CPU 0 instructions: 226000987 cycles: 168807119 heartbeat IPC: 1.246 cumulative IPC: 1.125 (Simulation time: 00 hr 28 min 39 sec)
Heartbeat CPU 0 instructions: 226500989 cycles: 169381079 heartbeat IPC: 0.8711 cumulative IPC: 1.125 (Simulation time: 00 hr 28 min 45 sec)
Heartbeat CPU 0 instructions: 227000993 cycles: 169880135 heartbeat IPC: 1.002 cumulative IPC: 1.124 (Simulation time: 00 hr 28 min 49 sec)
Heartbeat CPU 0 instructions: 227500998 cycles: 170260842 heartbeat IPC: 1.313 cumulative IPC: 1.125 (Simulation time: 00 hr 28 min 53 sec)
Heartbeat CPU 0 instructions: 228000998 cycles: 170796202 heartbeat IPC: 0.934 cumulative IPC: 1.124 (Simulation time: 00 hr 28 min 58 sec)
Heartbeat CPU 0 instructions: 228501001 cycles: 171298055 heartbeat IPC: 0.9963 cumulative IPC: 1.124 (Simulation time: 00 hr 29 min 03 sec)
Heartbeat CPU 0 instructions: 229001001 cycles: 171710439 heartbeat IPC: 1.212 cumulative IPC: 1.124 (Simulation time: 00 hr 29 min 07 sec)
Heartbeat CPU 0 instructions: 229501002 cycles: 172109587 heartbeat IPC: 1.253 cumulative IPC: 1.124 (Simulation time: 00 hr 29 min 11 sec)
Heartbeat CPU 0 instructions: 230001004 cycles: 172625879 heartbeat IPC: 0.9684 cumulative IPC: 1.124 (Simulation time: 00 hr 29 min 16 sec)
Heartbeat CPU 0 instructions: 230501007 cycles: 173061569 heartbeat IPC: 1.148 cumulative IPC: 1.124 (Simulation time: 00 hr 29 min 20 sec)
Heartbeat CPU 0 instructions: 231001008 cycles: 173462189 heartbeat IPC: 1.248 cumulative IPC: 1.124 (Simulation time: 00 hr 29 min 24 sec)
Heartbeat CPU 0 instructions: 231501008 cycles: 173964742 heartbeat IPC: 0.9949 cumulative IPC: 1.124 (Simulation time: 00 hr 29 min 29 sec)
Heartbeat CPU 0 instructions: 232001011 cycles: 174484396 heartbeat IPC: 0.9622 cumulative IPC: 1.123 (Simulation time: 00 hr 29 min 34 sec)
Heartbeat CPU 0 instructions: 232501011 cycles: 175051234 heartbeat IPC: 0.8821 cumulative IPC: 1.122 (Simulation time: 00 hr 29 min 40 sec)
Heartbeat CPU 0 instructions: 233001013 cycles: 175491131 heartbeat IPC: 1.137 cumulative IPC: 1.122 (Simulation time: 00 hr 29 min 45 sec)
Heartbeat CPU 0 instructions: 233501016 cycles: 175830559 heartbeat IPC: 1.473 cumulative IPC: 1.123 (Simulation time: 00 hr 29 min 49 sec)
Heartbeat CPU 0 instructions: 234001018 cycles: 176333922 heartbeat IPC: 0.9933 cumulative IPC: 1.123 (Simulation time: 00 hr 29 min 54 sec)
Heartbeat CPU 0 instructions: 234501022 cycles: 176911687 heartbeat IPC: 0.8654 cumulative IPC: 1.122 (Simulation time: 00 hr 29 min 59 sec)
Heartbeat CPU 0 instructions: 235001024 cycles: 177472459 heartbeat IPC: 0.8916 cumulative IPC: 1.121 (Simulation time: 00 hr 30 min 04 sec)
Heartbeat CPU 0 instructions: 235501025 cycles: 177958188 heartbeat IPC: 1.029 cumulative IPC: 1.121 (Simulation time: 00 hr 30 min 09 sec)
Heartbeat CPU 0 instructions: 236001028 cycles: 178481797 heartbeat IPC: 0.9549 cumulative IPC: 1.12 (Simulation time: 00 hr 30 min 14 sec)
Heartbeat CPU 0 instructions: 236501029 cycles: 178968404 heartbeat IPC: 1.028 cumulative IPC: 1.12 (Simulation time: 00 hr 30 min 19 sec)
Heartbeat CPU 0 instructions: 237001032 cycles: 179505631 heartbeat IPC: 0.9307 cumulative IPC: 1.119 (Simulation time: 00 hr 30 min 24 sec)
Heartbeat CPU 0 instructions: 237501034 cycles: 179982920 heartbeat IPC: 1.048 cumulative IPC: 1.119 (Simulation time: 00 hr 30 min 28 sec)
Heartbeat CPU 0 instructions: 238001040 cycles: 180487734 heartbeat IPC: 0.9905 cumulative IPC: 1.119 (Simulation time: 00 hr 30 min 33 sec)
Heartbeat CPU 0 instructions: 238501045 cycles: 180962676 heartbeat IPC: 1.053 cumulative IPC: 1.118 (Simulation time: 00 hr 30 min 38 sec)
Heartbeat CPU 0 instructions: 239001046 cycles: 181509710 heartbeat IPC: 0.914 cumulative IPC: 1.118 (Simulation time: 00 hr 30 min 43 sec)
Heartbeat CPU 0 instructions: 239501046 cycles: 181953761 heartbeat IPC: 1.126 cumulative IPC: 1.118 (Simulation time: 00 hr 30 min 47 sec)
Heartbeat CPU 0 instructions: 240001048 cycles: 182341207 heartbeat IPC: 1.291 cumulative IPC: 1.118 (Simulation time: 00 hr 30 min 52 sec)
Heartbeat CPU 0 instructions: 240501050 cycles: 182728296 heartbeat IPC: 1.292 cumulative IPC: 1.119 (Simulation time: 00 hr 30 min 57 sec)
Heartbeat CPU 0 instructions: 241001050 cycles: 183088913 heartbeat IPC: 1.387 cumulative IPC: 1.119 (Simulation time: 00 hr 31 min 01 sec)
Heartbeat CPU 0 instructions: 241501051 cycles: 183433027 heartbeat IPC: 1.453 cumulative IPC: 1.12 (Simulation time: 00 hr 31 min 05 sec)
Heartbeat CPU 0 instructions: 242001051 cycles: 183757601 heartbeat IPC: 1.54 cumulative IPC: 1.121 (Simulation time: 00 hr 31 min 09 sec)
Heartbeat CPU 0 instructions: 242501053 cycles: 184068430 heartbeat IPC: 1.609 cumulative IPC: 1.122 (Simulation time: 00 hr 31 min 13 sec)
Heartbeat CPU 0 instructions: 243001054 cycles: 184646425 heartbeat IPC: 0.8651 cumulative IPC: 1.121 (Simulation time: 00 hr 31 min 19 sec)
Heartbeat CPU 0 instructions: 243501057 cycles: 185164739 heartbeat IPC: 0.9647 cumulative IPC: 1.12 (Simulation time: 00 hr 31 min 23 sec)
Heartbeat CPU 0 instructions: 244001059 cycles: 185646484 heartbeat IPC: 1.038 cumulative IPC: 1.12 (Simulation time: 00 hr 31 min 28 sec)
Heartbeat CPU 0 instructions: 244501061 cycles: 186093954 heartbeat IPC: 1.117 cumulative IPC: 1.12 (Simulation time: 00 hr 31 min 33 sec)
Heartbeat CPU 0 instructions: 245001063 cycles: 186621482 heartbeat IPC: 0.9478 cumulative IPC: 1.119 (Simulation time: 00 hr 31 min 37 sec)
Heartbeat CPU 0 instructions: 245501064 cycles: 187119064 heartbeat IPC: 1.005 cumulative IPC: 1.119 (Simulation time: 00 hr 31 min 42 sec)
Heartbeat CPU 0 instructions: 246001064 cycles: 187508538 heartbeat IPC: 1.284 cumulative IPC: 1.119 (Simulation time: 00 hr 31 min 46 sec)
Heartbeat CPU 0 instructions: 246501064 cycles: 188012867 heartbeat IPC: 0.9914 cumulative IPC: 1.119 (Simulation time: 00 hr 31 min 51 sec)
Heartbeat CPU 0 instructions: 247001068 cycles: 188475154 heartbeat IPC: 1.082 cumulative IPC: 1.119 (Simulation time: 00 hr 31 min 55 sec)
Heartbeat CPU 0 instructions: 247501071 cycles: 189031580 heartbeat IPC: 0.8986 cumulative IPC: 1.118 (Simulation time: 00 hr 32 min 00 sec)
Heartbeat CPU 0 instructions: 248001072 cycles: 189495678 heartbeat IPC: 1.077 cumulative IPC: 1.118 (Simulation time: 00 hr 32 min 04 sec)
Heartbeat CPU 0 instructions: 248501075 cycles: 190015590 heartbeat IPC: 0.9617 cumulative IPC: 1.118 (Simulation time: 00 hr 32 min 09 sec)
Heartbeat CPU 0 instructions: 249001076 cycles: 190451141 heartbeat IPC: 1.148 cumulative IPC: 1.118 (Simulation time: 00 hr 32 min 14 sec)
Heartbeat CPU 0 instructions: 249501079 cycles: 190846259 heartbeat IPC: 1.265 cumulative IPC: 1.118 (Simulation time: 00 hr 32 min 18 sec)
Simulation finished CPU 0 instructions: 200000001 cycles: 178843766 cumulative IPC: 1.118 (Simulation time: 00 hr 32 min 22 sec)
Simulation complete CPU 0 instructions: 200000001 cycles: 178843766 cumulative IPC: 1.118 (Simulation time: 00 hr 32 min 22 sec)

ChampSim completed all CPUs

=== Simulation ===
CPU 0 runs /local-ssd/ben/dpc4-traces/Graph/GMS/gms.k_clique_list_danisch_edge_parallel.soc-pokec-relationships.slice-80.champsimtrace.gz

Region of Interest Statistics

CPU 0 cumulative IPC: 1.118 instructions: 200000001 cycles: 178843766
CPU 0 Branch Prediction Accuracy: 95.61% MPKI: 7.162 Average ROB Occupancy at Mispredict: 52.36
Branch type MPKI
BRANCH_DIRECT_JUMP: 0.3307
BRANCH_INDIRECT: 0
BRANCH_CONDITIONAL: 6.832
BRANCH_DIRECT_CALL: 0
BRANCH_INDIRECT_CALL: 0
BRANCH_RETURN: 0

cpu0->cpu0_STLB TOTAL        ACCESS:   12168969 HIT:   11512644 MISS:     656325 MSHR_MERGE:          0
cpu0->cpu0_STLB LOAD         ACCESS:   12168969 HIT:   11512644 MISS:     656325 MSHR_MERGE:          0
cpu0->cpu0_STLB RFO          ACCESS:          0 HIT:          0 MISS:          0 MSHR_MERGE:          0
cpu0->cpu0_STLB PREFETCH     ACCESS:          0 HIT:          0 MISS:          0 MSHR_MERGE:          0
cpu0->cpu0_STLB WRITE        ACCESS:          0 HIT:          0 MISS:          0 MSHR_MERGE:          0
cpu0->cpu0_STLB TRANSLATION  ACCESS:          0 HIT:          0 MISS:          0 MSHR_MERGE:          0
cpu0->cpu0_STLB PREFETCH REQUESTED:          0 ISSUED:          0 USEFUL:          0 USELESS:          0
cpu0->cpu0_STLB AVERAGE MISS LATENCY: 36.2 cycles
cpu0->cpu0_L2C TOTAL        ACCESS:   11593689 HIT:   10202747 MISS:    1390942 MSHR_MERGE:          0
cpu0->cpu0_L2C LOAD         ACCESS:    3869071 HIT:    2695730 MISS:    1173341 MSHR_MERGE:          0
cpu0->cpu0_L2C RFO          ACCESS:    3319274 HIT:    3308219 MISS:      11055 MSHR_MERGE:          0
cpu0->cpu0_L2C PREFETCH     ACCESS:     431199 HIT:     252094 MISS:     179105 MSHR_MERGE:          0
cpu0->cpu0_L2C WRITE        ACCESS:    3472369 HIT:    3472366 MISS:          3 MSHR_MERGE:          0
cpu0->cpu0_L2C TRANSLATION  ACCESS:     501776 HIT:     474338 MISS:      27438 MSHR_MERGE:          0
cpu0->cpu0_L2C PREFETCH REQUESTED:          0 ISSUED:          0 USEFUL:          0 USELESS:          0
cpu0->cpu0_L2C AVERAGE MISS LATENCY: 170 cycles
cpu0->cpu0_L1I TOTAL        ACCESS:   17120641 HIT:   17120641 MISS:          0 MSHR_MERGE:          0
cpu0->cpu0_L1I LOAD         ACCESS:   17120641 HIT:   17120641 MISS:          0 MSHR_MERGE:          0
cpu0->cpu0_L1I RFO          ACCESS:          0 HIT:          0 MISS:          0 MSHR_MERGE:          0
cpu0->cpu0_L1I PREFETCH     ACCESS:          0 HIT:          0 MISS:          0 MSHR_MERGE:          0
cpu0->cpu0_L1I WRITE        ACCESS:          0 HIT:          0 MISS:          0 MSHR_MERGE:          0
cpu0->cpu0_L1I TRANSLATION  ACCESS:          0 HIT:          0 MISS:          0 MSHR_MERGE:          0
cpu0->cpu0_L1I PREFETCH REQUESTED:          0 ISSUED:          0 USEFUL:          0 USELESS:          0
cpu0->cpu0_L1I AVERAGE MISS LATENCY: - cycles
cpu0->cpu0_L1D TOTAL        ACCESS:   72539683 HIT:   62363611 MISS:   10176072 MSHR_MERGE:    2053765
cpu0->cpu0_L1D LOAD         ACCESS:   37947484 HIT:   32694330 MISS:    5253154 MSHR_MERGE:    1384040
cpu0->cpu0_L1D RFO          ACCESS:          0 HIT:          0 MISS:          0 MSHR_MERGE:          0
cpu0->cpu0_L1D PREFETCH     ACCESS:    2681836 HIT:    2098428 MISS:     583408 MSHR_MERGE:     152141
cpu0->cpu0_L1D WRITE        ACCESS:   30632467 HIT:   26818837 MISS:    3813630 MSHR_MERGE:     493480
cpu0->cpu0_L1D TRANSLATION  ACCESS:    1277896 HIT:     752016 MISS:     525880 MSHR_MERGE:      24104
cpu0->cpu0_L1D PREFETCH REQUESTED:   10270906 ISSUED:    2681828 USEFUL:     236769 USELESS:     194499
cpu0->cpu0_L1D AVERAGE MISS LATENCY: 35.6 cycles
cpu0->cpu0_ITLB TOTAL        ACCESS:   17111267 HIT:   17111267 MISS:          0 MSHR_MERGE:          0
cpu0->cpu0_ITLB LOAD         ACCESS:   17111267 HIT:   17111267 MISS:          0 MSHR_MERGE:          0
cpu0->cpu0_ITLB RFO          ACCESS:          0 HIT:          0 MISS:          0 MSHR_MERGE:          0
cpu0->cpu0_ITLB PREFETCH     ACCESS:          0 HIT:          0 MISS:          0 MSHR_MERGE:          0
cpu0->cpu0_ITLB WRITE        ACCESS:          0 HIT:          0 MISS:          0 MSHR_MERGE:          0
cpu0->cpu0_ITLB TRANSLATION  ACCESS:          0 HIT:          0 MISS:          0 MSHR_MERGE:          0
cpu0->cpu0_ITLB PREFETCH REQUESTED:          0 ISSUED:          0 USEFUL:          0 USELESS:          0
cpu0->cpu0_ITLB AVERAGE MISS LATENCY: - cycles
cpu0->cpu0_DTLB TOTAL        ACCESS:   68764435 HIT:   53156052 MISS:   15608383 MSHR_MERGE:    3439414
cpu0->cpu0_DTLB LOAD         ACCESS:   68764435 HIT:   53156052 MISS:   15608383 MSHR_MERGE:    3439414
cpu0->cpu0_DTLB RFO          ACCESS:          0 HIT:          0 MISS:          0 MSHR_MERGE:          0
cpu0->cpu0_DTLB PREFETCH     ACCESS:          0 HIT:          0 MISS:          0 MSHR_MERGE:          0
cpu0->cpu0_DTLB WRITE        ACCESS:          0 HIT:          0 MISS:          0 MSHR_MERGE:          0
cpu0->cpu0_DTLB TRANSLATION  ACCESS:          0 HIT:          0 MISS:          0 MSHR_MERGE:          0
cpu0->cpu0_DTLB PREFETCH REQUESTED:          0 ISSUED:          0 USEFUL:          0 USELESS:          0
cpu0->cpu0_DTLB AVERAGE MISS LATENCY: 7.027 cycles
cpu0->LLC TOTAL        ACCESS:    1438316 HIT:     489810 MISS:     948506 MSHR_MERGE:          0
cpu0->LLC LOAD         ACCESS:    1173341 HIT:     421113 MISS:     752228 MSHR_MERGE:          0
cpu0->LLC RFO          ACCESS:      11055 HIT:       6717 MISS:       4338 MSHR_MERGE:          0
cpu0->LLC PREFETCH     ACCESS:     179105 HIT:      20925 MISS:     158180 MSHR_MERGE:          0
cpu0->LLC WRITE        ACCESS:      47377 HIT:      30419 MISS:      16958 MSHR_MERGE:          0
cpu0->LLC TRANSLATION  ACCESS:      27438 HIT:      10636 MISS:      16802 MSHR_MERGE:          0
cpu0->LLC PREFETCH REQUESTED:          0 ISSUED:          0 USEFUL:          0 USELESS:          0
cpu0->LLC AVERAGE MISS LATENCY: 226.3 cycles

DRAM Statistics

Channel 0 RQ ROW_BUFFER_HIT:       1824
  ROW_BUFFER_MISS:     929715
  AVG DBUS CONGESTED CYCLE: 10.22
Channel 0 WQ ROW_BUFFER_HIT:       2729
  ROW_BUFFER_MISS:      13480
  FULL:          0
Channel 0 REFRESHES ISSUED:      14903
