[VMEM] WARNING: physical memory size is smaller than virtual memory size.

*** ChampSim Multicore Out-of-Order Simulator ***
Warmup Instructions: 50000000
Simulation Instructions: 200000000
Number of CPUs: 1
Page size: 4096
Core 0: /local-ssd/ben/dpc4-traces/Graph/Ligra/ligra_Triangle.com-lj.ungraph.gcc_6.3.0_O3.drop_25000M.length_250M.champsimtrace.xz
Off-chip DRAM Size: 64 GiB Channels: 1 Width: 64-bit Data Rate: 4807 MT/s
Heartbeat CPU 0 instructions: 500002 cycles: 112571 heartbeat IPC: 4.442 cumulative IPC: 4.442 (Simulation time: 00 hr 00 min 02 sec)
Heartbeat CPU 0 instructions: 1000003 cycles: 216140 heartbeat IPC: 4.828 cumulative IPC: 4.627 (Simulation time: 00 hr 00 min 03 sec)
Heartbeat CPU 0 instructions: 1500007 cycles: 319921 heartbeat IPC: 4.818 cumulative IPC: 4.689 (Simulation time: 00 hr 00 min 04 sec)
Heartbeat CPU 0 instructions: 2000009 cycles: 422443 heartbeat IPC: 4.877 cumulative IPC: 4.734 (Simulation time: 00 hr 00 min 06 sec)
Heartbeat CPU 0 instructions: 2500009 cycles: 525392 heartbeat IPC: 4.857 cumulative IPC: 4.758 (Simulation time: 00 hr 00 min 07 sec)
Heartbeat CPU 0 instructions: 3000010 cycles: 628581 heartbeat IPC: 4.845 cumulative IPC: 4.773 (Simulation time: 00 hr 00 min 08 sec)
Heartbeat CPU 0 instructions: 3500017 cycles: 731529 heartbeat IPC: 4.857 cumulative IPC: 4.785 (Simulation time: 00 hr 00 min 10 sec)
Heartbeat CPU 0 instructions: 4000020 cycles: 834360 heartbeat IPC: 4.862 cumulative IPC: 4.794 (Simulation time: 00 hr 00 min 11 sec)
Heartbeat CPU 0 instructions: 4500020 cycles: 938227 heartbeat IPC: 4.814 cumulative IPC: 4.796 (Simulation time: 00 hr 00 min 12 sec)
Heartbeat CPU 0 instructions: 5000020 cycles: 1041754 heartbeat IPC: 4.83 cumulative IPC: 4.8 (Simulation time: 00 hr 00 min 14 sec)
Heartbeat CPU 0 instructions: 5500024 cycles: 1144540 heartbeat IPC: 4.865 cumulative IPC: 4.805 (Simulation time: 00 hr 00 min 15 sec)
Heartbeat CPU 0 instructions: 6000029 cycles: 1249001 heartbeat IPC: 4.787 cumulative IPC: 4.804 (Simulation time: 00 hr 00 min 17 sec)
Heartbeat CPU 0 instructions: 6500030 cycles: 1351838 heartbeat IPC: 4.862 cumulative IPC: 4.808 (Simulation time: 00 hr 00 min 18 sec)
Heartbeat CPU 0 instructions: 7000030 cycles: 1454361 heartbeat IPC: 4.877 cumulative IPC: 4.813 (Simulation time: 00 hr 00 min 19 sec)
Heartbeat CPU 0 instructions: 7500037 cycles: 1557501 heartbeat IPC: 4.848 cumulative IPC: 4.815 (Simulation time: 00 hr 00 min 21 sec)
Heartbeat CPU 0 instructions: 8000039 cycles: 1660144 heartbeat IPC: 4.871 cumulative IPC: 4.819 (Simulation time: 00 hr 00 min 22 sec)
Heartbeat CPU 0 instructions: 8500042 cycles: 1763724 heartbeat IPC: 4.827 cumulative IPC: 4.819 (Simulation time: 00 hr 00 min 24 sec)
Heartbeat CPU 0 instructions: 9000048 cycles: 1865922 heartbeat IPC: 4.893 cumulative IPC: 4.823 (Simulation time: 00 hr 00 min 25 sec)
Heartbeat CPU 0 instructions: 9500051 cycles: 1968341 heartbeat IPC: 4.882 cumulative IPC: 4.826 (Simulation time: 00 hr 00 min 26 sec)
Heartbeat CPU 0 instructions: 10000054 cycles: 2071661 heartbeat IPC: 4.839 cumulative IPC: 4.827 (Simulation time: 00 hr 00 min 28 sec)
Heartbeat CPU 0 instructions: 10500059 cycles: 2175041 heartbeat IPC: 4.837 cumulative IPC: 4.828 (Simulation time: 00 hr 00 min 29 sec)
Heartbeat CPU 0 instructions: 11000060 cycles: 2278667 heartbeat IPC: 4.825 cumulative IPC: 4.827 (Simulation time: 00 hr 00 min 31 sec)
Heartbeat CPU 0 instructions: 11500065 cycles: 2381170 heartbeat IPC: 4.878 cumulative IPC: 4.83 (Simulation time: 00 hr 00 min 32 sec)
Heartbeat CPU 0 instructions: 12000065 cycles: 2485107 heartbeat IPC: 4.811 cumulative IPC: 4.829 (Simulation time: 00 hr 00 min 34 sec)
Heartbeat CPU 0 instructions: 12500069 cycles: 2588428 heartbeat IPC: 4.839 cumulative IPC: 4.829 (Simulation time: 00 hr 00 min 35 sec)
Heartbeat CPU 0 instructions: 13000073 cycles: 2692469 heartbeat IPC: 4.806 cumulative IPC: 4.828 (Simulation time: 00 hr 00 min 36 sec)
Heartbeat CPU 0 instructions: 13500077 cycles: 2796030 heartbeat IPC: 4.828 cumulative IPC: 4.828 (Simulation time: 00 hr 00 min 38 sec)
Heartbeat CPU 0 instructions: 14000078 cycles: 2899655 heartbeat IPC: 4.825 cumulative IPC: 4.828 (Simulation time: 00 hr 00 min 39 sec)
Heartbeat CPU 0 instructions: 14500085 cycles: 3003185 heartbeat IPC: 4.83 cumulative IPC: 4.828 (Simulation time: 00 hr 00 min 41 sec)
Heartbeat CPU 0 instructions: 15000089 cycles: 3106728 heartbeat IPC: 4.829 cumulative IPC: 4.828 (Simulation time: 00 hr 00 min 42 sec)
Heartbeat CPU 0 instructions: 15500089 cycles: 3210087 heartbeat IPC: 4.838 cumulative IPC: 4.829 (Simulation time: 00 hr 00 min 44 sec)
Heartbeat CPU 0 instructions: 16000094 cycles: 3313050 heartbeat IPC: 4.856 cumulative IPC: 4.829 (Simulation time: 00 hr 00 min 45 sec)
Heartbeat CPU 0 instructions: 16500098 cycles: 3416379 heartbeat IPC: 4.839 cumulative IPC: 4.83 (Simulation time: 00 hr 00 min 46 sec)
Heartbeat CPU 0 instructions: 17000101 cycles: 3519820 heartbeat IPC: 4.834 cumulative IPC: 4.83 (Simulation time: 00 hr 00 min 48 sec)
Heartbeat CPU 0 instructions: 17500108 cycles: 3623483 heartbeat IPC: 4.823 cumulative IPC: 4.83 (Simulation time: 00 hr 00 min 49 sec)
Heartbeat CPU 0 instructions: 18000115 cycles: 3726773 heartbeat IPC: 4.841 cumulative IPC: 4.83 (Simulation time: 00 hr 00 min 51 sec)
Heartbeat CPU 0 instructions: 18500119 cycles: 3829897 heartbeat IPC: 4.849 cumulative IPC: 4.83 (Simulation time: 00 hr 00 min 52 sec)
Heartbeat CPU 0 instructions: 19000122 cycles: 3933578 heartbeat IPC: 4.823 cumulative IPC: 4.83 (Simulation time: 00 hr 00 min 54 sec)
Heartbeat CPU 0 instructions: 19500124 cycles: 4036232 heartbeat IPC: 4.871 cumulative IPC: 4.831 (Simulation time: 00 hr 00 min 55 sec)
Heartbeat CPU 0 instructions: 20000125 cycles: 4139214 heartbeat IPC: 4.855 cumulative IPC: 4.832 (Simulation time: 00 hr 00 min 56 sec)
Heartbeat CPU 0 instructions: 20500126 cycles: 4242548 heartbeat IPC: 4.839 cumulative IPC: 4.832 (Simulation time: 00 hr 00 min 58 sec)
Heartbeat CPU 0 instructions: 21000133 cycles: 4345941 heartbeat IPC: 4.836 cumulative IPC: 4.832 (Simulation time: 00 hr 00 min 59 sec)
Heartbeat CPU 0 instructions: 21500135 cycles: 4448601 heartbeat IPC: 4.87 cumulative IPC: 4.833 (Simulation time: 00 hr 01 min 01 sec)
Heartbeat CPU 0 instructions: 22000139 cycles: 4552164 heartbeat IPC: 4.828 cumulative IPC: 4.833 (Simulation time: 00 hr 01 min 02 sec)
Heartbeat CPU 0 instructions: 22500139 cycles: 4655758 heartbeat IPC: 4.827 cumulative IPC: 4.833 (Simulation time: 00 hr 01 min 04 sec)
Heartbeat CPU 0 instructions: 23000139 cycles: 4758912 heartbeat IPC: 4.847 cumulative IPC: 4.833 (Simulation time: 00 hr 01 min 05 sec)
Heartbeat CPU 0 instructions: 23500144 cycles: 4862016 heartbeat IPC: 4.85 cumulative IPC: 4.833 (Simulation time: 00 hr 01 min 06 sec)
Heartbeat CPU 0 instructions: 24000146 cycles: 4965259 heartbeat IPC: 4.843 cumulative IPC: 4.834 (Simulation time: 00 hr 01 min 08 sec)
Heartbeat CPU 0 instructions: 24500148 cycles: 5068309 heartbeat IPC: 4.852 cumulative IPC: 4.834 (Simulation time: 00 hr 01 min 09 sec)
Heartbeat CPU 0 instructions: 25000151 cycles: 5171716 heartbeat IPC: 4.835 cumulative IPC: 4.834 (Simulation time: 00 hr 01 min 11 sec)
Heartbeat CPU 0 instructions: 25500153 cycles: 5275029 heartbeat IPC: 4.84 cumulative IPC: 4.834 (Simulation time: 00 hr 01 min 12 sec)
Heartbeat CPU 0 instructions: 26000160 cycles: 5377989 heartbeat IPC: 4.856 cumulative IPC: 4.835 (Simulation time: 00 hr 01 min 14 sec)
Heartbeat CPU 0 instructions: 26500161 cycles: 5481533 heartbeat IPC: 4.829 cumulative IPC: 4.834 (Simulation time: 00 hr 01 min 15 sec)
Heartbeat CPU 0 instructions: 27000163 cycles: 5584813 heartbeat IPC: 4.841 cumulative IPC: 4.835 (Simulation time: 00 hr 01 min 16 sec)
Heartbeat CPU 0 instructions: 27500170 cycles: 5688591 heartbeat IPC: 4.818 cumulative IPC: 4.834 (Simulation time: 00 hr 01 min 18 sec)
Heartbeat CPU 0 instructions: 28000172 cycles: 5792122 heartbeat IPC: 4.829 cumulative IPC: 4.834 (Simulation time: 00 hr 01 min 19 sec)
Heartbeat CPU 0 instructions: 28500177 cycles: 5895199 heartbeat IPC: 4.851 cumulative IPC: 4.834 (Simulation time: 00 hr 01 min 21 sec)
Heartbeat CPU 0 instructions: 29000180 cycles: 5997983 heartbeat IPC: 4.865 cumulative IPC: 4.835 (Simulation time: 00 hr 01 min 22 sec)
Heartbeat CPU 0 instructions: 29500185 cycles: 6100585 heartbeat IPC: 4.873 cumulative IPC: 4.836 (Simulation time: 00 hr 01 min 24 sec)
Heartbeat CPU 0 instructions: 30000189 cycles: 6203418 heartbeat IPC: 4.862 cumulative IPC: 4.836 (Simulation time: 00 hr 01 min 25 sec)
Heartbeat CPU 0 instructions: 30500189 cycles: 6306285 heartbeat IPC: 4.861 cumulative IPC: 4.836 (Simulation time: 00 hr 01 min 26 sec)
Heartbeat CPU 0 instructions: 31000190 cycles: 6410119 heartbeat IPC: 4.815 cumulative IPC: 4.836 (Simulation time: 00 hr 01 min 28 sec)
Heartbeat CPU 0 instructions: 31500192 cycles: 6513873 heartbeat IPC: 4.819 cumulative IPC: 4.836 (Simulation time: 00 hr 01 min 29 sec)
Heartbeat CPU 0 instructions: 32000199 cycles: 6617142 heartbeat IPC: 4.842 cumulative IPC: 4.836 (Simulation time: 00 hr 01 min 31 sec)
Heartbeat CPU 0 instructions: 32500201 cycles: 6720913 heartbeat IPC: 4.818 cumulative IPC: 4.836 (Simulation time: 00 hr 01 min 32 sec)
Heartbeat CPU 0 instructions: 33000204 cycles: 6823808 heartbeat IPC: 4.859 cumulative IPC: 4.836 (Simulation time: 00 hr 01 min 34 sec)
Heartbeat CPU 0 instructions: 33500210 cycles: 6926506 heartbeat IPC: 4.869 cumulative IPC: 4.837 (Simulation time: 00 hr 01 min 35 sec)
Heartbeat CPU 0 instructions: 34000212 cycles: 7029764 heartbeat IPC: 4.842 cumulative IPC: 4.837 (Simulation time: 00 hr 01 min 36 sec)
Heartbeat CPU 0 instructions: 34500212 cycles: 7132704 heartbeat IPC: 4.857 cumulative IPC: 4.837 (Simulation time: 00 hr 01 min 38 sec)
Heartbeat CPU 0 instructions: 35000217 cycles: 7236285 heartbeat IPC: 4.827 cumulative IPC: 4.837 (Simulation time: 00 hr 01 min 39 sec)
Heartbeat CPU 0 instructions: 35500218 cycles: 7339762 heartbeat IPC: 4.832 cumulative IPC: 4.837 (Simulation time: 00 hr 01 min 41 sec)
Heartbeat CPU 0 instructions: 36000225 cycles: 7442847 heartbeat IPC: 4.85 cumulative IPC: 4.837 (Simulation time: 00 hr 01 min 42 sec)
Heartbeat CPU 0 instructions: 36500227 cycles: 7547111 heartbeat IPC: 4.796 cumulative IPC: 4.836 (Simulation time: 00 hr 01 min 44 sec)
Heartbeat CPU 0 instructions: 37000227 cycles: 7650732 heartbeat IPC: 4.825 cumulative IPC: 4.836 (Simulation time: 00 hr 01 min 45 sec)
Heartbeat CPU 0 instructions: 37500229 cycles: 7754498 heartbeat IPC: 4.819 cumulative IPC: 4.836 (Simulation time: 00 hr 01 min 47 sec)
Heartbeat CPU 0 instructions: 38000233 cycles: 7858443 heartbeat IPC: 4.81 cumulative IPC: 4.836 (Simulation time: 00 hr 01 min 48 sec)
Heartbeat CPU 0 instructions: 38500240 cycles: 7961691 heartbeat IPC: 4.843 cumulative IPC: 4.836 (Simulation time: 00 hr 01 min 49 sec)
Heartbeat CPU 0 instructions: 39000242 cycles: 8064580 heartbeat IPC: 4.86 cumulative IPC: 4.836 (Simulation time: 00 hr 01 min 51 sec)
Heartbeat CPU 0 instructions: 39500248 cycles: 8167386 heartbeat IPC: 4.864 cumulative IPC: 4.836 (Simulation time: 00 hr 01 min 52 sec)
Heartbeat CPU 0 instructions: 40000254 cycles: 8270088 heartbeat IPC: 4.869 cumulative IPC: 4.837 (Simulation time: 00 hr 01 min 54 sec)
Heartbeat CPU 0 instructions: 40500258 cycles: 8373231 heartbeat IPC: 4.848 cumulative IPC: 4.837 (Simulation time: 00 hr 01 min 55 sec)
Heartbeat CPU 0 instructions: 41000258 cycles: 8476684 heartbeat IPC: 4.833 cumulative IPC: 4.837 (Simulation time: 00 hr 01 min 57 sec)
Heartbeat CPU 0 instructions: 41500262 cycles: 8579499 heartbeat IPC: 4.863 cumulative IPC: 4.837 (Simulation time: 00 hr 01 min 58 sec)
Heartbeat CPU 0 instructions: 42000266 cycles: 8682839 heartbeat IPC: 4.838 cumulative IPC: 4.837 (Simulation time: 00 hr 01 min 59 sec)
Heartbeat CPU 0 instructions: 42500266 cycles: 8786277 heartbeat IPC: 4.834 cumulative IPC: 4.837 (Simulation time: 00 hr 02 min 01 sec)
Heartbeat CPU 0 instructions: 43000266 cycles: 8889747 heartbeat IPC: 4.832 cumulative IPC: 4.837 (Simulation time: 00 hr 02 min 02 sec)
Heartbeat CPU 0 instructions: 43500267 cycles: 8993665 heartbeat IPC: 4.811 cumulative IPC: 4.837 (Simulation time: 00 hr 02 min 04 sec)
Heartbeat CPU 0 instructions: 44000271 cycles: 9097322 heartbeat IPC: 4.824 cumulative IPC: 4.837 (Simulation time: 00 hr 02 min 05 sec)
Heartbeat CPU 0 instructions: 44500272 cycles: 9201370 heartbeat IPC: 4.805 cumulative IPC: 4.836 (Simulation time: 00 hr 02 min 07 sec)
Heartbeat CPU 0 instructions: 45000277 cycles: 9303884 heartbeat IPC: 4.877 cumulative IPC: 4.837 (Simulation time: 00 hr 02 min 08 sec)
Heartbeat CPU 0 instructions: 45500277 cycles: 9407508 heartbeat IPC: 4.825 cumulative IPC: 4.837 (Simulation time: 00 hr 02 min 10 sec)
Heartbeat CPU 0 instructions: 46000282 cycles: 9511759 heartbeat IPC: 4.796 cumulative IPC: 4.836 (Simulation time: 00 hr 02 min 11 sec)
Heartbeat CPU 0 instructions: 46500285 cycles: 9615001 heartbeat IPC: 4.843 cumulative IPC: 4.836 (Simulation time: 00 hr 02 min 13 sec)
Heartbeat CPU 0 instructions: 47000290 cycles: 9717693 heartbeat IPC: 4.869 cumulative IPC: 4.837 (Simulation time: 00 hr 02 min 14 sec)
Heartbeat CPU 0 instructions: 47500293 cycles: 9820503 heartbeat IPC: 4.863 cumulative IPC: 4.837 (Simulation time: 00 hr 02 min 15 sec)
Heartbeat CPU 0 instructions: 48000298 cycles: 9924579 heartbeat IPC: 4.804 cumulative IPC: 4.837 (Simulation time: 00 hr 02 min 17 sec)
Heartbeat CPU 0 instructions: 48500298 cycles: 10027888 heartbeat IPC: 4.84 cumulative IPC: 4.837 (Simulation time: 00 hr 02 min 18 sec)
Heartbeat CPU 0 instructions: 49000301 cycles: 10131556 heartbeat IPC: 4.823 cumulative IPC: 4.836 (Simulation time: 00 hr 02 min 20 sec)
Heartbeat CPU 0 instructions: 49500301 cycles: 10234629 heartbeat IPC: 4.851 cumulative IPC: 4.837 (Simulation time: 00 hr 02 min 21 sec)
Warmup halting CPU 0 at instruction 50000006 cycle 10337856 for remainder of phase
Warmup finished CPU 0 instructions: 50000006 cycles: 10337856 cumulative IPC: 4.837 (Simulation time: 00 hr 02 min 23 sec)
Warmup complete CPU 0 instructions: 50000006 cycles: 10337856 cumulative IPC: 4.837 (Simulation time: 00 hr 02 min 23 sec)
Heartbeat CPU 0 instructions: 50000306 cycles: 10338100 heartbeat IPC: 4.832 cumulative IPC: 1.23 (Simulation time: 00 hr 02 min 23 sec)
Heartbeat CPU 0 instructions: 50500306 cycles: 11022425 heartbeat IPC: 0.7306 cumulative IPC: 0.7308 (Simulation time: 00 hr 02 min 28 sec)
Heartbeat CPU 0 instructions: 51000307 cycles: 11827316 heartbeat IPC: 0.6212 cumulative IPC: 0.6716 (Simulation time: 00 hr 02 min 33 sec)
Heartbeat CPU 0 instructions: 51500307 cycles: 12516790 heartbeat IPC: 0.7252 cumulative IPC: 0.6885 (Simulation time: 00 hr 02 min 38 sec)
Heartbeat CPU 0 instructions: 52000312 cycles: 13196930 heartbeat IPC: 0.7352 cumulative IPC: 0.6996 (Simulation time: 00 hr 02 min 43 sec)
Heartbeat CPU 0 instructions: 52500313 cycles: 13897166 heartbeat IPC: 0.714 cumulative IPC: 0.7025 (Simulation time: 00 hr 02 min 47 sec)
Heartbeat CPU 0 instructions: 53000313 cycles: 14573075 heartbeat IPC: 0.7397 cumulative IPC: 0.7084 (Simulation time: 00 hr 02 min 52 sec)
Heartbeat CPU 0 instructions: 53500316 cycles: 15423867 heartbeat IPC: 0.5877 cumulative IPC: 0.6882 (Simulation time: 00 hr 02 min 58 sec)
Heartbeat CPU 0 instructions: 54000316 cycles: 16183728 heartbeat IPC: 0.658 cumulative IPC: 0.6843 (Simulation time: 00 hr 03 min 03 sec)
Heartbeat CPU 0 instructions: 54500316 cycles: 16907540 heartbeat IPC: 0.6908 cumulative IPC: 0.685 (Simulation time: 00 hr 03 min 08 sec)
Heartbeat CPU 0 instructions: 55000321 cycles: 17606966 heartbeat IPC: 0.7149 cumulative IPC: 0.6879 (Simulation time: 00 hr 03 min 13 sec)
Heartbeat CPU 0 instructions: 55500326 cycles: 18296306 heartbeat IPC: 0.7253 cumulative IPC: 0.6911 (Simulation time: 00 hr 03 min 18 sec)
Heartbeat CPU 0 instructions: 56000329 cycles: 18976272 heartbeat IPC: 0.7353 cumulative IPC: 0.6946 (Simulation time: 00 hr 03 min 23 sec)
Heartbeat CPU 0 instructions: 56500329 cycles: 19503744 heartbeat IPC: 0.9479 cumulative IPC: 0.7092 (Simulation time: 00 hr 03 min 27 sec)
Heartbeat CPU 0 instructions: 57000329 cycles: 20215071 heartbeat IPC: 0.7029 cumulative IPC: 0.7087 (Simulation time: 00 hr 03 min 31 sec)
Heartbeat CPU 0 instructions: 57500329 cycles: 20911589 heartbeat IPC: 0.7179 cumulative IPC: 0.7093 (Simulation time: 00 hr 03 min 36 sec)
Heartbeat CPU 0 instructions: 58000329 cycles: 21597827 heartbeat IPC: 0.7286 cumulative IPC: 0.7105 (Simulation time: 00 hr 03 min 41 sec)
Heartbeat CPU 0 instructions: 58500331 cycles: 22256813 heartbeat IPC: 0.7587 cumulative IPC: 0.7132 (Simulation time: 00 hr 03 min 46 sec)
Heartbeat CPU 0 instructions: 59000335 cycles: 22960606 heartbeat IPC: 0.7104 cumulative IPC: 0.713 (Simulation time: 00 hr 03 min 51 sec)
Heartbeat CPU 0 instructions: 59500340 cycles: 23652804 heartbeat IPC: 0.7223 cumulative IPC: 0.7135 (Simulation time: 00 hr 03 min 56 sec)
Heartbeat CPU 0 instructions: 60000341 cycles: 24310012 heartbeat IPC: 0.7608 cumulative IPC: 0.7157 (Simulation time: 00 hr 04 min 00 sec)
Heartbeat CPU 0 instructions: 60500341 cycles: 25008773 heartbeat IPC: 0.7156 cumulative IPC: 0.7157 (Simulation time: 00 hr 04 min 05 sec)
Heartbeat CPU 0 instructions: 61000342 cycles: 25677971 heartbeat IPC: 0.7472 cumulative IPC: 0.7171 (Simulation time: 00 hr 04 min 10 sec)
Heartbeat CPU 0 instructions: 61500343 cycles: 26331556 heartbeat IPC: 0.765 cumulative IPC: 0.7191 (Simulation time: 00 hr 04 min 14 sec)
Heartbeat CPU 0 instructions: 62000343 cycles: 26996564 heartbeat IPC: 0.7519 cumulative IPC: 0.7204 (Simulation time: 00 hr 04 min 19 sec)
Heartbeat CPU 0 instructions: 62500344 cycles: 27700067 heartbeat IPC: 0.7107 cumulative IPC: 0.72 (Simulation time: 00 hr 04 min 24 sec)
Heartbeat CPU 0 instructions: 63000345 cycles: 28365860 heartbeat IPC: 0.751 cumulative IPC: 0.7211 (Simulation time: 00 hr 04 min 29 sec)
Heartbeat CPU 0 instructions: 63500345 cycles: 29063846 heartbeat IPC: 0.7163 cumulative IPC: 0.7209 (Simulation time: 00 hr 04 min 34 sec)
Heartbeat CPU 0 instructions: 64000345 cycles: 29755800 heartbeat IPC: 0.7226 cumulative IPC: 0.721 (Simulation time: 00 hr 04 min 38 sec)
Heartbeat CPU 0 instructions: 64500347 cycles: 30441685 heartbeat IPC: 0.729 cumulative IPC: 0.7213 (Simulation time: 00 hr 04 min 43 sec)
Heartbeat CPU 0 instructions: 65000348 cycles: 31135195 heartbeat IPC: 0.721 cumulative IPC: 0.7213 (Simulation time: 00 hr 04 min 48 sec)
Heartbeat CPU 0 instructions: 65500348 cycles: 31926442 heartbeat IPC: 0.6319 cumulative IPC: 0.718 (Simulation time: 00 hr 04 min 53 sec)
Heartbeat CPU 0 instructions: 66000350 cycles: 32589563 heartbeat IPC: 0.754 cumulative IPC: 0.7191 (Simulation time: 00 hr 04 min 58 sec)
Heartbeat CPU 0 instructions: 66500352 cycles: 33294614 heartbeat IPC: 0.7092 cumulative IPC: 0.7188 (Simulation time: 00 hr 05 min 03 sec)
Heartbeat CPU 0 instructions: 67000354 cycles: 33983576 heartbeat IPC: 0.7257 cumulative IPC: 0.719 (Simulation time: 00 hr 05 min 08 sec)
Heartbeat CPU 0 instructions: 67500354 cycles: 34731687 heartbeat IPC: 0.6684 cumulative IPC: 0.7174 (Simulation time: 00 hr 05 min 13 sec)
Heartbeat CPU 0 instructions: 68000355 cycles: 35410919 heartbeat IPC: 0.7361 cumulative IPC: 0.7179 (Simulation time: 00 hr 05 min 18 sec)
Heartbeat CPU 0 instructions: 68500357 cycles: 36251860 heartbeat IPC: 0.5946 cumulative IPC: 0.7139 (Simulation time: 00 hr 05 min 23 sec)
Heartbeat CPU 0 instructions: 69000358 cycles: 37037654 heartbeat IPC: 0.6363 cumulative IPC: 0.7116 (Simulation time: 00 hr 05 min 29 sec)
Heartbeat CPU 0 instructions: 69500363 cycles: 37766388 heartbeat IPC: 0.6861 cumulative IPC: 0.711 (Simulation time: 00 hr 05 min 33 sec)
Heartbeat CPU 0 instructions: 70000366 cycles: 38478443 heartbeat IPC: 0.7022 cumulative IPC: 0.7107 (Simulation time: 00 hr 05 min 38 sec)
Heartbeat CPU 0 instructions: 70500367 cycles: 39104798 heartbeat IPC: 0.7983 cumulative IPC: 0.7126 (Simulation time: 00 hr 05 min 43 sec)
Heartbeat CPU 0 instructions: 71000367 cycles: 39836732 heartbeat IPC: 0.6831 cumulative IPC: 0.7119 (Simulation time: 00 hr 05 min 48 sec)
Heartbeat CPU 0 instructions: 71500368 cycles: 40546788 heartbeat IPC: 0.7042 cumulative IPC: 0.7117 (Simulation time: 00 hr 05 min 53 sec)
Heartbeat CPU 0 instructions: 72000373 cycles: 41200650 heartbeat IPC: 0.7647 cumulative IPC: 0.7128 (Simulation time: 00 hr 05 min 58 sec)
Heartbeat CPU 0 instructions: 72500375 cycles: 41885542 heartbeat IPC: 0.73 cumulative IPC: 0.7132 (Simulation time: 00 hr 06 min 02 sec)
Heartbeat CPU 0 instructions: 73000375 cycles: 42571451 heartbeat IPC: 0.729 cumulative IPC: 0.7136 (Simulation time: 00 hr 06 min 07 sec)
Heartbeat CPU 0 instructions: 73500375 cycles: 43247038 heartbeat IPC: 0.7401 cumulative IPC: 0.7141 (Simulation time: 00 hr 06 min 12 sec)
Heartbeat CPU 0 instructions: 74000378 cycles: 43882429 heartbeat IPC: 0.7869 cumulative IPC: 0.7155 (Simulation time: 00 hr 06 min 17 sec)
Heartbeat CPU 0 instructions: 74500378 cycles: 44599845 heartbeat IPC: 0.6969 cumulative IPC: 0.7151 (Simulation time: 00 hr 06 min 22 sec)
Heartbeat CPU 0 instructions: 75000378 cycles: 45321270 heartbeat IPC: 0.6931 cumulative IPC: 0.7146 (Simulation time: 00 hr 06 min 27 sec)
Heartbeat CPU 0 instructions: 75500380 cycles: 46039326 heartbeat IPC: 0.6963 cumulative IPC: 0.7143 (Simulation time: 00 hr 06 min 32 sec)
Heartbeat CPU 0 instructions: 76000381 cycles: 46746829 heartbeat IPC: 0.7067 cumulative IPC: 0.7141 (Simulation time: 00 hr 06 min 36 sec)
Heartbeat CPU 0 instructions: 76500384 cycles: 47373622 heartbeat IPC: 0.7977 cumulative IPC: 0.7155 (Simulation time: 00 hr 06 min 41 sec)
Heartbeat CPU 0 instructions: 77000385 cycles: 48102568 heartbeat IPC: 0.6859 cumulative IPC: 0.715 (Simulation time: 00 hr 06 min 46 sec)
Heartbeat CPU 0 instructions: 77500386 cycles: 48821551 heartbeat IPC: 0.6954 cumulative IPC: 0.7146 (Simulation time: 00 hr 06 min 51 sec)
Heartbeat CPU 0 instructions: 78000388 cycles: 49628904 heartbeat IPC: 0.6193 cumulative IPC: 0.7126 (Simulation time: 00 hr 06 min 56 sec)
Heartbeat CPU 0 instructions: 78500388 cycles: 50345300 heartbeat IPC: 0.6979 cumulative IPC: 0.7124 (Simulation time: 00 hr 07 min 01 sec)
Heartbeat CPU 0 instructions: 79000391 cycles: 51074873 heartbeat IPC: 0.6853 cumulative IPC: 0.7119 (Simulation time: 00 hr 07 min 06 sec)
Heartbeat CPU 0 instructions: 79500392 cycles: 51800230 heartbeat IPC: 0.6893 cumulative IPC: 0.7115 (Simulation time: 00 hr 07 min 11 sec)
Heartbeat CPU 0 instructions: 80000395 cycles: 52196367 heartbeat IPC: 1.262 cumulative IPC: 0.7167 (Simulation time: 00 hr 07 min 15 sec)
Heartbeat CPU 0 instructions: 80500396 cycles: 52949890 heartbeat IPC: 0.6636 cumulative IPC: 0.7158 (Simulation time: 00 hr 07 min 20 sec)
Heartbeat CPU 0 instructions: 81000396 cycles: 53664599 heartbeat IPC: 0.6996 cumulative IPC: 0.7155 (Simulation time: 00 hr 07 min 25 sec)
Heartbeat CPU 0 instructions: 81500398 cycles: 54421801 heartbeat IPC: 0.6603 cumulative IPC: 0.7146 (Simulation time: 00 hr 07 min 30 sec)
Heartbeat CPU 0 instructions: 82000399 cycles: 55104128 heartbeat IPC: 0.7328 cumulative IPC: 0.7148 (Simulation time: 00 hr 07 min 35 sec)
Heartbeat CPU 0 instructions: 82500400 cycles: 55824330 heartbeat IPC: 0.6943 cumulative IPC: 0.7145 (Simulation time: 00 hr 07 min 40 sec)
Heartbeat CPU 0 instructions: 83000401 cycles: 56530372 heartbeat IPC: 0.7082 cumulative IPC: 0.7144 (Simulation time: 00 hr 07 min 45 sec)
Heartbeat CPU 0 instructions: 83500401 cycles: 57277856 heartbeat IPC: 0.6689 cumulative IPC: 0.7137 (Simulation time: 00 hr 07 min 50 sec)
Heartbeat CPU 0 instructions: 84000405 cycles: 57993188 heartbeat IPC: 0.699 cumulative IPC: 0.7135 (Simulation time: 00 hr 07 min 55 sec)
Heartbeat CPU 0 instructions: 84500407 cycles: 58677412 heartbeat IPC: 0.7308 cumulative IPC: 0.7137 (Simulation time: 00 hr 08 min 00 sec)
Heartbeat CPU 0 instructions: 85000407 cycles: 59410750 heartbeat IPC: 0.6818 cumulative IPC: 0.7132 (Simulation time: 00 hr 08 min 05 sec)
Heartbeat CPU 0 instructions: 85500408 cycles: 60247880 heartbeat IPC: 0.5973 cumulative IPC: 0.7113 (Simulation time: 00 hr 08 min 10 sec)
Heartbeat CPU 0 instructions: 86000408 cycles: 61033871 heartbeat IPC: 0.6361 cumulative IPC: 0.7101 (Simulation time: 00 hr 08 min 16 sec)
Heartbeat CPU 0 instructions: 86500409 cycles: 61725202 heartbeat IPC: 0.7232 cumulative IPC: 0.7103 (Simulation time: 00 hr 08 min 20 sec)
Heartbeat CPU 0 instructions: 87000410 cycles: 62498448 heartbeat IPC: 0.6466 cumulative IPC: 0.7094 (Simulation time: 00 hr 08 min 26 sec)
Heartbeat CPU 0 instructions: 87500412 cycles: 63200848 heartbeat IPC: 0.7118 cumulative IPC: 0.7094 (Simulation time: 00 hr 08 min 30 sec)
Heartbeat CPU 0 instructions: 88000417 cycles: 63638830 heartbeat IPC: 1.142 cumulative IPC: 0.7129 (Simulation time: 00 hr 08 min 34 sec)
Heartbeat CPU 0 instructions: 88500418 cycles: 64317561 heartbeat IPC: 0.7367 cumulative IPC: 0.7132 (Simulation time: 00 hr 08 min 39 sec)
Heartbeat CPU 0 instructions: 89000423 cycles: 65059950 heartbeat IPC: 0.6735 cumulative IPC: 0.7127 (Simulation time: 00 hr 08 min 44 sec)
Heartbeat CPU 0 instructions: 89500423 cycles: 65828398 heartbeat IPC: 0.6507 cumulative IPC: 0.7118 (Simulation time: 00 hr 08 min 49 sec)
Heartbeat CPU 0 instructions: 90000424 cycles: 66482940 heartbeat IPC: 0.7639 cumulative IPC: 0.7124 (Simulation time: 00 hr 08 min 54 sec)
Heartbeat CPU 0 instructions: 90500424 cycles: 67259272 heartbeat IPC: 0.6441 cumulative IPC: 0.7115 (Simulation time: 00 hr 08 min 59 sec)
Heartbeat CPU 0 instructions: 91000427 cycles: 68002592 heartbeat IPC: 0.6727 cumulative IPC: 0.711 (Simulation time: 00 hr 09 min 04 sec)
Heartbeat CPU 0 instructions: 91500429 cycles: 68728601 heartbeat IPC: 0.6887 cumulative IPC: 0.7107 (Simulation time: 00 hr 09 min 09 sec)
Heartbeat CPU 0 instructions: 92000430 cycles: 69526166 heartbeat IPC: 0.6269 cumulative IPC: 0.7096 (Simulation time: 00 hr 09 min 14 sec)
Heartbeat CPU 0 instructions: 92500430 cycles: 70256165 heartbeat IPC: 0.6849 cumulative IPC: 0.7093 (Simulation time: 00 hr 09 min 19 sec)
Heartbeat CPU 0 instructions: 93000435 cycles: 70969834 heartbeat IPC: 0.7006 cumulative IPC: 0.7092 (Simulation time: 00 hr 09 min 24 sec)
Heartbeat CPU 0 instructions: 93500435 cycles: 71677540 heartbeat IPC: 0.7065 cumulative IPC: 0.7092 (Simulation time: 00 hr 09 min 29 sec)
Heartbeat CPU 0 instructions: 94000436 cycles: 72394015 heartbeat IPC: 0.6979 cumulative IPC: 0.709 (Simulation time: 00 hr 09 min 34 sec)
Heartbeat CPU 0 instructions: 94500439 cycles: 73137928 heartbeat IPC: 0.6721 cumulative IPC: 0.7086 (Simulation time: 00 hr 09 min 39 sec)
Heartbeat CPU 0 instructions: 95000440 cycles: 73891382 heartbeat IPC: 0.6636 cumulative IPC: 0.7081 (Simulation time: 00 hr 09 min 45 sec)
Heartbeat CPU 0 instructions: 95500440 cycles: 74568884 heartbeat IPC: 0.738 cumulative IPC: 0.7084 (Simulation time: 00 hr 09 min 50 sec)
Heartbeat CPU 0 instructions: 96000442 cycles: 75251312 heartbeat IPC: 0.7327 cumulative IPC: 0.7086 (Simulation time: 00 hr 09 min 55 sec)
Heartbeat CPU 0 instructions: 96500444 cycles: 75943733 heartbeat IPC: 0.7221 cumulative IPC: 0.7088 (Simulation time: 00 hr 10 min 01 sec)
Heartbeat CPU 0 instructions: 97000445 cycles: 76766312 heartbeat IPC: 0.6078 cumulative IPC: 0.7075 (Simulation time: 00 hr 10 min 07 sec)
Heartbeat CPU 0 instructions: 97500446 cycles: 77146540 heartbeat IPC: 1.315 cumulative IPC: 0.711 (Simulation time: 00 hr 10 min 11 sec)
Heartbeat CPU 0 instructions: 98000448 cycles: 77949431 heartbeat IPC: 0.6228 cumulative IPC: 0.7099 (Simulation time: 00 hr 10 min 17 sec)
Heartbeat CPU 0 instructions: 98500449 cycles: 78652045 heartbeat IPC: 0.7116 cumulative IPC: 0.71 (Simulation time: 00 hr 10 min 23 sec)
Heartbeat CPU 0 instructions: 99000449 cycles: 79264736 heartbeat IPC: 0.8161 cumulative IPC: 0.7109 (Simulation time: 00 hr 10 min 28 sec)
Heartbeat CPU 0 instructions: 99500452 cycles: 80091926 heartbeat IPC: 0.6045 cumulative IPC: 0.7096 (Simulation time: 00 hr 10 min 34 sec)
Heartbeat CPU 0 instructions: 100000456 cycles: 80860559 heartbeat IPC: 0.6505 cumulative IPC: 0.709 (Simulation time: 00 hr 10 min 40 sec)
Heartbeat CPU 0 instructions: 100500456 cycles: 81607256 heartbeat IPC: 0.6696 cumulative IPC: 0.7086 (Simulation time: 00 hr 10 min 46 sec)
Heartbeat CPU 0 instructions: 101000456 cycles: 82364857 heartbeat IPC: 0.66 cumulative IPC: 0.7081 (Simulation time: 00 hr 10 min 52 sec)
Heartbeat CPU 0 instructions: 101500456 cycles: 83127924 heartbeat IPC: 0.6553 cumulative IPC: 0.7075 (Simulation time: 00 hr 10 min 58 sec)
Heartbeat CPU 0 instructions: 102000456 cycles: 83887350 heartbeat IPC: 0.6584 cumulative IPC: 0.707 (Simulation time: 00 hr 11 min 04 sec)
Heartbeat CPU 0 instructions: 102500460 cycles: 84668366 heartbeat IPC: 0.6402 cumulative IPC: 0.7063 (Simulation time: 00 hr 11 min 10 sec)
Heartbeat CPU 0 instructions: 103000465 cycles: 85396690 heartbeat IPC: 0.6865 cumulative IPC: 0.7061 (Simulation time: 00 hr 11 min 15 sec)
Heartbeat CPU 0 instructions: 103500467 cycles: 86091475 heartbeat IPC: 0.7196 cumulative IPC: 0.7062 (Simulation time: 00 hr 11 min 21 sec)
Heartbeat CPU 0 instructions: 104000469 cycles: 86869761 heartbeat IPC: 0.6424 cumulative IPC: 0.7056 (Simulation time: 00 hr 11 min 27 sec)
Heartbeat CPU 0 instructions: 104500471 cycles: 87629185 heartbeat IPC: 0.6584 cumulative IPC: 0.7051 (Simulation time: 00 hr 11 min 33 sec)
Heartbeat CPU 0 instructions: 105000472 cycles: 88359150 heartbeat IPC: 0.685 cumulative IPC: 0.7049 (Simulation time: 00 hr 11 min 39 sec)
Heartbeat CPU 0 instructions: 105500477 cycles: 89134756 heartbeat IPC: 0.6447 cumulative IPC: 0.7043 (Simulation time: 00 hr 11 min 45 sec)
Heartbeat CPU 0 instructions: 106000478 cycles: 89921073 heartbeat IPC: 0.6359 cumulative IPC: 0.7037 (Simulation time: 00 hr 11 min 51 sec)
Heartbeat CPU 0 instructions: 106500478 cycles: 90698809 heartbeat IPC: 0.6429 cumulative IPC: 0.7031 (Simulation time: 00 hr 11 min 58 sec)
Heartbeat CPU 0 instructions: 107000483 cycles: 91394155 heartbeat IPC: 0.7191 cumulative IPC: 0.7032 (Simulation time: 00 hr 12 min 05 sec)
Heartbeat CPU 0 instructions: 107500486 cycles: 91915143 heartbeat IPC: 0.9597 cumulative IPC: 0.7049 (Simulation time: 00 hr 12 min 11 sec)
Heartbeat CPU 0 instructions: 108000486 cycles: 92681329 heartbeat IPC: 0.6526 cumulative IPC: 0.7044 (Simulation time: 00 hr 12 min 17 sec)
Heartbeat CPU 0 instructions: 108500487 cycles: 93439826 heartbeat IPC: 0.6592 cumulative IPC: 0.704 (Simulation time: 00 hr 12 min 23 sec)
Heartbeat CPU 0 instructions: 109000488 cycles: 93830502 heartbeat IPC: 1.28 cumulative IPC: 0.7067 (Simulation time: 00 hr 12 min 27 sec)
Heartbeat CPU 0 instructions: 109500488 cycles: 94646987 heartbeat IPC: 0.6124 cumulative IPC: 0.7057 (Simulation time: 00 hr 12 min 33 sec)
Heartbeat CPU 0 instructions: 110000488 cycles: 95444140 heartbeat IPC: 0.6272 cumulative IPC: 0.705 (Simulation time: 00 hr 12 min 39 sec)
Heartbeat CPU 0 instructions: 110500490 cycles: 96126296 heartbeat IPC: 0.733 cumulative IPC: 0.7052 (Simulation time: 00 hr 12 min 45 sec)
Heartbeat CPU 0 instructions: 111000490 cycles: 96877401 heartbeat IPC: 0.6657 cumulative IPC: 0.7049 (Simulation time: 00 hr 12 min 50 sec)
Heartbeat CPU 0 instructions: 111500490 cycles: 97650123 heartbeat IPC: 0.6471 cumulative IPC: 0.7044 (Simulation time: 00 hr 12 min 56 sec)
Heartbeat CPU 0 instructions: 112000491 cycles: 98428096 heartbeat IPC: 0.6427 cumulative IPC: 0.7038 (Simulation time: 00 hr 13 min 02 sec)
Heartbeat CPU 0 instructions: 112500495 cycles: 99217432 heartbeat IPC: 0.6334 cumulative IPC: 0.7032 (Simulation time: 00 hr 13 min 08 sec)
Heartbeat CPU 0 instructions: 113000495 cycles: 100001378 heartbeat IPC: 0.6378 cumulative IPC: 0.7026 (Simulation time: 00 hr 13 min 14 sec)
Heartbeat CPU 0 instructions: 113500498 cycles: 100724277 heartbeat IPC: 0.6917 cumulative IPC: 0.7025 (Simulation time: 00 hr 13 min 20 sec)
Heartbeat CPU 0 instructions: 114000498 cycles: 101481187 heartbeat IPC: 0.6606 cumulative IPC: 0.7022 (Simulation time: 00 hr 13 min 26 sec)
Heartbeat CPU 0 instructions: 114500498 cycles: 102266648 heartbeat IPC: 0.6366 cumulative IPC: 0.7016 (Simulation time: 00 hr 13 min 32 sec)
Heartbeat CPU 0 instructions: 115000498 cycles: 103066840 heartbeat IPC: 0.6249 cumulative IPC: 0.701 (Simulation time: 00 hr 13 min 38 sec)
Heartbeat CPU 0 instructions: 115500501 cycles: 103838001 heartbeat IPC: 0.6484 cumulative IPC: 0.7005 (Simulation time: 00 hr 13 min 44 sec)
Heartbeat CPU 0 instructions: 116000503 cycles: 104615563 heartbeat IPC: 0.643 cumulative IPC: 0.7001 (Simulation time: 00 hr 13 min 50 sec)
Heartbeat CPU 0 instructions: 116500503 cycles: 105396972 heartbeat IPC: 0.6399 cumulative IPC: 0.6996 (Simulation time: 00 hr 13 min 56 sec)
Heartbeat CPU 0 instructions: 117000506 cycles: 106056971 heartbeat IPC: 0.7576 cumulative IPC: 0.7 (Simulation time: 00 hr 14 min 01 sec)
Heartbeat CPU 0 instructions: 117500507 cycles: 106799985 heartbeat IPC: 0.6729 cumulative IPC: 0.6998 (Simulation time: 00 hr 14 min 07 sec)
Heartbeat CPU 0 instructions: 118000509 cycles: 107600620 heartbeat IPC: 0.6245 cumulative IPC: 0.6991 (Simulation time: 00 hr 14 min 13 sec)
Heartbeat CPU 0 instructions: 118500510 cycles: 108416975 heartbeat IPC: 0.6125 cumulative IPC: 0.6984 (Simulation time: 00 hr 14 min 19 sec)
Heartbeat CPU 0 instructions: 119000511 cycles: 109218866 heartbeat IPC: 0.6235 cumulative IPC: 0.6978 (Simulation time: 00 hr 14 min 25 sec)
Heartbeat CPU 0 instructions: 119500512 cycles: 110116205 heartbeat IPC: 0.5572 cumulative IPC: 0.6965 (Simulation time: 00 hr 14 min 32 sec)
Heartbeat CPU 0 instructions: 120000518 cycles: 110935286 heartbeat IPC: 0.6104 cumulative IPC: 0.6958 (Simulation time: 00 hr 14 min 38 sec)
Heartbeat CPU 0 instructions: 120500518 cycles: 111764819 heartbeat IPC: 0.6027 cumulative IPC: 0.6951 (Simulation time: 00 hr 14 min 44 sec)
Heartbeat CPU 0 instructions: 121000521 cycles: 112576994 heartbeat IPC: 0.6156 cumulative IPC: 0.6945 (Simulation time: 00 hr 14 min 50 sec)
Heartbeat CPU 0 instructions: 121500523 cycles: 113433761 heartbeat IPC: 0.5836 cumulative IPC: 0.6935 (Simulation time: 00 hr 14 min 57 sec)
Heartbeat CPU 0 instructions: 122000526 cycles: 114207344 heartbeat IPC: 0.6463 cumulative IPC: 0.6932 (Simulation time: 00 hr 15 min 03 sec)
Heartbeat CPU 0 instructions: 122500529 cycles: 115003309 heartbeat IPC: 0.6282 cumulative IPC: 0.6927 (Simulation time: 00 hr 15 min 09 sec)
Heartbeat CPU 0 instructions: 123000532 cycles: 115814041 heartbeat IPC: 0.6167 cumulative IPC: 0.6921 (Simulation time: 00 hr 15 min 15 sec)
Heartbeat CPU 0 instructions: 123500532 cycles: 116582484 heartbeat IPC: 0.6507 cumulative IPC: 0.6918 (Simulation time: 00 hr 15 min 21 sec)
Heartbeat CPU 0 instructions: 124000534 cycles: 117276843 heartbeat IPC: 0.7201 cumulative IPC: 0.692 (Simulation time: 00 hr 15 min 26 sec)
Heartbeat CPU 0 instructions: 124500537 cycles: 118194783 heartbeat IPC: 0.5447 cumulative IPC: 0.6907 (Simulation time: 00 hr 15 min 33 sec)
Heartbeat CPU 0 instructions: 125000538 cycles: 118997118 heartbeat IPC: 0.6232 cumulative IPC: 0.6902 (Simulation time: 00 hr 15 min 39 sec)
Heartbeat CPU 0 instructions: 125500538 cycles: 119806176 heartbeat IPC: 0.618 cumulative IPC: 0.6897 (Simulation time: 00 hr 15 min 46 sec)
Heartbeat CPU 0 instructions: 126000539 cycles: 120595388 heartbeat IPC: 0.6335 cumulative IPC: 0.6893 (Simulation time: 00 hr 15 min 52 sec)
Heartbeat CPU 0 instructions: 126500542 cycles: 121379355 heartbeat IPC: 0.6378 cumulative IPC: 0.6889 (Simulation time: 00 hr 15 min 58 sec)
Heartbeat CPU 0 instructions: 127000547 cycles: 122033045 heartbeat IPC: 0.7649 cumulative IPC: 0.6894 (Simulation time: 00 hr 16 min 03 sec)
Heartbeat CPU 0 instructions: 127500547 cycles: 122569572 heartbeat IPC: 0.9319 cumulative IPC: 0.6905 (Simulation time: 00 hr 16 min 08 sec)
Heartbeat CPU 0 instructions: 128000551 cycles: 123427772 heartbeat IPC: 0.5826 cumulative IPC: 0.6897 (Simulation time: 00 hr 16 min 14 sec)
Heartbeat CPU 0 instructions: 128500552 cycles: 124247692 heartbeat IPC: 0.6098 cumulative IPC: 0.6891 (Simulation time: 00 hr 16 min 20 sec)
Heartbeat CPU 0 instructions: 129000554 cycles: 125097282 heartbeat IPC: 0.5885 cumulative IPC: 0.6884 (Simulation time: 00 hr 16 min 27 sec)
Heartbeat CPU 0 instructions: 129500554 cycles: 125857571 heartbeat IPC: 0.6576 cumulative IPC: 0.6882 (Simulation time: 00 hr 16 min 32 sec)
Heartbeat CPU 0 instructions: 130000556 cycles: 126664575 heartbeat IPC: 0.6196 cumulative IPC: 0.6877 (Simulation time: 00 hr 16 min 39 sec)
Heartbeat CPU 0 instructions: 130500556 cycles: 127195162 heartbeat IPC: 0.9424 cumulative IPC: 0.6889 (Simulation time: 00 hr 16 min 43 sec)
Heartbeat CPU 0 instructions: 131000561 cycles: 128075353 heartbeat IPC: 0.5681 cumulative IPC: 0.688 (Simulation time: 00 hr 16 min 50 sec)
Heartbeat CPU 0 instructions: 131500564 cycles: 128824825 heartbeat IPC: 0.6671 cumulative IPC: 0.6878 (Simulation time: 00 hr 16 min 56 sec)
Heartbeat CPU 0 instructions: 132000565 cycles: 129676099 heartbeat IPC: 0.5874 cumulative IPC: 0.6871 (Simulation time: 00 hr 17 min 02 sec)
Heartbeat CPU 0 instructions: 132500565 cycles: 130120416 heartbeat IPC: 1.125 cumulative IPC: 0.6888 (Simulation time: 00 hr 17 min 06 sec)
Heartbeat CPU 0 instructions: 133000567 cycles: 130932880 heartbeat IPC: 0.6154 cumulative IPC: 0.6883 (Simulation time: 00 hr 17 min 13 sec)
Heartbeat CPU 0 instructions: 133500567 cycles: 131602431 heartbeat IPC: 0.7468 cumulative IPC: 0.6886 (Simulation time: 00 hr 17 min 18 sec)
Heartbeat CPU 0 instructions: 134000569 cycles: 132539450 heartbeat IPC: 0.5336 cumulative IPC: 0.6874 (Simulation time: 00 hr 17 min 25 sec)
Heartbeat CPU 0 instructions: 134500571 cycles: 133394092 heartbeat IPC: 0.585 cumulative IPC: 0.6867 (Simulation time: 00 hr 17 min 31 sec)
Heartbeat CPU 0 instructions: 135000573 cycles: 134272490 heartbeat IPC: 0.5692 cumulative IPC: 0.6858 (Simulation time: 00 hr 17 min 38 sec)
Heartbeat CPU 0 instructions: 135500574 cycles: 135072382 heartbeat IPC: 0.6251 cumulative IPC: 0.6855 (Simulation time: 00 hr 17 min 44 sec)
Heartbeat CPU 0 instructions: 136000574 cycles: 135975423 heartbeat IPC: 0.5537 cumulative IPC: 0.6845 (Simulation time: 00 hr 17 min 50 sec)
Heartbeat CPU 0 instructions: 136500574 cycles: 136853623 heartbeat IPC: 0.5693 cumulative IPC: 0.6837 (Simulation time: 00 hr 17 min 57 sec)
Heartbeat CPU 0 instructions: 137000574 cycles: 137681637 heartbeat IPC: 0.6039 cumulative IPC: 0.6832 (Simulation time: 00 hr 18 min 03 sec)
Heartbeat CPU 0 instructions: 137500574 cycles: 138624119 heartbeat IPC: 0.5305 cumulative IPC: 0.6821 (Simulation time: 00 hr 18 min 10 sec)
Heartbeat CPU 0 instructions: 138000574 cycles: 139535443 heartbeat IPC: 0.5487 cumulative IPC: 0.6811 (Simulation time: 00 hr 18 min 17 sec)
Heartbeat CPU 0 instructions: 138500579 cycles: 140248884 heartbeat IPC: 0.7008 cumulative IPC: 0.6812 (Simulation time: 00 hr 18 min 22 sec)
Heartbeat CPU 0 instructions: 139000580 cycles: 141026400 heartbeat IPC: 0.6431 cumulative IPC: 0.681 (Simulation time: 00 hr 18 min 28 sec)
Heartbeat CPU 0 instructions: 139500583 cycles: 141884623 heartbeat IPC: 0.5826 cumulative IPC: 0.6804 (Simulation time: 00 hr 18 min 34 sec)
Heartbeat CPU 0 instructions: 140000584 cycles: 142762450 heartbeat IPC: 0.5696 cumulative IPC: 0.6796 (Simulation time: 00 hr 18 min 41 sec)
Heartbeat CPU 0 instructions: 140500588 cycles: 143330466 heartbeat IPC: 0.8803 cumulative IPC: 0.6805 (Simulation time: 00 hr 18 min 46 sec)
Heartbeat CPU 0 instructions: 141000589 cycles: 143920989 heartbeat IPC: 0.8467 cumulative IPC: 0.6812 (Simulation time: 00 hr 18 min 51 sec)
Heartbeat CPU 0 instructions: 141500589 cycles: 144757575 heartbeat IPC: 0.5977 cumulative IPC: 0.6807 (Simulation time: 00 hr 18 min 57 sec)
Heartbeat CPU 0 instructions: 142000591 cycles: 145637777 heartbeat IPC: 0.5681 cumulative IPC: 0.68 (Simulation time: 00 hr 19 min 03 sec)
Heartbeat CPU 0 instructions: 142500593 cycles: 146430906 heartbeat IPC: 0.6304 cumulative IPC: 0.6797 (Simulation time: 00 hr 19 min 09 sec)
Heartbeat CPU 0 instructions: 143000593 cycles: 147403360 heartbeat IPC: 0.5142 cumulative IPC: 0.6785 (Simulation time: 00 hr 19 min 16 sec)
Heartbeat CPU 0 instructions: 143500597 cycles: 148243282 heartbeat IPC: 0.5953 cumulative IPC: 0.678 (Simulation time: 00 hr 19 min 23 sec)
Heartbeat CPU 0 instructions: 144000599 cycles: 149213736 heartbeat IPC: 0.5152 cumulative IPC: 0.6769 (Simulation time: 00 hr 19 min 30 sec)
Heartbeat CPU 0 instructions: 144500601 cycles: 150109079 heartbeat IPC: 0.5584 cumulative IPC: 0.6761 (Simulation time: 00 hr 19 min 36 sec)
Heartbeat CPU 0 instructions: 145000601 cycles: 151028282 heartbeat IPC: 0.5439 cumulative IPC: 0.6752 (Simulation time: 00 hr 19 min 43 sec)
Heartbeat CPU 0 instructions: 145500601 cycles: 151920233 heartbeat IPC: 0.5606 cumulative IPC: 0.6745 (Simulation time: 00 hr 19 min 49 sec)
Heartbeat CPU 0 instructions: 146000602 cycles: 152838627 heartbeat IPC: 0.5444 cumulative IPC: 0.6737 (Simulation time: 00 hr 19 min 56 sec)
Heartbeat CPU 0 instructions: 146500602 cycles: 153760888 heartbeat IPC: 0.5421 cumulative IPC: 0.6728 (Simulation time: 00 hr 20 min 03 sec)
Heartbeat CPU 0 instructions: 147000605 cycles: 154619792 heartbeat IPC: 0.5821 cumulative IPC: 0.6723 (Simulation time: 00 hr 20 min 09 sec)
Heartbeat CPU 0 instructions: 147500605 cycles: 155479522 heartbeat IPC: 0.5816 cumulative IPC: 0.6718 (Simulation time: 00 hr 20 min 16 sec)
Heartbeat CPU 0 instructions: 148000606 cycles: 156400473 heartbeat IPC: 0.5429 cumulative IPC: 0.6709 (Simulation time: 00 hr 20 min 22 sec)
Heartbeat CPU 0 instructions: 148500610 cycles: 157287946 heartbeat IPC: 0.5634 cumulative IPC: 0.6703 (Simulation time: 00 hr 20 min 29 sec)
Heartbeat CPU 0 instructions: 149000611 cycles: 158309537 heartbeat IPC: 0.4894 cumulative IPC: 0.6691 (Simulation time: 00 hr 20 min 36 sec)
Heartbeat CPU 0 instructions: 149500612 cycles: 159205932 heartbeat IPC: 0.5578 cumulative IPC: 0.6684 (Simulation time: 00 hr 20 min 42 sec)
Heartbeat CPU 0 instructions: 150000612 cycles: 160055602 heartbeat IPC: 0.5885 cumulative IPC: 0.6679 (Simulation time: 00 hr 20 min 49 sec)
Heartbeat CPU 0 instructions: 150500614 cycles: 161009193 heartbeat IPC: 0.5243 cumulative IPC: 0.667 (Simulation time: 00 hr 20 min 56 sec)
Heartbeat CPU 0 instructions: 151000618 cycles: 161966672 heartbeat IPC: 0.5222 cumulative IPC: 0.6661 (Simulation time: 00 hr 21 min 03 sec)
Heartbeat CPU 0 instructions: 151500620 cycles: 162653856 heartbeat IPC: 0.7276 cumulative IPC: 0.6664 (Simulation time: 00 hr 21 min 08 sec)
Heartbeat CPU 0 instructions: 152000620 cycles: 163585090 heartbeat IPC: 0.5369 cumulative IPC: 0.6656 (Simulation time: 00 hr 21 min 15 sec)
Heartbeat CPU 0 instructions: 152500622 cycles: 164597938 heartbeat IPC: 0.4937 cumulative IPC: 0.6645 (Simulation time: 00 hr 21 min 22 sec)
Heartbeat CPU 0 instructions: 153000623 cycles: 165555372 heartbeat IPC: 0.5222 cumulative IPC: 0.6636 (Simulation time: 00 hr 21 min 29 sec)
Heartbeat CPU 0 instructions: 153500625 cycles: 166088705 heartbeat IPC: 0.9375 cumulative IPC: 0.6645 (Simulation time: 00 hr 21 min 34 sec)
Heartbeat CPU 0 instructions: 154000627 cycles: 166327426 heartbeat IPC: 2.095 cumulative IPC: 0.6667 (Simulation time: 00 hr 21 min 37 sec)
Heartbeat CPU 0 instructions: 154500632 cycles: 166936002 heartbeat IPC: 0.8216 cumulative IPC: 0.6673 (Simulation time: 00 hr 21 min 42 sec)
Heartbeat CPU 0 instructions: 155000632 cycles: 167953506 heartbeat IPC: 0.4914 cumulative IPC: 0.6662 (Simulation time: 00 hr 21 min 49 sec)
Heartbeat CPU 0 instructions: 155500632 cycles: 168878168 heartbeat IPC: 0.5407 cumulative IPC: 0.6654 (Simulation time: 00 hr 21 min 56 sec)
Heartbeat CPU 0 instructions: 156000634 cycles: 169848634 heartbeat IPC: 0.5152 cumulative IPC: 0.6645 (Simulation time: 00 hr 22 min 03 sec)
Heartbeat CPU 0 instructions: 156500636 cycles: 170755005 heartbeat IPC: 0.5517 cumulative IPC: 0.6639 (Simulation time: 00 hr 22 min 09 sec)
Heartbeat CPU 0 instructions: 157000639 cycles: 170990567 heartbeat IPC: 2.123 cumulative IPC: 0.666 (Simulation time: 00 hr 22 min 13 sec)
Heartbeat CPU 0 instructions: 157500641 cycles: 171219634 heartbeat IPC: 2.183 cumulative IPC: 0.6682 (Simulation time: 00 hr 22 min 16 sec)
Heartbeat CPU 0 instructions: 158000641 cycles: 171470664 heartbeat IPC: 1.992 cumulative IPC: 0.6703 (Simulation time: 00 hr 22 min 19 sec)
Heartbeat CPU 0 instructions: 158500646 cycles: 172313462 heartbeat IPC: 0.5933 cumulative IPC: 0.6699 (Simulation time: 00 hr 22 min 25 sec)
Heartbeat CPU 0 instructions: 159000647 cycles: 173373394 heartbeat IPC: 0.4717 cumulative IPC: 0.6686 (Simulation time: 00 hr 22 min 33 sec)
Heartbeat CPU 0 instructions: 159500648 cycles: 174158089 heartbeat IPC: 0.6372 cumulative IPC: 0.6684 (Simulation time: 00 hr 22 min 39 sec)
Heartbeat CPU 0 instructions: 160000649 cycles: 175154818 heartbeat IPC: 0.5016 cumulative IPC: 0.6674 (Simulation time: 00 hr 22 min 46 sec)
Heartbeat CPU 0 instructions: 160500649 cycles: 176167908 heartbeat IPC: 0.4935 cumulative IPC: 0.6663 (Simulation time: 00 hr 22 min 53 sec)
Heartbeat CPU 0 instructions: 161000649 cycles: 176653528 heartbeat IPC: 1.03 cumulative IPC: 0.6674 (Simulation time: 00 hr 22 min 58 sec)
Heartbeat CPU 0 instructions: 161500650 cycles: 177552881 heartbeat IPC: 0.556 cumulative IPC: 0.6668 (Simulation time: 00 hr 23 min 04 sec)
Heartbeat CPU 0 instructions: 162000654 cycles: 178568713 heartbeat IPC: 0.4922 cumulative IPC: 0.6658 (Simulation time: 00 hr 23 min 11 sec)
Heartbeat CPU 0 instructions: 162500654 cycles: 179461902 heartbeat IPC: 0.5598 cumulative IPC: 0.6652 (Simulation time: 00 hr 23 min 18 sec)
Heartbeat CPU 0 instructions: 163000655 cycles: 180449576 heartbeat IPC: 0.5062 cumulative IPC: 0.6643 (Simulation time: 00 hr 23 min 25 sec)
Heartbeat CPU 0 instructions: 163500656 cycles: 181430134 heartbeat IPC: 0.5099 cumulative IPC: 0.6634 (Simulation time: 00 hr 23 min 32 sec)
Heartbeat CPU 0 instructions: 164000661 cycles: 182433716 heartbeat IPC: 0.4982 cumulative IPC: 0.6624 (Simulation time: 00 hr 23 min 39 sec)
Heartbeat CPU 0 instructions: 164500661 cycles: 183434248 heartbeat IPC: 0.4997 cumulative IPC: 0.6615 (Simulation time: 00 hr 23 min 46 sec)
Heartbeat CPU 0 instructions: 165000661 cycles: 184442608 heartbeat IPC: 0.4959 cumulative IPC: 0.6605 (Simulation time: 00 hr 23 min 54 sec)
Heartbeat CPU 0 instructions: 165500661 cycles: 185389827 heartbeat IPC: 0.5279 cumulative IPC: 0.6598 (Simulation time: 00 hr 24 min 00 sec)
Heartbeat CPU 0 instructions: 166000666 cycles: 186357183 heartbeat IPC: 0.5169 cumulative IPC: 0.659 (Simulation time: 00 hr 24 min 07 sec)
Heartbeat CPU 0 instructions: 166500667 cycles: 187163804 heartbeat IPC: 0.6199 cumulative IPC: 0.6588 (Simulation time: 00 hr 24 min 13 sec)
Heartbeat CPU 0 instructions: 167000669 cycles: 188141062 heartbeat IPC: 0.5116 cumulative IPC: 0.658 (Simulation time: 00 hr 24 min 20 sec)
Heartbeat CPU 0 instructions: 167500670 cycles: 189240258 heartbeat IPC: 0.4549 cumulative IPC: 0.6568 (Simulation time: 00 hr 24 min 28 sec)
Heartbeat CPU 0 instructions: 168000670 cycles: 190268141 heartbeat IPC: 0.4864 cumulative IPC: 0.6558 (Simulation time: 00 hr 24 min 35 sec)
Heartbeat CPU 0 instructions: 168500673 cycles: 191253788 heartbeat IPC: 0.5073 cumulative IPC: 0.655 (Simulation time: 00 hr 24 min 42 sec)
Heartbeat CPU 0 instructions: 169000678 cycles: 192220460 heartbeat IPC: 0.5172 cumulative IPC: 0.6543 (Simulation time: 00 hr 24 min 49 sec)
Heartbeat CPU 0 instructions: 169500682 cycles: 192969643 heartbeat IPC: 0.6674 cumulative IPC: 0.6543 (Simulation time: 00 hr 24 min 55 sec)
Heartbeat CPU 0 instructions: 170000684 cycles: 193699018 heartbeat IPC: 0.6855 cumulative IPC: 0.6544 (Simulation time: 00 hr 25 min 01 sec)
Heartbeat CPU 0 instructions: 170500686 cycles: 194676386 heartbeat IPC: 0.5116 cumulative IPC: 0.6537 (Simulation time: 00 hr 25 min 08 sec)
Heartbeat CPU 0 instructions: 171000686 cycles: 195691246 heartbeat IPC: 0.4927 cumulative IPC: 0.6528 (Simulation time: 00 hr 25 min 15 sec)
Heartbeat CPU 0 instructions: 171500686 cycles: 196727783 heartbeat IPC: 0.4824 cumulative IPC: 0.6519 (Simulation time: 00 hr 25 min 22 sec)
Heartbeat CPU 0 instructions: 172000687 cycles: 197706467 heartbeat IPC: 0.5109 cumulative IPC: 0.6511 (Simulation time: 00 hr 25 min 29 sec)
Heartbeat CPU 0 instructions: 172500687 cycles: 198727787 heartbeat IPC: 0.4896 cumulative IPC: 0.6503 (Simulation time: 00 hr 25 min 36 sec)
Heartbeat CPU 0 instructions: 173000691 cycles: 199724126 heartbeat IPC: 0.5018 cumulative IPC: 0.6495 (Simulation time: 00 hr 25 min 43 sec)
Heartbeat CPU 0 instructions: 173500693 cycles: 200677185 heartbeat IPC: 0.5246 cumulative IPC: 0.6488 (Simulation time: 00 hr 25 min 50 sec)
Heartbeat CPU 0 instructions: 174000693 cycles: 201619147 heartbeat IPC: 0.5308 cumulative IPC: 0.6483 (Simulation time: 00 hr 25 min 57 sec)
Heartbeat CPU 0 instructions: 174500698 cycles: 202673801 heartbeat IPC: 0.4741 cumulative IPC: 0.6473 (Simulation time: 00 hr 26 min 04 sec)
Heartbeat CPU 0 instructions: 175000703 cycles: 203446870 heartbeat IPC: 0.6468 cumulative IPC: 0.6473 (Simulation time: 00 hr 26 min 10 sec)
Heartbeat CPU 0 instructions: 175500703 cycles: 204502540 heartbeat IPC: 0.4736 cumulative IPC: 0.6464 (Simulation time: 00 hr 26 min 17 sec)
Heartbeat CPU 0 instructions: 176000704 cycles: 205408149 heartbeat IPC: 0.5521 cumulative IPC: 0.6459 (Simulation time: 00 hr 26 min 24 sec)
Heartbeat CPU 0 instructions: 176500709 cycles: 206469422 heartbeat IPC: 0.4711 cumulative IPC: 0.645 (Simulation time: 00 hr 26 min 31 sec)
Heartbeat CPU 0 instructions: 177000710 cycles: 207434990 heartbeat IPC: 0.5178 cumulative IPC: 0.6444 (Simulation time: 00 hr 26 min 38 sec)
Heartbeat CPU 0 instructions: 177500710 cycles: 208499269 heartbeat IPC: 0.4698 cumulative IPC: 0.6434 (Simulation time: 00 hr 26 min 46 sec)
Heartbeat CPU 0 instructions: 178000710 cycles: 209622735 heartbeat IPC: 0.4451 cumulative IPC: 0.6423 (Simulation time: 00 hr 26 min 53 sec)
Heartbeat CPU 0 instructions: 178500711 cycles: 210640211 heartbeat IPC: 0.4914 cumulative IPC: 0.6415 (Simulation time: 00 hr 27 min 01 sec)
Heartbeat CPU 0 instructions: 179000716 cycles: 211579662 heartbeat IPC: 0.5322 cumulative IPC: 0.641 (Simulation time: 00 hr 27 min 07 sec)
Heartbeat CPU 0 instructions: 179500716 cycles: 212688281 heartbeat IPC: 0.451 cumulative IPC: 0.64 (Simulation time: 00 hr 27 min 15 sec)
Heartbeat CPU 0 instructions: 180000716 cycles: 213672262 heartbeat IPC: 0.5081 cumulative IPC: 0.6393 (Simulation time: 00 hr 27 min 22 sec)
Heartbeat CPU 0 instructions: 180500716 cycles: 214809816 heartbeat IPC: 0.4395 cumulative IPC: 0.6382 (Simulation time: 00 hr 27 min 30 sec)
Heartbeat CPU 0 instructions: 181000717 cycles: 215891798 heartbeat IPC: 0.4621 cumulative IPC: 0.6373 (Simulation time: 00 hr 27 min 37 sec)
Heartbeat CPU 0 instructions: 181500722 cycles: 216979220 heartbeat IPC: 0.4598 cumulative IPC: 0.6364 (Simulation time: 00 hr 27 min 45 sec)
Heartbeat CPU 0 instructions: 182000722 cycles: 217975856 heartbeat IPC: 0.5017 cumulative IPC: 0.6357 (Simulation time: 00 hr 27 min 52 sec)
Heartbeat CPU 0 instructions: 182500722 cycles: 218913654 heartbeat IPC: 0.5332 cumulative IPC: 0.6353 (Simulation time: 00 hr 27 min 59 sec)
Heartbeat CPU 0 instructions: 183000724 cycles: 220011371 heartbeat IPC: 0.4555 cumulative IPC: 0.6343 (Simulation time: 00 hr 28 min 06 sec)
Heartbeat CPU 0 instructions: 183500726 cycles: 221092199 heartbeat IPC: 0.4626 cumulative IPC: 0.6334 (Simulation time: 00 hr 28 min 14 sec)
Heartbeat CPU 0 instructions: 184000726 cycles: 222084022 heartbeat IPC: 0.5041 cumulative IPC: 0.6328 (Simulation time: 00 hr 28 min 21 sec)
Heartbeat CPU 0 instructions: 184500727 cycles: 223147563 heartbeat IPC: 0.4701 cumulative IPC: 0.632 (Simulation time: 00 hr 28 min 28 sec)
Heartbeat CPU 0 instructions: 185000730 cycles: 224156296 heartbeat IPC: 0.4957 cumulative IPC: 0.6314 (Simulation time: 00 hr 28 min 35 sec)
Heartbeat CPU 0 instructions: 185500730 cycles: 225216692 heartbeat IPC: 0.4715 cumulative IPC: 0.6306 (Simulation time: 00 hr 28 min 43 sec)
Heartbeat CPU 0 instructions: 186000732 cycles: 226123323 heartbeat IPC: 0.5515 cumulative IPC: 0.6303 (Simulation time: 00 hr 28 min 49 sec)
Heartbeat CPU 0 instructions: 186500732 cycles: 227156070 heartbeat IPC: 0.4841 cumulative IPC: 0.6296 (Simulation time: 00 hr 28 min 56 sec)
Heartbeat CPU 0 instructions: 187000732 cycles: 228258897 heartbeat IPC: 0.4534 cumulative IPC: 0.6287 (Simulation time: 00 hr 29 min 04 sec)
Heartbeat CPU 0 instructions: 187500733 cycles: 229315175 heartbeat IPC: 0.4734 cumulative IPC: 0.6279 (Simulation time: 00 hr 29 min 11 sec)
Heartbeat CPU 0 instructions: 188000733 cycles: 230335511 heartbeat IPC: 0.49 cumulative IPC: 0.6273 (Simulation time: 00 hr 29 min 18 sec)
Heartbeat CPU 0 instructions: 188500733 cycles: 231152230 heartbeat IPC: 0.6122 cumulative IPC: 0.6272 (Simulation time: 00 hr 29 min 25 sec)
Heartbeat CPU 0 instructions: 189000734 cycles: 232224519 heartbeat IPC: 0.4663 cumulative IPC: 0.6264 (Simulation time: 00 hr 29 min 32 sec)
Heartbeat CPU 0 instructions: 189500735 cycles: 233297023 heartbeat IPC: 0.4662 cumulative IPC: 0.6257 (Simulation time: 00 hr 29 min 39 sec)
Heartbeat CPU 0 instructions: 190000736 cycles: 234420606 heartbeat IPC: 0.445 cumulative IPC: 0.6248 (Simulation time: 00 hr 29 min 47 sec)
Heartbeat CPU 0 instructions: 190500738 cycles: 235531258 heartbeat IPC: 0.4502 cumulative IPC: 0.6239 (Simulation time: 00 hr 29 min 55 sec)
Heartbeat CPU 0 instructions: 191000740 cycles: 236613358 heartbeat IPC: 0.4621 cumulative IPC: 0.6231 (Simulation time: 00 hr 30 min 02 sec)
Heartbeat CPU 0 instructions: 191500740 cycles: 237695904 heartbeat IPC: 0.4619 cumulative IPC: 0.6224 (Simulation time: 00 hr 30 min 09 sec)
Heartbeat CPU 0 instructions: 192000740 cycles: 238798663 heartbeat IPC: 0.4534 cumulative IPC: 0.6216 (Simulation time: 00 hr 30 min 17 sec)
Heartbeat CPU 0 instructions: 192500741 cycles: 239862477 heartbeat IPC: 0.47 cumulative IPC: 0.6209 (Simulation time: 00 hr 30 min 24 sec)
Heartbeat CPU 0 instructions: 193000741 cycles: 240941846 heartbeat IPC: 0.4632 cumulative IPC: 0.6201 (Simulation time: 00 hr 30 min 32 sec)
Heartbeat CPU 0 instructions: 193500741 cycles: 242017748 heartbeat IPC: 0.4647 cumulative IPC: 0.6194 (Simulation time: 00 hr 30 min 39 sec)
Heartbeat CPU 0 instructions: 194000741 cycles: 243002022 heartbeat IPC: 0.508 cumulative IPC: 0.6189 (Simulation time: 00 hr 30 min 46 sec)
Heartbeat CPU 0 instructions: 194500741 cycles: 244109246 heartbeat IPC: 0.4516 cumulative IPC: 0.6181 (Simulation time: 00 hr 30 min 54 sec)
Heartbeat CPU 0 instructions: 195000741 cycles: 245187586 heartbeat IPC: 0.4637 cumulative IPC: 0.6174 (Simulation time: 00 hr 31 min 01 sec)
Heartbeat CPU 0 instructions: 195500741 cycles: 246354672 heartbeat IPC: 0.4284 cumulative IPC: 0.6165 (Simulation time: 00 hr 31 min 09 sec)
Heartbeat CPU 0 instructions: 196000744 cycles: 247443624 heartbeat IPC: 0.4592 cumulative IPC: 0.6158 (Simulation time: 00 hr 31 min 17 sec)
Heartbeat CPU 0 instructions: 196500745 cycles: 248494587 heartbeat IPC: 0.4758 cumulative IPC: 0.6151 (Simulation time: 00 hr 31 min 24 sec)
Heartbeat CPU 0 instructions: 197000749 cycles: 249498897 heartbeat IPC: 0.4979 cumulative IPC: 0.6147 (Simulation time: 00 hr 31 min 31 sec)
Heartbeat CPU 0 instructions: 197500749 cycles: 250612203 heartbeat IPC: 0.4491 cumulative IPC: 0.6139 (Simulation time: 00 hr 31 min 38 sec)
Heartbeat CPU 0 instructions: 198000753 cycles: 251686585 heartbeat IPC: 0.4654 cumulative IPC: 0.6132 (Simulation time: 00 hr 31 min 46 sec)
Heartbeat CPU 0 instructions: 198500755 cycles: 252368236 heartbeat IPC: 0.7335 cumulative IPC: 0.6136 (Simulation time: 00 hr 31 min 51 sec)
Heartbeat CPU 0 instructions: 199000756 cycles: 253430595 heartbeat IPC: 0.4707 cumulative IPC: 0.6129 (Simulation time: 00 hr 31 min 59 sec)
Heartbeat CPU 0 instructions: 199500756 cycles: 254538224 heartbeat IPC: 0.4514 cumulative IPC: 0.6122 (Simulation time: 00 hr 32 min 06 sec)
Heartbeat CPU 0 instructions: 200000757 cycles: 255310763 heartbeat IPC: 0.6472 cumulative IPC: 0.6123 (Simulation time: 00 hr 32 min 12 sec)
Heartbeat CPU 0 instructions: 200500758 cycles: 256392969 heartbeat IPC: 0.462 cumulative IPC: 0.6117 (Simulation time: 00 hr 32 min 19 sec)
Heartbeat CPU 0 instructions: 201000758 cycles: 257494814 heartbeat IPC: 0.4538 cumulative IPC: 0.611 (Simulation time: 00 hr 32 min 27 sec)
Heartbeat CPU 0 instructions: 201500758 cycles: 258573172 heartbeat IPC: 0.4637 cumulative IPC: 0.6103 (Simulation time: 00 hr 32 min 34 sec)
Heartbeat CPU 0 instructions: 202000758 cycles: 259753566 heartbeat IPC: 0.4236 cumulative IPC: 0.6094 (Simulation time: 00 hr 32 min 42 sec)
Heartbeat CPU 0 instructions: 202500760 cycles: 260697345 heartbeat IPC: 0.5298 cumulative IPC: 0.6091 (Simulation time: 00 hr 32 min 49 sec)
Heartbeat CPU 0 instructions: 203000763 cycles: 261878508 heartbeat IPC: 0.4233 cumulative IPC: 0.6083 (Simulation time: 00 hr 32 min 57 sec)
Heartbeat CPU 0 instructions: 203500764 cycles: 263020541 heartbeat IPC: 0.4378 cumulative IPC: 0.6075 (Simulation time: 00 hr 33 min 05 sec)
Heartbeat CPU 0 instructions: 204000770 cycles: 264152700 heartbeat IPC: 0.4416 cumulative IPC: 0.6067 (Simulation time: 00 hr 33 min 13 sec)
Heartbeat CPU 0 instructions: 204500770 cycles: 265230854 heartbeat IPC: 0.4638 cumulative IPC: 0.6061 (Simulation time: 00 hr 33 min 20 sec)
Heartbeat CPU 0 instructions: 205000772 cycles: 266377050 heartbeat IPC: 0.4362 cumulative IPC: 0.6054 (Simulation time: 00 hr 33 min 28 sec)
Heartbeat CPU 0 instructions: 205500775 cycles: 267546358 heartbeat IPC: 0.4276 cumulative IPC: 0.6046 (Simulation time: 00 hr 33 min 36 sec)
Heartbeat CPU 0 instructions: 206000775 cycles: 268728233 heartbeat IPC: 0.4231 cumulative IPC: 0.6037 (Simulation time: 00 hr 33 min 44 sec)
Heartbeat CPU 0 instructions: 206500776 cycles: 269854871 heartbeat IPC: 0.4438 cumulative IPC: 0.603 (Simulation time: 00 hr 33 min 51 sec)
Heartbeat CPU 0 instructions: 207000776 cycles: 271006641 heartbeat IPC: 0.4341 cumulative IPC: 0.6023 (Simulation time: 00 hr 33 min 59 sec)
Heartbeat CPU 0 instructions: 207500776 cycles: 272234474 heartbeat IPC: 0.4072 cumulative IPC: 0.6014 (Simulation time: 00 hr 34 min 07 sec)
Heartbeat CPU 0 instructions: 208000779 cycles: 273327702 heartbeat IPC: 0.4574 cumulative IPC: 0.6008 (Simulation time: 00 hr 34 min 15 sec)
Heartbeat CPU 0 instructions: 208500779 cycles: 274322565 heartbeat IPC: 0.5026 cumulative IPC: 0.6004 (Simulation time: 00 hr 34 min 22 sec)
Heartbeat CPU 0 instructions: 209000783 cycles: 275443257 heartbeat IPC: 0.4462 cumulative IPC: 0.5998 (Simulation time: 00 hr 34 min 30 sec)
Heartbeat CPU 0 instructions: 209500784 cycles: 276593215 heartbeat IPC: 0.4348 cumulative IPC: 0.5991 (Simulation time: 00 hr 34 min 37 sec)
Heartbeat CPU 0 instructions: 210000784 cycles: 277762654 heartbeat IPC: 0.4276 cumulative IPC: 0.5983 (Simulation time: 00 hr 34 min 45 sec)
Heartbeat CPU 0 instructions: 210500785 cycles: 278744583 heartbeat IPC: 0.5092 cumulative IPC: 0.598 (Simulation time: 00 hr 34 min 52 sec)
Heartbeat CPU 0 instructions: 211000786 cycles: 279856089 heartbeat IPC: 0.4498 cumulative IPC: 0.5974 (Simulation time: 00 hr 35 min 00 sec)
Heartbeat CPU 0 instructions: 211500787 cycles: 281063895 heartbeat IPC: 0.414 cumulative IPC: 0.5965 (Simulation time: 00 hr 35 min 08 sec)
Heartbeat CPU 0 instructions: 212000787 cycles: 282289529 heartbeat IPC: 0.408 cumulative IPC: 0.5957 (Simulation time: 00 hr 35 min 16 sec)
Heartbeat CPU 0 instructions: 212500791 cycles: 283321918 heartbeat IPC: 0.4843 cumulative IPC: 0.5953 (Simulation time: 00 hr 35 min 24 sec)
Heartbeat CPU 0 instructions: 213000791 cycles: 284162950 heartbeat IPC: 0.5945 cumulative IPC: 0.5953 (Simulation time: 00 hr 35 min 30 sec)
Heartbeat CPU 0 instructions: 213500796 cycles: 285377148 heartbeat IPC: 0.4118 cumulative IPC: 0.5945 (Simulation time: 00 hr 35 min 38 sec)
Heartbeat CPU 0 instructions: 214000796 cycles: 286488066 heartbeat IPC: 0.4501 cumulative IPC: 0.5939 (Simulation time: 00 hr 35 min 46 sec)
Heartbeat CPU 0 instructions: 214500802 cycles: 287653073 heartbeat IPC: 0.4292 cumulative IPC: 0.5932 (Simulation time: 00 hr 35 min 54 sec)
Heartbeat CPU 0 instructions: 215000803 cycles: 288822103 heartbeat IPC: 0.4277 cumulative IPC: 0.5925 (Simulation time: 00 hr 36 min 02 sec)
Heartbeat CPU 0 instructions: 215500803 cycles: 289905911 heartbeat IPC: 0.4613 cumulative IPC: 0.592 (Simulation time: 00 hr 36 min 09 sec)
Heartbeat CPU 0 instructions: 216000803 cycles: 290979961 heartbeat IPC: 0.4655 cumulative IPC: 0.5915 (Simulation time: 00 hr 36 min 17 sec)
Heartbeat CPU 0 instructions: 216500803 cycles: 292166571 heartbeat IPC: 0.4214 cumulative IPC: 0.5908 (Simulation time: 00 hr 36 min 25 sec)
Heartbeat CPU 0 instructions: 217000803 cycles: 293339472 heartbeat IPC: 0.4263 cumulative IPC: 0.5901 (Simulation time: 00 hr 36 min 33 sec)
Heartbeat CPU 0 instructions: 217500803 cycles: 294389655 heartbeat IPC: 0.4761 cumulative IPC: 0.5897 (Simulation time: 00 hr 36 min 40 sec)
Heartbeat CPU 0 instructions: 218000806 cycles: 295445172 heartbeat IPC: 0.4737 cumulative IPC: 0.5893 (Simulation time: 00 hr 36 min 48 sec)
Heartbeat CPU 0 instructions: 218500808 cycles: 296591573 heartbeat IPC: 0.4361 cumulative IPC: 0.5886 (Simulation time: 00 hr 36 min 56 sec)
Heartbeat CPU 0 instructions: 219000808 cycles: 297825088 heartbeat IPC: 0.4053 cumulative IPC: 0.5879 (Simulation time: 00 hr 37 min 04 sec)
Heartbeat CPU 0 instructions: 219500809 cycles: 298768825 heartbeat IPC: 0.5298 cumulative IPC: 0.5877 (Simulation time: 00 hr 37 min 11 sec)
Heartbeat CPU 0 instructions: 220000813 cycles: 299921961 heartbeat IPC: 0.4336 cumulative IPC: 0.5871 (Simulation time: 00 hr 37 min 19 sec)
Heartbeat CPU 0 instructions: 220500814 cycles: 301102046 heartbeat IPC: 0.4237 cumulative IPC: 0.5864 (Simulation time: 00 hr 37 min 27 sec)
Heartbeat CPU 0 instructions: 221000817 cycles: 302218319 heartbeat IPC: 0.4479 cumulative IPC: 0.5859 (Simulation time: 00 hr 37 min 35 sec)
Heartbeat CPU 0 instructions: 221500819 cycles: 303195309 heartbeat IPC: 0.5118 cumulative IPC: 0.5856 (Simulation time: 00 hr 37 min 42 sec)
Heartbeat CPU 0 instructions: 222000821 cycles: 304384213 heartbeat IPC: 0.4206 cumulative IPC: 0.5849 (Simulation time: 00 hr 37 min 50 sec)
Heartbeat CPU 0 instructions: 222500822 cycles: 305433861 heartbeat IPC: 0.4764 cumulative IPC: 0.5846 (Simulation time: 00 hr 37 min 57 sec)
Heartbeat CPU 0 instructions: 223000823 cycles: 306617028 heartbeat IPC: 0.4226 cumulative IPC: 0.5839 (Simulation time: 00 hr 38 min 06 sec)
Heartbeat CPU 0 instructions: 223500824 cycles: 307669515 heartbeat IPC: 0.4751 cumulative IPC: 0.5835 (Simulation time: 00 hr 38 min 13 sec)
Heartbeat CPU 0 instructions: 224000827 cycles: 308812019 heartbeat IPC: 0.4376 cumulative IPC: 0.583 (Simulation time: 00 hr 38 min 21 sec)
Heartbeat CPU 0 instructions: 224500831 cycles: 309925646 heartbeat IPC: 0.449 cumulative IPC: 0.5825 (Simulation time: 00 hr 38 min 29 sec)
Heartbeat CPU 0 instructions: 225000831 cycles: 311114297 heartbeat IPC: 0.4206 cumulative IPC: 0.5818 (Simulation time: 00 hr 38 min 37 sec)
Heartbeat CPU 0 instructions: 225500835 cycles: 312150101 heartbeat IPC: 0.4827 cumulative IPC: 0.5815 (Simulation time: 00 hr 38 min 44 sec)
Heartbeat CPU 0 instructions: 226000837 cycles: 313227858 heartbeat IPC: 0.4639 cumulative IPC: 0.5811 (Simulation time: 00 hr 38 min 52 sec)
Heartbeat CPU 0 instructions: 226500843 cycles: 314278700 heartbeat IPC: 0.4758 cumulative IPC: 0.5807 (Simulation time: 00 hr 38 min 59 sec)
Heartbeat CPU 0 instructions: 227000845 cycles: 315379569 heartbeat IPC: 0.4542 cumulative IPC: 0.5803 (Simulation time: 00 hr 39 min 07 sec)
Heartbeat CPU 0 instructions: 227500846 cycles: 316406800 heartbeat IPC: 0.4867 cumulative IPC: 0.5799 (Simulation time: 00 hr 39 min 15 sec)
Heartbeat CPU 0 instructions: 228000849 cycles: 317463749 heartbeat IPC: 0.4731 cumulative IPC: 0.5796 (Simulation time: 00 hr 39 min 22 sec)
Heartbeat CPU 0 instructions: 228500849 cycles: 318546418 heartbeat IPC: 0.4618 cumulative IPC: 0.5792 (Simulation time: 00 hr 39 min 30 sec)
Heartbeat CPU 0 instructions: 229000851 cycles: 319608985 heartbeat IPC: 0.4706 cumulative IPC: 0.5788 (Simulation time: 00 hr 39 min 37 sec)
Heartbeat CPU 0 instructions: 229500851 cycles: 320641043 heartbeat IPC: 0.4845 cumulative IPC: 0.5785 (Simulation time: 00 hr 39 min 45 sec)
Heartbeat CPU 0 instructions: 230000853 cycles: 321700586 heartbeat IPC: 0.4719 cumulative IPC: 0.5781 (Simulation time: 00 hr 39 min 52 sec)
Heartbeat CPU 0 instructions: 230500854 cycles: 322810351 heartbeat IPC: 0.4505 cumulative IPC: 0.5777 (Simulation time: 00 hr 40 min 00 sec)
Heartbeat CPU 0 instructions: 231000859 cycles: 323879455 heartbeat IPC: 0.4677 cumulative IPC: 0.5773 (Simulation time: 00 hr 40 min 08 sec)
Heartbeat CPU 0 instructions: 231500859 cycles: 325006012 heartbeat IPC: 0.4438 cumulative IPC: 0.5768 (Simulation time: 00 hr 40 min 16 sec)
Heartbeat CPU 0 instructions: 232000864 cycles: 326050646 heartbeat IPC: 0.4786 cumulative IPC: 0.5765 (Simulation time: 00 hr 40 min 24 sec)
Heartbeat CPU 0 instructions: 232500866 cycles: 327079316 heartbeat IPC: 0.4861 cumulative IPC: 0.5762 (Simulation time: 00 hr 40 min 31 sec)
Heartbeat CPU 0 instructions: 233000870 cycles: 328124770 heartbeat IPC: 0.4783 cumulative IPC: 0.5759 (Simulation time: 00 hr 40 min 39 sec)
Heartbeat CPU 0 instructions: 233500870 cycles: 329136539 heartbeat IPC: 0.4942 cumulative IPC: 0.5756 (Simulation time: 00 hr 40 min 46 sec)
Heartbeat CPU 0 instructions: 234000871 cycles: 330124275 heartbeat IPC: 0.5062 cumulative IPC: 0.5754 (Simulation time: 00 hr 40 min 54 sec)
Heartbeat CPU 0 instructions: 234500873 cycles: 331142658 heartbeat IPC: 0.491 cumulative IPC: 0.5751 (Simulation time: 00 hr 41 min 01 sec)
Heartbeat CPU 0 instructions: 235000873 cycles: 332076194 heartbeat IPC: 0.5356 cumulative IPC: 0.575 (Simulation time: 00 hr 41 min 08 sec)
Heartbeat CPU 0 instructions: 235500875 cycles: 333032689 heartbeat IPC: 0.5227 cumulative IPC: 0.5748 (Simulation time: 00 hr 41 min 15 sec)
Heartbeat CPU 0 instructions: 236000875 cycles: 334017534 heartbeat IPC: 0.5077 cumulative IPC: 0.5746 (Simulation time: 00 hr 41 min 22 sec)
Heartbeat CPU 0 instructions: 236500876 cycles: 334945886 heartbeat IPC: 0.5386 cumulative IPC: 0.5745 (Simulation time: 00 hr 41 min 29 sec)
Heartbeat CPU 0 instructions: 237000876 cycles: 335923574 heartbeat IPC: 0.5114 cumulative IPC: 0.5744 (Simulation time: 00 hr 41 min 36 sec)
Heartbeat CPU 0 instructions: 237500876 cycles: 336918101 heartbeat IPC: 0.5028 cumulative IPC: 0.5741 (Simulation time: 00 hr 41 min 44 sec)
Heartbeat CPU 0 instructions: 238000877 cycles: 337908722 heartbeat IPC: 0.5047 cumulative IPC: 0.5739 (Simulation time: 00 hr 41 min 51 sec)
Heartbeat CPU 0 instructions: 238500878 cycles: 339352594 heartbeat IPC: 0.3463 cumulative IPC: 0.5729 (Simulation time: 00 hr 42 min 02 sec)
Heartbeat CPU 0 instructions: 239000882 cycles: 341692482 heartbeat IPC: 0.2137 cumulative IPC: 0.5704 (Simulation time: 00 hr 42 min 23 sec)
Heartbeat CPU 0 instructions: 239500886 cycles: 344032918 heartbeat IPC: 0.2136 cumulative IPC: 0.5679 (Simulation time: 00 hr 42 min 44 sec)
Heartbeat CPU 0 instructions: 240000887 cycles: 346372970 heartbeat IPC: 0.2137 cumulative IPC: 0.5654 (Simulation time: 00 hr 43 min 05 sec)
Heartbeat CPU 0 instructions: 240500894 cycles: 348713042 heartbeat IPC: 0.2137 cumulative IPC: 0.563 (Simulation time: 00 hr 43 min 26 sec)
Heartbeat CPU 0 instructions: 241000897 cycles: 351053554 heartbeat IPC: 0.2136 cumulative IPC: 0.5606 (Simulation time: 00 hr 43 min 47 sec)
Heartbeat CPU 0 instructions: 241500902 cycles: 353405350 heartbeat IPC: 0.2126 cumulative IPC: 0.5582 (Simulation time: 00 hr 44 min 08 sec)
Heartbeat CPU 0 instructions: 242000902 cycles: 355745982 heartbeat IPC: 0.2136 cumulative IPC: 0.5559 (Simulation time: 00 hr 44 min 29 sec)
Heartbeat CPU 0 instructions: 242500902 cycles: 358085648 heartbeat IPC: 0.2137 cumulative IPC: 0.5536 (Simulation time: 00 hr 44 min 50 sec)
Heartbeat CPU 0 instructions: 243000902 cycles: 360438662 heartbeat IPC: 0.2125 cumulative IPC: 0.5513 (Simulation time: 00 hr 45 min 11 sec)
Heartbeat CPU 0 instructions: 243500906 cycles: 362790257 heartbeat IPC: 0.2126 cumulative IPC: 0.549 (Simulation time: 00 hr 45 min 32 sec)
Heartbeat CPU 0 instructions: 244000907 cycles: 365130967 heartbeat IPC: 0.2136 cumulative IPC: 0.5468 (Simulation time: 00 hr 45 min 53 sec)
Heartbeat CPU 0 instructions: 244500911 cycles: 367470721 heartbeat IPC: 0.2137 cumulative IPC: 0.5446 (Simulation time: 00 hr 46 min 14 sec)
Heartbeat CPU 0 instructions: 245000912 cycles: 369811274 heartbeat IPC: 0.2136 cumulative IPC: 0.5425 (Simulation time: 00 hr 46 min 35 sec)
Heartbeat CPU 0 instructions: 245500916 cycles: 372151299 heartbeat IPC: 0.2137 cumulative IPC: 0.5403 (Simulation time: 00 hr 46 min 56 sec)
Heartbeat CPU 0 instructions: 246000917 cycles: 374491705 heartbeat IPC: 0.2136 cumulative IPC: 0.5382 (Simulation time: 00 hr 47 min 17 sec)
Heartbeat CPU 0 instructions: 246500921 cycles: 376831543 heartbeat IPC: 0.2137 cumulative IPC: 0.5362 (Simulation time: 00 hr 47 min 37 sec)
Heartbeat CPU 0 instructions: 247000922 cycles: 379172132 heartbeat IPC: 0.2136 cumulative IPC: 0.5341 (Simulation time: 00 hr 47 min 58 sec)
Heartbeat CPU 0 instructions: 247500926 cycles: 381526498 heartbeat IPC: 0.2124 cumulative IPC: 0.5321 (Simulation time: 00 hr 48 min 19 sec)
Heartbeat CPU 0 instructions: 248000927 cycles: 383864569 heartbeat IPC: 0.2139 cumulative IPC: 0.5301 (Simulation time: 00 hr 48 min 40 sec)
Heartbeat CPU 0 instructions: 248500931 cycles: 386204408 heartbeat IPC: 0.2137 cumulative IPC: 0.5281 (Simulation time: 00 hr 49 min 01 sec)
Heartbeat CPU 0 instructions: 249000932 cycles: 388553590 heartbeat IPC: 0.2128 cumulative IPC: 0.5262 (Simulation time: 00 hr 49 min 22 sec)
Heartbeat CPU 0 instructions: 249500936 cycles: 390908845 heartbeat IPC: 0.2123 cumulative IPC: 0.5242 (Simulation time: 00 hr 49 min 43 sec)
*** Reached end of trace: (0, "/local-ssd/ben/dpc4-traces/Graph/Ligra/ligra_Triangle.com-lj.ungraph.gcc_6.3.0_O3.drop_25000M.length_250M.champsimtrace.xz")
Simulation finished CPU 0 instructions: 200000003 cycles: 382908536 cumulative IPC: 0.5223 (Simulation time: 00 hr 50 min 04 sec)
Simulation complete CPU 0 instructions: 200000003 cycles: 382908536 cumulative IPC: 0.5223 (Simulation time: 00 hr 50 min 04 sec)

ChampSim completed all CPUs

=== Simulation ===
CPU 0 runs /local-ssd/ben/dpc4-traces/Graph/Ligra/ligra_Triangle.com-lj.ungraph.gcc_6.3.0_O3.drop_25000M.length_250M.champsimtrace.xz

Region of Interest Statistics

CPU 0 cumulative IPC: 0.5223 instructions: 200000003 cycles: 382908536
CPU 0 Branch Prediction Accuracy: 95.27% MPKI: 12.33 Average ROB Occupancy at Mispredict: 42.33
Branch type MPKI
BRANCH_DIRECT_JUMP: 5.5e-05
BRANCH_INDIRECT: 0
BRANCH_CONDITIONAL: 12.33
BRANCH_DIRECT_CALL: 1.5e-05
BRANCH_INDIRECT_CALL: 0
BRANCH_RETURN: 2e-05

cpu0->cpu0_STLB TOTAL        ACCESS:    4227711 HIT:    4183624 MISS:      44087 MSHR_MERGE:          0
cpu0->cpu0_STLB LOAD         ACCESS:    4227711 HIT:    4183624 MISS:      44087 MSHR_MERGE:          0
cpu0->cpu0_STLB RFO          ACCESS:          0 HIT:          0 MISS:          0 MSHR_MERGE:          0
cpu0->cpu0_STLB PREFETCH     ACCESS:          0 HIT:          0 MISS:          0 MSHR_MERGE:          0
cpu0->cpu0_STLB WRITE        ACCESS:          0 HIT:          0 MISS:          0 MSHR_MERGE:          0
cpu0->cpu0_STLB TRANSLATION  ACCESS:          0 HIT:          0 MISS:          0 MSHR_MERGE:          0
cpu0->cpu0_STLB PREFETCH REQUESTED:          0 ISSUED:          0 USEFUL:          0 USELESS:          0
cpu0->cpu0_STLB AVERAGE MISS LATENCY: 201.7 cycles
cpu0->cpu0_L2C TOTAL        ACCESS:    7027446 HIT:    3270062 MISS:    3757384 MSHR_MERGE:          0
cpu0->cpu0_L2C LOAD         ACCESS:    5214320 HIT:    3229865 MISS:    1984455 MSHR_MERGE:          0
cpu0->cpu0_L2C RFO          ACCESS:      10049 HIT:       9759 MISS:        290 MSHR_MERGE:          0
cpu0->cpu0_L2C PREFETCH     ACCESS:    1772468 HIT:       8156 MISS:    1764312 MSHR_MERGE:          0
cpu0->cpu0_L2C WRITE        ACCESS:      10113 HIT:      10093 MISS:         20 MSHR_MERGE:          0
cpu0->cpu0_L2C TRANSLATION  ACCESS:      20496 HIT:      12189 MISS:       8307 MSHR_MERGE:          0
cpu0->cpu0_L2C PREFETCH REQUESTED:          0 ISSUED:          0 USEFUL:          0 USELESS:          0
cpu0->cpu0_L2C AVERAGE MISS LATENCY: 132.7 cycles
cpu0->cpu0_L1I TOTAL        ACCESS:    3630504 HIT:    3630458 MISS:         46 MSHR_MERGE:          2
cpu0->cpu0_L1I LOAD         ACCESS:    3630504 HIT:    3630458 MISS:         46 MSHR_MERGE:          2
cpu0->cpu0_L1I RFO          ACCESS:          0 HIT:          0 MISS:          0 MSHR_MERGE:          0
cpu0->cpu0_L1I PREFETCH     ACCESS:          0 HIT:          0 MISS:          0 MSHR_MERGE:          0
cpu0->cpu0_L1I WRITE        ACCESS:          0 HIT:          0 MISS:          0 MSHR_MERGE:          0
cpu0->cpu0_L1I TRANSLATION  ACCESS:          0 HIT:          0 MISS:          0 MSHR_MERGE:          0
cpu0->cpu0_L1I PREFETCH REQUESTED:          0 ISSUED:          0 USEFUL:          0 USELESS:          0
cpu0->cpu0_L1I AVERAGE MISS LATENCY: 229.4 cycles
cpu0->cpu0_L1D TOTAL        ACCESS:   57426640 HIT:   47856304 MISS:    9570336 MSHR_MERGE:    2553017
cpu0->cpu0_L1D LOAD         ACCESS:   45280559 HIT:   38062900 MISS:    7217659 MSHR_MERGE:    2003383
cpu0->cpu0_L1D RFO          ACCESS:          0 HIT:          0 MISS:          0 MSHR_MERGE:          0
cpu0->cpu0_L1D PREFETCH     ACCESS:    6988253 HIT:    4666540 MISS:    2321713 MSHR_MERGE:     549246
cpu0->cpu0_L1D WRITE        ACCESS:    5069574 HIT:    5059106 MISS:      10468 MSHR_MERGE:        388
cpu0->cpu0_L1D TRANSLATION  ACCESS:      88254 HIT:      67758 MISS:      20496 MSHR_MERGE:          0
cpu0->cpu0_L1D PREFETCH REQUESTED:    7817813 ISSUED:    6988249 USEFUL:    1731658 USELESS:      40810
cpu0->cpu0_L1D AVERAGE MISS LATENCY: 67.22 cycles
cpu0->cpu0_ITLB TOTAL        ACCESS:    3627502 HIT:    3627495 MISS:          7 MSHR_MERGE:          0
cpu0->cpu0_ITLB LOAD         ACCESS:    3627502 HIT:    3627495 MISS:          7 MSHR_MERGE:          0
cpu0->cpu0_ITLB RFO          ACCESS:          0 HIT:          0 MISS:          0 MSHR_MERGE:          0
cpu0->cpu0_ITLB PREFETCH     ACCESS:          0 HIT:          0 MISS:          0 MSHR_MERGE:          0
cpu0->cpu0_ITLB WRITE        ACCESS:          0 HIT:          0 MISS:          0 MSHR_MERGE:          0
cpu0->cpu0_ITLB TRANSLATION  ACCESS:          0 HIT:          0 MISS:          0 MSHR_MERGE:          0
cpu0->cpu0_ITLB PREFETCH REQUESTED:          0 ISSUED:          0 USEFUL:          0 USELESS:          0
cpu0->cpu0_ITLB AVERAGE MISS LATENCY: 475 cycles
cpu0->cpu0_DTLB TOTAL        ACCESS:   54850045 HIT:   50380381 MISS:    4469664 MSHR_MERGE:     241960
cpu0->cpu0_DTLB LOAD         ACCESS:   54850045 HIT:   50380381 MISS:    4469664 MSHR_MERGE:     241960
cpu0->cpu0_DTLB RFO          ACCESS:          0 HIT:          0 MISS:          0 MSHR_MERGE:          0
cpu0->cpu0_DTLB PREFETCH     ACCESS:          0 HIT:          0 MISS:          0 MSHR_MERGE:          0
cpu0->cpu0_DTLB WRITE        ACCESS:          0 HIT:          0 MISS:          0 MSHR_MERGE:          0
cpu0->cpu0_DTLB TRANSLATION  ACCESS:          0 HIT:          0 MISS:          0 MSHR_MERGE:          0
cpu0->cpu0_DTLB PREFETCH REQUESTED:          0 ISSUED:          0 USEFUL:          0 USELESS:          0
cpu0->cpu0_DTLB AVERAGE MISS LATENCY: 7.115 cycles
cpu0->LLC TOTAL        ACCESS:    3757654 HIT:     972381 MISS:    2785273 MSHR_MERGE:          0
cpu0->LLC LOAD         ACCESS:    1984455 HIT:     964987 MISS:    1019468 MSHR_MERGE:          0
cpu0->LLC RFO          ACCESS:        290 HIT:          2 MISS:        288 MSHR_MERGE:          0
cpu0->LLC PREFETCH     ACCESS:    1764312 HIT:       4687 MISS:    1759625 MSHR_MERGE:          0
cpu0->LLC WRITE        ACCESS:        290 HIT:         46 MISS:        244 MSHR_MERGE:          0
cpu0->LLC TRANSLATION  ACCESS:       8307 HIT:       2659 MISS:       5648 MSHR_MERGE:          0
cpu0->LLC PREFETCH REQUESTED:          0 ISSUED:          0 USEFUL:          0 USELESS:          0
cpu0->LLC AVERAGE MISS LATENCY: 214.1 cycles

DRAM Statistics

Channel 0 RQ ROW_BUFFER_HIT:     164160
  ROW_BUFFER_MISS:    2620869
  AVG DBUS CONGESTED CYCLE: 6.751
Channel 0 WQ ROW_BUFFER_HIT:         24
  ROW_BUFFER_MISS:         57
  FULL:          0
Channel 0 REFRESHES ISSUED:      31907
