[VMEM] WARNING: physical memory size is smaller than virtual memory size.

*** ChampSim Multicore Out-of-Order Simulator ***
Warmup Instructions: 50000000
Simulation Instructions: 200000000
Number of CPUs: 1
Page size: 4096
Core 0: /local-ssd/ben/dpc4-traces/Graph/Ligra/ligra_BFSCC.com-lj.ungraph.gcc_6.3.0_O3.drop_17000M.length_250M.champsimtrace.xz
Off-chip DRAM Size: 64 GiB Channels: 1 Width: 64-bit Data Rate: 4807 MT/s
Heartbeat CPU 0 instructions: 500000 cycles: 174953 heartbeat IPC: 2.858 cumulative IPC: 2.858 (Simulation time: 00 hr 00 min 02 sec)
Heartbeat CPU 0 instructions: 1000005 cycles: 362890 heartbeat IPC: 2.66 cumulative IPC: 2.756 (Simulation time: 00 hr 00 min 04 sec)
Heartbeat CPU 0 instructions: 1500007 cycles: 542236 heartbeat IPC: 2.788 cumulative IPC: 2.766 (Simulation time: 00 hr 00 min 06 sec)
Heartbeat CPU 0 instructions: 2000007 cycles: 735322 heartbeat IPC: 2.59 cumulative IPC: 2.72 (Simulation time: 00 hr 00 min 08 sec)
Heartbeat CPU 0 instructions: 2500011 cycles: 924136 heartbeat IPC: 2.648 cumulative IPC: 2.705 (Simulation time: 00 hr 00 min 09 sec)
Heartbeat CPU 0 instructions: 3000017 cycles: 1122555 heartbeat IPC: 2.52 cumulative IPC: 2.672 (Simulation time: 00 hr 00 min 11 sec)
Heartbeat CPU 0 instructions: 3500022 cycles: 1322504 heartbeat IPC: 2.501 cumulative IPC: 2.647 (Simulation time: 00 hr 00 min 13 sec)
Heartbeat CPU 0 instructions: 4000026 cycles: 1505352 heartbeat IPC: 2.735 cumulative IPC: 2.657 (Simulation time: 00 hr 00 min 15 sec)
Heartbeat CPU 0 instructions: 4500027 cycles: 1698527 heartbeat IPC: 2.588 cumulative IPC: 2.649 (Simulation time: 00 hr 00 min 18 sec)
Heartbeat CPU 0 instructions: 5000028 cycles: 1890936 heartbeat IPC: 2.599 cumulative IPC: 2.644 (Simulation time: 00 hr 00 min 20 sec)
Heartbeat CPU 0 instructions: 5500031 cycles: 2082680 heartbeat IPC: 2.608 cumulative IPC: 2.641 (Simulation time: 00 hr 00 min 22 sec)
Heartbeat CPU 0 instructions: 6000038 cycles: 2264888 heartbeat IPC: 2.744 cumulative IPC: 2.649 (Simulation time: 00 hr 00 min 24 sec)
Heartbeat CPU 0 instructions: 6500038 cycles: 2459244 heartbeat IPC: 2.573 cumulative IPC: 2.643 (Simulation time: 00 hr 00 min 26 sec)
Heartbeat CPU 0 instructions: 7000039 cycles: 2637433 heartbeat IPC: 2.806 cumulative IPC: 2.654 (Simulation time: 00 hr 00 min 28 sec)
Heartbeat CPU 0 instructions: 7500040 cycles: 2831242 heartbeat IPC: 2.58 cumulative IPC: 2.649 (Simulation time: 00 hr 00 min 30 sec)
Heartbeat CPU 0 instructions: 8000041 cycles: 3024730 heartbeat IPC: 2.584 cumulative IPC: 2.645 (Simulation time: 00 hr 00 min 32 sec)
Heartbeat CPU 0 instructions: 8500044 cycles: 3221876 heartbeat IPC: 2.536 cumulative IPC: 2.638 (Simulation time: 00 hr 00 min 34 sec)
Heartbeat CPU 0 instructions: 9000050 cycles: 3414841 heartbeat IPC: 2.591 cumulative IPC: 2.636 (Simulation time: 00 hr 00 min 36 sec)
Heartbeat CPU 0 instructions: 9500056 cycles: 3608604 heartbeat IPC: 2.581 cumulative IPC: 2.633 (Simulation time: 00 hr 00 min 38 sec)
Heartbeat CPU 0 instructions: 10000061 cycles: 3804055 heartbeat IPC: 2.558 cumulative IPC: 2.629 (Simulation time: 00 hr 00 min 40 sec)
Heartbeat CPU 0 instructions: 10500066 cycles: 4001393 heartbeat IPC: 2.534 cumulative IPC: 2.624 (Simulation time: 00 hr 00 min 42 sec)
Heartbeat CPU 0 instructions: 11000066 cycles: 4195322 heartbeat IPC: 2.578 cumulative IPC: 2.622 (Simulation time: 00 hr 00 min 44 sec)
Heartbeat CPU 0 instructions: 11500067 cycles: 4377820 heartbeat IPC: 2.74 cumulative IPC: 2.627 (Simulation time: 00 hr 00 min 46 sec)
Heartbeat CPU 0 instructions: 12000074 cycles: 4545666 heartbeat IPC: 2.979 cumulative IPC: 2.64 (Simulation time: 00 hr 00 min 48 sec)
Heartbeat CPU 0 instructions: 12500078 cycles: 4729465 heartbeat IPC: 2.72 cumulative IPC: 2.643 (Simulation time: 00 hr 00 min 50 sec)
Heartbeat CPU 0 instructions: 13000079 cycles: 4900768 heartbeat IPC: 2.919 cumulative IPC: 2.653 (Simulation time: 00 hr 00 min 52 sec)
Heartbeat CPU 0 instructions: 13500079 cycles: 5018568 heartbeat IPC: 4.244 cumulative IPC: 2.69 (Simulation time: 00 hr 00 min 53 sec)
Heartbeat CPU 0 instructions: 14000080 cycles: 5140624 heartbeat IPC: 4.096 cumulative IPC: 2.723 (Simulation time: 00 hr 00 min 55 sec)
Heartbeat CPU 0 instructions: 14500081 cycles: 5240634 heartbeat IPC: 5 cumulative IPC: 2.767 (Simulation time: 00 hr 00 min 56 sec)
Heartbeat CPU 0 instructions: 15000085 cycles: 5340622 heartbeat IPC: 5.001 cumulative IPC: 2.809 (Simulation time: 00 hr 00 min 58 sec)
Heartbeat CPU 0 instructions: 15500087 cycles: 5440729 heartbeat IPC: 4.995 cumulative IPC: 2.849 (Simulation time: 00 hr 00 min 59 sec)
Heartbeat CPU 0 instructions: 16000088 cycles: 5552125 heartbeat IPC: 4.489 cumulative IPC: 2.882 (Simulation time: 00 hr 01 min 01 sec)
Heartbeat CPU 0 instructions: 16500089 cycles: 5675831 heartbeat IPC: 4.042 cumulative IPC: 2.907 (Simulation time: 00 hr 01 min 03 sec)
Heartbeat CPU 0 instructions: 17000090 cycles: 5792425 heartbeat IPC: 4.288 cumulative IPC: 2.935 (Simulation time: 00 hr 01 min 05 sec)
Heartbeat CPU 0 instructions: 17500091 cycles: 5909477 heartbeat IPC: 4.272 cumulative IPC: 2.961 (Simulation time: 00 hr 01 min 07 sec)
Heartbeat CPU 0 instructions: 18000098 cycles: 6026919 heartbeat IPC: 4.257 cumulative IPC: 2.987 (Simulation time: 00 hr 01 min 09 sec)
Heartbeat CPU 0 instructions: 18500100 cycles: 6144468 heartbeat IPC: 4.254 cumulative IPC: 3.011 (Simulation time: 00 hr 01 min 11 sec)
Heartbeat CPU 0 instructions: 19000102 cycles: 6261665 heartbeat IPC: 4.266 cumulative IPC: 3.034 (Simulation time: 00 hr 01 min 13 sec)
Heartbeat CPU 0 instructions: 19500104 cycles: 6378637 heartbeat IPC: 4.275 cumulative IPC: 3.057 (Simulation time: 00 hr 01 min 15 sec)
Heartbeat CPU 0 instructions: 20000110 cycles: 6495812 heartbeat IPC: 4.267 cumulative IPC: 3.079 (Simulation time: 00 hr 01 min 17 sec)
Heartbeat CPU 0 instructions: 20500114 cycles: 6613169 heartbeat IPC: 4.261 cumulative IPC: 3.1 (Simulation time: 00 hr 01 min 19 sec)
Heartbeat CPU 0 instructions: 21000120 cycles: 6730401 heartbeat IPC: 4.265 cumulative IPC: 3.12 (Simulation time: 00 hr 01 min 21 sec)
Heartbeat CPU 0 instructions: 21500122 cycles: 6847440 heartbeat IPC: 4.272 cumulative IPC: 3.14 (Simulation time: 00 hr 01 min 23 sec)
Heartbeat CPU 0 instructions: 22000122 cycles: 6964589 heartbeat IPC: 4.268 cumulative IPC: 3.159 (Simulation time: 00 hr 01 min 26 sec)
Heartbeat CPU 0 instructions: 22500129 cycles: 7089399 heartbeat IPC: 4.006 cumulative IPC: 3.174 (Simulation time: 00 hr 01 min 28 sec)
Heartbeat CPU 0 instructions: 23000132 cycles: 7206613 heartbeat IPC: 4.266 cumulative IPC: 3.192 (Simulation time: 00 hr 01 min 30 sec)
Heartbeat CPU 0 instructions: 23500137 cycles: 7327728 heartbeat IPC: 4.128 cumulative IPC: 3.207 (Simulation time: 00 hr 01 min 32 sec)
Heartbeat CPU 0 instructions: 24000142 cycles: 7444976 heartbeat IPC: 4.265 cumulative IPC: 3.224 (Simulation time: 00 hr 01 min 34 sec)
Heartbeat CPU 0 instructions: 24500146 cycles: 7561768 heartbeat IPC: 4.281 cumulative IPC: 3.24 (Simulation time: 00 hr 01 min 36 sec)
Heartbeat CPU 0 instructions: 25000150 cycles: 7678957 heartbeat IPC: 4.267 cumulative IPC: 3.256 (Simulation time: 00 hr 01 min 38 sec)
Heartbeat CPU 0 instructions: 25500150 cycles: 7796135 heartbeat IPC: 4.267 cumulative IPC: 3.271 (Simulation time: 00 hr 01 min 40 sec)
Heartbeat CPU 0 instructions: 26000154 cycles: 7913008 heartbeat IPC: 4.278 cumulative IPC: 3.286 (Simulation time: 00 hr 01 min 42 sec)
Heartbeat CPU 0 instructions: 26500158 cycles: 8030196 heartbeat IPC: 4.267 cumulative IPC: 3.3 (Simulation time: 00 hr 01 min 44 sec)
Heartbeat CPU 0 instructions: 27000164 cycles: 8149793 heartbeat IPC: 4.181 cumulative IPC: 3.313 (Simulation time: 00 hr 01 min 46 sec)
Heartbeat CPU 0 instructions: 27500170 cycles: 8269494 heartbeat IPC: 4.177 cumulative IPC: 3.325 (Simulation time: 00 hr 01 min 48 sec)
Heartbeat CPU 0 instructions: 28000172 cycles: 8389144 heartbeat IPC: 4.179 cumulative IPC: 3.338 (Simulation time: 00 hr 01 min 50 sec)
Heartbeat CPU 0 instructions: 28500176 cycles: 8508143 heartbeat IPC: 4.202 cumulative IPC: 3.35 (Simulation time: 00 hr 01 min 52 sec)
Heartbeat CPU 0 instructions: 29000177 cycles: 8632838 heartbeat IPC: 4.01 cumulative IPC: 3.359 (Simulation time: 00 hr 01 min 54 sec)
Heartbeat CPU 0 instructions: 29500181 cycles: 8751760 heartbeat IPC: 4.204 cumulative IPC: 3.371 (Simulation time: 00 hr 01 min 56 sec)
Heartbeat CPU 0 instructions: 30000187 cycles: 8874689 heartbeat IPC: 4.067 cumulative IPC: 3.38 (Simulation time: 00 hr 01 min 58 sec)
Heartbeat CPU 0 instructions: 30500188 cycles: 8993052 heartbeat IPC: 4.224 cumulative IPC: 3.392 (Simulation time: 00 hr 02 min 00 sec)
Heartbeat CPU 0 instructions: 31000191 cycles: 9172739 heartbeat IPC: 2.783 cumulative IPC: 3.38 (Simulation time: 00 hr 02 min 02 sec)
Heartbeat CPU 0 instructions: 31500194 cycles: 9375020 heartbeat IPC: 2.472 cumulative IPC: 3.36 (Simulation time: 00 hr 02 min 04 sec)
Heartbeat CPU 0 instructions: 32000198 cycles: 9578250 heartbeat IPC: 2.46 cumulative IPC: 3.341 (Simulation time: 00 hr 02 min 06 sec)
Heartbeat CPU 0 instructions: 32500202 cycles: 9761490 heartbeat IPC: 2.729 cumulative IPC: 3.329 (Simulation time: 00 hr 02 min 08 sec)
Heartbeat CPU 0 instructions: 33000205 cycles: 9965058 heartbeat IPC: 2.456 cumulative IPC: 3.312 (Simulation time: 00 hr 02 min 10 sec)
Heartbeat CPU 0 instructions: 33500210 cycles: 10170931 heartbeat IPC: 2.429 cumulative IPC: 3.294 (Simulation time: 00 hr 02 min 13 sec)
Heartbeat CPU 0 instructions: 34000211 cycles: 10374568 heartbeat IPC: 2.455 cumulative IPC: 3.277 (Simulation time: 00 hr 02 min 15 sec)
Heartbeat CPU 0 instructions: 34500212 cycles: 10576659 heartbeat IPC: 2.474 cumulative IPC: 3.262 (Simulation time: 00 hr 02 min 17 sec)
Heartbeat CPU 0 instructions: 35000214 cycles: 10778208 heartbeat IPC: 2.481 cumulative IPC: 3.247 (Simulation time: 00 hr 02 min 19 sec)
Heartbeat CPU 0 instructions: 35500218 cycles: 10980867 heartbeat IPC: 2.467 cumulative IPC: 3.233 (Simulation time: 00 hr 02 min 21 sec)
Heartbeat CPU 0 instructions: 36000220 cycles: 11184235 heartbeat IPC: 2.459 cumulative IPC: 3.219 (Simulation time: 00 hr 02 min 23 sec)
Heartbeat CPU 0 instructions: 36500220 cycles: 11385643 heartbeat IPC: 2.483 cumulative IPC: 3.206 (Simulation time: 00 hr 02 min 25 sec)
Heartbeat CPU 0 instructions: 37000222 cycles: 11586817 heartbeat IPC: 2.485 cumulative IPC: 3.193 (Simulation time: 00 hr 02 min 28 sec)
Heartbeat CPU 0 instructions: 37500226 cycles: 11787289 heartbeat IPC: 2.494 cumulative IPC: 3.181 (Simulation time: 00 hr 02 min 30 sec)
Heartbeat CPU 0 instructions: 38000226 cycles: 11991323 heartbeat IPC: 2.451 cumulative IPC: 3.169 (Simulation time: 00 hr 02 min 32 sec)
Heartbeat CPU 0 instructions: 38500230 cycles: 12195971 heartbeat IPC: 2.443 cumulative IPC: 3.157 (Simulation time: 00 hr 02 min 34 sec)
Heartbeat CPU 0 instructions: 39000230 cycles: 12398874 heartbeat IPC: 2.464 cumulative IPC: 3.145 (Simulation time: 00 hr 02 min 36 sec)
Heartbeat CPU 0 instructions: 39500234 cycles: 12580885 heartbeat IPC: 2.747 cumulative IPC: 3.14 (Simulation time: 00 hr 02 min 38 sec)
Heartbeat CPU 0 instructions: 40000238 cycles: 12781898 heartbeat IPC: 2.487 cumulative IPC: 3.129 (Simulation time: 00 hr 02 min 40 sec)
Heartbeat CPU 0 instructions: 40500242 cycles: 12983384 heartbeat IPC: 2.482 cumulative IPC: 3.119 (Simulation time: 00 hr 02 min 42 sec)
Heartbeat CPU 0 instructions: 41000246 cycles: 13181297 heartbeat IPC: 2.526 cumulative IPC: 3.11 (Simulation time: 00 hr 02 min 45 sec)
Heartbeat CPU 0 instructions: 41500251 cycles: 13339056 heartbeat IPC: 3.169 cumulative IPC: 3.111 (Simulation time: 00 hr 02 min 46 sec)
Heartbeat CPU 0 instructions: 42000253 cycles: 13480084 heartbeat IPC: 3.545 cumulative IPC: 3.116 (Simulation time: 00 hr 02 min 48 sec)
Heartbeat CPU 0 instructions: 42500253 cycles: 13621142 heartbeat IPC: 3.545 cumulative IPC: 3.12 (Simulation time: 00 hr 02 min 50 sec)
Heartbeat CPU 0 instructions: 43000258 cycles: 13761702 heartbeat IPC: 3.557 cumulative IPC: 3.125 (Simulation time: 00 hr 02 min 52 sec)
Heartbeat CPU 0 instructions: 43500261 cycles: 13887574 heartbeat IPC: 3.972 cumulative IPC: 3.132 (Simulation time: 00 hr 02 min 54 sec)
Heartbeat CPU 0 instructions: 44000263 cycles: 14013260 heartbeat IPC: 3.978 cumulative IPC: 3.14 (Simulation time: 00 hr 02 min 56 sec)
Heartbeat CPU 0 instructions: 44500269 cycles: 14139037 heartbeat IPC: 3.975 cumulative IPC: 3.147 (Simulation time: 00 hr 02 min 58 sec)
Heartbeat CPU 0 instructions: 45000270 cycles: 14265202 heartbeat IPC: 3.963 cumulative IPC: 3.155 (Simulation time: 00 hr 03 min 00 sec)
Heartbeat CPU 0 instructions: 45500274 cycles: 14391042 heartbeat IPC: 3.973 cumulative IPC: 3.162 (Simulation time: 00 hr 03 min 02 sec)
Heartbeat CPU 0 instructions: 46000281 cycles: 14516748 heartbeat IPC: 3.978 cumulative IPC: 3.169 (Simulation time: 00 hr 03 min 04 sec)
Heartbeat CPU 0 instructions: 46500285 cycles: 14647406 heartbeat IPC: 3.827 cumulative IPC: 3.175 (Simulation time: 00 hr 03 min 06 sec)
Heartbeat CPU 0 instructions: 47000290 cycles: 14783691 heartbeat IPC: 3.669 cumulative IPC: 3.179 (Simulation time: 00 hr 03 min 08 sec)
Heartbeat CPU 0 instructions: 47500294 cycles: 14911016 heartbeat IPC: 3.927 cumulative IPC: 3.186 (Simulation time: 00 hr 03 min 10 sec)
Heartbeat CPU 0 instructions: 48000298 cycles: 15036986 heartbeat IPC: 3.969 cumulative IPC: 3.192 (Simulation time: 00 hr 03 min 12 sec)
Heartbeat CPU 0 instructions: 48500298 cycles: 15187609 heartbeat IPC: 3.32 cumulative IPC: 3.193 (Simulation time: 00 hr 03 min 15 sec)
Heartbeat CPU 0 instructions: 49000305 cycles: 15318200 heartbeat IPC: 3.829 cumulative IPC: 3.199 (Simulation time: 00 hr 03 min 17 sec)
Heartbeat CPU 0 instructions: 49500306 cycles: 15444030 heartbeat IPC: 3.974 cumulative IPC: 3.205 (Simulation time: 00 hr 03 min 19 sec)
Warmup halting CPU 0 at instruction 50000004 cycle 15570492 for remainder of phase
Warmup finished CPU 0 instructions: 50000004 cycles: 15570492 cumulative IPC: 3.211 (Simulation time: 00 hr 03 min 21 sec)
Warmup complete CPU 0 instructions: 50000004 cycles: 15570492 cumulative IPC: 3.211 (Simulation time: 00 hr 03 min 21 sec)
Heartbeat CPU 0 instructions: 50000310 cycles: 15570742 heartbeat IPC: 3.946 cumulative IPC: 1.224 (Simulation time: 00 hr 03 min 21 sec)
Heartbeat CPU 0 instructions: 50500312 cycles: 15830315 heartbeat IPC: 1.926 cumulative IPC: 1.926 (Simulation time: 00 hr 03 min 24 sec)
Heartbeat CPU 0 instructions: 51000319 cycles: 16108753 heartbeat IPC: 1.796 cumulative IPC: 1.858 (Simulation time: 00 hr 03 min 27 sec)
Heartbeat CPU 0 instructions: 51500323 cycles: 16384031 heartbeat IPC: 1.816 cumulative IPC: 1.844 (Simulation time: 00 hr 03 min 31 sec)
Heartbeat CPU 0 instructions: 52000324 cycles: 16651780 heartbeat IPC: 1.867 cumulative IPC: 1.85 (Simulation time: 00 hr 03 min 34 sec)
Heartbeat CPU 0 instructions: 52500326 cycles: 16925012 heartbeat IPC: 1.83 cumulative IPC: 1.846 (Simulation time: 00 hr 03 min 38 sec)
Heartbeat CPU 0 instructions: 53000331 cycles: 17185749 heartbeat IPC: 1.918 cumulative IPC: 1.857 (Simulation time: 00 hr 03 min 41 sec)
Heartbeat CPU 0 instructions: 53500331 cycles: 17464913 heartbeat IPC: 1.791 cumulative IPC: 1.848 (Simulation time: 00 hr 03 min 44 sec)
Heartbeat CPU 0 instructions: 54000334 cycles: 18169054 heartbeat IPC: 0.7101 cumulative IPC: 1.539 (Simulation time: 00 hr 03 min 52 sec)
Heartbeat CPU 0 instructions: 54500340 cycles: 19112418 heartbeat IPC: 0.53 cumulative IPC: 1.271 (Simulation time: 00 hr 04 min 01 sec)
Heartbeat CPU 0 instructions: 55000346 cycles: 20144604 heartbeat IPC: 0.4844 cumulative IPC: 1.093 (Simulation time: 00 hr 04 min 12 sec)
Heartbeat CPU 0 instructions: 55500349 cycles: 21029760 heartbeat IPC: 0.5649 cumulative IPC: 1.008 (Simulation time: 00 hr 04 min 21 sec)
Heartbeat CPU 0 instructions: 56000349 cycles: 21331751 heartbeat IPC: 1.656 cumulative IPC: 1.041 (Simulation time: 00 hr 04 min 24 sec)
Heartbeat CPU 0 instructions: 56500356 cycles: 21620460 heartbeat IPC: 1.732 cumulative IPC: 1.074 (Simulation time: 00 hr 04 min 28 sec)
Heartbeat CPU 0 instructions: 57000360 cycles: 21899181 heartbeat IPC: 1.794 cumulative IPC: 1.106 (Simulation time: 00 hr 04 min 31 sec)
Heartbeat CPU 0 instructions: 57500362 cycles: 22189891 heartbeat IPC: 1.72 cumulative IPC: 1.133 (Simulation time: 00 hr 04 min 35 sec)
Heartbeat CPU 0 instructions: 58000362 cycles: 22488036 heartbeat IPC: 1.677 cumulative IPC: 1.157 (Simulation time: 00 hr 04 min 38 sec)
Heartbeat CPU 0 instructions: 58500366 cycles: 22792691 heartbeat IPC: 1.641 cumulative IPC: 1.177 (Simulation time: 00 hr 04 min 42 sec)
Heartbeat CPU 0 instructions: 59000372 cycles: 23081444 heartbeat IPC: 1.732 cumulative IPC: 1.198 (Simulation time: 00 hr 04 min 46 sec)
Heartbeat CPU 0 instructions: 59500373 cycles: 23365907 heartbeat IPC: 1.758 cumulative IPC: 1.219 (Simulation time: 00 hr 04 min 49 sec)
Heartbeat CPU 0 instructions: 60000379 cycles: 23677164 heartbeat IPC: 1.606 cumulative IPC: 1.234 (Simulation time: 00 hr 04 min 53 sec)
Heartbeat CPU 0 instructions: 60500383 cycles: 23981752 heartbeat IPC: 1.642 cumulative IPC: 1.248 (Simulation time: 00 hr 04 min 57 sec)
Heartbeat CPU 0 instructions: 61000384 cycles: 24271329 heartbeat IPC: 1.727 cumulative IPC: 1.264 (Simulation time: 00 hr 05 min 00 sec)
Heartbeat CPU 0 instructions: 61500389 cycles: 24562694 heartbeat IPC: 1.716 cumulative IPC: 1.279 (Simulation time: 00 hr 05 min 04 sec)
Heartbeat CPU 0 instructions: 62000393 cycles: 24857073 heartbeat IPC: 1.699 cumulative IPC: 1.292 (Simulation time: 00 hr 05 min 07 sec)
Heartbeat CPU 0 instructions: 62500397 cycles: 25169174 heartbeat IPC: 1.602 cumulative IPC: 1.302 (Simulation time: 00 hr 05 min 11 sec)
Heartbeat CPU 0 instructions: 63000397 cycles: 25470811 heartbeat IPC: 1.658 cumulative IPC: 1.313 (Simulation time: 00 hr 05 min 15 sec)
Heartbeat CPU 0 instructions: 63500398 cycles: 25755621 heartbeat IPC: 1.756 cumulative IPC: 1.326 (Simulation time: 00 hr 05 min 18 sec)
Heartbeat CPU 0 instructions: 64000399 cycles: 26042015 heartbeat IPC: 1.746 cumulative IPC: 1.337 (Simulation time: 00 hr 05 min 22 sec)
Heartbeat CPU 0 instructions: 64500406 cycles: 26577923 heartbeat IPC: 0.933 cumulative IPC: 1.317 (Simulation time: 00 hr 05 min 27 sec)
Heartbeat CPU 0 instructions: 65000412 cycles: 27435160 heartbeat IPC: 0.5833 cumulative IPC: 1.264 (Simulation time: 00 hr 05 min 37 sec)
Heartbeat CPU 0 instructions: 65500415 cycles: 28510496 heartbeat IPC: 0.465 cumulative IPC: 1.198 (Simulation time: 00 hr 05 min 47 sec)
Heartbeat CPU 0 instructions: 66000422 cycles: 29129141 heartbeat IPC: 0.8082 cumulative IPC: 1.18 (Simulation time: 00 hr 05 min 54 sec)
Heartbeat CPU 0 instructions: 66500422 cycles: 29396549 heartbeat IPC: 1.87 cumulative IPC: 1.193 (Simulation time: 00 hr 05 min 57 sec)
Heartbeat CPU 0 instructions: 67000424 cycles: 29657882 heartbeat IPC: 1.913 cumulative IPC: 1.207 (Simulation time: 00 hr 06 min 01 sec)
Heartbeat CPU 0 instructions: 67500427 cycles: 29924863 heartbeat IPC: 1.873 cumulative IPC: 1.219 (Simulation time: 00 hr 06 min 04 sec)
Heartbeat CPU 0 instructions: 68000433 cycles: 30211853 heartbeat IPC: 1.742 cumulative IPC: 1.229 (Simulation time: 00 hr 06 min 08 sec)
Heartbeat CPU 0 instructions: 68500433 cycles: 30480930 heartbeat IPC: 1.858 cumulative IPC: 1.241 (Simulation time: 00 hr 06 min 11 sec)
Heartbeat CPU 0 instructions: 69000436 cycles: 30743437 heartbeat IPC: 1.905 cumulative IPC: 1.252 (Simulation time: 00 hr 06 min 14 sec)
Heartbeat CPU 0 instructions: 69500440 cycles: 31003791 heartbeat IPC: 1.92 cumulative IPC: 1.264 (Simulation time: 00 hr 06 min 18 sec)
Heartbeat CPU 0 instructions: 70000447 cycles: 31271400 heartbeat IPC: 1.868 cumulative IPC: 1.274 (Simulation time: 00 hr 06 min 21 sec)
Heartbeat CPU 0 instructions: 70500452 cycles: 31540125 heartbeat IPC: 1.861 cumulative IPC: 1.284 (Simulation time: 00 hr 06 min 24 sec)
Heartbeat CPU 0 instructions: 71000453 cycles: 31800655 heartbeat IPC: 1.919 cumulative IPC: 1.294 (Simulation time: 00 hr 06 min 28 sec)
Heartbeat CPU 0 instructions: 71500460 cycles: 32052276 heartbeat IPC: 1.987 cumulative IPC: 1.304 (Simulation time: 00 hr 06 min 31 sec)
Heartbeat CPU 0 instructions: 72000461 cycles: 32299035 heartbeat IPC: 2.026 cumulative IPC: 1.315 (Simulation time: 00 hr 06 min 34 sec)
Heartbeat CPU 0 instructions: 72500462 cycles: 32558190 heartbeat IPC: 1.929 cumulative IPC: 1.325 (Simulation time: 00 hr 06 min 37 sec)
Heartbeat CPU 0 instructions: 73000464 cycles: 32809121 heartbeat IPC: 1.993 cumulative IPC: 1.334 (Simulation time: 00 hr 06 min 40 sec)
Heartbeat CPU 0 instructions: 73500464 cycles: 33059502 heartbeat IPC: 1.997 cumulative IPC: 1.344 (Simulation time: 00 hr 06 min 44 sec)
Heartbeat CPU 0 instructions: 74000468 cycles: 33315961 heartbeat IPC: 1.95 cumulative IPC: 1.352 (Simulation time: 00 hr 06 min 47 sec)
Heartbeat CPU 0 instructions: 74500475 cycles: 33577900 heartbeat IPC: 1.909 cumulative IPC: 1.361 (Simulation time: 00 hr 06 min 50 sec)
Heartbeat CPU 0 instructions: 75000476 cycles: 34193462 heartbeat IPC: 0.8123 cumulative IPC: 1.342 (Simulation time: 00 hr 06 min 57 sec)
Heartbeat CPU 0 instructions: 75500479 cycles: 35108460 heartbeat IPC: 0.5465 cumulative IPC: 1.305 (Simulation time: 00 hr 07 min 06 sec)
Heartbeat CPU 0 instructions: 76000483 cycles: 36127251 heartbeat IPC: 0.4908 cumulative IPC: 1.265 (Simulation time: 00 hr 07 min 16 sec)
Heartbeat CPU 0 instructions: 76500486 cycles: 36508022 heartbeat IPC: 1.313 cumulative IPC: 1.266 (Simulation time: 00 hr 07 min 21 sec)
Heartbeat CPU 0 instructions: 77000492 cycles: 36795887 heartbeat IPC: 1.737 cumulative IPC: 1.272 (Simulation time: 00 hr 07 min 24 sec)
Heartbeat CPU 0 instructions: 77500497 cycles: 37073664 heartbeat IPC: 1.8 cumulative IPC: 1.279 (Simulation time: 00 hr 07 min 27 sec)
Heartbeat CPU 0 instructions: 78000504 cycles: 37354426 heartbeat IPC: 1.781 cumulative IPC: 1.285 (Simulation time: 00 hr 07 min 31 sec)
Heartbeat CPU 0 instructions: 78500504 cycles: 37658064 heartbeat IPC: 1.647 cumulative IPC: 1.29 (Simulation time: 00 hr 07 min 34 sec)
Heartbeat CPU 0 instructions: 79000508 cycles: 37952645 heartbeat IPC: 1.697 cumulative IPC: 1.296 (Simulation time: 00 hr 07 min 38 sec)
Heartbeat CPU 0 instructions: 79500508 cycles: 38262789 heartbeat IPC: 1.612 cumulative IPC: 1.3 (Simulation time: 00 hr 07 min 42 sec)
Heartbeat CPU 0 instructions: 80000513 cycles: 38546832 heartbeat IPC: 1.76 cumulative IPC: 1.306 (Simulation time: 00 hr 07 min 45 sec)
Heartbeat CPU 0 instructions: 80500520 cycles: 38836543 heartbeat IPC: 1.726 cumulative IPC: 1.311 (Simulation time: 00 hr 07 min 49 sec)
Heartbeat CPU 0 instructions: 81000521 cycles: 39131287 heartbeat IPC: 1.696 cumulative IPC: 1.316 (Simulation time: 00 hr 07 min 52 sec)
Heartbeat CPU 0 instructions: 81500521 cycles: 39436698 heartbeat IPC: 1.637 cumulative IPC: 1.32 (Simulation time: 00 hr 07 min 56 sec)
Heartbeat CPU 0 instructions: 82000525 cycles: 39738808 heartbeat IPC: 1.655 cumulative IPC: 1.324 (Simulation time: 00 hr 07 min 59 sec)
Heartbeat CPU 0 instructions: 82500527 cycles: 40024010 heartbeat IPC: 1.753 cumulative IPC: 1.329 (Simulation time: 00 hr 08 min 03 sec)
Heartbeat CPU 0 instructions: 83000534 cycles: 40318756 heartbeat IPC: 1.696 cumulative IPC: 1.333 (Simulation time: 00 hr 08 min 07 sec)
Heartbeat CPU 0 instructions: 83500535 cycles: 40614997 heartbeat IPC: 1.688 cumulative IPC: 1.338 (Simulation time: 00 hr 08 min 10 sec)
Heartbeat CPU 0 instructions: 84000536 cycles: 40922047 heartbeat IPC: 1.628 cumulative IPC: 1.341 (Simulation time: 00 hr 08 min 14 sec)
Heartbeat CPU 0 instructions: 84500537 cycles: 41551513 heartbeat IPC: 0.7943 cumulative IPC: 1.328 (Simulation time: 00 hr 08 min 21 sec)
Heartbeat CPU 0 instructions: 85000537 cycles: 42491069 heartbeat IPC: 0.5322 cumulative IPC: 1.3 (Simulation time: 00 hr 08 min 30 sec)
Heartbeat CPU 0 instructions: 85500539 cycles: 43494923 heartbeat IPC: 0.4981 cumulative IPC: 1.271 (Simulation time: 00 hr 08 min 41 sec)
Heartbeat CPU 0 instructions: 86000546 cycles: 43739949 heartbeat IPC: 2.041 cumulative IPC: 1.278 (Simulation time: 00 hr 08 min 44 sec)
Heartbeat CPU 0 instructions: 86500553 cycles: 43999618 heartbeat IPC: 1.926 cumulative IPC: 1.284 (Simulation time: 00 hr 08 min 47 sec)
Heartbeat CPU 0 instructions: 87000558 cycles: 44274039 heartbeat IPC: 1.822 cumulative IPC: 1.289 (Simulation time: 00 hr 08 min 51 sec)
Heartbeat CPU 0 instructions: 87500565 cycles: 44546608 heartbeat IPC: 1.834 cumulative IPC: 1.294 (Simulation time: 00 hr 08 min 54 sec)
Heartbeat CPU 0 instructions: 88000569 cycles: 44810067 heartbeat IPC: 1.898 cumulative IPC: 1.3 (Simulation time: 00 hr 08 min 57 sec)
Heartbeat CPU 0 instructions: 88500576 cycles: 45064657 heartbeat IPC: 1.964 cumulative IPC: 1.305 (Simulation time: 00 hr 09 min 01 sec)
Heartbeat CPU 0 instructions: 89000583 cycles: 45320799 heartbeat IPC: 1.952 cumulative IPC: 1.311 (Simulation time: 00 hr 09 min 04 sec)
Heartbeat CPU 0 instructions: 89500586 cycles: 45588036 heartbeat IPC: 1.871 cumulative IPC: 1.316 (Simulation time: 00 hr 09 min 07 sec)
Heartbeat CPU 0 instructions: 90000586 cycles: 45835837 heartbeat IPC: 2.018 cumulative IPC: 1.322 (Simulation time: 00 hr 09 min 10 sec)
Heartbeat CPU 0 instructions: 90500588 cycles: 46091821 heartbeat IPC: 1.953 cumulative IPC: 1.327 (Simulation time: 00 hr 09 min 13 sec)
Heartbeat CPU 0 instructions: 91000590 cycles: 46337431 heartbeat IPC: 2.036 cumulative IPC: 1.333 (Simulation time: 00 hr 09 min 17 sec)
Heartbeat CPU 0 instructions: 91500597 cycles: 46571943 heartbeat IPC: 2.132 cumulative IPC: 1.339 (Simulation time: 00 hr 09 min 20 sec)
Heartbeat CPU 0 instructions: 92000597 cycles: 46810182 heartbeat IPC: 2.099 cumulative IPC: 1.344 (Simulation time: 00 hr 09 min 23 sec)
Heartbeat CPU 0 instructions: 92500599 cycles: 47064686 heartbeat IPC: 1.965 cumulative IPC: 1.349 (Simulation time: 00 hr 09 min 26 sec)
Heartbeat CPU 0 instructions: 93000601 cycles: 47324385 heartbeat IPC: 1.925 cumulative IPC: 1.354 (Simulation time: 00 hr 09 min 29 sec)
Heartbeat CPU 0 instructions: 93500602 cycles: 47563231 heartbeat IPC: 2.093 cumulative IPC: 1.36 (Simulation time: 00 hr 09 min 32 sec)
Heartbeat CPU 0 instructions: 94000602 cycles: 48261713 heartbeat IPC: 0.7158 cumulative IPC: 1.346 (Simulation time: 00 hr 09 min 39 sec)
Heartbeat CPU 0 instructions: 94500602 cycles: 49121244 heartbeat IPC: 0.5817 cumulative IPC: 1.326 (Simulation time: 00 hr 09 min 48 sec)
Heartbeat CPU 0 instructions: 95000602 cycles: 49869165 heartbeat IPC: 0.6685 cumulative IPC: 1.312 (Simulation time: 00 hr 09 min 57 sec)
Heartbeat CPU 0 instructions: 95500609 cycles: 50162461 heartbeat IPC: 1.705 cumulative IPC: 1.315 (Simulation time: 00 hr 10 min 01 sec)
Heartbeat CPU 0 instructions: 96000612 cycles: 50455656 heartbeat IPC: 1.705 cumulative IPC: 1.319 (Simulation time: 00 hr 10 min 05 sec)
Heartbeat CPU 0 instructions: 96500614 cycles: 50722213 heartbeat IPC: 1.876 cumulative IPC: 1.323 (Simulation time: 00 hr 10 min 09 sec)
Heartbeat CPU 0 instructions: 97000618 cycles: 51004026 heartbeat IPC: 1.774 cumulative IPC: 1.326 (Simulation time: 00 hr 10 min 13 sec)
Heartbeat CPU 0 instructions: 97500621 cycles: 51301212 heartbeat IPC: 1.682 cumulative IPC: 1.329 (Simulation time: 00 hr 10 min 17 sec)
Heartbeat CPU 0 instructions: 98000622 cycles: 51599334 heartbeat IPC: 1.677 cumulative IPC: 1.332 (Simulation time: 00 hr 10 min 21 sec)
Heartbeat CPU 0 instructions: 98500625 cycles: 51889572 heartbeat IPC: 1.723 cumulative IPC: 1.335 (Simulation time: 00 hr 10 min 25 sec)
Heartbeat CPU 0 instructions: 99000628 cycles: 52172972 heartbeat IPC: 1.764 cumulative IPC: 1.339 (Simulation time: 00 hr 10 min 29 sec)
Heartbeat CPU 0 instructions: 99500632 cycles: 52473706 heartbeat IPC: 1.663 cumulative IPC: 1.341 (Simulation time: 00 hr 10 min 33 sec)
Heartbeat CPU 0 instructions: 100000639 cycles: 52786226 heartbeat IPC: 1.6 cumulative IPC: 1.344 (Simulation time: 00 hr 10 min 38 sec)
Heartbeat CPU 0 instructions: 100500644 cycles: 53080705 heartbeat IPC: 1.698 cumulative IPC: 1.346 (Simulation time: 00 hr 10 min 42 sec)
Heartbeat CPU 0 instructions: 101000651 cycles: 53460311 heartbeat IPC: 1.317 cumulative IPC: 1.346 (Simulation time: 00 hr 10 min 47 sec)
Heartbeat CPU 0 instructions: 101500656 cycles: 54232827 heartbeat IPC: 0.6472 cumulative IPC: 1.332 (Simulation time: 00 hr 10 min 56 sec)
Heartbeat CPU 0 instructions: 102000657 cycles: 54965245 heartbeat IPC: 0.6827 cumulative IPC: 1.32 (Simulation time: 00 hr 11 min 05 sec)
Heartbeat CPU 0 instructions: 102500663 cycles: 55185221 heartbeat IPC: 2.273 cumulative IPC: 1.325 (Simulation time: 00 hr 11 min 08 sec)
Heartbeat CPU 0 instructions: 103000663 cycles: 55415114 heartbeat IPC: 2.175 cumulative IPC: 1.33 (Simulation time: 00 hr 11 min 12 sec)
Heartbeat CPU 0 instructions: 103500670 cycles: 55618901 heartbeat IPC: 2.454 cumulative IPC: 1.336 (Simulation time: 00 hr 11 min 15 sec)
Heartbeat CPU 0 instructions: 104000671 cycles: 55820444 heartbeat IPC: 2.481 cumulative IPC: 1.342 (Simulation time: 00 hr 11 min 18 sec)
Heartbeat CPU 0 instructions: 104500672 cycles: 56067650 heartbeat IPC: 2.023 cumulative IPC: 1.346 (Simulation time: 00 hr 11 min 22 sec)
Heartbeat CPU 0 instructions: 105000679 cycles: 56293524 heartbeat IPC: 2.214 cumulative IPC: 1.351 (Simulation time: 00 hr 11 min 25 sec)
Heartbeat CPU 0 instructions: 105500681 cycles: 56525234 heartbeat IPC: 2.158 cumulative IPC: 1.355 (Simulation time: 00 hr 11 min 28 sec)
Heartbeat CPU 0 instructions: 106000684 cycles: 56755741 heartbeat IPC: 2.169 cumulative IPC: 1.36 (Simulation time: 00 hr 11 min 32 sec)
Heartbeat CPU 0 instructions: 106500687 cycles: 56984608 heartbeat IPC: 2.185 cumulative IPC: 1.364 (Simulation time: 00 hr 11 min 35 sec)
Heartbeat CPU 0 instructions: 107000692 cycles: 57192118 heartbeat IPC: 2.41 cumulative IPC: 1.369 (Simulation time: 00 hr 11 min 38 sec)
Heartbeat CPU 0 instructions: 107500692 cycles: 57413912 heartbeat IPC: 2.254 cumulative IPC: 1.374 (Simulation time: 00 hr 11 min 42 sec)
Heartbeat CPU 0 instructions: 108000698 cycles: 57696809 heartbeat IPC: 1.767 cumulative IPC: 1.377 (Simulation time: 00 hr 11 min 45 sec)
Heartbeat CPU 0 instructions: 108500704 cycles: 58237124 heartbeat IPC: 0.9254 cumulative IPC: 1.371 (Simulation time: 00 hr 11 min 52 sec)
Heartbeat CPU 0 instructions: 109000705 cycles: 58836601 heartbeat IPC: 0.8341 cumulative IPC: 1.364 (Simulation time: 00 hr 11 min 59 sec)
Heartbeat CPU 0 instructions: 109500708 cycles: 59125525 heartbeat IPC: 1.731 cumulative IPC: 1.366 (Simulation time: 00 hr 12 min 03 sec)
Heartbeat CPU 0 instructions: 110000711 cycles: 59414405 heartbeat IPC: 1.731 cumulative IPC: 1.369 (Simulation time: 00 hr 12 min 07 sec)
Heartbeat CPU 0 instructions: 110500711 cycles: 59691286 heartbeat IPC: 1.806 cumulative IPC: 1.371 (Simulation time: 00 hr 12 min 11 sec)
Heartbeat CPU 0 instructions: 111000718 cycles: 59961653 heartbeat IPC: 1.849 cumulative IPC: 1.374 (Simulation time: 00 hr 12 min 14 sec)
Heartbeat CPU 0 instructions: 111500725 cycles: 60230852 heartbeat IPC: 1.857 cumulative IPC: 1.377 (Simulation time: 00 hr 12 min 18 sec)
Heartbeat CPU 0 instructions: 112000728 cycles: 60538545 heartbeat IPC: 1.625 cumulative IPC: 1.379 (Simulation time: 00 hr 12 min 22 sec)
Heartbeat CPU 0 instructions: 112500728 cycles: 60838711 heartbeat IPC: 1.666 cumulative IPC: 1.381 (Simulation time: 00 hr 12 min 27 sec)
Heartbeat CPU 0 instructions: 113000728 cycles: 61124054 heartbeat IPC: 1.752 cumulative IPC: 1.383 (Simulation time: 00 hr 12 min 30 sec)
Heartbeat CPU 0 instructions: 113500733 cycles: 61728111 heartbeat IPC: 0.8277 cumulative IPC: 1.376 (Simulation time: 00 hr 12 min 38 sec)
Heartbeat CPU 0 instructions: 114000740 cycles: 62031450 heartbeat IPC: 1.648 cumulative IPC: 1.378 (Simulation time: 00 hr 12 min 43 sec)
Heartbeat CPU 0 instructions: 114500743 cycles: 62177556 heartbeat IPC: 3.422 cumulative IPC: 1.384 (Simulation time: 00 hr 12 min 45 sec)
Heartbeat CPU 0 instructions: 115000750 cycles: 62332335 heartbeat IPC: 3.23 cumulative IPC: 1.39 (Simulation time: 00 hr 12 min 48 sec)
Heartbeat CPU 0 instructions: 115500757 cycles: 62471322 heartbeat IPC: 3.598 cumulative IPC: 1.397 (Simulation time: 00 hr 12 min 50 sec)
Heartbeat CPU 0 instructions: 116000759 cycles: 62616127 heartbeat IPC: 3.453 cumulative IPC: 1.403 (Simulation time: 00 hr 12 min 53 sec)
Heartbeat CPU 0 instructions: 116500762 cycles: 62775700 heartbeat IPC: 3.133 cumulative IPC: 1.409 (Simulation time: 00 hr 12 min 55 sec)
Heartbeat CPU 0 instructions: 117000765 cycles: 62933151 heartbeat IPC: 3.176 cumulative IPC: 1.415 (Simulation time: 00 hr 12 min 58 sec)
Heartbeat CPU 0 instructions: 117500768 cycles: 63103933 heartbeat IPC: 2.928 cumulative IPC: 1.42 (Simulation time: 00 hr 13 min 00 sec)
Heartbeat CPU 0 instructions: 118000773 cycles: 63297773 heartbeat IPC: 2.579 cumulative IPC: 1.425 (Simulation time: 00 hr 13 min 03 sec)
Heartbeat CPU 0 instructions: 118500778 cycles: 63651310 heartbeat IPC: 1.414 cumulative IPC: 1.425 (Simulation time: 00 hr 13 min 08 sec)
Heartbeat CPU 0 instructions: 119000780 cycles: 63927846 heartbeat IPC: 1.808 cumulative IPC: 1.427 (Simulation time: 00 hr 13 min 12 sec)
Heartbeat CPU 0 instructions: 119500782 cycles: 64199642 heartbeat IPC: 1.84 cumulative IPC: 1.429 (Simulation time: 00 hr 13 min 15 sec)
Heartbeat CPU 0 instructions: 120000783 cycles: 64470886 heartbeat IPC: 1.843 cumulative IPC: 1.431 (Simulation time: 00 hr 13 min 19 sec)
Heartbeat CPU 0 instructions: 120500783 cycles: 64750780 heartbeat IPC: 1.786 cumulative IPC: 1.434 (Simulation time: 00 hr 13 min 23 sec)
Heartbeat CPU 0 instructions: 121000783 cycles: 65036148 heartbeat IPC: 1.752 cumulative IPC: 1.435 (Simulation time: 00 hr 13 min 27 sec)
Heartbeat CPU 0 instructions: 121500787 cycles: 65319576 heartbeat IPC: 1.764 cumulative IPC: 1.437 (Simulation time: 00 hr 13 min 31 sec)
Heartbeat CPU 0 instructions: 122000794 cycles: 65600174 heartbeat IPC: 1.782 cumulative IPC: 1.439 (Simulation time: 00 hr 13 min 34 sec)
Heartbeat CPU 0 instructions: 122500796 cycles: 65891789 heartbeat IPC: 1.715 cumulative IPC: 1.441 (Simulation time: 00 hr 13 min 38 sec)
Heartbeat CPU 0 instructions: 123000802 cycles: 66184170 heartbeat IPC: 1.71 cumulative IPC: 1.442 (Simulation time: 00 hr 13 min 43 sec)
Heartbeat CPU 0 instructions: 123500807 cycles: 66491770 heartbeat IPC: 1.626 cumulative IPC: 1.443 (Simulation time: 00 hr 13 min 47 sec)
Heartbeat CPU 0 instructions: 124000813 cycles: 66794278 heartbeat IPC: 1.653 cumulative IPC: 1.445 (Simulation time: 00 hr 13 min 51 sec)
Heartbeat CPU 0 instructions: 124500815 cycles: 67388070 heartbeat IPC: 0.842 cumulative IPC: 1.438 (Simulation time: 00 hr 13 min 59 sec)
Heartbeat CPU 0 instructions: 125000820 cycles: 68300273 heartbeat IPC: 0.5481 cumulative IPC: 1.422 (Simulation time: 00 hr 14 min 10 sec)
Heartbeat CPU 0 instructions: 125500822 cycles: 68557727 heartbeat IPC: 1.942 cumulative IPC: 1.425 (Simulation time: 00 hr 14 min 13 sec)
Heartbeat CPU 0 instructions: 126000822 cycles: 68771169 heartbeat IPC: 2.343 cumulative IPC: 1.429 (Simulation time: 00 hr 14 min 16 sec)
Heartbeat CPU 0 instructions: 126500823 cycles: 68989872 heartbeat IPC: 2.286 cumulative IPC: 1.432 (Simulation time: 00 hr 14 min 20 sec)
Heartbeat CPU 0 instructions: 127000827 cycles: 69177713 heartbeat IPC: 2.662 cumulative IPC: 1.436 (Simulation time: 00 hr 14 min 23 sec)
Heartbeat CPU 0 instructions: 127500832 cycles: 69399629 heartbeat IPC: 2.253 cumulative IPC: 1.44 (Simulation time: 00 hr 14 min 26 sec)
Heartbeat CPU 0 instructions: 128000838 cycles: 69626652 heartbeat IPC: 2.202 cumulative IPC: 1.443 (Simulation time: 00 hr 14 min 30 sec)
Heartbeat CPU 0 instructions: 128500839 cycles: 69833325 heartbeat IPC: 2.419 cumulative IPC: 1.447 (Simulation time: 00 hr 14 min 33 sec)
Heartbeat CPU 0 instructions: 129000845 cycles: 70047437 heartbeat IPC: 2.335 cumulative IPC: 1.45 (Simulation time: 00 hr 14 min 36 sec)
Heartbeat CPU 0 instructions: 129500847 cycles: 70258304 heartbeat IPC: 2.371 cumulative IPC: 1.454 (Simulation time: 00 hr 14 min 39 sec)
Heartbeat CPU 0 instructions: 130000847 cycles: 70463960 heartbeat IPC: 2.431 cumulative IPC: 1.457 (Simulation time: 00 hr 14 min 42 sec)
Heartbeat CPU 0 instructions: 130500851 cycles: 70683757 heartbeat IPC: 2.275 cumulative IPC: 1.461 (Simulation time: 00 hr 14 min 46 sec)
Heartbeat CPU 0 instructions: 131000851 cycles: 70999936 heartbeat IPC: 1.581 cumulative IPC: 1.461 (Simulation time: 00 hr 14 min 50 sec)
Heartbeat CPU 0 instructions: 131500853 cycles: 71589958 heartbeat IPC: 0.8474 cumulative IPC: 1.455 (Simulation time: 00 hr 14 min 57 sec)
Heartbeat CPU 0 instructions: 132000857 cycles: 72007743 heartbeat IPC: 1.197 cumulative IPC: 1.453 (Simulation time: 00 hr 15 min 02 sec)
Heartbeat CPU 0 instructions: 132500864 cycles: 72296295 heartbeat IPC: 1.733 cumulative IPC: 1.454 (Simulation time: 00 hr 15 min 06 sec)
Heartbeat CPU 0 instructions: 133000868 cycles: 72584155 heartbeat IPC: 1.737 cumulative IPC: 1.456 (Simulation time: 00 hr 15 min 10 sec)
Heartbeat CPU 0 instructions: 133500874 cycles: 72847606 heartbeat IPC: 1.898 cumulative IPC: 1.458 (Simulation time: 00 hr 15 min 13 sec)
Heartbeat CPU 0 instructions: 134000881 cycles: 73113913 heartbeat IPC: 1.878 cumulative IPC: 1.46 (Simulation time: 00 hr 15 min 17 sec)
Heartbeat CPU 0 instructions: 134500884 cycles: 73408474 heartbeat IPC: 1.697 cumulative IPC: 1.461 (Simulation time: 00 hr 15 min 21 sec)
Heartbeat CPU 0 instructions: 135000887 cycles: 73705836 heartbeat IPC: 1.681 cumulative IPC: 1.462 (Simulation time: 00 hr 15 min 25 sec)
Heartbeat CPU 0 instructions: 135500889 cycles: 73990789 heartbeat IPC: 1.755 cumulative IPC: 1.464 (Simulation time: 00 hr 15 min 29 sec)
Heartbeat CPU 0 instructions: 136000896 cycles: 74281299 heartbeat IPC: 1.721 cumulative IPC: 1.465 (Simulation time: 00 hr 15 min 33 sec)
Heartbeat CPU 0 instructions: 136500900 cycles: 74741003 heartbeat IPC: 1.088 cumulative IPC: 1.462 (Simulation time: 00 hr 15 min 39 sec)
Heartbeat CPU 0 instructions: 137000900 cycles: 75436258 heartbeat IPC: 0.7192 cumulative IPC: 1.453 (Simulation time: 00 hr 15 min 48 sec)
Heartbeat CPU 0 instructions: 137500907 cycles: 75596995 heartbeat IPC: 3.111 cumulative IPC: 1.458 (Simulation time: 00 hr 15 min 51 sec)
Heartbeat CPU 0 instructions: 138000910 cycles: 75756478 heartbeat IPC: 3.135 cumulative IPC: 1.462 (Simulation time: 00 hr 15 min 53 sec)
Heartbeat CPU 0 instructions: 138500916 cycles: 75897970 heartbeat IPC: 3.534 cumulative IPC: 1.467 (Simulation time: 00 hr 15 min 56 sec)
Heartbeat CPU 0 instructions: 139000923 cycles: 76083913 heartbeat IPC: 2.689 cumulative IPC: 1.471 (Simulation time: 00 hr 15 min 59 sec)
Heartbeat CPU 0 instructions: 139500930 cycles: 76232487 heartbeat IPC: 3.365 cumulative IPC: 1.475 (Simulation time: 00 hr 16 min 02 sec)
Heartbeat CPU 0 instructions: 140000934 cycles: 76412961 heartbeat IPC: 2.771 cumulative IPC: 1.479 (Simulation time: 00 hr 16 min 04 sec)
Heartbeat CPU 0 instructions: 140500940 cycles: 76580328 heartbeat IPC: 2.987 cumulative IPC: 1.483 (Simulation time: 00 hr 16 min 07 sec)
Heartbeat CPU 0 instructions: 141000943 cycles: 76768673 heartbeat IPC: 2.655 cumulative IPC: 1.487 (Simulation time: 00 hr 16 min 10 sec)
Heartbeat CPU 0 instructions: 141500947 cycles: 76951586 heartbeat IPC: 2.734 cumulative IPC: 1.491 (Simulation time: 00 hr 16 min 13 sec)
Heartbeat CPU 0 instructions: 142000951 cycles: 77274596 heartbeat IPC: 1.548 cumulative IPC: 1.491 (Simulation time: 00 hr 16 min 17 sec)
Heartbeat CPU 0 instructions: 142500954 cycles: 77663729 heartbeat IPC: 1.285 cumulative IPC: 1.49 (Simulation time: 00 hr 16 min 22 sec)
Heartbeat CPU 0 instructions: 143000956 cycles: 77944391 heartbeat IPC: 1.782 cumulative IPC: 1.491 (Simulation time: 00 hr 16 min 26 sec)
Heartbeat CPU 0 instructions: 143500957 cycles: 78213626 heartbeat IPC: 1.857 cumulative IPC: 1.493 (Simulation time: 00 hr 16 min 30 sec)
Heartbeat CPU 0 instructions: 144000958 cycles: 78479565 heartbeat IPC: 1.88 cumulative IPC: 1.494 (Simulation time: 00 hr 16 min 33 sec)
Heartbeat CPU 0 instructions: 144500959 cycles: 78752085 heartbeat IPC: 1.835 cumulative IPC: 1.496 (Simulation time: 00 hr 16 min 37 sec)
Heartbeat CPU 0 instructions: 145000960 cycles: 79026289 heartbeat IPC: 1.823 cumulative IPC: 1.497 (Simulation time: 00 hr 16 min 41 sec)
Heartbeat CPU 0 instructions: 145500961 cycles: 79318989 heartbeat IPC: 1.708 cumulative IPC: 1.498 (Simulation time: 00 hr 16 min 45 sec)
Heartbeat CPU 0 instructions: 146000968 cycles: 79671555 heartbeat IPC: 1.418 cumulative IPC: 1.498 (Simulation time: 00 hr 16 min 50 sec)
Heartbeat CPU 0 instructions: 146500974 cycles: 80029193 heartbeat IPC: 1.398 cumulative IPC: 1.497 (Simulation time: 00 hr 16 min 55 sec)
Heartbeat CPU 0 instructions: 147000975 cycles: 80158312 heartbeat IPC: 3.872 cumulative IPC: 1.502 (Simulation time: 00 hr 16 min 57 sec)
Heartbeat CPU 0 instructions: 147500976 cycles: 80287554 heartbeat IPC: 3.869 cumulative IPC: 1.507 (Simulation time: 00 hr 16 min 59 sec)
Heartbeat CPU 0 instructions: 148000976 cycles: 80413842 heartbeat IPC: 3.959 cumulative IPC: 1.511 (Simulation time: 00 hr 17 min 01 sec)
Heartbeat CPU 0 instructions: 148500977 cycles: 80540738 heartbeat IPC: 3.94 cumulative IPC: 1.516 (Simulation time: 00 hr 17 min 04 sec)
Heartbeat CPU 0 instructions: 149000982 cycles: 80681792 heartbeat IPC: 3.545 cumulative IPC: 1.52 (Simulation time: 00 hr 17 min 06 sec)
Heartbeat CPU 0 instructions: 149500983 cycles: 80817624 heartbeat IPC: 3.681 cumulative IPC: 1.525 (Simulation time: 00 hr 17 min 09 sec)
Heartbeat CPU 0 instructions: 150000990 cycles: 80973990 heartbeat IPC: 3.198 cumulative IPC: 1.529 (Simulation time: 00 hr 17 min 11 sec)
Heartbeat CPU 0 instructions: 150500990 cycles: 81228158 heartbeat IPC: 1.967 cumulative IPC: 1.531 (Simulation time: 00 hr 17 min 14 sec)
Heartbeat CPU 0 instructions: 151000997 cycles: 81526034 heartbeat IPC: 1.679 cumulative IPC: 1.531 (Simulation time: 00 hr 17 min 18 sec)
Heartbeat CPU 0 instructions: 151501004 cycles: 81815020 heartbeat IPC: 1.73 cumulative IPC: 1.532 (Simulation time: 00 hr 17 min 23 sec)
Heartbeat CPU 0 instructions: 152001004 cycles: 82084125 heartbeat IPC: 1.858 cumulative IPC: 1.534 (Simulation time: 00 hr 17 min 26 sec)
Heartbeat CPU 0 instructions: 152501005 cycles: 82369450 heartbeat IPC: 1.752 cumulative IPC: 1.534 (Simulation time: 00 hr 17 min 30 sec)
Heartbeat CPU 0 instructions: 153001007 cycles: 82661465 heartbeat IPC: 1.712 cumulative IPC: 1.535 (Simulation time: 00 hr 17 min 34 sec)
Heartbeat CPU 0 instructions: 153501013 cycles: 82971971 heartbeat IPC: 1.61 cumulative IPC: 1.536 (Simulation time: 00 hr 17 min 38 sec)
Heartbeat CPU 0 instructions: 154001020 cycles: 83258743 heartbeat IPC: 1.744 cumulative IPC: 1.536 (Simulation time: 00 hr 17 min 42 sec)
Heartbeat CPU 0 instructions: 154501020 cycles: 83544696 heartbeat IPC: 1.749 cumulative IPC: 1.537 (Simulation time: 00 hr 17 min 46 sec)
Heartbeat CPU 0 instructions: 155001020 cycles: 83841468 heartbeat IPC: 1.685 cumulative IPC: 1.538 (Simulation time: 00 hr 17 min 50 sec)
Heartbeat CPU 0 instructions: 155501027 cycles: 84149483 heartbeat IPC: 1.623 cumulative IPC: 1.538 (Simulation time: 00 hr 17 min 55 sec)
Heartbeat CPU 0 instructions: 156001031 cycles: 84452987 heartbeat IPC: 1.647 cumulative IPC: 1.539 (Simulation time: 00 hr 17 min 59 sec)
Heartbeat CPU 0 instructions: 156501036 cycles: 84713438 heartbeat IPC: 1.92 cumulative IPC: 1.54 (Simulation time: 00 hr 18 min 03 sec)
Heartbeat CPU 0 instructions: 157001041 cycles: 85417596 heartbeat IPC: 0.7101 cumulative IPC: 1.532 (Simulation time: 00 hr 18 min 11 sec)
Heartbeat CPU 0 instructions: 157501044 cycles: 86411001 heartbeat IPC: 0.5033 cumulative IPC: 1.518 (Simulation time: 00 hr 18 min 23 sec)
Heartbeat CPU 0 instructions: 158001048 cycles: 86650747 heartbeat IPC: 2.086 cumulative IPC: 1.519 (Simulation time: 00 hr 18 min 27 sec)
Heartbeat CPU 0 instructions: 158501052 cycles: 86864715 heartbeat IPC: 2.337 cumulative IPC: 1.522 (Simulation time: 00 hr 18 min 30 sec)
Heartbeat CPU 0 instructions: 159001055 cycles: 87096456 heartbeat IPC: 2.158 cumulative IPC: 1.524 (Simulation time: 00 hr 18 min 33 sec)
Heartbeat CPU 0 instructions: 159501055 cycles: 87298884 heartbeat IPC: 2.47 cumulative IPC: 1.527 (Simulation time: 00 hr 18 min 37 sec)
Heartbeat CPU 0 instructions: 160001060 cycles: 87529176 heartbeat IPC: 2.171 cumulative IPC: 1.529 (Simulation time: 00 hr 18 min 40 sec)
Heartbeat CPU 0 instructions: 160501062 cycles: 87776544 heartbeat IPC: 2.021 cumulative IPC: 1.53 (Simulation time: 00 hr 18 min 44 sec)
Heartbeat CPU 0 instructions: 161001064 cycles: 87994565 heartbeat IPC: 2.293 cumulative IPC: 1.533 (Simulation time: 00 hr 18 min 47 sec)
Heartbeat CPU 0 instructions: 161501071 cycles: 88205752 heartbeat IPC: 2.368 cumulative IPC: 1.535 (Simulation time: 00 hr 18 min 50 sec)
Heartbeat CPU 0 instructions: 162001071 cycles: 88430612 heartbeat IPC: 2.224 cumulative IPC: 1.537 (Simulation time: 00 hr 18 min 54 sec)
Heartbeat CPU 0 instructions: 162501074 cycles: 88648188 heartbeat IPC: 2.298 cumulative IPC: 1.539 (Simulation time: 00 hr 18 min 57 sec)
Heartbeat CPU 0 instructions: 163001074 cycles: 88883790 heartbeat IPC: 2.122 cumulative IPC: 1.541 (Simulation time: 00 hr 19 min 00 sec)
Heartbeat CPU 0 instructions: 163501078 cycles: 89102501 heartbeat IPC: 2.286 cumulative IPC: 1.544 (Simulation time: 00 hr 19 min 03 sec)
Heartbeat CPU 0 instructions: 164001082 cycles: 89477105 heartbeat IPC: 1.335 cumulative IPC: 1.543 (Simulation time: 00 hr 19 min 08 sec)
Heartbeat CPU 0 instructions: 164501082 cycles: 90170070 heartbeat IPC: 0.7215 cumulative IPC: 1.535 (Simulation time: 00 hr 19 min 16 sec)
Heartbeat CPU 0 instructions: 165001086 cycles: 90618742 heartbeat IPC: 1.114 cumulative IPC: 1.532 (Simulation time: 00 hr 19 min 22 sec)
Heartbeat CPU 0 instructions: 165501089 cycles: 90912020 heartbeat IPC: 1.705 cumulative IPC: 1.533 (Simulation time: 00 hr 19 min 26 sec)
Heartbeat CPU 0 instructions: 166001093 cycles: 91193573 heartbeat IPC: 1.776 cumulative IPC: 1.534 (Simulation time: 00 hr 19 min 30 sec)
Heartbeat CPU 0 instructions: 166501096 cycles: 91472358 heartbeat IPC: 1.794 cumulative IPC: 1.535 (Simulation time: 00 hr 19 min 34 sec)
Heartbeat CPU 0 instructions: 167001097 cycles: 91742753 heartbeat IPC: 1.849 cumulative IPC: 1.536 (Simulation time: 00 hr 19 min 37 sec)
Heartbeat CPU 0 instructions: 167501098 cycles: 92021656 heartbeat IPC: 1.793 cumulative IPC: 1.537 (Simulation time: 00 hr 19 min 41 sec)
Heartbeat CPU 0 instructions: 168001099 cycles: 92315392 heartbeat IPC: 1.702 cumulative IPC: 1.538 (Simulation time: 00 hr 19 min 45 sec)
Heartbeat CPU 0 instructions: 168501100 cycles: 92616631 heartbeat IPC: 1.66 cumulative IPC: 1.538 (Simulation time: 00 hr 19 min 50 sec)
Heartbeat CPU 0 instructions: 169001106 cycles: 92919820 heartbeat IPC: 1.649 cumulative IPC: 1.538 (Simulation time: 00 hr 19 min 54 sec)
Heartbeat CPU 0 instructions: 169501107 cycles: 93212152 heartbeat IPC: 1.71 cumulative IPC: 1.539 (Simulation time: 00 hr 19 min 58 sec)
Heartbeat CPU 0 instructions: 170001108 cycles: 93496084 heartbeat IPC: 1.761 cumulative IPC: 1.54 (Simulation time: 00 hr 20 min 02 sec)
Heartbeat CPU 0 instructions: 170501109 cycles: 93793511 heartbeat IPC: 1.681 cumulative IPC: 1.54 (Simulation time: 00 hr 20 min 06 sec)
Heartbeat CPU 0 instructions: 171001110 cycles: 94092429 heartbeat IPC: 1.673 cumulative IPC: 1.541 (Simulation time: 00 hr 20 min 10 sec)
Heartbeat CPU 0 instructions: 171501111 cycles: 94552719 heartbeat IPC: 1.086 cumulative IPC: 1.538 (Simulation time: 00 hr 20 min 16 sec)
Heartbeat CPU 0 instructions: 172001113 cycles: 95403716 heartbeat IPC: 0.5875 cumulative IPC: 1.528 (Simulation time: 00 hr 20 min 26 sec)
Heartbeat CPU 0 instructions: 172501120 cycles: 96209522 heartbeat IPC: 0.6205 cumulative IPC: 1.519 (Simulation time: 00 hr 20 min 36 sec)
Heartbeat CPU 0 instructions: 173001124 cycles: 96429019 heartbeat IPC: 2.278 cumulative IPC: 1.521 (Simulation time: 00 hr 20 min 39 sec)
Heartbeat CPU 0 instructions: 173501126 cycles: 96676214 heartbeat IPC: 2.023 cumulative IPC: 1.523 (Simulation time: 00 hr 20 min 43 sec)
Heartbeat CPU 0 instructions: 174001127 cycles: 96919508 heartbeat IPC: 2.055 cumulative IPC: 1.524 (Simulation time: 00 hr 20 min 46 sec)
Heartbeat CPU 0 instructions: 174501128 cycles: 97136015 heartbeat IPC: 2.309 cumulative IPC: 1.526 (Simulation time: 00 hr 20 min 50 sec)
Heartbeat CPU 0 instructions: 175001129 cycles: 97361232 heartbeat IPC: 2.22 cumulative IPC: 1.528 (Simulation time: 00 hr 20 min 53 sec)
Heartbeat CPU 0 instructions: 175501135 cycles: 97622075 heartbeat IPC: 1.917 cumulative IPC: 1.53 (Simulation time: 00 hr 20 min 57 sec)
Heartbeat CPU 0 instructions: 176001136 cycles: 97857919 heartbeat IPC: 2.12 cumulative IPC: 1.531 (Simulation time: 00 hr 21 min 00 sec)
Heartbeat CPU 0 instructions: 176501137 cycles: 98073979 heartbeat IPC: 2.314 cumulative IPC: 1.533 (Simulation time: 00 hr 21 min 04 sec)
Heartbeat CPU 0 instructions: 177001138 cycles: 98296917 heartbeat IPC: 2.243 cumulative IPC: 1.535 (Simulation time: 00 hr 21 min 07 sec)
Heartbeat CPU 0 instructions: 177501139 cycles: 98522835 heartbeat IPC: 2.213 cumulative IPC: 1.537 (Simulation time: 00 hr 21 min 10 sec)
Heartbeat CPU 0 instructions: 178001140 cycles: 98744913 heartbeat IPC: 2.251 cumulative IPC: 1.539 (Simulation time: 00 hr 21 min 14 sec)
Heartbeat CPU 0 instructions: 178501141 cycles: 98981980 heartbeat IPC: 2.109 cumulative IPC: 1.541 (Simulation time: 00 hr 21 min 17 sec)
Heartbeat CPU 0 instructions: 179001141 cycles: 99196175 heartbeat IPC: 2.334 cumulative IPC: 1.543 (Simulation time: 00 hr 21 min 20 sec)
Heartbeat CPU 0 instructions: 179501141 cycles: 99748625 heartbeat IPC: 0.9051 cumulative IPC: 1.538 (Simulation time: 00 hr 21 min 27 sec)
Heartbeat CPU 0 instructions: 180001143 cycles: 100548890 heartbeat IPC: 0.6248 cumulative IPC: 1.53 (Simulation time: 00 hr 21 min 36 sec)
Heartbeat CPU 0 instructions: 180501144 cycles: 100938106 heartbeat IPC: 1.285 cumulative IPC: 1.529 (Simulation time: 00 hr 21 min 41 sec)
Heartbeat CPU 0 instructions: 181001151 cycles: 101212260 heartbeat IPC: 1.824 cumulative IPC: 1.53 (Simulation time: 00 hr 21 min 45 sec)
Heartbeat CPU 0 instructions: 181501157 cycles: 101487240 heartbeat IPC: 1.818 cumulative IPC: 1.531 (Simulation time: 00 hr 21 min 49 sec)
Heartbeat CPU 0 instructions: 182001164 cycles: 101772253 heartbeat IPC: 1.754 cumulative IPC: 1.531 (Simulation time: 00 hr 21 min 53 sec)
Heartbeat CPU 0 instructions: 182501164 cycles: 102057324 heartbeat IPC: 1.754 cumulative IPC: 1.532 (Simulation time: 00 hr 21 min 57 sec)
Heartbeat CPU 0 instructions: 183001165 cycles: 102351866 heartbeat IPC: 1.698 cumulative IPC: 1.533 (Simulation time: 00 hr 22 min 01 sec)
Heartbeat CPU 0 instructions: 183501165 cycles: 102629819 heartbeat IPC: 1.799 cumulative IPC: 1.533 (Simulation time: 00 hr 22 min 05 sec)
Heartbeat CPU 0 instructions: 184001170 cycles: 102920350 heartbeat IPC: 1.721 cumulative IPC: 1.534 (Simulation time: 00 hr 22 min 09 sec)
Heartbeat CPU 0 instructions: 184501170 cycles: 103220649 heartbeat IPC: 1.665 cumulative IPC: 1.535 (Simulation time: 00 hr 22 min 13 sec)
Heartbeat CPU 0 instructions: 185001170 cycles: 103536082 heartbeat IPC: 1.585 cumulative IPC: 1.535 (Simulation time: 00 hr 22 min 17 sec)
Heartbeat CPU 0 instructions: 185501171 cycles: 104212544 heartbeat IPC: 0.7391 cumulative IPC: 1.529 (Simulation time: 00 hr 22 min 26 sec)
Heartbeat CPU 0 instructions: 186001174 cycles: 104707591 heartbeat IPC: 1.01 cumulative IPC: 1.526 (Simulation time: 00 hr 22 min 32 sec)
Heartbeat CPU 0 instructions: 186501178 cycles: 104876637 heartbeat IPC: 2.958 cumulative IPC: 1.528 (Simulation time: 00 hr 22 min 35 sec)
Heartbeat CPU 0 instructions: 187001179 cycles: 105048292 heartbeat IPC: 2.913 cumulative IPC: 1.531 (Simulation time: 00 hr 22 min 38 sec)
Heartbeat CPU 0 instructions: 187501184 cycles: 105225724 heartbeat IPC: 2.818 cumulative IPC: 1.534 (Simulation time: 00 hr 22 min 41 sec)
Heartbeat CPU 0 instructions: 188001186 cycles: 105426474 heartbeat IPC: 2.491 cumulative IPC: 1.536 (Simulation time: 00 hr 22 min 44 sec)
Heartbeat CPU 0 instructions: 188501192 cycles: 105617504 heartbeat IPC: 2.617 cumulative IPC: 1.538 (Simulation time: 00 hr 22 min 47 sec)
Heartbeat CPU 0 instructions: 189001194 cycles: 105807979 heartbeat IPC: 2.625 cumulative IPC: 1.54 (Simulation time: 00 hr 22 min 50 sec)
Heartbeat CPU 0 instructions: 189501201 cycles: 105990326 heartbeat IPC: 2.742 cumulative IPC: 1.543 (Simulation time: 00 hr 22 min 52 sec)
Heartbeat CPU 0 instructions: 190001208 cycles: 106169797 heartbeat IPC: 2.786 cumulative IPC: 1.545 (Simulation time: 00 hr 22 min 55 sec)
Heartbeat CPU 0 instructions: 190501208 cycles: 106376511 heartbeat IPC: 2.419 cumulative IPC: 1.547 (Simulation time: 00 hr 22 min 58 sec)
Heartbeat CPU 0 instructions: 191001213 cycles: 106682233 heartbeat IPC: 1.635 cumulative IPC: 1.548 (Simulation time: 00 hr 23 min 02 sec)
Heartbeat CPU 0 instructions: 191501217 cycles: 107174609 heartbeat IPC: 1.015 cumulative IPC: 1.545 (Simulation time: 00 hr 23 min 08 sec)
Heartbeat CPU 0 instructions: 192001223 cycles: 107466315 heartbeat IPC: 1.714 cumulative IPC: 1.545 (Simulation time: 00 hr 23 min 12 sec)
Heartbeat CPU 0 instructions: 192501225 cycles: 107737463 heartbeat IPC: 1.844 cumulative IPC: 1.546 (Simulation time: 00 hr 23 min 16 sec)
Heartbeat CPU 0 instructions: 193001232 cycles: 108010266 heartbeat IPC: 1.833 cumulative IPC: 1.547 (Simulation time: 00 hr 23 min 20 sec)
Heartbeat CPU 0 instructions: 193501239 cycles: 108282770 heartbeat IPC: 1.835 cumulative IPC: 1.548 (Simulation time: 00 hr 23 min 23 sec)
Heartbeat CPU 0 instructions: 194001245 cycles: 108572503 heartbeat IPC: 1.726 cumulative IPC: 1.548 (Simulation time: 00 hr 23 min 27 sec)
Heartbeat CPU 0 instructions: 194501247 cycles: 108863380 heartbeat IPC: 1.719 cumulative IPC: 1.549 (Simulation time: 00 hr 23 min 31 sec)
Heartbeat CPU 0 instructions: 195001247 cycles: 109141927 heartbeat IPC: 1.795 cumulative IPC: 1.55 (Simulation time: 00 hr 23 min 35 sec)
Heartbeat CPU 0 instructions: 195501254 cycles: 109423112 heartbeat IPC: 1.778 cumulative IPC: 1.55 (Simulation time: 00 hr 23 min 39 sec)
Heartbeat CPU 0 instructions: 196001261 cycles: 109731068 heartbeat IPC: 1.624 cumulative IPC: 1.551 (Simulation time: 00 hr 23 min 43 sec)
Heartbeat CPU 0 instructions: 196501262 cycles: 110063203 heartbeat IPC: 1.505 cumulative IPC: 1.55 (Simulation time: 00 hr 23 min 48 sec)
Heartbeat CPU 0 instructions: 197001264 cycles: 110760761 heartbeat IPC: 0.7168 cumulative IPC: 1.544 (Simulation time: 00 hr 23 min 57 sec)
Heartbeat CPU 0 instructions: 197501267 cycles: 111289505 heartbeat IPC: 0.9456 cumulative IPC: 1.541 (Simulation time: 00 hr 24 min 03 sec)
Heartbeat CPU 0 instructions: 198001274 cycles: 111461748 heartbeat IPC: 2.903 cumulative IPC: 1.543 (Simulation time: 00 hr 24 min 06 sec)
Heartbeat CPU 0 instructions: 198501275 cycles: 111659126 heartbeat IPC: 2.533 cumulative IPC: 1.545 (Simulation time: 00 hr 24 min 09 sec)
Heartbeat CPU 0 instructions: 199001281 cycles: 111830557 heartbeat IPC: 2.917 cumulative IPC: 1.548 (Simulation time: 00 hr 24 min 12 sec)
Heartbeat CPU 0 instructions: 199501282 cycles: 112025858 heartbeat IPC: 2.56 cumulative IPC: 1.55 (Simulation time: 00 hr 24 min 15 sec)
Heartbeat CPU 0 instructions: 200001289 cycles: 112218082 heartbeat IPC: 2.601 cumulative IPC: 1.552 (Simulation time: 00 hr 24 min 18 sec)
Heartbeat CPU 0 instructions: 200501296 cycles: 112402529 heartbeat IPC: 2.711 cumulative IPC: 1.554 (Simulation time: 00 hr 24 min 21 sec)
Heartbeat CPU 0 instructions: 201001296 cycles: 112612995 heartbeat IPC: 2.376 cumulative IPC: 1.556 (Simulation time: 00 hr 24 min 24 sec)
Heartbeat CPU 0 instructions: 201501302 cycles: 112794583 heartbeat IPC: 2.754 cumulative IPC: 1.558 (Simulation time: 00 hr 24 min 27 sec)
Heartbeat CPU 0 instructions: 202001307 cycles: 112991163 heartbeat IPC: 2.544 cumulative IPC: 1.56 (Simulation time: 00 hr 24 min 30 sec)
Heartbeat CPU 0 instructions: 202501309 cycles: 113214469 heartbeat IPC: 2.239 cumulative IPC: 1.562 (Simulation time: 00 hr 24 min 33 sec)
Heartbeat CPU 0 instructions: 203001309 cycles: 113728280 heartbeat IPC: 0.9731 cumulative IPC: 1.559 (Simulation time: 00 hr 24 min 40 sec)
Heartbeat CPU 0 instructions: 203501311 cycles: 114089020 heartbeat IPC: 1.386 cumulative IPC: 1.558 (Simulation time: 00 hr 24 min 44 sec)
Heartbeat CPU 0 instructions: 204001315 cycles: 114364843 heartbeat IPC: 1.813 cumulative IPC: 1.559 (Simulation time: 00 hr 24 min 48 sec)
Heartbeat CPU 0 instructions: 204501316 cycles: 114646322 heartbeat IPC: 1.776 cumulative IPC: 1.559 (Simulation time: 00 hr 24 min 52 sec)
Heartbeat CPU 0 instructions: 205001316 cycles: 114927705 heartbeat IPC: 1.777 cumulative IPC: 1.56 (Simulation time: 00 hr 24 min 56 sec)
Heartbeat CPU 0 instructions: 205501317 cycles: 115210838 heartbeat IPC: 1.766 cumulative IPC: 1.561 (Simulation time: 00 hr 24 min 59 sec)
Heartbeat CPU 0 instructions: 206001323 cycles: 115481739 heartbeat IPC: 1.846 cumulative IPC: 1.561 (Simulation time: 00 hr 25 min 03 sec)
Heartbeat CPU 0 instructions: 206501323 cycles: 115761803 heartbeat IPC: 1.785 cumulative IPC: 1.562 (Simulation time: 00 hr 25 min 07 sec)
Heartbeat CPU 0 instructions: 207001324 cycles: 116061884 heartbeat IPC: 1.666 cumulative IPC: 1.562 (Simulation time: 00 hr 25 min 11 sec)
Heartbeat CPU 0 instructions: 207501324 cycles: 116355026 heartbeat IPC: 1.706 cumulative IPC: 1.563 (Simulation time: 00 hr 25 min 15 sec)
Heartbeat CPU 0 instructions: 208001330 cycles: 116649310 heartbeat IPC: 1.699 cumulative IPC: 1.563 (Simulation time: 00 hr 25 min 19 sec)
Heartbeat CPU 0 instructions: 208501335 cycles: 117040307 heartbeat IPC: 1.279 cumulative IPC: 1.562 (Simulation time: 00 hr 25 min 25 sec)
Heartbeat CPU 0 instructions: 209001337 cycles: 117832738 heartbeat IPC: 0.631 cumulative IPC: 1.555 (Simulation time: 00 hr 25 min 34 sec)
Heartbeat CPU 0 instructions: 209501343 cycles: 118227551 heartbeat IPC: 1.266 cumulative IPC: 1.554 (Simulation time: 00 hr 25 min 40 sec)
Heartbeat CPU 0 instructions: 210001348 cycles: 118431136 heartbeat IPC: 2.456 cumulative IPC: 1.556 (Simulation time: 00 hr 25 min 43 sec)
Heartbeat CPU 0 instructions: 210501351 cycles: 118637450 heartbeat IPC: 2.424 cumulative IPC: 1.557 (Simulation time: 00 hr 25 min 46 sec)
Heartbeat CPU 0 instructions: 211001353 cycles: 118816233 heartbeat IPC: 2.797 cumulative IPC: 1.559 (Simulation time: 00 hr 25 min 49 sec)
Heartbeat CPU 0 instructions: 211501353 cycles: 119005291 heartbeat IPC: 2.645 cumulative IPC: 1.561 (Simulation time: 00 hr 25 min 52 sec)
Heartbeat CPU 0 instructions: 212001355 cycles: 119183972 heartbeat IPC: 2.798 cumulative IPC: 1.564 (Simulation time: 00 hr 25 min 55 sec)
Heartbeat CPU 0 instructions: 212501360 cycles: 119380048 heartbeat IPC: 2.55 cumulative IPC: 1.565 (Simulation time: 00 hr 25 min 58 sec)
Heartbeat CPU 0 instructions: 213001362 cycles: 119568614 heartbeat IPC: 2.652 cumulative IPC: 1.567 (Simulation time: 00 hr 26 min 01 sec)
Heartbeat CPU 0 instructions: 213501364 cycles: 119749749 heartbeat IPC: 2.76 cumulative IPC: 1.569 (Simulation time: 00 hr 26 min 03 sec)
Heartbeat CPU 0 instructions: 214001368 cycles: 119946239 heartbeat IPC: 2.545 cumulative IPC: 1.571 (Simulation time: 00 hr 26 min 06 sec)
Heartbeat CPU 0 instructions: 214501375 cycles: 120208055 heartbeat IPC: 1.91 cumulative IPC: 1.572 (Simulation time: 00 hr 26 min 10 sec)
Heartbeat CPU 0 instructions: 215001379 cycles: 120685657 heartbeat IPC: 1.047 cumulative IPC: 1.57 (Simulation time: 00 hr 26 min 16 sec)
Heartbeat CPU 0 instructions: 215501384 cycles: 121094630 heartbeat IPC: 1.223 cumulative IPC: 1.568 (Simulation time: 00 hr 26 min 21 sec)
Heartbeat CPU 0 instructions: 216001389 cycles: 121375283 heartbeat IPC: 1.782 cumulative IPC: 1.569 (Simulation time: 00 hr 26 min 25 sec)
Heartbeat CPU 0 instructions: 216501392 cycles: 121653383 heartbeat IPC: 1.798 cumulative IPC: 1.57 (Simulation time: 00 hr 26 min 29 sec)
Heartbeat CPU 0 instructions: 217001396 cycles: 121929056 heartbeat IPC: 1.814 cumulative IPC: 1.57 (Simulation time: 00 hr 26 min 33 sec)
Heartbeat CPU 0 instructions: 217501401 cycles: 122201540 heartbeat IPC: 1.835 cumulative IPC: 1.571 (Simulation time: 00 hr 26 min 36 sec)
Heartbeat CPU 0 instructions: 218001406 cycles: 122470072 heartbeat IPC: 1.862 cumulative IPC: 1.572 (Simulation time: 00 hr 26 min 40 sec)
Heartbeat CPU 0 instructions: 218501407 cycles: 122759542 heartbeat IPC: 1.727 cumulative IPC: 1.572 (Simulation time: 00 hr 26 min 44 sec)
Heartbeat CPU 0 instructions: 219001408 cycles: 123055327 heartbeat IPC: 1.69 cumulative IPC: 1.572 (Simulation time: 00 hr 26 min 48 sec)
Heartbeat CPU 0 instructions: 219501408 cycles: 123364696 heartbeat IPC: 1.616 cumulative IPC: 1.572 (Simulation time: 00 hr 26 min 52 sec)
Heartbeat CPU 0 instructions: 220001411 cycles: 123652930 heartbeat IPC: 1.735 cumulative IPC: 1.573 (Simulation time: 00 hr 26 min 56 sec)
Heartbeat CPU 0 instructions: 220501417 cycles: 124161872 heartbeat IPC: 0.9824 cumulative IPC: 1.57 (Simulation time: 00 hr 27 min 03 sec)
Heartbeat CPU 0 instructions: 221001421 cycles: 124975741 heartbeat IPC: 0.6144 cumulative IPC: 1.563 (Simulation time: 00 hr 27 min 13 sec)
Heartbeat CPU 0 instructions: 221501425 cycles: 125148243 heartbeat IPC: 2.899 cumulative IPC: 1.565 (Simulation time: 00 hr 27 min 16 sec)
Heartbeat CPU 0 instructions: 222001427 cycles: 125345953 heartbeat IPC: 2.529 cumulative IPC: 1.567 (Simulation time: 00 hr 27 min 19 sec)
Heartbeat CPU 0 instructions: 222501427 cycles: 125512772 heartbeat IPC: 2.997 cumulative IPC: 1.569 (Simulation time: 00 hr 27 min 22 sec)
Heartbeat CPU 0 instructions: 223001429 cycles: 125713400 heartbeat IPC: 2.492 cumulative IPC: 1.571 (Simulation time: 00 hr 27 min 25 sec)
Heartbeat CPU 0 instructions: 223501431 cycles: 125903850 heartbeat IPC: 2.625 cumulative IPC: 1.573 (Simulation time: 00 hr 27 min 28 sec)
Heartbeat CPU 0 instructions: 224001436 cycles: 126091204 heartbeat IPC: 2.669 cumulative IPC: 1.574 (Simulation time: 00 hr 27 min 31 sec)
Heartbeat CPU 0 instructions: 224501437 cycles: 126291590 heartbeat IPC: 2.495 cumulative IPC: 1.576 (Simulation time: 00 hr 27 min 34 sec)
Heartbeat CPU 0 instructions: 225001442 cycles: 126471652 heartbeat IPC: 2.777 cumulative IPC: 1.578 (Simulation time: 00 hr 27 min 37 sec)
Heartbeat CPU 0 instructions: 225501447 cycles: 126665616 heartbeat IPC: 2.578 cumulative IPC: 1.58 (Simulation time: 00 hr 27 min 40 sec)
Heartbeat CPU 0 instructions: 226001454 cycles: 126865461 heartbeat IPC: 2.502 cumulative IPC: 1.581 (Simulation time: 00 hr 27 min 42 sec)
Heartbeat CPU 0 instructions: 226501459 cycles: 127250363 heartbeat IPC: 1.299 cumulative IPC: 1.58 (Simulation time: 00 hr 27 min 47 sec)
Heartbeat CPU 0 instructions: 227001464 cycles: 127703420 heartbeat IPC: 1.104 cumulative IPC: 1.578 (Simulation time: 00 hr 27 min 53 sec)
Heartbeat CPU 0 instructions: 227501469 cycles: 127988107 heartbeat IPC: 1.756 cumulative IPC: 1.579 (Simulation time: 00 hr 27 min 57 sec)
Heartbeat CPU 0 instructions: 228001470 cycles: 128270902 heartbeat IPC: 1.768 cumulative IPC: 1.579 (Simulation time: 00 hr 28 min 01 sec)
Heartbeat CPU 0 instructions: 228501471 cycles: 128549652 heartbeat IPC: 1.794 cumulative IPC: 1.58 (Simulation time: 00 hr 28 min 05 sec)
Heartbeat CPU 0 instructions: 229001476 cycles: 128827429 heartbeat IPC: 1.8 cumulative IPC: 1.58 (Simulation time: 00 hr 28 min 08 sec)
Heartbeat CPU 0 instructions: 229501480 cycles: 129097285 heartbeat IPC: 1.853 cumulative IPC: 1.581 (Simulation time: 00 hr 28 min 12 sec)
Heartbeat CPU 0 instructions: 230001482 cycles: 129378612 heartbeat IPC: 1.777 cumulative IPC: 1.582 (Simulation time: 00 hr 28 min 16 sec)
Heartbeat CPU 0 instructions: 230501489 cycles: 129677928 heartbeat IPC: 1.67 cumulative IPC: 1.582 (Simulation time: 00 hr 28 min 20 sec)
Heartbeat CPU 0 instructions: 231001495 cycles: 129979566 heartbeat IPC: 1.658 cumulative IPC: 1.582 (Simulation time: 00 hr 28 min 24 sec)
Heartbeat CPU 0 instructions: 231501495 cycles: 130275554 heartbeat IPC: 1.689 cumulative IPC: 1.582 (Simulation time: 00 hr 28 min 28 sec)
Heartbeat CPU 0 instructions: 232001496 cycles: 130656834 heartbeat IPC: 1.311 cumulative IPC: 1.581 (Simulation time: 00 hr 28 min 34 sec)
Heartbeat CPU 0 instructions: 232501496 cycles: 131431990 heartbeat IPC: 0.645 cumulative IPC: 1.575 (Simulation time: 00 hr 28 min 43 sec)
Heartbeat CPU 0 instructions: 233001498 cycles: 131827167 heartbeat IPC: 1.265 cumulative IPC: 1.574 (Simulation time: 00 hr 28 min 48 sec)
Heartbeat CPU 0 instructions: 233501499 cycles: 132002677 heartbeat IPC: 2.849 cumulative IPC: 1.576 (Simulation time: 00 hr 28 min 51 sec)
Heartbeat CPU 0 instructions: 234001502 cycles: 132197802 heartbeat IPC: 2.562 cumulative IPC: 1.578 (Simulation time: 00 hr 28 min 54 sec)
Heartbeat CPU 0 instructions: 234501509 cycles: 132370087 heartbeat IPC: 2.902 cumulative IPC: 1.58 (Simulation time: 00 hr 28 min 57 sec)
Heartbeat CPU 0 instructions: 235001513 cycles: 132573846 heartbeat IPC: 2.454 cumulative IPC: 1.581 (Simulation time: 00 hr 29 min 00 sec)
Heartbeat CPU 0 instructions: 235501518 cycles: 132753710 heartbeat IPC: 2.78 cumulative IPC: 1.583 (Simulation time: 00 hr 29 min 03 sec)
Heartbeat CPU 0 instructions: 236001523 cycles: 132960040 heartbeat IPC: 2.423 cumulative IPC: 1.584 (Simulation time: 00 hr 29 min 06 sec)
Heartbeat CPU 0 instructions: 236501530 cycles: 133161984 heartbeat IPC: 2.476 cumulative IPC: 1.586 (Simulation time: 00 hr 29 min 09 sec)
Heartbeat CPU 0 instructions: 237001531 cycles: 133339708 heartbeat IPC: 2.813 cumulative IPC: 1.588 (Simulation time: 00 hr 29 min 12 sec)
Heartbeat CPU 0 instructions: 237501537 cycles: 133541342 heartbeat IPC: 2.48 cumulative IPC: 1.589 (Simulation time: 00 hr 29 min 15 sec)
Heartbeat CPU 0 instructions: 238001542 cycles: 133831031 heartbeat IPC: 1.726 cumulative IPC: 1.59 (Simulation time: 00 hr 29 min 19 sec)
Heartbeat CPU 0 instructions: 238501545 cycles: 134343158 heartbeat IPC: 0.9763 cumulative IPC: 1.587 (Simulation time: 00 hr 29 min 25 sec)
Heartbeat CPU 0 instructions: 239001549 cycles: 134651565 heartbeat IPC: 1.621 cumulative IPC: 1.587 (Simulation time: 00 hr 29 min 29 sec)
Heartbeat CPU 0 instructions: 239501554 cycles: 134932651 heartbeat IPC: 1.779 cumulative IPC: 1.588 (Simulation time: 00 hr 29 min 33 sec)
Heartbeat CPU 0 instructions: 240001557 cycles: 135207007 heartbeat IPC: 1.822 cumulative IPC: 1.588 (Simulation time: 00 hr 29 min 37 sec)
Heartbeat CPU 0 instructions: 240501562 cycles: 135471552 heartbeat IPC: 1.89 cumulative IPC: 1.589 (Simulation time: 00 hr 29 min 41 sec)
Heartbeat CPU 0 instructions: 241001563 cycles: 135751287 heartbeat IPC: 1.787 cumulative IPC: 1.589 (Simulation time: 00 hr 29 min 44 sec)
Heartbeat CPU 0 instructions: 241501569 cycles: 136039429 heartbeat IPC: 1.735 cumulative IPC: 1.59 (Simulation time: 00 hr 29 min 48 sec)
Heartbeat CPU 0 instructions: 242001575 cycles: 136336674 heartbeat IPC: 1.682 cumulative IPC: 1.59 (Simulation time: 00 hr 29 min 52 sec)
Heartbeat CPU 0 instructions: 242501575 cycles: 136622269 heartbeat IPC: 1.751 cumulative IPC: 1.59 (Simulation time: 00 hr 29 min 56 sec)
Heartbeat CPU 0 instructions: 243001578 cycles: 136914572 heartbeat IPC: 1.711 cumulative IPC: 1.591 (Simulation time: 00 hr 30 min 01 sec)
Heartbeat CPU 0 instructions: 243501583 cycles: 137207456 heartbeat IPC: 1.707 cumulative IPC: 1.591 (Simulation time: 00 hr 30 min 05 sec)
Heartbeat CPU 0 instructions: 244001590 cycles: 137512439 heartbeat IPC: 1.639 cumulative IPC: 1.591 (Simulation time: 00 hr 30 min 09 sec)
Heartbeat CPU 0 instructions: 244501593 cycles: 138111918 heartbeat IPC: 0.8341 cumulative IPC: 1.587 (Simulation time: 00 hr 30 min 16 sec)
Heartbeat CPU 0 instructions: 245001593 cycles: 139000608 heartbeat IPC: 0.5626 cumulative IPC: 1.58 (Simulation time: 00 hr 30 min 27 sec)
Heartbeat CPU 0 instructions: 245501600 cycles: 139236228 heartbeat IPC: 2.122 cumulative IPC: 1.581 (Simulation time: 00 hr 30 min 31 sec)
Heartbeat CPU 0 instructions: 246001604 cycles: 139457365 heartbeat IPC: 2.261 cumulative IPC: 1.582 (Simulation time: 00 hr 30 min 34 sec)
Heartbeat CPU 0 instructions: 246501605 cycles: 139670252 heartbeat IPC: 2.349 cumulative IPC: 1.583 (Simulation time: 00 hr 30 min 37 sec)
Heartbeat CPU 0 instructions: 247001610 cycles: 139850675 heartbeat IPC: 2.771 cumulative IPC: 1.585 (Simulation time: 00 hr 30 min 40 sec)
Heartbeat CPU 0 instructions: 247501617 cycles: 140071996 heartbeat IPC: 2.259 cumulative IPC: 1.586 (Simulation time: 00 hr 30 min 44 sec)
Heartbeat CPU 0 instructions: 248001620 cycles: 140311691 heartbeat IPC: 2.086 cumulative IPC: 1.587 (Simulation time: 00 hr 30 min 47 sec)
Heartbeat CPU 0 instructions: 248501626 cycles: 140520947 heartbeat IPC: 2.389 cumulative IPC: 1.589 (Simulation time: 00 hr 30 min 50 sec)
Heartbeat CPU 0 instructions: 249001631 cycles: 140734773 heartbeat IPC: 2.338 cumulative IPC: 1.59 (Simulation time: 00 hr 30 min 53 sec)
Heartbeat CPU 0 instructions: 249501636 cycles: 140939507 heartbeat IPC: 2.442 cumulative IPC: 1.591 (Simulation time: 00 hr 30 min 56 sec)
*** Reached end of trace: (0, "/local-ssd/ben/dpc4-traces/Graph/Ligra/ligra_BFSCC.com-lj.ungraph.gcc_6.3.0_O3.drop_17000M.length_250M.champsimtrace.xz")
Simulation finished CPU 0 instructions: 200000007 cycles: 125572989 cumulative IPC: 1.593 (Simulation time: 00 hr 30 min 59 sec)
Simulation complete CPU 0 instructions: 200000007 cycles: 125572989 cumulative IPC: 1.593 (Simulation time: 00 hr 30 min 59 sec)

ChampSim completed all CPUs

=== Simulation ===
CPU 0 runs /local-ssd/ben/dpc4-traces/Graph/Ligra/ligra_BFSCC.com-lj.ungraph.gcc_6.3.0_O3.drop_17000M.length_250M.champsimtrace.xz

Region of Interest Statistics

CPU 0 cumulative IPC: 1.593 instructions: 200000007 cycles: 125572989
CPU 0 Branch Prediction Accuracy: 99.03% MPKI: 0.9836 Average ROB Occupancy at Mispredict: 192.3
Branch type MPKI
BRANCH_DIRECT_JUMP: 0
BRANCH_INDIRECT: 0
BRANCH_CONDITIONAL: 0.9835
BRANCH_DIRECT_CALL: 0
BRANCH_INDIRECT_CALL: 0
BRANCH_RETURN: 0.000155

cpu0->cpu0_STLB TOTAL        ACCESS:     106342 HIT:      86391 MISS:      19951 MSHR_MERGE:          0
cpu0->cpu0_STLB LOAD         ACCESS:     106342 HIT:      86391 MISS:      19951 MSHR_MERGE:          0
cpu0->cpu0_STLB RFO          ACCESS:          0 HIT:          0 MISS:          0 MSHR_MERGE:          0
cpu0->cpu0_STLB PREFETCH     ACCESS:          0 HIT:          0 MISS:          0 MSHR_MERGE:          0
cpu0->cpu0_STLB WRITE        ACCESS:          0 HIT:          0 MISS:          0 MSHR_MERGE:          0
cpu0->cpu0_STLB TRANSLATION  ACCESS:          0 HIT:          0 MISS:          0 MSHR_MERGE:          0
cpu0->cpu0_STLB PREFETCH REQUESTED:          0 ISSUED:          0 USEFUL:          0 USELESS:          0
cpu0->cpu0_STLB AVERAGE MISS LATENCY: 255.8 cycles
cpu0->cpu0_L2C TOTAL        ACCESS:    7244799 HIT:    3402619 MISS:    3842180 MSHR_MERGE:          0
cpu0->cpu0_L2C LOAD         ACCESS:    1730154 HIT:     804344 MISS:     925810 MSHR_MERGE:          0
cpu0->cpu0_L2C RFO          ACCESS:    2219752 HIT:     228340 MISS:    1991412 MSHR_MERGE:          0
cpu0->cpu0_L2C PREFETCH     ACCESS:    1059786 HIT:     137870 MISS:     921916 MSHR_MERGE:          0
cpu0->cpu0_L2C WRITE        ACCESS:    2229540 HIT:    2229509 MISS:         31 MSHR_MERGE:          0
cpu0->cpu0_L2C TRANSLATION  ACCESS:       5567 HIT:       2556 MISS:       3011 MSHR_MERGE:          0
cpu0->cpu0_L2C PREFETCH REQUESTED:          0 ISSUED:          0 USEFUL:          0 USELESS:          0
cpu0->cpu0_L2C AVERAGE MISS LATENCY: 267.9 cycles
cpu0->cpu0_L1I TOTAL        ACCESS:   22373591 HIT:   22373591 MISS:          0 MSHR_MERGE:          0
cpu0->cpu0_L1I LOAD         ACCESS:   22373591 HIT:   22373591 MISS:          0 MSHR_MERGE:          0
cpu0->cpu0_L1I RFO          ACCESS:          0 HIT:          0 MISS:          0 MSHR_MERGE:          0
cpu0->cpu0_L1I PREFETCH     ACCESS:          0 HIT:          0 MISS:          0 MSHR_MERGE:          0
cpu0->cpu0_L1I WRITE        ACCESS:          0 HIT:          0 MISS:          0 MSHR_MERGE:          0
cpu0->cpu0_L1I TRANSLATION  ACCESS:          0 HIT:          0 MISS:          0 MSHR_MERGE:          0
cpu0->cpu0_L1I PREFETCH REQUESTED:          0 ISSUED:          0 USEFUL:          0 USELESS:          0
cpu0->cpu0_L1I AVERAGE MISS LATENCY: - cycles
cpu0->cpu0_L1D TOTAL        ACCESS:   61255088 HIT:   42280563 MISS:   18974525 MSHR_MERGE:   13959185
cpu0->cpu0_L1D LOAD         ACCESS:   18070167 HIT:   14242314 MISS:    3827853 MSHR_MERGE:    2097695
cpu0->cpu0_L1D RFO          ACCESS:          0 HIT:          0 MISS:          0 MSHR_MERGE:          0
cpu0->cpu0_L1D PREFETCH     ACCESS:    3658938 HIT:    1563454 MISS:    2095484 MSHR_MERGE:    1035698
cpu0->cpu0_L1D WRITE        ACCESS:   39487834 HIT:   26444126 MISS:   13043708 MSHR_MERGE:   10823879
cpu0->cpu0_L1D TRANSLATION  ACCESS:      38149 HIT:      30669 MISS:       7480 MSHR_MERGE:       1913
cpu0->cpu0_L1D PREFETCH REQUESTED:   37958561 ISSUED:    3658938 USEFUL:    1032129 USELESS:      27662
cpu0->cpu0_L1D AVERAGE MISS LATENCY: 205.5 cycles
cpu0->cpu0_ITLB TOTAL        ACCESS:   21948183 HIT:   21948183 MISS:          0 MSHR_MERGE:          0
cpu0->cpu0_ITLB LOAD         ACCESS:   21948183 HIT:   21948183 MISS:          0 MSHR_MERGE:          0
cpu0->cpu0_ITLB RFO          ACCESS:          0 HIT:          0 MISS:          0 MSHR_MERGE:          0
cpu0->cpu0_ITLB PREFETCH     ACCESS:          0 HIT:          0 MISS:          0 MSHR_MERGE:          0
cpu0->cpu0_ITLB WRITE        ACCESS:          0 HIT:          0 MISS:          0 MSHR_MERGE:          0
cpu0->cpu0_ITLB TRANSLATION  ACCESS:          0 HIT:          0 MISS:          0 MSHR_MERGE:          0
cpu0->cpu0_ITLB PREFETCH REQUESTED:          0 ISSUED:          0 USEFUL:          0 USELESS:          0
cpu0->cpu0_ITLB AVERAGE MISS LATENCY: - cycles
cpu0->cpu0_DTLB TOTAL        ACCESS:   55345229 HIT:   54945470 MISS:     399759 MSHR_MERGE:     293417
cpu0->cpu0_DTLB LOAD         ACCESS:   55345229 HIT:   54945470 MISS:     399759 MSHR_MERGE:     293417
cpu0->cpu0_DTLB RFO          ACCESS:          0 HIT:          0 MISS:          0 MSHR_MERGE:          0
cpu0->cpu0_DTLB PREFETCH     ACCESS:          0 HIT:          0 MISS:          0 MSHR_MERGE:          0
cpu0->cpu0_DTLB WRITE        ACCESS:          0 HIT:          0 MISS:          0 MSHR_MERGE:          0
cpu0->cpu0_DTLB TRANSLATION  ACCESS:          0 HIT:          0 MISS:          0 MSHR_MERGE:          0
cpu0->cpu0_DTLB PREFETCH REQUESTED:          0 ISSUED:          0 USEFUL:          0 USELESS:          0
cpu0->cpu0_DTLB AVERAGE MISS LATENCY: 53.18 cycles
cpu0->LLC TOTAL        ACCESS:    5910544 HIT:    1883498 MISS:    4027046 MSHR_MERGE:          0
cpu0->LLC LOAD         ACCESS:     925810 HIT:     522818 MISS:     402992 MSHR_MERGE:          0
cpu0->LLC RFO          ACCESS:    1991408 HIT:     477887 MISS:    1513521 MSHR_MERGE:          0
cpu0->LLC PREFETCH     ACCESS:     921916 HIT:     273297 MISS:     648619 MSHR_MERGE:          0
cpu0->LLC WRITE        ACCESS:    2068399 HIT:     609477 MISS:    1458922 MSHR_MERGE:          0
cpu0->LLC TRANSLATION  ACCESS:       3011 HIT:         19 MISS:       2992 MSHR_MERGE:          0
cpu0->LLC PREFETCH REQUESTED:          0 ISSUED:          0 USEFUL:          0 USELESS:          0
cpu0->LLC AVERAGE MISS LATENCY: 219.3 cycles

DRAM Statistics

Channel 0 RQ ROW_BUFFER_HIT:     140314
  ROW_BUFFER_MISS:    2425488
  AVG DBUS CONGESTED CYCLE: 14.84
Channel 0 WQ ROW_BUFFER_HIT:     248618
  ROW_BUFFER_MISS:    1326968
  FULL:     213463
Channel 0 REFRESHES ISSUED:      10464
