[VMEM] WARNING: physical memory size is smaller than virtual memory size.

*** ChampSim Multicore Out-of-Order Simulator ***
Warmup Instructions: 50000000
Simulation Instructions: 200000000
Number of CPUs: 1
Page size: 4096
Core 0: /local-ssd/ben/dpc4-traces/Graph/GMS/gms.k_clique_count_set_based.soc-pokec-relationships.slice-4.champsimtrace.gz
Off-chip DRAM Size: 64 GiB Channels: 1 Width: 64-bit Data Rate: 4807 MT/s
Heartbeat CPU 0 instructions: 500004 cycles: 102916 heartbeat IPC: 4.858 cumulative IPC: 4.858 (Simulation time: 00 hr 00 min 02 sec)
Heartbeat CPU 0 instructions: 1000004 cycles: 203628 heartbeat IPC: 4.965 cumulative IPC: 4.911 (Simulation time: 00 hr 00 min 03 sec)
Heartbeat CPU 0 instructions: 1500007 cycles: 303631 heartbeat IPC: 5 cumulative IPC: 4.94 (Simulation time: 00 hr 00 min 05 sec)
Heartbeat CPU 0 instructions: 2000010 cycles: 403639 heartbeat IPC: 5 cumulative IPC: 4.955 (Simulation time: 00 hr 00 min 06 sec)
Heartbeat CPU 0 instructions: 2500016 cycles: 503652 heartbeat IPC: 4.999 cumulative IPC: 4.964 (Simulation time: 00 hr 00 min 08 sec)
Heartbeat CPU 0 instructions: 3000020 cycles: 603646 heartbeat IPC: 5 cumulative IPC: 4.97 (Simulation time: 00 hr 00 min 09 sec)
Heartbeat CPU 0 instructions: 3500021 cycles: 703639 heartbeat IPC: 5 cumulative IPC: 4.974 (Simulation time: 00 hr 00 min 11 sec)
Heartbeat CPU 0 instructions: 4000026 cycles: 803652 heartbeat IPC: 4.999 cumulative IPC: 4.977 (Simulation time: 00 hr 00 min 12 sec)
Heartbeat CPU 0 instructions: 4500032 cycles: 903656 heartbeat IPC: 5 cumulative IPC: 4.98 (Simulation time: 00 hr 00 min 14 sec)
Heartbeat CPU 0 instructions: 5000032 cycles: 1003655 heartbeat IPC: 5 cumulative IPC: 4.982 (Simulation time: 00 hr 00 min 15 sec)
Heartbeat CPU 0 instructions: 5500036 cycles: 1103632 heartbeat IPC: 5.001 cumulative IPC: 4.984 (Simulation time: 00 hr 00 min 17 sec)
Heartbeat CPU 0 instructions: 6000043 cycles: 1203635 heartbeat IPC: 5 cumulative IPC: 4.985 (Simulation time: 00 hr 00 min 19 sec)
Heartbeat CPU 0 instructions: 6500050 cycles: 1303658 heartbeat IPC: 4.999 cumulative IPC: 4.986 (Simulation time: 00 hr 00 min 20 sec)
Heartbeat CPU 0 instructions: 7000055 cycles: 1403666 heartbeat IPC: 5 cumulative IPC: 4.987 (Simulation time: 00 hr 00 min 22 sec)
Heartbeat CPU 0 instructions: 7500057 cycles: 1503638 heartbeat IPC: 5.001 cumulative IPC: 4.988 (Simulation time: 00 hr 00 min 23 sec)
Heartbeat CPU 0 instructions: 8000058 cycles: 1603662 heartbeat IPC: 4.999 cumulative IPC: 4.989 (Simulation time: 00 hr 00 min 25 sec)
Heartbeat CPU 0 instructions: 8500058 cycles: 1703659 heartbeat IPC: 5 cumulative IPC: 4.989 (Simulation time: 00 hr 00 min 27 sec)
Heartbeat CPU 0 instructions: 9000059 cycles: 1803665 heartbeat IPC: 5 cumulative IPC: 4.99 (Simulation time: 00 hr 00 min 28 sec)
Heartbeat CPU 0 instructions: 9500065 cycles: 1903654 heartbeat IPC: 5.001 cumulative IPC: 4.99 (Simulation time: 00 hr 00 min 30 sec)
Heartbeat CPU 0 instructions: 10000068 cycles: 2003637 heartbeat IPC: 5.001 cumulative IPC: 4.991 (Simulation time: 00 hr 00 min 32 sec)
Heartbeat CPU 0 instructions: 10500069 cycles: 2103665 heartbeat IPC: 4.999 cumulative IPC: 4.991 (Simulation time: 00 hr 00 min 33 sec)
Heartbeat CPU 0 instructions: 11000075 cycles: 2203659 heartbeat IPC: 5 cumulative IPC: 4.992 (Simulation time: 00 hr 00 min 35 sec)
Heartbeat CPU 0 instructions: 11500080 cycles: 2303648 heartbeat IPC: 5.001 cumulative IPC: 4.992 (Simulation time: 00 hr 00 min 36 sec)
Heartbeat CPU 0 instructions: 12000081 cycles: 2403645 heartbeat IPC: 5 cumulative IPC: 4.992 (Simulation time: 00 hr 00 min 38 sec)
Heartbeat CPU 0 instructions: 12500082 cycles: 2503657 heartbeat IPC: 4.999 cumulative IPC: 4.993 (Simulation time: 00 hr 00 min 39 sec)
Heartbeat CPU 0 instructions: 13000082 cycles: 2603658 heartbeat IPC: 5 cumulative IPC: 4.993 (Simulation time: 00 hr 00 min 41 sec)
Heartbeat CPU 0 instructions: 13500082 cycles: 2703652 heartbeat IPC: 5 cumulative IPC: 4.993 (Simulation time: 00 hr 00 min 43 sec)
Heartbeat CPU 0 instructions: 14000085 cycles: 2803643 heartbeat IPC: 5 cumulative IPC: 4.994 (Simulation time: 00 hr 00 min 44 sec)
Heartbeat CPU 0 instructions: 14500086 cycles: 2903665 heartbeat IPC: 4.999 cumulative IPC: 4.994 (Simulation time: 00 hr 00 min 46 sec)
Heartbeat CPU 0 instructions: 15000092 cycles: 3003675 heartbeat IPC: 5 cumulative IPC: 4.994 (Simulation time: 00 hr 00 min 47 sec)
Heartbeat CPU 0 instructions: 15500097 cycles: 3103667 heartbeat IPC: 5 cumulative IPC: 4.994 (Simulation time: 00 hr 00 min 49 sec)
Heartbeat CPU 0 instructions: 16000102 cycles: 3203646 heartbeat IPC: 5.001 cumulative IPC: 4.994 (Simulation time: 00 hr 00 min 51 sec)
Heartbeat CPU 0 instructions: 16500108 cycles: 3303669 heartbeat IPC: 4.999 cumulative IPC: 4.994 (Simulation time: 00 hr 00 min 52 sec)
Heartbeat CPU 0 instructions: 17000111 cycles: 3403665 heartbeat IPC: 5 cumulative IPC: 4.995 (Simulation time: 00 hr 00 min 54 sec)
Heartbeat CPU 0 instructions: 17500113 cycles: 3503663 heartbeat IPC: 5 cumulative IPC: 4.995 (Simulation time: 00 hr 00 min 55 sec)
Heartbeat CPU 0 instructions: 18000113 cycles: 3603661 heartbeat IPC: 5 cumulative IPC: 4.995 (Simulation time: 00 hr 00 min 57 sec)
Heartbeat CPU 0 instructions: 18500116 cycles: 3703659 heartbeat IPC: 5 cumulative IPC: 4.995 (Simulation time: 00 hr 00 min 59 sec)
Heartbeat CPU 0 instructions: 19000122 cycles: 3803667 heartbeat IPC: 5 cumulative IPC: 4.995 (Simulation time: 00 hr 01 min 00 sec)
Heartbeat CPU 0 instructions: 19500123 cycles: 3903664 heartbeat IPC: 5 cumulative IPC: 4.995 (Simulation time: 00 hr 01 min 02 sec)
Heartbeat CPU 0 instructions: 20000128 cycles: 4003654 heartbeat IPC: 5.001 cumulative IPC: 4.995 (Simulation time: 00 hr 01 min 04 sec)
Heartbeat CPU 0 instructions: 20500133 cycles: 4103651 heartbeat IPC: 5 cumulative IPC: 4.996 (Simulation time: 00 hr 01 min 05 sec)
Heartbeat CPU 0 instructions: 21000133 cycles: 4203676 heartbeat IPC: 4.999 cumulative IPC: 4.996 (Simulation time: 00 hr 01 min 07 sec)
Heartbeat CPU 0 instructions: 21500133 cycles: 4303656 heartbeat IPC: 5.001 cumulative IPC: 4.996 (Simulation time: 00 hr 01 min 08 sec)
Heartbeat CPU 0 instructions: 22000139 cycles: 4403658 heartbeat IPC: 5 cumulative IPC: 4.996 (Simulation time: 00 hr 01 min 10 sec)
Heartbeat CPU 0 instructions: 22500140 cycles: 4503649 heartbeat IPC: 5 cumulative IPC: 4.996 (Simulation time: 00 hr 01 min 12 sec)
Heartbeat CPU 0 instructions: 23000143 cycles: 4603669 heartbeat IPC: 4.999 cumulative IPC: 4.996 (Simulation time: 00 hr 01 min 13 sec)
Heartbeat CPU 0 instructions: 23500150 cycles: 4703664 heartbeat IPC: 5 cumulative IPC: 4.996 (Simulation time: 00 hr 01 min 15 sec)
Heartbeat CPU 0 instructions: 24000151 cycles: 4803680 heartbeat IPC: 4.999 cumulative IPC: 4.996 (Simulation time: 00 hr 01 min 16 sec)
Heartbeat CPU 0 instructions: 24500151 cycles: 4903653 heartbeat IPC: 5.001 cumulative IPC: 4.996 (Simulation time: 00 hr 01 min 18 sec)
Heartbeat CPU 0 instructions: 25000153 cycles: 5003666 heartbeat IPC: 4.999 cumulative IPC: 4.996 (Simulation time: 00 hr 01 min 20 sec)
Heartbeat CPU 0 instructions: 25500156 cycles: 5103674 heartbeat IPC: 5 cumulative IPC: 4.996 (Simulation time: 00 hr 01 min 21 sec)
Heartbeat CPU 0 instructions: 26000157 cycles: 5203677 heartbeat IPC: 5 cumulative IPC: 4.996 (Simulation time: 00 hr 01 min 23 sec)
Heartbeat CPU 0 instructions: 26500163 cycles: 5303669 heartbeat IPC: 5 cumulative IPC: 4.997 (Simulation time: 00 hr 01 min 24 sec)
Heartbeat CPU 0 instructions: 27000166 cycles: 5403682 heartbeat IPC: 4.999 cumulative IPC: 4.997 (Simulation time: 00 hr 01 min 26 sec)
Heartbeat CPU 0 instructions: 27500168 cycles: 5503674 heartbeat IPC: 5 cumulative IPC: 4.997 (Simulation time: 00 hr 01 min 28 sec)
Heartbeat CPU 0 instructions: 28000168 cycles: 5603675 heartbeat IPC: 5 cumulative IPC: 4.997 (Simulation time: 00 hr 01 min 29 sec)
Heartbeat CPU 0 instructions: 28500173 cycles: 5703684 heartbeat IPC: 5 cumulative IPC: 4.997 (Simulation time: 00 hr 01 min 31 sec)
Heartbeat CPU 0 instructions: 29000178 cycles: 5803664 heartbeat IPC: 5.001 cumulative IPC: 4.997 (Simulation time: 00 hr 01 min 32 sec)
Heartbeat CPU 0 instructions: 29500183 cycles: 5903671 heartbeat IPC: 5 cumulative IPC: 4.997 (Simulation time: 00 hr 01 min 34 sec)
Heartbeat CPU 0 instructions: 30000184 cycles: 6003667 heartbeat IPC: 5 cumulative IPC: 4.997 (Simulation time: 00 hr 01 min 36 sec)
Heartbeat CPU 0 instructions: 30500186 cycles: 6103687 heartbeat IPC: 4.999 cumulative IPC: 4.997 (Simulation time: 00 hr 01 min 37 sec)
Heartbeat CPU 0 instructions: 31000187 cycles: 6203669 heartbeat IPC: 5.001 cumulative IPC: 4.997 (Simulation time: 00 hr 01 min 39 sec)
Heartbeat CPU 0 instructions: 31500190 cycles: 6303670 heartbeat IPC: 5 cumulative IPC: 4.997 (Simulation time: 00 hr 01 min 40 sec)
Heartbeat CPU 0 instructions: 32000194 cycles: 6403663 heartbeat IPC: 5 cumulative IPC: 4.997 (Simulation time: 00 hr 01 min 42 sec)
Heartbeat CPU 0 instructions: 32500197 cycles: 6503669 heartbeat IPC: 5 cumulative IPC: 4.997 (Simulation time: 00 hr 01 min 44 sec)
Heartbeat CPU 0 instructions: 33000203 cycles: 6603688 heartbeat IPC: 4.999 cumulative IPC: 4.997 (Simulation time: 00 hr 01 min 45 sec)
Heartbeat CPU 0 instructions: 33500207 cycles: 6703673 heartbeat IPC: 5.001 cumulative IPC: 4.997 (Simulation time: 00 hr 01 min 47 sec)
Heartbeat CPU 0 instructions: 34000212 cycles: 6803666 heartbeat IPC: 5 cumulative IPC: 4.997 (Simulation time: 00 hr 01 min 48 sec)
Heartbeat CPU 0 instructions: 34500212 cycles: 6903678 heartbeat IPC: 4.999 cumulative IPC: 4.997 (Simulation time: 00 hr 01 min 50 sec)
Heartbeat CPU 0 instructions: 35000219 cycles: 7003673 heartbeat IPC: 5 cumulative IPC: 4.997 (Simulation time: 00 hr 01 min 52 sec)
Heartbeat CPU 0 instructions: 35500219 cycles: 7103688 heartbeat IPC: 4.999 cumulative IPC: 4.997 (Simulation time: 00 hr 01 min 53 sec)
Heartbeat CPU 0 instructions: 36000220 cycles: 7203681 heartbeat IPC: 5 cumulative IPC: 4.997 (Simulation time: 00 hr 01 min 55 sec)
Heartbeat CPU 0 instructions: 36500225 cycles: 7303685 heartbeat IPC: 5 cumulative IPC: 4.998 (Simulation time: 00 hr 01 min 56 sec)
Heartbeat CPU 0 instructions: 37000225 cycles: 7403670 heartbeat IPC: 5.001 cumulative IPC: 4.998 (Simulation time: 00 hr 01 min 58 sec)
Heartbeat CPU 0 instructions: 37500225 cycles: 7503685 heartbeat IPC: 4.999 cumulative IPC: 4.998 (Simulation time: 00 hr 02 min 00 sec)
Heartbeat CPU 0 instructions: 38000227 cycles: 7603673 heartbeat IPC: 5.001 cumulative IPC: 4.998 (Simulation time: 00 hr 02 min 01 sec)
Heartbeat CPU 0 instructions: 38500233 cycles: 7703690 heartbeat IPC: 4.999 cumulative IPC: 4.998 (Simulation time: 00 hr 02 min 03 sec)
Heartbeat CPU 0 instructions: 39000240 cycles: 7803695 heartbeat IPC: 5 cumulative IPC: 4.998 (Simulation time: 00 hr 02 min 04 sec)
Heartbeat CPU 0 instructions: 39500241 cycles: 7903694 heartbeat IPC: 5 cumulative IPC: 4.998 (Simulation time: 00 hr 02 min 06 sec)
Heartbeat CPU 0 instructions: 40000248 cycles: 8003690 heartbeat IPC: 5 cumulative IPC: 4.998 (Simulation time: 00 hr 02 min 08 sec)
Heartbeat CPU 0 instructions: 40500255 cycles: 8103693 heartbeat IPC: 5 cumulative IPC: 4.998 (Simulation time: 00 hr 02 min 09 sec)
Heartbeat CPU 0 instructions: 41000257 cycles: 8203690 heartbeat IPC: 5 cumulative IPC: 4.998 (Simulation time: 00 hr 02 min 11 sec)
Heartbeat CPU 0 instructions: 41500261 cycles: 8303698 heartbeat IPC: 5 cumulative IPC: 4.998 (Simulation time: 00 hr 02 min 12 sec)
Heartbeat CPU 0 instructions: 42000266 cycles: 8403690 heartbeat IPC: 5 cumulative IPC: 4.998 (Simulation time: 00 hr 02 min 14 sec)
Heartbeat CPU 0 instructions: 42500273 cycles: 8503696 heartbeat IPC: 5 cumulative IPC: 4.998 (Simulation time: 00 hr 02 min 16 sec)
Heartbeat CPU 0 instructions: 43000278 cycles: 8603699 heartbeat IPC: 5 cumulative IPC: 4.998 (Simulation time: 00 hr 02 min 17 sec)
Heartbeat CPU 0 instructions: 43500285 cycles: 8703682 heartbeat IPC: 5.001 cumulative IPC: 4.998 (Simulation time: 00 hr 02 min 19 sec)
Heartbeat CPU 0 instructions: 44000285 cycles: 8803691 heartbeat IPC: 5 cumulative IPC: 4.998 (Simulation time: 00 hr 02 min 20 sec)
Heartbeat CPU 0 instructions: 44500290 cycles: 8903692 heartbeat IPC: 5 cumulative IPC: 4.998 (Simulation time: 00 hr 02 min 22 sec)
Heartbeat CPU 0 instructions: 45000291 cycles: 9003701 heartbeat IPC: 5 cumulative IPC: 4.998 (Simulation time: 00 hr 02 min 24 sec)
Heartbeat CPU 0 instructions: 45500295 cycles: 9103708 heartbeat IPC: 5 cumulative IPC: 4.998 (Simulation time: 00 hr 02 min 25 sec)
Heartbeat CPU 0 instructions: 46000297 cycles: 9203709 heartbeat IPC: 5 cumulative IPC: 4.998 (Simulation time: 00 hr 02 min 27 sec)
Heartbeat CPU 0 instructions: 46500302 cycles: 9303718 heartbeat IPC: 5 cumulative IPC: 4.998 (Simulation time: 00 hr 02 min 28 sec)
Heartbeat CPU 0 instructions: 47000309 cycles: 9403701 heartbeat IPC: 5.001 cumulative IPC: 4.998 (Simulation time: 00 hr 02 min 30 sec)
Heartbeat CPU 0 instructions: 47500315 cycles: 9503686 heartbeat IPC: 5.001 cumulative IPC: 4.998 (Simulation time: 00 hr 02 min 32 sec)
Heartbeat CPU 0 instructions: 48000316 cycles: 9603694 heartbeat IPC: 5 cumulative IPC: 4.998 (Simulation time: 00 hr 02 min 33 sec)
Heartbeat CPU 0 instructions: 48500319 cycles: 9703717 heartbeat IPC: 4.999 cumulative IPC: 4.998 (Simulation time: 00 hr 02 min 35 sec)
Heartbeat CPU 0 instructions: 49000319 cycles: 9803691 heartbeat IPC: 5.001 cumulative IPC: 4.998 (Simulation time: 00 hr 02 min 36 sec)
Heartbeat CPU 0 instructions: 49500321 cycles: 9903715 heartbeat IPC: 4.999 cumulative IPC: 4.998 (Simulation time: 00 hr 02 min 38 sec)
Warmup halting CPU 0 at instruction 50000007 cycle 10003640 for remainder of phase
Warmup finished CPU 0 instructions: 50000007 cycles: 10003640 cumulative IPC: 4.998 (Simulation time: 00 hr 02 min 40 sec)
Warmup complete CPU 0 instructions: 50000007 cycles: 10003640 cumulative IPC: 4.998 (Simulation time: 00 hr 02 min 40 sec)
Heartbeat CPU 0 instructions: 50000321 cycles: 10003698 heartbeat IPC: 5.001 cumulative IPC: 5.414 (Simulation time: 00 hr 02 min 40 sec)
Heartbeat CPU 0 instructions: 50500322 cycles: 10180268 heartbeat IPC: 2.832 cumulative IPC: 2.833 (Simulation time: 00 hr 02 min 42 sec)
Heartbeat CPU 0 instructions: 51000324 cycles: 10357159 heartbeat IPC: 2.827 cumulative IPC: 2.83 (Simulation time: 00 hr 02 min 44 sec)
Heartbeat CPU 0 instructions: 51500328 cycles: 10533794 heartbeat IPC: 2.831 cumulative IPC: 2.83 (Simulation time: 00 hr 02 min 46 sec)
Heartbeat CPU 0 instructions: 52000328 cycles: 10710431 heartbeat IPC: 2.831 cumulative IPC: 2.83 (Simulation time: 00 hr 02 min 48 sec)
Heartbeat CPU 0 instructions: 52500328 cycles: 10886901 heartbeat IPC: 2.833 cumulative IPC: 2.831 (Simulation time: 00 hr 02 min 51 sec)
Heartbeat CPU 0 instructions: 53000335 cycles: 11063486 heartbeat IPC: 2.832 cumulative IPC: 2.831 (Simulation time: 00 hr 02 min 53 sec)
Heartbeat CPU 0 instructions: 53500339 cycles: 11240333 heartbeat IPC: 2.827 cumulative IPC: 2.83 (Simulation time: 00 hr 02 min 55 sec)
Heartbeat CPU 0 instructions: 54000345 cycles: 11417390 heartbeat IPC: 2.824 cumulative IPC: 2.83 (Simulation time: 00 hr 02 min 57 sec)
Heartbeat CPU 0 instructions: 54500345 cycles: 11594105 heartbeat IPC: 2.829 cumulative IPC: 2.83 (Simulation time: 00 hr 02 min 59 sec)
Heartbeat CPU 0 instructions: 55000349 cycles: 11770936 heartbeat IPC: 2.828 cumulative IPC: 2.829 (Simulation time: 00 hr 03 min 02 sec)
Heartbeat CPU 0 instructions: 55500352 cycles: 11947935 heartbeat IPC: 2.825 cumulative IPC: 2.829 (Simulation time: 00 hr 03 min 04 sec)
Heartbeat CPU 0 instructions: 56000359 cycles: 12124526 heartbeat IPC: 2.831 cumulative IPC: 2.829 (Simulation time: 00 hr 03 min 06 sec)
Heartbeat CPU 0 instructions: 56500361 cycles: 12301376 heartbeat IPC: 2.827 cumulative IPC: 2.829 (Simulation time: 00 hr 03 min 08 sec)
Heartbeat CPU 0 instructions: 57000362 cycles: 12478229 heartbeat IPC: 2.827 cumulative IPC: 2.829 (Simulation time: 00 hr 03 min 10 sec)
Heartbeat CPU 0 instructions: 57500368 cycles: 12655302 heartbeat IPC: 2.824 cumulative IPC: 2.829 (Simulation time: 00 hr 03 min 12 sec)
Heartbeat CPU 0 instructions: 58000368 cycles: 12832305 heartbeat IPC: 2.825 cumulative IPC: 2.828 (Simulation time: 00 hr 03 min 15 sec)
Heartbeat CPU 0 instructions: 58500372 cycles: 13009047 heartbeat IPC: 2.829 cumulative IPC: 2.828 (Simulation time: 00 hr 03 min 17 sec)
Heartbeat CPU 0 instructions: 59000377 cycles: 13186091 heartbeat IPC: 2.824 cumulative IPC: 2.828 (Simulation time: 00 hr 03 min 19 sec)
Heartbeat CPU 0 instructions: 59500377 cycles: 13363008 heartbeat IPC: 2.826 cumulative IPC: 2.828 (Simulation time: 00 hr 03 min 21 sec)
Heartbeat CPU 0 instructions: 60000383 cycles: 13539627 heartbeat IPC: 2.831 cumulative IPC: 2.828 (Simulation time: 00 hr 03 min 23 sec)
Heartbeat CPU 0 instructions: 60500383 cycles: 13716893 heartbeat IPC: 2.821 cumulative IPC: 2.828 (Simulation time: 00 hr 03 min 26 sec)
Heartbeat CPU 0 instructions: 61000389 cycles: 13893849 heartbeat IPC: 2.826 cumulative IPC: 2.828 (Simulation time: 00 hr 03 min 28 sec)
Heartbeat CPU 0 instructions: 61500390 cycles: 14070509 heartbeat IPC: 2.83 cumulative IPC: 2.828 (Simulation time: 00 hr 03 min 30 sec)
Heartbeat CPU 0 instructions: 62000391 cycles: 14247318 heartbeat IPC: 2.828 cumulative IPC: 2.828 (Simulation time: 00 hr 03 min 32 sec)
Heartbeat CPU 0 instructions: 62500391 cycles: 14424152 heartbeat IPC: 2.828 cumulative IPC: 2.828 (Simulation time: 00 hr 03 min 34 sec)
Heartbeat CPU 0 instructions: 63000392 cycles: 14600769 heartbeat IPC: 2.831 cumulative IPC: 2.828 (Simulation time: 00 hr 03 min 37 sec)
Heartbeat CPU 0 instructions: 63500396 cycles: 14777866 heartbeat IPC: 2.823 cumulative IPC: 2.828 (Simulation time: 00 hr 03 min 39 sec)
Heartbeat CPU 0 instructions: 64000397 cycles: 14955049 heartbeat IPC: 2.822 cumulative IPC: 2.828 (Simulation time: 00 hr 03 min 41 sec)
Heartbeat CPU 0 instructions: 64500398 cycles: 15131596 heartbeat IPC: 2.832 cumulative IPC: 2.828 (Simulation time: 00 hr 03 min 43 sec)
Heartbeat CPU 0 instructions: 65000401 cycles: 15308099 heartbeat IPC: 2.833 cumulative IPC: 2.828 (Simulation time: 00 hr 03 min 45 sec)
Heartbeat CPU 0 instructions: 65500401 cycles: 15484954 heartbeat IPC: 2.827 cumulative IPC: 2.828 (Simulation time: 00 hr 03 min 47 sec)
Heartbeat CPU 0 instructions: 66000403 cycles: 15661781 heartbeat IPC: 2.828 cumulative IPC: 2.828 (Simulation time: 00 hr 03 min 50 sec)
Heartbeat CPU 0 instructions: 66500404 cycles: 15838583 heartbeat IPC: 2.828 cumulative IPC: 2.828 (Simulation time: 00 hr 03 min 52 sec)
Heartbeat CPU 0 instructions: 67000405 cycles: 16015205 heartbeat IPC: 2.831 cumulative IPC: 2.828 (Simulation time: 00 hr 03 min 54 sec)
Heartbeat CPU 0 instructions: 67500406 cycles: 16191660 heartbeat IPC: 2.834 cumulative IPC: 2.828 (Simulation time: 00 hr 03 min 56 sec)
Heartbeat CPU 0 instructions: 68000409 cycles: 16368322 heartbeat IPC: 2.83 cumulative IPC: 2.828 (Simulation time: 00 hr 03 min 58 sec)
Heartbeat CPU 0 instructions: 68500416 cycles: 16545331 heartbeat IPC: 2.825 cumulative IPC: 2.828 (Simulation time: 00 hr 04 min 01 sec)
Heartbeat CPU 0 instructions: 69000421 cycles: 16722527 heartbeat IPC: 2.822 cumulative IPC: 2.828 (Simulation time: 00 hr 04 min 03 sec)
Heartbeat CPU 0 instructions: 69500423 cycles: 16899296 heartbeat IPC: 2.829 cumulative IPC: 2.828 (Simulation time: 00 hr 04 min 05 sec)
Heartbeat CPU 0 instructions: 70000428 cycles: 17075878 heartbeat IPC: 2.832 cumulative IPC: 2.828 (Simulation time: 00 hr 04 min 07 sec)
Heartbeat CPU 0 instructions: 70500432 cycles: 17252718 heartbeat IPC: 2.827 cumulative IPC: 2.828 (Simulation time: 00 hr 04 min 09 sec)
Heartbeat CPU 0 instructions: 71000432 cycles: 17429472 heartbeat IPC: 2.829 cumulative IPC: 2.828 (Simulation time: 00 hr 04 min 12 sec)
Heartbeat CPU 0 instructions: 71500433 cycles: 17605961 heartbeat IPC: 2.833 cumulative IPC: 2.828 (Simulation time: 00 hr 04 min 14 sec)
Heartbeat CPU 0 instructions: 72000434 cycles: 17782704 heartbeat IPC: 2.829 cumulative IPC: 2.828 (Simulation time: 00 hr 04 min 16 sec)
Heartbeat CPU 0 instructions: 72500441 cycles: 17959331 heartbeat IPC: 2.831 cumulative IPC: 2.828 (Simulation time: 00 hr 04 min 18 sec)
Heartbeat CPU 0 instructions: 73000441 cycles: 18135913 heartbeat IPC: 2.832 cumulative IPC: 2.828 (Simulation time: 00 hr 04 min 20 sec)
Heartbeat CPU 0 instructions: 73500448 cycles: 18312593 heartbeat IPC: 2.83 cumulative IPC: 2.828 (Simulation time: 00 hr 04 min 23 sec)
Heartbeat CPU 0 instructions: 74000453 cycles: 18489171 heartbeat IPC: 2.832 cumulative IPC: 2.828 (Simulation time: 00 hr 04 min 25 sec)
Heartbeat CPU 0 instructions: 74500460 cycles: 18665797 heartbeat IPC: 2.831 cumulative IPC: 2.828 (Simulation time: 00 hr 04 min 27 sec)
Heartbeat CPU 0 instructions: 75000460 cycles: 18842264 heartbeat IPC: 2.833 cumulative IPC: 2.829 (Simulation time: 00 hr 04 min 29 sec)
Heartbeat CPU 0 instructions: 75500467 cycles: 19019023 heartbeat IPC: 2.829 cumulative IPC: 2.829 (Simulation time: 00 hr 04 min 31 sec)
Heartbeat CPU 0 instructions: 76000471 cycles: 19195634 heartbeat IPC: 2.831 cumulative IPC: 2.829 (Simulation time: 00 hr 04 min 33 sec)
Heartbeat CPU 0 instructions: 76500476 cycles: 19372225 heartbeat IPC: 2.831 cumulative IPC: 2.829 (Simulation time: 00 hr 04 min 36 sec)
Heartbeat CPU 0 instructions: 77000479 cycles: 19548799 heartbeat IPC: 2.832 cumulative IPC: 2.829 (Simulation time: 00 hr 04 min 38 sec)
Heartbeat CPU 0 instructions: 77500482 cycles: 19725398 heartbeat IPC: 2.831 cumulative IPC: 2.829 (Simulation time: 00 hr 04 min 40 sec)
Heartbeat CPU 0 instructions: 78000489 cycles: 19901956 heartbeat IPC: 2.832 cumulative IPC: 2.829 (Simulation time: 00 hr 04 min 42 sec)
Heartbeat CPU 0 instructions: 78500490 cycles: 20078816 heartbeat IPC: 2.827 cumulative IPC: 2.829 (Simulation time: 00 hr 04 min 44 sec)
Heartbeat CPU 0 instructions: 79000491 cycles: 20255473 heartbeat IPC: 2.83 cumulative IPC: 2.829 (Simulation time: 00 hr 04 min 47 sec)
Heartbeat CPU 0 instructions: 79500494 cycles: 20432091 heartbeat IPC: 2.831 cumulative IPC: 2.829 (Simulation time: 00 hr 04 min 49 sec)
Heartbeat CPU 0 instructions: 80000494 cycles: 20608559 heartbeat IPC: 2.833 cumulative IPC: 2.829 (Simulation time: 00 hr 04 min 51 sec)
Heartbeat CPU 0 instructions: 80500494 cycles: 20785089 heartbeat IPC: 2.832 cumulative IPC: 2.829 (Simulation time: 00 hr 04 min 53 sec)
Heartbeat CPU 0 instructions: 81000497 cycles: 20961999 heartbeat IPC: 2.826 cumulative IPC: 2.829 (Simulation time: 00 hr 04 min 55 sec)
Heartbeat CPU 0 instructions: 81500501 cycles: 21138722 heartbeat IPC: 2.829 cumulative IPC: 2.829 (Simulation time: 00 hr 04 min 58 sec)
Heartbeat CPU 0 instructions: 82000508 cycles: 21315282 heartbeat IPC: 2.832 cumulative IPC: 2.829 (Simulation time: 00 hr 05 min 00 sec)
Heartbeat CPU 0 instructions: 82500512 cycles: 21492222 heartbeat IPC: 2.826 cumulative IPC: 2.829 (Simulation time: 00 hr 05 min 02 sec)
Heartbeat CPU 0 instructions: 83000512 cycles: 21669158 heartbeat IPC: 2.826 cumulative IPC: 2.829 (Simulation time: 00 hr 05 min 04 sec)
Heartbeat CPU 0 instructions: 83500514 cycles: 21846076 heartbeat IPC: 2.826 cumulative IPC: 2.829 (Simulation time: 00 hr 05 min 06 sec)
Heartbeat CPU 0 instructions: 84000521 cycles: 22022634 heartbeat IPC: 2.832 cumulative IPC: 2.829 (Simulation time: 00 hr 05 min 08 sec)
Heartbeat CPU 0 instructions: 84500522 cycles: 22199465 heartbeat IPC: 2.828 cumulative IPC: 2.829 (Simulation time: 00 hr 05 min 11 sec)
Heartbeat CPU 0 instructions: 85000524 cycles: 22375991 heartbeat IPC: 2.832 cumulative IPC: 2.829 (Simulation time: 00 hr 05 min 13 sec)
Heartbeat CPU 0 instructions: 85500531 cycles: 22553029 heartbeat IPC: 2.824 cumulative IPC: 2.829 (Simulation time: 00 hr 05 min 15 sec)
Heartbeat CPU 0 instructions: 86000531 cycles: 22729940 heartbeat IPC: 2.826 cumulative IPC: 2.829 (Simulation time: 00 hr 05 min 17 sec)
Heartbeat CPU 0 instructions: 86500536 cycles: 22906870 heartbeat IPC: 2.826 cumulative IPC: 2.829 (Simulation time: 00 hr 05 min 19 sec)
Heartbeat CPU 0 instructions: 87000542 cycles: 23083809 heartbeat IPC: 2.826 cumulative IPC: 2.829 (Simulation time: 00 hr 05 min 22 sec)
Heartbeat CPU 0 instructions: 87500546 cycles: 23260914 heartbeat IPC: 2.823 cumulative IPC: 2.829 (Simulation time: 00 hr 05 min 24 sec)
Heartbeat CPU 0 instructions: 88000549 cycles: 23438033 heartbeat IPC: 2.823 cumulative IPC: 2.829 (Simulation time: 00 hr 05 min 26 sec)
Heartbeat CPU 0 instructions: 88500550 cycles: 23614611 heartbeat IPC: 2.832 cumulative IPC: 2.829 (Simulation time: 00 hr 05 min 28 sec)
Heartbeat CPU 0 instructions: 89000553 cycles: 23791220 heartbeat IPC: 2.831 cumulative IPC: 2.829 (Simulation time: 00 hr 05 min 30 sec)
Heartbeat CPU 0 instructions: 89500555 cycles: 23968276 heartbeat IPC: 2.824 cumulative IPC: 2.829 (Simulation time: 00 hr 05 min 33 sec)
Heartbeat CPU 0 instructions: 90000556 cycles: 24145041 heartbeat IPC: 2.829 cumulative IPC: 2.829 (Simulation time: 00 hr 05 min 35 sec)
Heartbeat CPU 0 instructions: 90500556 cycles: 24321642 heartbeat IPC: 2.831 cumulative IPC: 2.829 (Simulation time: 00 hr 05 min 37 sec)
Heartbeat CPU 0 instructions: 91000558 cycles: 24498382 heartbeat IPC: 2.829 cumulative IPC: 2.829 (Simulation time: 00 hr 05 min 39 sec)
Heartbeat CPU 0 instructions: 91500561 cycles: 24674959 heartbeat IPC: 2.832 cumulative IPC: 2.829 (Simulation time: 00 hr 05 min 41 sec)
Heartbeat CPU 0 instructions: 92000563 cycles: 24851523 heartbeat IPC: 2.832 cumulative IPC: 2.829 (Simulation time: 00 hr 05 min 43 sec)
Heartbeat CPU 0 instructions: 92500564 cycles: 25028288 heartbeat IPC: 2.829 cumulative IPC: 2.829 (Simulation time: 00 hr 05 min 46 sec)
Heartbeat CPU 0 instructions: 93000568 cycles: 25204941 heartbeat IPC: 2.83 cumulative IPC: 2.829 (Simulation time: 00 hr 05 min 48 sec)
Heartbeat CPU 0 instructions: 93500569 cycles: 25381541 heartbeat IPC: 2.831 cumulative IPC: 2.829 (Simulation time: 00 hr 05 min 50 sec)
Heartbeat CPU 0 instructions: 94000569 cycles: 25558751 heartbeat IPC: 2.822 cumulative IPC: 2.829 (Simulation time: 00 hr 05 min 52 sec)
Heartbeat CPU 0 instructions: 94500571 cycles: 25735816 heartbeat IPC: 2.824 cumulative IPC: 2.829 (Simulation time: 00 hr 05 min 54 sec)
Heartbeat CPU 0 instructions: 95000572 cycles: 25912639 heartbeat IPC: 2.828 cumulative IPC: 2.829 (Simulation time: 00 hr 05 min 57 sec)
Heartbeat CPU 0 instructions: 95500579 cycles: 26089340 heartbeat IPC: 2.83 cumulative IPC: 2.829 (Simulation time: 00 hr 05 min 59 sec)
Heartbeat CPU 0 instructions: 96000579 cycles: 26266083 heartbeat IPC: 2.829 cumulative IPC: 2.829 (Simulation time: 00 hr 06 min 01 sec)
Heartbeat CPU 0 instructions: 96500579 cycles: 26442682 heartbeat IPC: 2.831 cumulative IPC: 2.829 (Simulation time: 00 hr 06 min 03 sec)
Heartbeat CPU 0 instructions: 97000580 cycles: 26619624 heartbeat IPC: 2.826 cumulative IPC: 2.829 (Simulation time: 00 hr 06 min 05 sec)
Heartbeat CPU 0 instructions: 97500582 cycles: 26796181 heartbeat IPC: 2.832 cumulative IPC: 2.829 (Simulation time: 00 hr 06 min 07 sec)
Heartbeat CPU 0 instructions: 98000585 cycles: 26972760 heartbeat IPC: 2.832 cumulative IPC: 2.829 (Simulation time: 00 hr 06 min 10 sec)
Heartbeat CPU 0 instructions: 98500588 cycles: 27149554 heartbeat IPC: 2.828 cumulative IPC: 2.829 (Simulation time: 00 hr 06 min 12 sec)
Heartbeat CPU 0 instructions: 99000590 cycles: 27326330 heartbeat IPC: 2.828 cumulative IPC: 2.829 (Simulation time: 00 hr 06 min 14 sec)
Heartbeat CPU 0 instructions: 99500590 cycles: 27503152 heartbeat IPC: 2.828 cumulative IPC: 2.829 (Simulation time: 00 hr 06 min 16 sec)
Heartbeat CPU 0 instructions: 100000590 cycles: 27680242 heartbeat IPC: 2.823 cumulative IPC: 2.829 (Simulation time: 00 hr 06 min 18 sec)
Heartbeat CPU 0 instructions: 100500593 cycles: 27857263 heartbeat IPC: 2.825 cumulative IPC: 2.829 (Simulation time: 00 hr 06 min 21 sec)
Heartbeat CPU 0 instructions: 101000600 cycles: 28034321 heartbeat IPC: 2.824 cumulative IPC: 2.829 (Simulation time: 00 hr 06 min 23 sec)
Heartbeat CPU 0 instructions: 101500604 cycles: 28211213 heartbeat IPC: 2.827 cumulative IPC: 2.829 (Simulation time: 00 hr 06 min 25 sec)
Heartbeat CPU 0 instructions: 102000608 cycles: 28388343 heartbeat IPC: 2.823 cumulative IPC: 2.828 (Simulation time: 00 hr 06 min 27 sec)
Heartbeat CPU 0 instructions: 102500615 cycles: 28565127 heartbeat IPC: 2.828 cumulative IPC: 2.828 (Simulation time: 00 hr 06 min 29 sec)
Heartbeat CPU 0 instructions: 103000615 cycles: 28741848 heartbeat IPC: 2.829 cumulative IPC: 2.828 (Simulation time: 00 hr 06 min 32 sec)
Heartbeat CPU 0 instructions: 103500615 cycles: 28918552 heartbeat IPC: 2.83 cumulative IPC: 2.828 (Simulation time: 00 hr 06 min 34 sec)
Heartbeat CPU 0 instructions: 104000619 cycles: 29095563 heartbeat IPC: 2.825 cumulative IPC: 2.828 (Simulation time: 00 hr 06 min 36 sec)
Heartbeat CPU 0 instructions: 104500621 cycles: 29272633 heartbeat IPC: 2.824 cumulative IPC: 2.828 (Simulation time: 00 hr 06 min 38 sec)
Heartbeat CPU 0 instructions: 105000622 cycles: 29449238 heartbeat IPC: 2.831 cumulative IPC: 2.828 (Simulation time: 00 hr 06 min 40 sec)
Heartbeat CPU 0 instructions: 105500628 cycles: 29626172 heartbeat IPC: 2.826 cumulative IPC: 2.828 (Simulation time: 00 hr 06 min 42 sec)
Heartbeat CPU 0 instructions: 106000632 cycles: 29803041 heartbeat IPC: 2.827 cumulative IPC: 2.828 (Simulation time: 00 hr 06 min 45 sec)
Heartbeat CPU 0 instructions: 106500638 cycles: 29980010 heartbeat IPC: 2.825 cumulative IPC: 2.828 (Simulation time: 00 hr 06 min 47 sec)
Heartbeat CPU 0 instructions: 107000645 cycles: 30156811 heartbeat IPC: 2.828 cumulative IPC: 2.828 (Simulation time: 00 hr 06 min 49 sec)
Heartbeat CPU 0 instructions: 107500648 cycles: 30333649 heartbeat IPC: 2.827 cumulative IPC: 2.828 (Simulation time: 00 hr 06 min 51 sec)
Heartbeat CPU 0 instructions: 108000652 cycles: 30510722 heartbeat IPC: 2.824 cumulative IPC: 2.828 (Simulation time: 00 hr 06 min 53 sec)
Heartbeat CPU 0 instructions: 108500652 cycles: 30687677 heartbeat IPC: 2.826 cumulative IPC: 2.828 (Simulation time: 00 hr 06 min 56 sec)
Heartbeat CPU 0 instructions: 109000657 cycles: 30864434 heartbeat IPC: 2.829 cumulative IPC: 2.828 (Simulation time: 00 hr 06 min 58 sec)
Heartbeat CPU 0 instructions: 109500658 cycles: 31041145 heartbeat IPC: 2.829 cumulative IPC: 2.828 (Simulation time: 00 hr 07 min 00 sec)
Heartbeat CPU 0 instructions: 110000661 cycles: 31217697 heartbeat IPC: 2.832 cumulative IPC: 2.828 (Simulation time: 00 hr 07 min 02 sec)
Heartbeat CPU 0 instructions: 110500662 cycles: 31394482 heartbeat IPC: 2.828 cumulative IPC: 2.828 (Simulation time: 00 hr 07 min 04 sec)
Heartbeat CPU 0 instructions: 111000664 cycles: 31571197 heartbeat IPC: 2.829 cumulative IPC: 2.828 (Simulation time: 00 hr 07 min 06 sec)
Heartbeat CPU 0 instructions: 111500667 cycles: 31748315 heartbeat IPC: 2.823 cumulative IPC: 2.828 (Simulation time: 00 hr 07 min 09 sec)
Heartbeat CPU 0 instructions: 112000672 cycles: 31925355 heartbeat IPC: 2.824 cumulative IPC: 2.828 (Simulation time: 00 hr 07 min 11 sec)
Heartbeat CPU 0 instructions: 112500677 cycles: 32102076 heartbeat IPC: 2.829 cumulative IPC: 2.828 (Simulation time: 00 hr 07 min 13 sec)
Heartbeat CPU 0 instructions: 113000677 cycles: 32279059 heartbeat IPC: 2.825 cumulative IPC: 2.828 (Simulation time: 00 hr 07 min 15 sec)
Heartbeat CPU 0 instructions: 113500684 cycles: 32455856 heartbeat IPC: 2.828 cumulative IPC: 2.828 (Simulation time: 00 hr 07 min 17 sec)
Heartbeat CPU 0 instructions: 114000684 cycles: 32632620 heartbeat IPC: 2.829 cumulative IPC: 2.828 (Simulation time: 00 hr 07 min 20 sec)
Heartbeat CPU 0 instructions: 114500684 cycles: 32809870 heartbeat IPC: 2.821 cumulative IPC: 2.828 (Simulation time: 00 hr 07 min 22 sec)
Heartbeat CPU 0 instructions: 115000685 cycles: 32987079 heartbeat IPC: 2.822 cumulative IPC: 2.828 (Simulation time: 00 hr 07 min 24 sec)
Heartbeat CPU 0 instructions: 115500686 cycles: 33163771 heartbeat IPC: 2.83 cumulative IPC: 2.828 (Simulation time: 00 hr 07 min 26 sec)
Heartbeat CPU 0 instructions: 116000686 cycles: 33341035 heartbeat IPC: 2.821 cumulative IPC: 2.828 (Simulation time: 00 hr 07 min 28 sec)
Heartbeat CPU 0 instructions: 116500687 cycles: 33517825 heartbeat IPC: 2.828 cumulative IPC: 2.828 (Simulation time: 00 hr 07 min 31 sec)
Heartbeat CPU 0 instructions: 117000691 cycles: 33694342 heartbeat IPC: 2.833 cumulative IPC: 2.828 (Simulation time: 00 hr 07 min 33 sec)
Heartbeat CPU 0 instructions: 117500696 cycles: 33871080 heartbeat IPC: 2.829 cumulative IPC: 2.828 (Simulation time: 00 hr 07 min 35 sec)
Heartbeat CPU 0 instructions: 118000699 cycles: 34048391 heartbeat IPC: 2.82 cumulative IPC: 2.828 (Simulation time: 00 hr 07 min 37 sec)
Heartbeat CPU 0 instructions: 118500703 cycles: 34225323 heartbeat IPC: 2.826 cumulative IPC: 2.828 (Simulation time: 00 hr 07 min 39 sec)
Heartbeat CPU 0 instructions: 119000705 cycles: 34402202 heartbeat IPC: 2.827 cumulative IPC: 2.828 (Simulation time: 00 hr 07 min 41 sec)
Heartbeat CPU 0 instructions: 119500711 cycles: 34579124 heartbeat IPC: 2.826 cumulative IPC: 2.828 (Simulation time: 00 hr 07 min 44 sec)
Heartbeat CPU 0 instructions: 120000712 cycles: 34755880 heartbeat IPC: 2.829 cumulative IPC: 2.828 (Simulation time: 00 hr 07 min 46 sec)
Heartbeat CPU 0 instructions: 120500719 cycles: 34932648 heartbeat IPC: 2.829 cumulative IPC: 2.828 (Simulation time: 00 hr 07 min 48 sec)
Heartbeat CPU 0 instructions: 121000722 cycles: 35109712 heartbeat IPC: 2.824 cumulative IPC: 2.828 (Simulation time: 00 hr 07 min 50 sec)
Heartbeat CPU 0 instructions: 121500722 cycles: 35286545 heartbeat IPC: 2.828 cumulative IPC: 2.828 (Simulation time: 00 hr 07 min 52 sec)
Heartbeat CPU 0 instructions: 122000722 cycles: 35463387 heartbeat IPC: 2.827 cumulative IPC: 2.828 (Simulation time: 00 hr 07 min 55 sec)
Heartbeat CPU 0 instructions: 122500724 cycles: 35640326 heartbeat IPC: 2.826 cumulative IPC: 2.828 (Simulation time: 00 hr 07 min 57 sec)
Heartbeat CPU 0 instructions: 123000727 cycles: 35817660 heartbeat IPC: 2.82 cumulative IPC: 2.828 (Simulation time: 00 hr 07 min 59 sec)
Heartbeat CPU 0 instructions: 123500727 cycles: 35994706 heartbeat IPC: 2.824 cumulative IPC: 2.828 (Simulation time: 00 hr 08 min 01 sec)
Heartbeat CPU 0 instructions: 124000734 cycles: 36171550 heartbeat IPC: 2.827 cumulative IPC: 2.828 (Simulation time: 00 hr 08 min 03 sec)
Heartbeat CPU 0 instructions: 124500741 cycles: 36348303 heartbeat IPC: 2.829 cumulative IPC: 2.828 (Simulation time: 00 hr 08 min 06 sec)
Heartbeat CPU 0 instructions: 125000744 cycles: 36525089 heartbeat IPC: 2.828 cumulative IPC: 2.828 (Simulation time: 00 hr 08 min 08 sec)
Heartbeat CPU 0 instructions: 125500746 cycles: 36701969 heartbeat IPC: 2.827 cumulative IPC: 2.828 (Simulation time: 00 hr 08 min 10 sec)
Heartbeat CPU 0 instructions: 126000748 cycles: 36878837 heartbeat IPC: 2.827 cumulative IPC: 2.828 (Simulation time: 00 hr 08 min 12 sec)
Heartbeat CPU 0 instructions: 126500750 cycles: 37055731 heartbeat IPC: 2.827 cumulative IPC: 2.828 (Simulation time: 00 hr 08 min 14 sec)
Heartbeat CPU 0 instructions: 127000751 cycles: 37232657 heartbeat IPC: 2.826 cumulative IPC: 2.828 (Simulation time: 00 hr 08 min 16 sec)
Heartbeat CPU 0 instructions: 127500751 cycles: 37409513 heartbeat IPC: 2.827 cumulative IPC: 2.828 (Simulation time: 00 hr 08 min 19 sec)
Heartbeat CPU 0 instructions: 128000757 cycles: 37586737 heartbeat IPC: 2.821 cumulative IPC: 2.828 (Simulation time: 00 hr 08 min 21 sec)
Heartbeat CPU 0 instructions: 128500757 cycles: 37763534 heartbeat IPC: 2.828 cumulative IPC: 2.828 (Simulation time: 00 hr 08 min 23 sec)
Heartbeat CPU 0 instructions: 129000757 cycles: 37940539 heartbeat IPC: 2.825 cumulative IPC: 2.828 (Simulation time: 00 hr 08 min 25 sec)
Heartbeat CPU 0 instructions: 129500760 cycles: 38117715 heartbeat IPC: 2.822 cumulative IPC: 2.828 (Simulation time: 00 hr 08 min 27 sec)
Heartbeat CPU 0 instructions: 130000760 cycles: 38294977 heartbeat IPC: 2.821 cumulative IPC: 2.828 (Simulation time: 00 hr 08 min 30 sec)
Heartbeat CPU 0 instructions: 130500760 cycles: 38471670 heartbeat IPC: 2.83 cumulative IPC: 2.828 (Simulation time: 00 hr 08 min 32 sec)
Heartbeat CPU 0 instructions: 131000760 cycles: 38648637 heartbeat IPC: 2.825 cumulative IPC: 2.828 (Simulation time: 00 hr 08 min 34 sec)
Heartbeat CPU 0 instructions: 131500764 cycles: 38825397 heartbeat IPC: 2.829 cumulative IPC: 2.828 (Simulation time: 00 hr 08 min 36 sec)
Heartbeat CPU 0 instructions: 132000767 cycles: 39001585 heartbeat IPC: 2.838 cumulative IPC: 2.828 (Simulation time: 00 hr 08 min 38 sec)
Heartbeat CPU 0 instructions: 132500769 cycles: 39178075 heartbeat IPC: 2.833 cumulative IPC: 2.828 (Simulation time: 00 hr 08 min 41 sec)
Heartbeat CPU 0 instructions: 133000769 cycles: 39354801 heartbeat IPC: 2.829 cumulative IPC: 2.828 (Simulation time: 00 hr 08 min 43 sec)
Heartbeat CPU 0 instructions: 133500773 cycles: 39531641 heartbeat IPC: 2.827 cumulative IPC: 2.828 (Simulation time: 00 hr 08 min 45 sec)
Heartbeat CPU 0 instructions: 134000773 cycles: 39708725 heartbeat IPC: 2.824 cumulative IPC: 2.828 (Simulation time: 00 hr 08 min 47 sec)
Heartbeat CPU 0 instructions: 134500774 cycles: 39885871 heartbeat IPC: 2.823 cumulative IPC: 2.828 (Simulation time: 00 hr 08 min 49 sec)
Heartbeat CPU 0 instructions: 135000774 cycles: 40062576 heartbeat IPC: 2.83 cumulative IPC: 2.828 (Simulation time: 00 hr 08 min 51 sec)
Heartbeat CPU 0 instructions: 135500777 cycles: 40239412 heartbeat IPC: 2.827 cumulative IPC: 2.828 (Simulation time: 00 hr 08 min 54 sec)
Heartbeat CPU 0 instructions: 136000782 cycles: 40416089 heartbeat IPC: 2.83 cumulative IPC: 2.828 (Simulation time: 00 hr 08 min 56 sec)
Heartbeat CPU 0 instructions: 136500785 cycles: 40592859 heartbeat IPC: 2.829 cumulative IPC: 2.828 (Simulation time: 00 hr 08 min 58 sec)
Heartbeat CPU 0 instructions: 137000785 cycles: 40769491 heartbeat IPC: 2.831 cumulative IPC: 2.828 (Simulation time: 00 hr 09 min 00 sec)
Heartbeat CPU 0 instructions: 137500787 cycles: 40945984 heartbeat IPC: 2.833 cumulative IPC: 2.828 (Simulation time: 00 hr 09 min 02 sec)
Heartbeat CPU 0 instructions: 138000787 cycles: 41122670 heartbeat IPC: 2.83 cumulative IPC: 2.828 (Simulation time: 00 hr 09 min 05 sec)
Heartbeat CPU 0 instructions: 138500791 cycles: 41299318 heartbeat IPC: 2.831 cumulative IPC: 2.828 (Simulation time: 00 hr 09 min 07 sec)
Heartbeat CPU 0 instructions: 139000797 cycles: 41476081 heartbeat IPC: 2.829 cumulative IPC: 2.828 (Simulation time: 00 hr 09 min 09 sec)
Heartbeat CPU 0 instructions: 139500797 cycles: 41652799 heartbeat IPC: 2.829 cumulative IPC: 2.828 (Simulation time: 00 hr 09 min 11 sec)
Heartbeat CPU 0 instructions: 140000801 cycles: 41829452 heartbeat IPC: 2.83 cumulative IPC: 2.828 (Simulation time: 00 hr 09 min 13 sec)
Heartbeat CPU 0 instructions: 140500801 cycles: 42006152 heartbeat IPC: 2.83 cumulative IPC: 2.828 (Simulation time: 00 hr 09 min 16 sec)
Heartbeat CPU 0 instructions: 141000804 cycles: 42182721 heartbeat IPC: 2.832 cumulative IPC: 2.828 (Simulation time: 00 hr 09 min 18 sec)
Heartbeat CPU 0 instructions: 141500804 cycles: 42359360 heartbeat IPC: 2.831 cumulative IPC: 2.828 (Simulation time: 00 hr 09 min 20 sec)
Heartbeat CPU 0 instructions: 142000806 cycles: 42536014 heartbeat IPC: 2.83 cumulative IPC: 2.828 (Simulation time: 00 hr 09 min 22 sec)
Heartbeat CPU 0 instructions: 142500809 cycles: 42713022 heartbeat IPC: 2.825 cumulative IPC: 2.828 (Simulation time: 00 hr 09 min 24 sec)
Heartbeat CPU 0 instructions: 143000814 cycles: 42889591 heartbeat IPC: 2.832 cumulative IPC: 2.828 (Simulation time: 00 hr 09 min 27 sec)
Heartbeat CPU 0 instructions: 143500814 cycles: 43066098 heartbeat IPC: 2.833 cumulative IPC: 2.828 (Simulation time: 00 hr 09 min 29 sec)
Heartbeat CPU 0 instructions: 144000814 cycles: 43243030 heartbeat IPC: 2.826 cumulative IPC: 2.828 (Simulation time: 00 hr 09 min 31 sec)
Heartbeat CPU 0 instructions: 144500818 cycles: 43420078 heartbeat IPC: 2.824 cumulative IPC: 2.828 (Simulation time: 00 hr 09 min 33 sec)
Heartbeat CPU 0 instructions: 145000821 cycles: 43597285 heartbeat IPC: 2.822 cumulative IPC: 2.828 (Simulation time: 00 hr 09 min 35 sec)
Heartbeat CPU 0 instructions: 145500826 cycles: 43774357 heartbeat IPC: 2.824 cumulative IPC: 2.828 (Simulation time: 00 hr 09 min 38 sec)
Heartbeat CPU 0 instructions: 146000827 cycles: 43951325 heartbeat IPC: 2.825 cumulative IPC: 2.828 (Simulation time: 00 hr 09 min 40 sec)
Heartbeat CPU 0 instructions: 146500830 cycles: 44128464 heartbeat IPC: 2.823 cumulative IPC: 2.828 (Simulation time: 00 hr 09 min 42 sec)
Heartbeat CPU 0 instructions: 147000836 cycles: 44305220 heartbeat IPC: 2.829 cumulative IPC: 2.828 (Simulation time: 00 hr 09 min 44 sec)
Heartbeat CPU 0 instructions: 147500836 cycles: 44481847 heartbeat IPC: 2.831 cumulative IPC: 2.828 (Simulation time: 00 hr 09 min 47 sec)
Heartbeat CPU 0 instructions: 148000838 cycles: 44658694 heartbeat IPC: 2.827 cumulative IPC: 2.828 (Simulation time: 00 hr 09 min 49 sec)
Heartbeat CPU 0 instructions: 148500839 cycles: 44835238 heartbeat IPC: 2.832 cumulative IPC: 2.828 (Simulation time: 00 hr 09 min 52 sec)
Heartbeat CPU 0 instructions: 149000844 cycles: 45012474 heartbeat IPC: 2.821 cumulative IPC: 2.828 (Simulation time: 00 hr 09 min 54 sec)
Heartbeat CPU 0 instructions: 149500845 cycles: 45189500 heartbeat IPC: 2.824 cumulative IPC: 2.828 (Simulation time: 00 hr 09 min 57 sec)
Heartbeat CPU 0 instructions: 150000848 cycles: 45366178 heartbeat IPC: 2.83 cumulative IPC: 2.828 (Simulation time: 00 hr 09 min 59 sec)
Heartbeat CPU 0 instructions: 150500850 cycles: 45543140 heartbeat IPC: 2.825 cumulative IPC: 2.828 (Simulation time: 00 hr 10 min 02 sec)
Heartbeat CPU 0 instructions: 151000852 cycles: 45719964 heartbeat IPC: 2.828 cumulative IPC: 2.828 (Simulation time: 00 hr 10 min 04 sec)
Heartbeat CPU 0 instructions: 151500858 cycles: 45896971 heartbeat IPC: 2.825 cumulative IPC: 2.828 (Simulation time: 00 hr 10 min 07 sec)
Heartbeat CPU 0 instructions: 152000862 cycles: 46073549 heartbeat IPC: 2.832 cumulative IPC: 2.828 (Simulation time: 00 hr 10 min 09 sec)
Heartbeat CPU 0 instructions: 152500863 cycles: 46250579 heartbeat IPC: 2.824 cumulative IPC: 2.828 (Simulation time: 00 hr 10 min 12 sec)
Heartbeat CPU 0 instructions: 153000867 cycles: 46427354 heartbeat IPC: 2.828 cumulative IPC: 2.828 (Simulation time: 00 hr 10 min 14 sec)
Heartbeat CPU 0 instructions: 153500869 cycles: 46604121 heartbeat IPC: 2.829 cumulative IPC: 2.828 (Simulation time: 00 hr 10 min 17 sec)
Heartbeat CPU 0 instructions: 154000870 cycles: 46781330 heartbeat IPC: 2.822 cumulative IPC: 2.828 (Simulation time: 00 hr 10 min 19 sec)
Heartbeat CPU 0 instructions: 154500870 cycles: 46958552 heartbeat IPC: 2.821 cumulative IPC: 2.828 (Simulation time: 00 hr 10 min 22 sec)
Heartbeat CPU 0 instructions: 155000871 cycles: 47135489 heartbeat IPC: 2.826 cumulative IPC: 2.828 (Simulation time: 00 hr 10 min 24 sec)
Heartbeat CPU 0 instructions: 155500875 cycles: 47312627 heartbeat IPC: 2.823 cumulative IPC: 2.828 (Simulation time: 00 hr 10 min 27 sec)
Heartbeat CPU 0 instructions: 156000881 cycles: 47489694 heartbeat IPC: 2.824 cumulative IPC: 2.828 (Simulation time: 00 hr 10 min 29 sec)
Heartbeat CPU 0 instructions: 156500882 cycles: 47666748 heartbeat IPC: 2.824 cumulative IPC: 2.828 (Simulation time: 00 hr 10 min 32 sec)
Heartbeat CPU 0 instructions: 157000882 cycles: 47843745 heartbeat IPC: 2.825 cumulative IPC: 2.828 (Simulation time: 00 hr 10 min 34 sec)
Heartbeat CPU 0 instructions: 157500884 cycles: 48020589 heartbeat IPC: 2.827 cumulative IPC: 2.828 (Simulation time: 00 hr 10 min 37 sec)
Heartbeat CPU 0 instructions: 158000887 cycles: 48197164 heartbeat IPC: 2.832 cumulative IPC: 2.828 (Simulation time: 00 hr 10 min 39 sec)
Heartbeat CPU 0 instructions: 158500888 cycles: 48373738 heartbeat IPC: 2.832 cumulative IPC: 2.828 (Simulation time: 00 hr 10 min 42 sec)
Heartbeat CPU 0 instructions: 159000889 cycles: 48550747 heartbeat IPC: 2.825 cumulative IPC: 2.828 (Simulation time: 00 hr 10 min 44 sec)
Heartbeat CPU 0 instructions: 159500895 cycles: 48727951 heartbeat IPC: 2.822 cumulative IPC: 2.828 (Simulation time: 00 hr 10 min 47 sec)
Heartbeat CPU 0 instructions: 160000896 cycles: 48905641 heartbeat IPC: 2.814 cumulative IPC: 2.828 (Simulation time: 00 hr 10 min 49 sec)
Heartbeat CPU 0 instructions: 160500897 cycles: 49082579 heartbeat IPC: 2.826 cumulative IPC: 2.828 (Simulation time: 00 hr 10 min 52 sec)
Heartbeat CPU 0 instructions: 161000898 cycles: 49259079 heartbeat IPC: 2.833 cumulative IPC: 2.828 (Simulation time: 00 hr 10 min 54 sec)
Heartbeat CPU 0 instructions: 161500905 cycles: 49435926 heartbeat IPC: 2.827 cumulative IPC: 2.828 (Simulation time: 00 hr 10 min 57 sec)
Heartbeat CPU 0 instructions: 162000907 cycles: 49612876 heartbeat IPC: 2.826 cumulative IPC: 2.828 (Simulation time: 00 hr 10 min 59 sec)
Heartbeat CPU 0 instructions: 162500910 cycles: 49789974 heartbeat IPC: 2.823 cumulative IPC: 2.828 (Simulation time: 00 hr 11 min 02 sec)
Heartbeat CPU 0 instructions: 163000916 cycles: 49966810 heartbeat IPC: 2.828 cumulative IPC: 2.828 (Simulation time: 00 hr 11 min 04 sec)
Heartbeat CPU 0 instructions: 163500922 cycles: 50144121 heartbeat IPC: 2.82 cumulative IPC: 2.828 (Simulation time: 00 hr 11 min 07 sec)
Heartbeat CPU 0 instructions: 164000926 cycles: 50321464 heartbeat IPC: 2.819 cumulative IPC: 2.828 (Simulation time: 00 hr 11 min 09 sec)
Heartbeat CPU 0 instructions: 164500927 cycles: 50499079 heartbeat IPC: 2.815 cumulative IPC: 2.828 (Simulation time: 00 hr 11 min 12 sec)
Heartbeat CPU 0 instructions: 165000932 cycles: 50676448 heartbeat IPC: 2.819 cumulative IPC: 2.827 (Simulation time: 00 hr 11 min 14 sec)
Heartbeat CPU 0 instructions: 165500932 cycles: 50853677 heartbeat IPC: 2.821 cumulative IPC: 2.827 (Simulation time: 00 hr 11 min 17 sec)
Heartbeat CPU 0 instructions: 166000933 cycles: 51030314 heartbeat IPC: 2.831 cumulative IPC: 2.827 (Simulation time: 00 hr 11 min 19 sec)
Heartbeat CPU 0 instructions: 166500933 cycles: 51206999 heartbeat IPC: 2.83 cumulative IPC: 2.827 (Simulation time: 00 hr 11 min 22 sec)
Heartbeat CPU 0 instructions: 167000936 cycles: 51383753 heartbeat IPC: 2.829 cumulative IPC: 2.827 (Simulation time: 00 hr 11 min 24 sec)
Heartbeat CPU 0 instructions: 167500939 cycles: 51560716 heartbeat IPC: 2.825 cumulative IPC: 2.827 (Simulation time: 00 hr 11 min 27 sec)
Heartbeat CPU 0 instructions: 168000941 cycles: 51737621 heartbeat IPC: 2.826 cumulative IPC: 2.827 (Simulation time: 00 hr 11 min 29 sec)
Heartbeat CPU 0 instructions: 168500945 cycles: 51914778 heartbeat IPC: 2.822 cumulative IPC: 2.827 (Simulation time: 00 hr 11 min 32 sec)
Heartbeat CPU 0 instructions: 169000951 cycles: 52091678 heartbeat IPC: 2.826 cumulative IPC: 2.827 (Simulation time: 00 hr 11 min 34 sec)
Heartbeat CPU 0 instructions: 169500957 cycles: 52268330 heartbeat IPC: 2.83 cumulative IPC: 2.827 (Simulation time: 00 hr 11 min 37 sec)
Heartbeat CPU 0 instructions: 170000963 cycles: 52444821 heartbeat IPC: 2.833 cumulative IPC: 2.827 (Simulation time: 00 hr 11 min 39 sec)
Heartbeat CPU 0 instructions: 170500966 cycles: 52621507 heartbeat IPC: 2.83 cumulative IPC: 2.827 (Simulation time: 00 hr 11 min 42 sec)
Heartbeat CPU 0 instructions: 171000967 cycles: 52798207 heartbeat IPC: 2.83 cumulative IPC: 2.827 (Simulation time: 00 hr 11 min 44 sec)
Heartbeat CPU 0 instructions: 171500968 cycles: 52974968 heartbeat IPC: 2.829 cumulative IPC: 2.827 (Simulation time: 00 hr 11 min 47 sec)
Heartbeat CPU 0 instructions: 172000969 cycles: 53152446 heartbeat IPC: 2.817 cumulative IPC: 2.827 (Simulation time: 00 hr 11 min 49 sec)
Heartbeat CPU 0 instructions: 172500970 cycles: 53330040 heartbeat IPC: 2.815 cumulative IPC: 2.827 (Simulation time: 00 hr 11 min 52 sec)
Heartbeat CPU 0 instructions: 173000973 cycles: 53506604 heartbeat IPC: 2.832 cumulative IPC: 2.827 (Simulation time: 00 hr 11 min 54 sec)
Heartbeat CPU 0 instructions: 173500978 cycles: 53683573 heartbeat IPC: 2.825 cumulative IPC: 2.827 (Simulation time: 00 hr 11 min 57 sec)
Heartbeat CPU 0 instructions: 174000984 cycles: 53860507 heartbeat IPC: 2.826 cumulative IPC: 2.827 (Simulation time: 00 hr 11 min 59 sec)
Heartbeat CPU 0 instructions: 174500985 cycles: 54037253 heartbeat IPC: 2.829 cumulative IPC: 2.827 (Simulation time: 00 hr 12 min 02 sec)
Heartbeat CPU 0 instructions: 175000986 cycles: 54213948 heartbeat IPC: 2.83 cumulative IPC: 2.827 (Simulation time: 00 hr 12 min 04 sec)
Heartbeat CPU 0 instructions: 175500987 cycles: 54390919 heartbeat IPC: 2.825 cumulative IPC: 2.827 (Simulation time: 00 hr 12 min 07 sec)
Heartbeat CPU 0 instructions: 176000992 cycles: 54567689 heartbeat IPC: 2.829 cumulative IPC: 2.827 (Simulation time: 00 hr 12 min 09 sec)
Heartbeat CPU 0 instructions: 176500992 cycles: 54744420 heartbeat IPC: 2.829 cumulative IPC: 2.827 (Simulation time: 00 hr 12 min 12 sec)
Heartbeat CPU 0 instructions: 177000994 cycles: 54921022 heartbeat IPC: 2.831 cumulative IPC: 2.827 (Simulation time: 00 hr 12 min 14 sec)
Heartbeat CPU 0 instructions: 177500999 cycles: 55098155 heartbeat IPC: 2.823 cumulative IPC: 2.827 (Simulation time: 00 hr 12 min 17 sec)
Heartbeat CPU 0 instructions: 178000999 cycles: 55274771 heartbeat IPC: 2.831 cumulative IPC: 2.827 (Simulation time: 00 hr 12 min 19 sec)
Heartbeat CPU 0 instructions: 178501003 cycles: 55451580 heartbeat IPC: 2.828 cumulative IPC: 2.827 (Simulation time: 00 hr 12 min 22 sec)
Heartbeat CPU 0 instructions: 179001004 cycles: 55628253 heartbeat IPC: 2.83 cumulative IPC: 2.827 (Simulation time: 00 hr 12 min 24 sec)
Heartbeat CPU 0 instructions: 179501005 cycles: 55804884 heartbeat IPC: 2.831 cumulative IPC: 2.827 (Simulation time: 00 hr 12 min 27 sec)
Heartbeat CPU 0 instructions: 180001007 cycles: 55981644 heartbeat IPC: 2.829 cumulative IPC: 2.827 (Simulation time: 00 hr 12 min 29 sec)
Heartbeat CPU 0 instructions: 180501007 cycles: 56158257 heartbeat IPC: 2.831 cumulative IPC: 2.827 (Simulation time: 00 hr 12 min 32 sec)
Heartbeat CPU 0 instructions: 181001011 cycles: 56334721 heartbeat IPC: 2.833 cumulative IPC: 2.827 (Simulation time: 00 hr 12 min 34 sec)
Heartbeat CPU 0 instructions: 181501013 cycles: 56511653 heartbeat IPC: 2.826 cumulative IPC: 2.827 (Simulation time: 00 hr 12 min 37 sec)
Heartbeat CPU 0 instructions: 182001018 cycles: 56688280 heartbeat IPC: 2.831 cumulative IPC: 2.828 (Simulation time: 00 hr 12 min 39 sec)
Heartbeat CPU 0 instructions: 182501018 cycles: 56865150 heartbeat IPC: 2.827 cumulative IPC: 2.828 (Simulation time: 00 hr 12 min 42 sec)
Heartbeat CPU 0 instructions: 183001018 cycles: 57041855 heartbeat IPC: 2.83 cumulative IPC: 2.828 (Simulation time: 00 hr 12 min 44 sec)
Heartbeat CPU 0 instructions: 183501019 cycles: 57218940 heartbeat IPC: 2.824 cumulative IPC: 2.827 (Simulation time: 00 hr 12 min 47 sec)
Heartbeat CPU 0 instructions: 184001024 cycles: 57395745 heartbeat IPC: 2.828 cumulative IPC: 2.827 (Simulation time: 00 hr 12 min 49 sec)
Heartbeat CPU 0 instructions: 184501029 cycles: 57573055 heartbeat IPC: 2.82 cumulative IPC: 2.827 (Simulation time: 00 hr 12 min 52 sec)
Heartbeat CPU 0 instructions: 185001029 cycles: 57749895 heartbeat IPC: 2.827 cumulative IPC: 2.827 (Simulation time: 00 hr 12 min 54 sec)
Heartbeat CPU 0 instructions: 185501035 cycles: 57926693 heartbeat IPC: 2.828 cumulative IPC: 2.827 (Simulation time: 00 hr 12 min 57 sec)
Heartbeat CPU 0 instructions: 186001036 cycles: 58103459 heartbeat IPC: 2.829 cumulative IPC: 2.827 (Simulation time: 00 hr 12 min 59 sec)
Heartbeat CPU 0 instructions: 186501042 cycles: 58280103 heartbeat IPC: 2.831 cumulative IPC: 2.827 (Simulation time: 00 hr 13 min 02 sec)
Heartbeat CPU 0 instructions: 187001044 cycles: 58456699 heartbeat IPC: 2.831 cumulative IPC: 2.828 (Simulation time: 00 hr 13 min 04 sec)
Heartbeat CPU 0 instructions: 187501046 cycles: 58633325 heartbeat IPC: 2.831 cumulative IPC: 2.828 (Simulation time: 00 hr 13 min 07 sec)
Heartbeat CPU 0 instructions: 188001047 cycles: 58810240 heartbeat IPC: 2.826 cumulative IPC: 2.828 (Simulation time: 00 hr 13 min 09 sec)
Heartbeat CPU 0 instructions: 188501053 cycles: 58987093 heartbeat IPC: 2.827 cumulative IPC: 2.828 (Simulation time: 00 hr 13 min 12 sec)
Heartbeat CPU 0 instructions: 189001053 cycles: 59163941 heartbeat IPC: 2.827 cumulative IPC: 2.828 (Simulation time: 00 hr 13 min 14 sec)
Heartbeat CPU 0 instructions: 189501058 cycles: 59340517 heartbeat IPC: 2.832 cumulative IPC: 2.828 (Simulation time: 00 hr 13 min 17 sec)
Heartbeat CPU 0 instructions: 190001059 cycles: 59517512 heartbeat IPC: 2.825 cumulative IPC: 2.828 (Simulation time: 00 hr 13 min 19 sec)
Heartbeat CPU 0 instructions: 190501065 cycles: 59694652 heartbeat IPC: 2.823 cumulative IPC: 2.827 (Simulation time: 00 hr 13 min 22 sec)
Heartbeat CPU 0 instructions: 191001069 cycles: 59871577 heartbeat IPC: 2.826 cumulative IPC: 2.827 (Simulation time: 00 hr 13 min 24 sec)
Heartbeat CPU 0 instructions: 191501069 cycles: 60048427 heartbeat IPC: 2.827 cumulative IPC: 2.827 (Simulation time: 00 hr 13 min 27 sec)
Heartbeat CPU 0 instructions: 192001069 cycles: 60225193 heartbeat IPC: 2.829 cumulative IPC: 2.827 (Simulation time: 00 hr 13 min 29 sec)
Heartbeat CPU 0 instructions: 192501073 cycles: 60401863 heartbeat IPC: 2.83 cumulative IPC: 2.828 (Simulation time: 00 hr 13 min 32 sec)
Heartbeat CPU 0 instructions: 193001075 cycles: 60578654 heartbeat IPC: 2.828 cumulative IPC: 2.828 (Simulation time: 00 hr 13 min 34 sec)
Heartbeat CPU 0 instructions: 193501078 cycles: 60755594 heartbeat IPC: 2.826 cumulative IPC: 2.827 (Simulation time: 00 hr 13 min 37 sec)
Heartbeat CPU 0 instructions: 194001080 cycles: 60932298 heartbeat IPC: 2.83 cumulative IPC: 2.828 (Simulation time: 00 hr 13 min 39 sec)
Heartbeat CPU 0 instructions: 194501082 cycles: 61109055 heartbeat IPC: 2.829 cumulative IPC: 2.828 (Simulation time: 00 hr 13 min 42 sec)
Heartbeat CPU 0 instructions: 195001084 cycles: 61285822 heartbeat IPC: 2.829 cumulative IPC: 2.828 (Simulation time: 00 hr 13 min 44 sec)
Heartbeat CPU 0 instructions: 195501085 cycles: 61462564 heartbeat IPC: 2.829 cumulative IPC: 2.828 (Simulation time: 00 hr 13 min 47 sec)
Heartbeat CPU 0 instructions: 196001085 cycles: 61639518 heartbeat IPC: 2.826 cumulative IPC: 2.828 (Simulation time: 00 hr 13 min 49 sec)
Heartbeat CPU 0 instructions: 196501090 cycles: 61816034 heartbeat IPC: 2.833 cumulative IPC: 2.828 (Simulation time: 00 hr 13 min 52 sec)
Heartbeat CPU 0 instructions: 197001092 cycles: 61992816 heartbeat IPC: 2.828 cumulative IPC: 2.828 (Simulation time: 00 hr 13 min 54 sec)
Heartbeat CPU 0 instructions: 197501094 cycles: 62170183 heartbeat IPC: 2.819 cumulative IPC: 2.828 (Simulation time: 00 hr 13 min 57 sec)
Heartbeat CPU 0 instructions: 198001098 cycles: 62346789 heartbeat IPC: 2.831 cumulative IPC: 2.828 (Simulation time: 00 hr 13 min 59 sec)
Heartbeat CPU 0 instructions: 198501103 cycles: 62523390 heartbeat IPC: 2.831 cumulative IPC: 2.828 (Simulation time: 00 hr 14 min 02 sec)
Heartbeat CPU 0 instructions: 199001104 cycles: 62700345 heartbeat IPC: 2.826 cumulative IPC: 2.828 (Simulation time: 00 hr 14 min 04 sec)
Heartbeat CPU 0 instructions: 199501106 cycles: 62877173 heartbeat IPC: 2.828 cumulative IPC: 2.828 (Simulation time: 00 hr 14 min 07 sec)
Heartbeat CPU 0 instructions: 200001113 cycles: 63053828 heartbeat IPC: 2.83 cumulative IPC: 2.828 (Simulation time: 00 hr 14 min 09 sec)
Heartbeat CPU 0 instructions: 200501114 cycles: 63230870 heartbeat IPC: 2.824 cumulative IPC: 2.828 (Simulation time: 00 hr 14 min 12 sec)
Heartbeat CPU 0 instructions: 201001116 cycles: 63407628 heartbeat IPC: 2.829 cumulative IPC: 2.828 (Simulation time: 00 hr 14 min 14 sec)
Heartbeat CPU 0 instructions: 201501121 cycles: 63584358 heartbeat IPC: 2.829 cumulative IPC: 2.828 (Simulation time: 00 hr 14 min 17 sec)
Heartbeat CPU 0 instructions: 202001121 cycles: 63760976 heartbeat IPC: 2.831 cumulative IPC: 2.828 (Simulation time: 00 hr 14 min 19 sec)
Heartbeat CPU 0 instructions: 202501121 cycles: 63938145 heartbeat IPC: 2.822 cumulative IPC: 2.828 (Simulation time: 00 hr 14 min 22 sec)
Heartbeat CPU 0 instructions: 203001126 cycles: 64114937 heartbeat IPC: 2.828 cumulative IPC: 2.828 (Simulation time: 00 hr 14 min 24 sec)
Heartbeat CPU 0 instructions: 203501126 cycles: 64291840 heartbeat IPC: 2.826 cumulative IPC: 2.828 (Simulation time: 00 hr 14 min 27 sec)
Heartbeat CPU 0 instructions: 204001127 cycles: 64468495 heartbeat IPC: 2.83 cumulative IPC: 2.828 (Simulation time: 00 hr 14 min 29 sec)
Heartbeat CPU 0 instructions: 204501129 cycles: 64645184 heartbeat IPC: 2.83 cumulative IPC: 2.828 (Simulation time: 00 hr 14 min 32 sec)
Heartbeat CPU 0 instructions: 205001130 cycles: 64822263 heartbeat IPC: 2.824 cumulative IPC: 2.828 (Simulation time: 00 hr 14 min 34 sec)
Heartbeat CPU 0 instructions: 205501132 cycles: 64999169 heartbeat IPC: 2.826 cumulative IPC: 2.828 (Simulation time: 00 hr 14 min 37 sec)
Heartbeat CPU 0 instructions: 206001137 cycles: 65175813 heartbeat IPC: 2.831 cumulative IPC: 2.828 (Simulation time: 00 hr 14 min 39 sec)
Heartbeat CPU 0 instructions: 206501139 cycles: 65352201 heartbeat IPC: 2.835 cumulative IPC: 2.828 (Simulation time: 00 hr 14 min 42 sec)
Heartbeat CPU 0 instructions: 207001139 cycles: 65528864 heartbeat IPC: 2.83 cumulative IPC: 2.828 (Simulation time: 00 hr 14 min 44 sec)
Heartbeat CPU 0 instructions: 207501139 cycles: 65705368 heartbeat IPC: 2.833 cumulative IPC: 2.828 (Simulation time: 00 hr 14 min 47 sec)
Heartbeat CPU 0 instructions: 208001139 cycles: 65881952 heartbeat IPC: 2.832 cumulative IPC: 2.828 (Simulation time: 00 hr 14 min 49 sec)
Heartbeat CPU 0 instructions: 208501140 cycles: 66058889 heartbeat IPC: 2.826 cumulative IPC: 2.828 (Simulation time: 00 hr 14 min 52 sec)
Heartbeat CPU 0 instructions: 209001141 cycles: 66235804 heartbeat IPC: 2.826 cumulative IPC: 2.828 (Simulation time: 00 hr 14 min 54 sec)
Heartbeat CPU 0 instructions: 209501142 cycles: 66412561 heartbeat IPC: 2.829 cumulative IPC: 2.828 (Simulation time: 00 hr 14 min 57 sec)
Heartbeat CPU 0 instructions: 210001147 cycles: 66589231 heartbeat IPC: 2.83 cumulative IPC: 2.828 (Simulation time: 00 hr 14 min 59 sec)
Heartbeat CPU 0 instructions: 210501147 cycles: 66766123 heartbeat IPC: 2.827 cumulative IPC: 2.828 (Simulation time: 00 hr 15 min 02 sec)
Heartbeat CPU 0 instructions: 211001147 cycles: 66942751 heartbeat IPC: 2.831 cumulative IPC: 2.828 (Simulation time: 00 hr 15 min 04 sec)
Heartbeat CPU 0 instructions: 211501147 cycles: 67119520 heartbeat IPC: 2.829 cumulative IPC: 2.828 (Simulation time: 00 hr 15 min 07 sec)
Heartbeat CPU 0 instructions: 212001148 cycles: 67296129 heartbeat IPC: 2.831 cumulative IPC: 2.828 (Simulation time: 00 hr 15 min 09 sec)
Heartbeat CPU 0 instructions: 212501154 cycles: 67473081 heartbeat IPC: 2.826 cumulative IPC: 2.828 (Simulation time: 00 hr 15 min 12 sec)
Heartbeat CPU 0 instructions: 213001157 cycles: 67649914 heartbeat IPC: 2.828 cumulative IPC: 2.828 (Simulation time: 00 hr 15 min 14 sec)
Heartbeat CPU 0 instructions: 213501157 cycles: 67826574 heartbeat IPC: 2.83 cumulative IPC: 2.828 (Simulation time: 00 hr 15 min 17 sec)
Heartbeat CPU 0 instructions: 214001158 cycles: 68003307 heartbeat IPC: 2.829 cumulative IPC: 2.828 (Simulation time: 00 hr 15 min 19 sec)
Heartbeat CPU 0 instructions: 214501158 cycles: 68179882 heartbeat IPC: 2.832 cumulative IPC: 2.828 (Simulation time: 00 hr 15 min 22 sec)
Heartbeat CPU 0 instructions: 215001161 cycles: 68356537 heartbeat IPC: 2.83 cumulative IPC: 2.828 (Simulation time: 00 hr 15 min 24 sec)
Heartbeat CPU 0 instructions: 215501161 cycles: 68533396 heartbeat IPC: 2.827 cumulative IPC: 2.828 (Simulation time: 00 hr 15 min 27 sec)
Heartbeat CPU 0 instructions: 216001161 cycles: 68710337 heartbeat IPC: 2.826 cumulative IPC: 2.828 (Simulation time: 00 hr 15 min 29 sec)
Heartbeat CPU 0 instructions: 216501163 cycles: 68887000 heartbeat IPC: 2.83 cumulative IPC: 2.828 (Simulation time: 00 hr 15 min 32 sec)
Heartbeat CPU 0 instructions: 217001164 cycles: 69063815 heartbeat IPC: 2.828 cumulative IPC: 2.828 (Simulation time: 00 hr 15 min 34 sec)
Heartbeat CPU 0 instructions: 217501166 cycles: 69326138 heartbeat IPC: 1.906 cumulative IPC: 2.824 (Simulation time: 00 hr 15 min 38 sec)
Heartbeat CPU 0 instructions: 218001166 cycles: 69898373 heartbeat IPC: 0.8738 cumulative IPC: 2.805 (Simulation time: 00 hr 15 min 45 sec)
Heartbeat CPU 0 instructions: 218501166 cycles: 70672128 heartbeat IPC: 0.6462 cumulative IPC: 2.777 (Simulation time: 00 hr 15 min 56 sec)
Heartbeat CPU 0 instructions: 219001166 cycles: 71425045 heartbeat IPC: 0.6641 cumulative IPC: 2.752 (Simulation time: 00 hr 16 min 06 sec)
Heartbeat CPU 0 instructions: 219501166 cycles: 72195663 heartbeat IPC: 0.6488 cumulative IPC: 2.725 (Simulation time: 00 hr 16 min 16 sec)
Heartbeat CPU 0 instructions: 220001166 cycles: 72957461 heartbeat IPC: 0.6563 cumulative IPC: 2.7 (Simulation time: 00 hr 16 min 27 sec)
Heartbeat CPU 0 instructions: 220501166 cycles: 73736018 heartbeat IPC: 0.6422 cumulative IPC: 2.675 (Simulation time: 00 hr 16 min 37 sec)
Heartbeat CPU 0 instructions: 221001166 cycles: 74544580 heartbeat IPC: 0.6184 cumulative IPC: 2.649 (Simulation time: 00 hr 16 min 48 sec)
Heartbeat CPU 0 instructions: 221501166 cycles: 75323650 heartbeat IPC: 0.6418 cumulative IPC: 2.626 (Simulation time: 00 hr 16 min 59 sec)
Heartbeat CPU 0 instructions: 222001166 cycles: 76102219 heartbeat IPC: 0.6422 cumulative IPC: 2.602 (Simulation time: 00 hr 17 min 10 sec)
Heartbeat CPU 0 instructions: 222501166 cycles: 76886784 heartbeat IPC: 0.6373 cumulative IPC: 2.579 (Simulation time: 00 hr 17 min 20 sec)
Heartbeat CPU 0 instructions: 223001166 cycles: 77677919 heartbeat IPC: 0.632 cumulative IPC: 2.556 (Simulation time: 00 hr 17 min 31 sec)
Heartbeat CPU 0 instructions: 223501166 cycles: 78459616 heartbeat IPC: 0.6396 cumulative IPC: 2.534 (Simulation time: 00 hr 17 min 41 sec)
Heartbeat CPU 0 instructions: 224001166 cycles: 79243422 heartbeat IPC: 0.6379 cumulative IPC: 2.513 (Simulation time: 00 hr 17 min 52 sec)
Heartbeat CPU 0 instructions: 224501166 cycles: 80029040 heartbeat IPC: 0.6364 cumulative IPC: 2.492 (Simulation time: 00 hr 18 min 03 sec)
Heartbeat CPU 0 instructions: 225001166 cycles: 80796440 heartbeat IPC: 0.6516 cumulative IPC: 2.472 (Simulation time: 00 hr 18 min 13 sec)
Heartbeat CPU 0 instructions: 225501166 cycles: 81583916 heartbeat IPC: 0.6349 cumulative IPC: 2.452 (Simulation time: 00 hr 18 min 24 sec)
Heartbeat CPU 0 instructions: 226001166 cycles: 82355701 heartbeat IPC: 0.6478 cumulative IPC: 2.433 (Simulation time: 00 hr 18 min 34 sec)
Heartbeat CPU 0 instructions: 226501166 cycles: 83143274 heartbeat IPC: 0.6349 cumulative IPC: 2.413 (Simulation time: 00 hr 18 min 45 sec)
Heartbeat CPU 0 instructions: 227001166 cycles: 83926372 heartbeat IPC: 0.6385 cumulative IPC: 2.394 (Simulation time: 00 hr 18 min 55 sec)
Heartbeat CPU 0 instructions: 227501166 cycles: 84715273 heartbeat IPC: 0.6338 cumulative IPC: 2.376 (Simulation time: 00 hr 19 min 06 sec)
Heartbeat CPU 0 instructions: 228001166 cycles: 85491705 heartbeat IPC: 0.644 cumulative IPC: 2.358 (Simulation time: 00 hr 19 min 16 sec)
Heartbeat CPU 0 instructions: 228501166 cycles: 86271334 heartbeat IPC: 0.6413 cumulative IPC: 2.34 (Simulation time: 00 hr 19 min 27 sec)
Heartbeat CPU 0 instructions: 229001166 cycles: 87060237 heartbeat IPC: 0.6338 cumulative IPC: 2.323 (Simulation time: 00 hr 19 min 38 sec)
Heartbeat CPU 0 instructions: 229501166 cycles: 87848492 heartbeat IPC: 0.6343 cumulative IPC: 2.306 (Simulation time: 00 hr 19 min 49 sec)
Heartbeat CPU 0 instructions: 230001166 cycles: 88631828 heartbeat IPC: 0.6383 cumulative IPC: 2.289 (Simulation time: 00 hr 19 min 59 sec)
Heartbeat CPU 0 instructions: 230501166 cycles: 89416318 heartbeat IPC: 0.6374 cumulative IPC: 2.273 (Simulation time: 00 hr 20 min 10 sec)
Heartbeat CPU 0 instructions: 231001166 cycles: 90197522 heartbeat IPC: 0.64 cumulative IPC: 2.257 (Simulation time: 00 hr 20 min 21 sec)
Heartbeat CPU 0 instructions: 231501166 cycles: 90967682 heartbeat IPC: 0.6492 cumulative IPC: 2.242 (Simulation time: 00 hr 20 min 31 sec)
Heartbeat CPU 0 instructions: 232001166 cycles: 91765301 heartbeat IPC: 0.6269 cumulative IPC: 2.226 (Simulation time: 00 hr 20 min 42 sec)
Heartbeat CPU 0 instructions: 232501166 cycles: 92537331 heartbeat IPC: 0.6476 cumulative IPC: 2.211 (Simulation time: 00 hr 20 min 53 sec)
Heartbeat CPU 0 instructions: 233001166 cycles: 93320080 heartbeat IPC: 0.6388 cumulative IPC: 2.196 (Simulation time: 00 hr 21 min 03 sec)
Heartbeat CPU 0 instructions: 233501166 cycles: 94105754 heartbeat IPC: 0.6364 cumulative IPC: 2.182 (Simulation time: 00 hr 21 min 14 sec)
Heartbeat CPU 0 instructions: 234001166 cycles: 94883801 heartbeat IPC: 0.6426 cumulative IPC: 2.168 (Simulation time: 00 hr 21 min 24 sec)
Heartbeat CPU 0 instructions: 234501166 cycles: 95659381 heartbeat IPC: 0.6447 cumulative IPC: 2.154 (Simulation time: 00 hr 21 min 35 sec)
Heartbeat CPU 0 instructions: 235001166 cycles: 96431833 heartbeat IPC: 0.6473 cumulative IPC: 2.141 (Simulation time: 00 hr 21 min 46 sec)
Heartbeat CPU 0 instructions: 235501166 cycles: 97213562 heartbeat IPC: 0.6396 cumulative IPC: 2.127 (Simulation time: 00 hr 21 min 56 sec)
Heartbeat CPU 0 instructions: 236001166 cycles: 98001614 heartbeat IPC: 0.6345 cumulative IPC: 2.114 (Simulation time: 00 hr 22 min 07 sec)
Heartbeat CPU 0 instructions: 236501166 cycles: 98774254 heartbeat IPC: 0.6471 cumulative IPC: 2.101 (Simulation time: 00 hr 22 min 17 sec)
Heartbeat CPU 0 instructions: 237001166 cycles: 99567075 heartbeat IPC: 0.6307 cumulative IPC: 2.088 (Simulation time: 00 hr 22 min 28 sec)
Heartbeat CPU 0 instructions: 237501166 cycles: 100342771 heartbeat IPC: 0.6446 cumulative IPC: 2.076 (Simulation time: 00 hr 22 min 39 sec)
Heartbeat CPU 0 instructions: 238001166 cycles: 101112836 heartbeat IPC: 0.6493 cumulative IPC: 2.063 (Simulation time: 00 hr 22 min 49 sec)
Heartbeat CPU 0 instructions: 238501166 cycles: 101793795 heartbeat IPC: 0.7343 cumulative IPC: 2.054 (Simulation time: 00 hr 22 min 58 sec)
Heartbeat CPU 0 instructions: 239001166 cycles: 101986330 heartbeat IPC: 2.597 cumulative IPC: 2.055 (Simulation time: 00 hr 23 min 01 sec)
Heartbeat CPU 0 instructions: 239501167 cycles: 102168394 heartbeat IPC: 2.746 cumulative IPC: 2.056 (Simulation time: 00 hr 23 min 04 sec)
Heartbeat CPU 0 instructions: 240001167 cycles: 102346522 heartbeat IPC: 2.807 cumulative IPC: 2.058 (Simulation time: 00 hr 23 min 06 sec)
Heartbeat CPU 0 instructions: 240501173 cycles: 102523772 heartbeat IPC: 2.821 cumulative IPC: 2.059 (Simulation time: 00 hr 23 min 09 sec)
Heartbeat CPU 0 instructions: 241001178 cycles: 102701102 heartbeat IPC: 2.82 cumulative IPC: 2.06 (Simulation time: 00 hr 23 min 11 sec)
Heartbeat CPU 0 instructions: 241501178 cycles: 102878549 heartbeat IPC: 2.818 cumulative IPC: 2.062 (Simulation time: 00 hr 23 min 14 sec)
Heartbeat CPU 0 instructions: 242001178 cycles: 103055756 heartbeat IPC: 2.822 cumulative IPC: 2.063 (Simulation time: 00 hr 23 min 16 sec)
Heartbeat CPU 0 instructions: 242501179 cycles: 103233394 heartbeat IPC: 2.815 cumulative IPC: 2.065 (Simulation time: 00 hr 23 min 19 sec)
Heartbeat CPU 0 instructions: 243001186 cycles: 103410462 heartbeat IPC: 2.824 cumulative IPC: 2.066 (Simulation time: 00 hr 23 min 21 sec)
Heartbeat CPU 0 instructions: 243501186 cycles: 103588063 heartbeat IPC: 2.815 cumulative IPC: 2.068 (Simulation time: 00 hr 23 min 24 sec)
Heartbeat CPU 0 instructions: 244001186 cycles: 103765224 heartbeat IPC: 2.822 cumulative IPC: 2.069 (Simulation time: 00 hr 23 min 27 sec)
Heartbeat CPU 0 instructions: 244501192 cycles: 103942516 heartbeat IPC: 2.82 cumulative IPC: 2.071 (Simulation time: 00 hr 23 min 29 sec)
Heartbeat CPU 0 instructions: 245001192 cycles: 104120220 heartbeat IPC: 2.814 cumulative IPC: 2.072 (Simulation time: 00 hr 23 min 32 sec)
Heartbeat CPU 0 instructions: 245501192 cycles: 104297755 heartbeat IPC: 2.816 cumulative IPC: 2.073 (Simulation time: 00 hr 23 min 34 sec)
Heartbeat CPU 0 instructions: 246001196 cycles: 104475339 heartbeat IPC: 2.816 cumulative IPC: 2.075 (Simulation time: 00 hr 23 min 37 sec)
Heartbeat CPU 0 instructions: 246501196 cycles: 104653163 heartbeat IPC: 2.812 cumulative IPC: 2.076 (Simulation time: 00 hr 23 min 39 sec)
Heartbeat CPU 0 instructions: 247001198 cycles: 104830450 heartbeat IPC: 2.82 cumulative IPC: 2.077 (Simulation time: 00 hr 23 min 42 sec)
Heartbeat CPU 0 instructions: 247501205 cycles: 105007411 heartbeat IPC: 2.826 cumulative IPC: 2.079 (Simulation time: 00 hr 23 min 44 sec)
Heartbeat CPU 0 instructions: 248001207 cycles: 105185208 heartbeat IPC: 2.812 cumulative IPC: 2.08 (Simulation time: 00 hr 23 min 47 sec)
Heartbeat CPU 0 instructions: 248501207 cycles: 105362690 heartbeat IPC: 2.817 cumulative IPC: 2.082 (Simulation time: 00 hr 23 min 49 sec)
Heartbeat CPU 0 instructions: 249001207 cycles: 105540733 heartbeat IPC: 2.808 cumulative IPC: 2.083 (Simulation time: 00 hr 23 min 52 sec)
Heartbeat CPU 0 instructions: 249501210 cycles: 105718380 heartbeat IPC: 2.815 cumulative IPC: 2.084 (Simulation time: 00 hr 23 min 54 sec)
Simulation finished CPU 0 instructions: 200000003 cycles: 95891703 cumulative IPC: 2.086 (Simulation time: 00 hr 23 min 57 sec)
Simulation complete CPU 0 instructions: 200000003 cycles: 95891703 cumulative IPC: 2.086 (Simulation time: 00 hr 23 min 57 sec)

ChampSim completed all CPUs

=== Simulation ===
CPU 0 runs /local-ssd/ben/dpc4-traces/Graph/GMS/gms.k_clique_count_set_based.soc-pokec-relationships.slice-4.champsimtrace.gz

Region of Interest Statistics

CPU 0 cumulative IPC: 2.086 instructions: 200000003 cycles: 95891703
CPU 0 Branch Prediction Accuracy: 99.3% MPKI: 1.499 Average ROB Occupancy at Mispredict: 303
Branch type MPKI
BRANCH_DIRECT_JUMP: 0.000125
BRANCH_INDIRECT: 0
BRANCH_CONDITIONAL: 1.498
BRANCH_DIRECT_CALL: 0.000135
BRANCH_INDIRECT_CALL: 5e-06
BRANCH_RETURN: 0.00014

cpu0->cpu0_STLB TOTAL        ACCESS:      16813 HIT:         81 MISS:      16732 MSHR_MERGE:          0
cpu0->cpu0_STLB LOAD         ACCESS:      16813 HIT:         81 MISS:      16732 MSHR_MERGE:          0
cpu0->cpu0_STLB RFO          ACCESS:          0 HIT:          0 MISS:          0 MSHR_MERGE:          0
cpu0->cpu0_STLB PREFETCH     ACCESS:          0 HIT:          0 MISS:          0 MSHR_MERGE:          0
cpu0->cpu0_STLB WRITE        ACCESS:          0 HIT:          0 MISS:          0 MSHR_MERGE:          0
cpu0->cpu0_STLB TRANSLATION  ACCESS:          0 HIT:          0 MISS:          0 MSHR_MERGE:          0
cpu0->cpu0_STLB PREFETCH REQUESTED:          0 ISSUED:          0 USEFUL:          0 USELESS:          0
cpu0->cpu0_STLB AVERAGE MISS LATENCY: 274.2 cycles
cpu0->cpu0_L2C TOTAL        ACCESS:    1612919 HIT:     543091 MISS:    1069828 MSHR_MERGE:          0
cpu0->cpu0_L2C LOAD         ACCESS:     196385 HIT:          0 MISS:     196385 MSHR_MERGE:          0
cpu0->cpu0_L2C RFO          ACCESS:     543016 HIT:         28 MISS:     542988 MSHR_MERGE:          0
cpu0->cpu0_L2C PREFETCH     ACCESS:     328308 HIT:         14 MISS:     328294 MSHR_MERGE:          0
cpu0->cpu0_L2C WRITE        ACCESS:     543043 HIT:     543043 MISS:          0 MSHR_MERGE:          0
cpu0->cpu0_L2C TRANSLATION  ACCESS:       2167 HIT:          6 MISS:       2161 MSHR_MERGE:          0
cpu0->cpu0_L2C PREFETCH REQUESTED:          0 ISSUED:          0 USEFUL:          0 USELESS:          0
cpu0->cpu0_L2C AVERAGE MISS LATENCY: 400.6 cycles
cpu0->cpu0_L1I TOTAL        ACCESS:   18855446 HIT:   18855307 MISS:        139 MSHR_MERGE:          3
cpu0->cpu0_L1I LOAD         ACCESS:   18855446 HIT:   18855307 MISS:        139 MSHR_MERGE:          3
cpu0->cpu0_L1I RFO          ACCESS:          0 HIT:          0 MISS:          0 MSHR_MERGE:          0
cpu0->cpu0_L1I PREFETCH     ACCESS:          0 HIT:          0 MISS:          0 MSHR_MERGE:          0
cpu0->cpu0_L1I WRITE        ACCESS:          0 HIT:          0 MISS:          0 MSHR_MERGE:          0
cpu0->cpu0_L1I TRANSLATION  ACCESS:          0 HIT:          0 MISS:          0 MSHR_MERGE:          0
cpu0->cpu0_L1I PREFETCH REQUESTED:          0 ISSUED:          0 USEFUL:          0 USELESS:          0
cpu0->cpu0_L1I AVERAGE MISS LATENCY: 237.8 cycles
cpu0->cpu0_L1D TOTAL        ACCESS:   55076556 HIT:   49072046 MISS:    6004510 MSHR_MERGE:    4934770
cpu0->cpu0_L1D LOAD         ACCESS:   24958872 HIT:   23904220 MISS:    1054652 MSHR_MERGE:     858403
cpu0->cpu0_L1D RFO          ACCESS:          0 HIT:          0 MISS:          0 MSHR_MERGE:          0
cpu0->cpu0_L1D PREFETCH     ACCESS:    1714063 HIT:     979832 MISS:     734231 MSHR_MERGE:     405923
cpu0->cpu0_L1D WRITE        ACCESS:   28370108 HIT:   24156648 MISS:    4213460 MSHR_MERGE:    3670444
cpu0->cpu0_L1D TRANSLATION  ACCESS:      33513 HIT:      31346 MISS:       2167 MSHR_MERGE:          0
cpu0->cpu0_L1D PREFETCH REQUESTED:    7365043 ISSUED:    1714055 USEFUL:     328278 USELESS:         30
cpu0->cpu0_L1D AVERAGE MISS LATENCY: 387.1 cycles
cpu0->cpu0_ITLB TOTAL        ACCESS:   14563200 HIT:   14563179 MISS:         21 MSHR_MERGE:          3
cpu0->cpu0_ITLB LOAD         ACCESS:   14563200 HIT:   14563179 MISS:         21 MSHR_MERGE:          3
cpu0->cpu0_ITLB RFO          ACCESS:          0 HIT:          0 MISS:          0 MSHR_MERGE:          0
cpu0->cpu0_ITLB PREFETCH     ACCESS:          0 HIT:          0 MISS:          0 MSHR_MERGE:          0
cpu0->cpu0_ITLB WRITE        ACCESS:          0 HIT:          0 MISS:          0 MSHR_MERGE:          0
cpu0->cpu0_ITLB TRANSLATION  ACCESS:          0 HIT:          0 MISS:          0 MSHR_MERGE:          0
cpu0->cpu0_ITLB PREFETCH REQUESTED:          0 ISSUED:          0 USEFUL:          0 USELESS:          0
cpu0->cpu0_ITLB AVERAGE MISS LATENCY: 360.8 cycles
cpu0->cpu0_DTLB TOTAL        ACCESS:   48694808 HIT:   48498713 MISS:     196095 MSHR_MERGE:     179300
cpu0->cpu0_DTLB LOAD         ACCESS:   48694808 HIT:   48498713 MISS:     196095 MSHR_MERGE:     179300
cpu0->cpu0_DTLB RFO          ACCESS:          0 HIT:          0 MISS:          0 MSHR_MERGE:          0
cpu0->cpu0_DTLB PREFETCH     ACCESS:          0 HIT:          0 MISS:          0 MSHR_MERGE:          0
cpu0->cpu0_DTLB WRITE        ACCESS:          0 HIT:          0 MISS:          0 MSHR_MERGE:          0
cpu0->cpu0_DTLB TRANSLATION  ACCESS:          0 HIT:          0 MISS:          0 MSHR_MERGE:          0
cpu0->cpu0_DTLB PREFETCH REQUESTED:          0 ISSUED:          0 USEFUL:          0 USELESS:          0
cpu0->cpu0_DTLB AVERAGE MISS LATENCY: 278.8 cycles
cpu0->LLC TOTAL        ACCESS:    1600856 HIT:     213111 MISS:    1387745 MSHR_MERGE:          0
cpu0->LLC LOAD         ACCESS:     196385 HIT:          0 MISS:     196385 MSHR_MERGE:          0
cpu0->LLC RFO          ACCESS:     542988 HIT:          0 MISS:     542988 MSHR_MERGE:          0
cpu0->LLC PREFETCH     ACCESS:     328294 HIT:          0 MISS:     328294 MSHR_MERGE:          0
cpu0->LLC WRITE        ACCESS:     531028 HIT:     213109 MISS:     317919 MSHR_MERGE:          0
cpu0->LLC TRANSLATION  ACCESS:       2161 HIT:          2 MISS:       2159 MSHR_MERGE:          0
cpu0->LLC PREFETCH REQUESTED:          0 ISSUED:          0 USEFUL:          0 USELESS:          0
cpu0->LLC AVERAGE MISS LATENCY: 269.4 cycles

DRAM Statistics

Channel 0 RQ ROW_BUFFER_HIT:      31421
  ROW_BUFFER_MISS:    1038405
  AVG DBUS CONGESTED CYCLE: 11.89
Channel 0 WQ ROW_BUFFER_HIT:      68058
  ROW_BUFFER_MISS:     442656
  FULL:      50180
Channel 0 REFRESHES ISSUED:       7991
