[VMEM] WARNING: physical memory size is smaller than virtual memory size.

*** ChampSim Multicore Out-of-Order Simulator ***
Warmup Instructions: 50000000
Simulation Instructions: 200000000
Number of CPUs: 1
Page size: 4096
Core 0: /local-ssd/ben/dpc4-traces/gtraces_v2/sierra.a.6_0001.champsim.gz
Off-chip DRAM Size: 64 GiB Channels: 1 Width: 64-bit Data Rate: 4807 MT/s
[BTB] WARNING: target of return is a lower address than the corresponding call. This is usually a problem with your trace.
[BTB] WARNING: target of return is a lower address than the corresponding call. This is usually a problem with your trace.
[BTB] WARNING: target of return is a lower address than the corresponding call. This is usually a problem with your trace.
[BTB] WARNING: target of return is a lower address than the corresponding call. This is usually a problem with your trace.
[BTB] WARNING: target of return is a lower address than the corresponding call. This is usually a problem with your trace.
[BTB] WARNING: target of return is a lower address than the corresponding call. This is usually a problem with your trace.
[BTB] WARNING: target of return is a lower address than the corresponding call. This is usually a problem with your trace.
[BTB] WARNING: target of return is a lower address than the corresponding call. This is usually a problem with your trace.
[BTB] WARNING: target of return is a lower address than the corresponding call. This is usually a problem with your trace.
[BTB] WARNING: target of return is a lower address than the corresponding call. This is usually a problem with your trace.
Heartbeat CPU 0 instructions: 500001 cycles: 264461 heartbeat IPC: 1.891 cumulative IPC: 1.891 (Simulation time: 00 hr 00 min 04 sec)
Heartbeat CPU 0 instructions: 1000006 cycles: 457999 heartbeat IPC: 2.583 cumulative IPC: 2.183 (Simulation time: 00 hr 00 min 06 sec)
Heartbeat CPU 0 instructions: 1500011 cycles: 618588 heartbeat IPC: 3.114 cumulative IPC: 2.425 (Simulation time: 00 hr 00 min 09 sec)
Heartbeat CPU 0 instructions: 2000013 cycles: 802788 heartbeat IPC: 2.714 cumulative IPC: 2.491 (Simulation time: 00 hr 00 min 11 sec)
Heartbeat CPU 0 instructions: 2500019 cycles: 964185 heartbeat IPC: 3.098 cumulative IPC: 2.593 (Simulation time: 00 hr 00 min 14 sec)
Heartbeat CPU 0 instructions: 3000022 cycles: 1113437 heartbeat IPC: 3.35 cumulative IPC: 2.694 (Simulation time: 00 hr 00 min 17 sec)
Heartbeat CPU 0 instructions: 3500027 cycles: 1262410 heartbeat IPC: 3.356 cumulative IPC: 2.772 (Simulation time: 00 hr 00 min 19 sec)
Heartbeat CPU 0 instructions: 4000028 cycles: 1389185 heartbeat IPC: 3.944 cumulative IPC: 2.879 (Simulation time: 00 hr 00 min 21 sec)
Heartbeat CPU 0 instructions: 4500029 cycles: 1533360 heartbeat IPC: 3.468 cumulative IPC: 2.935 (Simulation time: 00 hr 00 min 23 sec)
Heartbeat CPU 0 instructions: 5000032 cycles: 1669779 heartbeat IPC: 3.665 cumulative IPC: 2.994 (Simulation time: 00 hr 00 min 25 sec)
Heartbeat CPU 0 instructions: 5500038 cycles: 1801135 heartbeat IPC: 3.806 cumulative IPC: 3.054 (Simulation time: 00 hr 00 min 28 sec)
Heartbeat CPU 0 instructions: 6000041 cycles: 1928866 heartbeat IPC: 3.915 cumulative IPC: 3.111 (Simulation time: 00 hr 00 min 30 sec)
Heartbeat CPU 0 instructions: 6500042 cycles: 2058751 heartbeat IPC: 3.85 cumulative IPC: 3.157 (Simulation time: 00 hr 00 min 32 sec)
Heartbeat CPU 0 instructions: 7000043 cycles: 2227569 heartbeat IPC: 2.962 cumulative IPC: 3.142 (Simulation time: 00 hr 00 min 35 sec)
Heartbeat CPU 0 instructions: 7500048 cycles: 2376755 heartbeat IPC: 3.352 cumulative IPC: 3.156 (Simulation time: 00 hr 00 min 37 sec)
Heartbeat CPU 0 instructions: 8000048 cycles: 2513212 heartbeat IPC: 3.664 cumulative IPC: 3.183 (Simulation time: 00 hr 00 min 40 sec)
Heartbeat CPU 0 instructions: 8500050 cycles: 2646833 heartbeat IPC: 3.742 cumulative IPC: 3.211 (Simulation time: 00 hr 00 min 42 sec)
Heartbeat CPU 0 instructions: 9000054 cycles: 2787971 heartbeat IPC: 3.543 cumulative IPC: 3.228 (Simulation time: 00 hr 00 min 44 sec)
Heartbeat CPU 0 instructions: 9500054 cycles: 2925864 heartbeat IPC: 3.626 cumulative IPC: 3.247 (Simulation time: 00 hr 00 min 46 sec)
Heartbeat CPU 0 instructions: 10000058 cycles: 3052849 heartbeat IPC: 3.938 cumulative IPC: 3.276 (Simulation time: 00 hr 00 min 49 sec)
Heartbeat CPU 0 instructions: 10500064 cycles: 3174491 heartbeat IPC: 4.11 cumulative IPC: 3.308 (Simulation time: 00 hr 00 min 51 sec)
Heartbeat CPU 0 instructions: 11000064 cycles: 3301954 heartbeat IPC: 3.923 cumulative IPC: 3.331 (Simulation time: 00 hr 00 min 53 sec)
Heartbeat CPU 0 instructions: 11500067 cycles: 3420672 heartbeat IPC: 4.212 cumulative IPC: 3.362 (Simulation time: 00 hr 00 min 55 sec)
Heartbeat CPU 0 instructions: 12000074 cycles: 3546040 heartbeat IPC: 3.988 cumulative IPC: 3.384 (Simulation time: 00 hr 00 min 57 sec)
Heartbeat CPU 0 instructions: 12500075 cycles: 3666780 heartbeat IPC: 4.141 cumulative IPC: 3.409 (Simulation time: 00 hr 00 min 59 sec)
Heartbeat CPU 0 instructions: 13000080 cycles: 3788663 heartbeat IPC: 4.102 cumulative IPC: 3.431 (Simulation time: 00 hr 01 min 01 sec)
Heartbeat CPU 0 instructions: 13500083 cycles: 3913228 heartbeat IPC: 4.014 cumulative IPC: 3.45 (Simulation time: 00 hr 01 min 04 sec)
Heartbeat CPU 0 instructions: 14000088 cycles: 4034224 heartbeat IPC: 4.132 cumulative IPC: 3.47 (Simulation time: 00 hr 01 min 06 sec)
Heartbeat CPU 0 instructions: 14500091 cycles: 4158508 heartbeat IPC: 4.023 cumulative IPC: 3.487 (Simulation time: 00 hr 01 min 08 sec)
Heartbeat CPU 0 instructions: 15000097 cycles: 4320469 heartbeat IPC: 3.087 cumulative IPC: 3.472 (Simulation time: 00 hr 01 min 10 sec)
Heartbeat CPU 0 instructions: 15500103 cycles: 4439528 heartbeat IPC: 4.2 cumulative IPC: 3.491 (Simulation time: 00 hr 01 min 12 sec)
Heartbeat CPU 0 instructions: 16000108 cycles: 4634103 heartbeat IPC: 2.57 cumulative IPC: 3.453 (Simulation time: 00 hr 01 min 15 sec)
Heartbeat CPU 0 instructions: 16500115 cycles: 4753739 heartbeat IPC: 4.179 cumulative IPC: 3.471 (Simulation time: 00 hr 01 min 17 sec)
Heartbeat CPU 0 instructions: 17000122 cycles: 4888579 heartbeat IPC: 3.708 cumulative IPC: 3.478 (Simulation time: 00 hr 01 min 19 sec)
Heartbeat CPU 0 instructions: 17500129 cycles: 5101088 heartbeat IPC: 2.353 cumulative IPC: 3.431 (Simulation time: 00 hr 01 min 22 sec)
Heartbeat CPU 0 instructions: 18000133 cycles: 5296252 heartbeat IPC: 2.562 cumulative IPC: 3.399 (Simulation time: 00 hr 01 min 25 sec)
Heartbeat CPU 0 instructions: 18500135 cycles: 5495973 heartbeat IPC: 2.504 cumulative IPC: 3.366 (Simulation time: 00 hr 01 min 28 sec)
Heartbeat CPU 0 instructions: 19000136 cycles: 5650561 heartbeat IPC: 3.234 cumulative IPC: 3.363 (Simulation time: 00 hr 01 min 30 sec)
Heartbeat CPU 0 instructions: 19500136 cycles: 5804610 heartbeat IPC: 3.246 cumulative IPC: 3.359 (Simulation time: 00 hr 01 min 33 sec)
Heartbeat CPU 0 instructions: 20000140 cycles: 5963801 heartbeat IPC: 3.141 cumulative IPC: 3.354 (Simulation time: 00 hr 01 min 35 sec)
Heartbeat CPU 0 instructions: 20500141 cycles: 6112024 heartbeat IPC: 3.373 cumulative IPC: 3.354 (Simulation time: 00 hr 01 min 37 sec)
Heartbeat CPU 0 instructions: 21000146 cycles: 6246935 heartbeat IPC: 3.706 cumulative IPC: 3.362 (Simulation time: 00 hr 01 min 40 sec)
Heartbeat CPU 0 instructions: 21500146 cycles: 6384422 heartbeat IPC: 3.637 cumulative IPC: 3.368 (Simulation time: 00 hr 01 min 42 sec)
Heartbeat CPU 0 instructions: 22000146 cycles: 6519767 heartbeat IPC: 3.694 cumulative IPC: 3.374 (Simulation time: 00 hr 01 min 44 sec)
Heartbeat CPU 0 instructions: 22500151 cycles: 6675918 heartbeat IPC: 3.202 cumulative IPC: 3.37 (Simulation time: 00 hr 01 min 47 sec)
Heartbeat CPU 0 instructions: 23000157 cycles: 6830205 heartbeat IPC: 3.241 cumulative IPC: 3.367 (Simulation time: 00 hr 01 min 49 sec)
Heartbeat CPU 0 instructions: 23500159 cycles: 6985285 heartbeat IPC: 3.224 cumulative IPC: 3.364 (Simulation time: 00 hr 01 min 52 sec)
Heartbeat CPU 0 instructions: 24000160 cycles: 7125822 heartbeat IPC: 3.558 cumulative IPC: 3.368 (Simulation time: 00 hr 01 min 54 sec)
Heartbeat CPU 0 instructions: 24500163 cycles: 7264233 heartbeat IPC: 3.612 cumulative IPC: 3.373 (Simulation time: 00 hr 01 min 56 sec)
Heartbeat CPU 0 instructions: 25000170 cycles: 7418081 heartbeat IPC: 3.25 cumulative IPC: 3.37 (Simulation time: 00 hr 01 min 58 sec)
Heartbeat CPU 0 instructions: 25500170 cycles: 7578476 heartbeat IPC: 3.117 cumulative IPC: 3.365 (Simulation time: 00 hr 02 min 01 sec)
Heartbeat CPU 0 instructions: 26000173 cycles: 7713791 heartbeat IPC: 3.695 cumulative IPC: 3.371 (Simulation time: 00 hr 02 min 03 sec)
Heartbeat CPU 0 instructions: 26500177 cycles: 7837860 heartbeat IPC: 4.03 cumulative IPC: 3.381 (Simulation time: 00 hr 02 min 05 sec)
Heartbeat CPU 0 instructions: 27000182 cycles: 7986542 heartbeat IPC: 3.363 cumulative IPC: 3.381 (Simulation time: 00 hr 02 min 08 sec)
Heartbeat CPU 0 instructions: 27500186 cycles: 8132034 heartbeat IPC: 3.437 cumulative IPC: 3.382 (Simulation time: 00 hr 02 min 10 sec)
Heartbeat CPU 0 instructions: 28000189 cycles: 8282426 heartbeat IPC: 3.325 cumulative IPC: 3.381 (Simulation time: 00 hr 02 min 12 sec)
Heartbeat CPU 0 instructions: 28500194 cycles: 8424804 heartbeat IPC: 3.512 cumulative IPC: 3.383 (Simulation time: 00 hr 02 min 14 sec)
Heartbeat CPU 0 instructions: 29000196 cycles: 8556914 heartbeat IPC: 3.785 cumulative IPC: 3.389 (Simulation time: 00 hr 02 min 17 sec)
Heartbeat CPU 0 instructions: 29500198 cycles: 8701976 heartbeat IPC: 3.447 cumulative IPC: 3.39 (Simulation time: 00 hr 02 min 19 sec)
Heartbeat CPU 0 instructions: 30000205 cycles: 8845639 heartbeat IPC: 3.48 cumulative IPC: 3.392 (Simulation time: 00 hr 02 min 21 sec)
Heartbeat CPU 0 instructions: 30500211 cycles: 8974481 heartbeat IPC: 3.881 cumulative IPC: 3.399 (Simulation time: 00 hr 02 min 24 sec)
Heartbeat CPU 0 instructions: 31000211 cycles: 9108340 heartbeat IPC: 3.735 cumulative IPC: 3.403 (Simulation time: 00 hr 02 min 26 sec)
Heartbeat CPU 0 instructions: 31500212 cycles: 9245259 heartbeat IPC: 3.652 cumulative IPC: 3.407 (Simulation time: 00 hr 02 min 28 sec)
Heartbeat CPU 0 instructions: 32000214 cycles: 9372684 heartbeat IPC: 3.924 cumulative IPC: 3.414 (Simulation time: 00 hr 02 min 30 sec)
Heartbeat CPU 0 instructions: 32500218 cycles: 9502321 heartbeat IPC: 3.857 cumulative IPC: 3.42 (Simulation time: 00 hr 02 min 32 sec)
Heartbeat CPU 0 instructions: 33000225 cycles: 9628874 heartbeat IPC: 3.951 cumulative IPC: 3.427 (Simulation time: 00 hr 02 min 34 sec)
Heartbeat CPU 0 instructions: 33500226 cycles: 9751594 heartbeat IPC: 4.074 cumulative IPC: 3.435 (Simulation time: 00 hr 02 min 36 sec)
Heartbeat CPU 0 instructions: 34000227 cycles: 9887890 heartbeat IPC: 3.668 cumulative IPC: 3.439 (Simulation time: 00 hr 02 min 38 sec)
Heartbeat CPU 0 instructions: 34500229 cycles: 10008592 heartbeat IPC: 4.142 cumulative IPC: 3.447 (Simulation time: 00 hr 02 min 40 sec)
Heartbeat CPU 0 instructions: 35000231 cycles: 10134933 heartbeat IPC: 3.958 cumulative IPC: 3.453 (Simulation time: 00 hr 02 min 42 sec)
Heartbeat CPU 0 instructions: 35500231 cycles: 10260014 heartbeat IPC: 3.997 cumulative IPC: 3.46 (Simulation time: 00 hr 02 min 44 sec)
Heartbeat CPU 0 instructions: 36000233 cycles: 10395888 heartbeat IPC: 3.68 cumulative IPC: 3.463 (Simulation time: 00 hr 02 min 47 sec)
Heartbeat CPU 0 instructions: 36500239 cycles: 10523883 heartbeat IPC: 3.906 cumulative IPC: 3.468 (Simulation time: 00 hr 02 min 49 sec)
Heartbeat CPU 0 instructions: 37000240 cycles: 10654895 heartbeat IPC: 3.816 cumulative IPC: 3.473 (Simulation time: 00 hr 02 min 51 sec)
Heartbeat CPU 0 instructions: 37500241 cycles: 10781250 heartbeat IPC: 3.957 cumulative IPC: 3.478 (Simulation time: 00 hr 02 min 53 sec)
Heartbeat CPU 0 instructions: 38000245 cycles: 10905419 heartbeat IPC: 4.027 cumulative IPC: 3.485 (Simulation time: 00 hr 02 min 55 sec)
Heartbeat CPU 0 instructions: 38500252 cycles: 11034504 heartbeat IPC: 3.873 cumulative IPC: 3.489 (Simulation time: 00 hr 02 min 57 sec)
Heartbeat CPU 0 instructions: 39000258 cycles: 11161612 heartbeat IPC: 3.934 cumulative IPC: 3.494 (Simulation time: 00 hr 02 min 59 sec)
Heartbeat CPU 0 instructions: 39500264 cycles: 11291894 heartbeat IPC: 3.838 cumulative IPC: 3.498 (Simulation time: 00 hr 03 min 01 sec)
Heartbeat CPU 0 instructions: 40000269 cycles: 11399641 heartbeat IPC: 4.641 cumulative IPC: 3.509 (Simulation time: 00 hr 03 min 03 sec)
Heartbeat CPU 0 instructions: 40500276 cycles: 11508589 heartbeat IPC: 4.589 cumulative IPC: 3.519 (Simulation time: 00 hr 03 min 05 sec)
Heartbeat CPU 0 instructions: 41000276 cycles: 11618130 heartbeat IPC: 4.565 cumulative IPC: 3.529 (Simulation time: 00 hr 03 min 06 sec)
Heartbeat CPU 0 instructions: 41500278 cycles: 11724698 heartbeat IPC: 4.692 cumulative IPC: 3.54 (Simulation time: 00 hr 03 min 08 sec)
Heartbeat CPU 0 instructions: 42000279 cycles: 11832181 heartbeat IPC: 4.652 cumulative IPC: 3.55 (Simulation time: 00 hr 03 min 10 sec)
Heartbeat CPU 0 instructions: 42500279 cycles: 11939827 heartbeat IPC: 4.645 cumulative IPC: 3.56 (Simulation time: 00 hr 03 min 11 sec)
Heartbeat CPU 0 instructions: 43000283 cycles: 12053016 heartbeat IPC: 4.417 cumulative IPC: 3.568 (Simulation time: 00 hr 03 min 13 sec)
Heartbeat CPU 0 instructions: 43500289 cycles: 12187525 heartbeat IPC: 3.717 cumulative IPC: 3.569 (Simulation time: 00 hr 03 min 15 sec)
Heartbeat CPU 0 instructions: 44000295 cycles: 12332418 heartbeat IPC: 3.451 cumulative IPC: 3.568 (Simulation time: 00 hr 03 min 17 sec)
Heartbeat CPU 0 instructions: 44500302 cycles: 12480112 heartbeat IPC: 3.385 cumulative IPC: 3.566 (Simulation time: 00 hr 03 min 20 sec)
Heartbeat CPU 0 instructions: 45000307 cycles: 12618655 heartbeat IPC: 3.609 cumulative IPC: 3.566 (Simulation time: 00 hr 03 min 22 sec)
Heartbeat CPU 0 instructions: 45500313 cycles: 12768758 heartbeat IPC: 3.331 cumulative IPC: 3.563 (Simulation time: 00 hr 03 min 24 sec)
Heartbeat CPU 0 instructions: 46000317 cycles: 12898350 heartbeat IPC: 3.858 cumulative IPC: 3.566 (Simulation time: 00 hr 03 min 27 sec)
Heartbeat CPU 0 instructions: 46500322 cycles: 13024072 heartbeat IPC: 3.977 cumulative IPC: 3.57 (Simulation time: 00 hr 03 min 29 sec)
Heartbeat CPU 0 instructions: 47000322 cycles: 13161207 heartbeat IPC: 3.646 cumulative IPC: 3.571 (Simulation time: 00 hr 03 min 31 sec)
Heartbeat CPU 0 instructions: 47500329 cycles: 13267618 heartbeat IPC: 4.699 cumulative IPC: 3.58 (Simulation time: 00 hr 03 min 32 sec)
Heartbeat CPU 0 instructions: 48000330 cycles: 13374602 heartbeat IPC: 4.674 cumulative IPC: 3.589 (Simulation time: 00 hr 03 min 34 sec)
Heartbeat CPU 0 instructions: 48500333 cycles: 13484595 heartbeat IPC: 4.546 cumulative IPC: 3.597 (Simulation time: 00 hr 03 min 36 sec)
Heartbeat CPU 0 instructions: 49000337 cycles: 13601378 heartbeat IPC: 4.281 cumulative IPC: 3.603 (Simulation time: 00 hr 03 min 37 sec)
Heartbeat CPU 0 instructions: 49500342 cycles: 13734126 heartbeat IPC: 3.767 cumulative IPC: 3.604 (Simulation time: 00 hr 03 min 40 sec)
Warmup halting CPU 0 at instruction 50000007 cycle 13874327 for remainder of phase
Warmup finished CPU 0 instructions: 50000007 cycles: 13874327 cumulative IPC: 3.604 (Simulation time: 00 hr 03 min 42 sec)
Warmup complete CPU 0 instructions: 50000007 cycles: 13874327 cumulative IPC: 3.604 (Simulation time: 00 hr 03 min 42 sec)
Heartbeat CPU 0 instructions: 50000348 cycles: 13874395 heartbeat IPC: 3.565 cumulative IPC: 5.015 (Simulation time: 00 hr 03 min 42 sec)
Heartbeat CPU 0 instructions: 50500349 cycles: 14873975 heartbeat IPC: 0.5002 cumulative IPC: 0.5005 (Simulation time: 00 hr 03 min 49 sec)
Heartbeat CPU 0 instructions: 51000349 cycles: 16337938 heartbeat IPC: 0.3415 cumulative IPC: 0.406 (Simulation time: 00 hr 03 min 58 sec)
Heartbeat CPU 0 instructions: 51500350 cycles: 17070222 heartbeat IPC: 0.6828 cumulative IPC: 0.4695 (Simulation time: 00 hr 04 min 03 sec)
Heartbeat CPU 0 instructions: 52000351 cycles: 17828139 heartbeat IPC: 0.6597 cumulative IPC: 0.5059 (Simulation time: 00 hr 04 min 08 sec)
Heartbeat CPU 0 instructions: 52500351 cycles: 18767253 heartbeat IPC: 0.5324 cumulative IPC: 0.511 (Simulation time: 00 hr 04 min 15 sec)
Heartbeat CPU 0 instructions: 53000351 cycles: 19670922 heartbeat IPC: 0.5533 cumulative IPC: 0.5176 (Simulation time: 00 hr 04 min 21 sec)
Heartbeat CPU 0 instructions: 53500351 cycles: 20036340 heartbeat IPC: 1.368 cumulative IPC: 0.5681 (Simulation time: 00 hr 04 min 24 sec)
Heartbeat CPU 0 instructions: 54000357 cycles: 20409494 heartbeat IPC: 1.34 cumulative IPC: 0.6121 (Simulation time: 00 hr 04 min 27 sec)
Heartbeat CPU 0 instructions: 54500360 cycles: 20713288 heartbeat IPC: 1.646 cumulative IPC: 0.658 (Simulation time: 00 hr 04 min 30 sec)
Heartbeat CPU 0 instructions: 55000360 cycles: 21076033 heartbeat IPC: 1.378 cumulative IPC: 0.6943 (Simulation time: 00 hr 04 min 33 sec)
Heartbeat CPU 0 instructions: 55500361 cycles: 21563463 heartbeat IPC: 1.026 cumulative IPC: 0.7153 (Simulation time: 00 hr 04 min 37 sec)
Heartbeat CPU 0 instructions: 56000363 cycles: 22950949 heartbeat IPC: 0.3604 cumulative IPC: 0.6611 (Simulation time: 00 hr 04 min 45 sec)
Heartbeat CPU 0 instructions: 56500364 cycles: 23998338 heartbeat IPC: 0.4774 cumulative IPC: 0.6421 (Simulation time: 00 hr 04 min 52 sec)
Heartbeat CPU 0 instructions: 57000366 cycles: 25071868 heartbeat IPC: 0.4658 cumulative IPC: 0.6252 (Simulation time: 00 hr 04 min 59 sec)
Heartbeat CPU 0 instructions: 57500368 cycles: 26831963 heartbeat IPC: 0.2841 cumulative IPC: 0.5788 (Simulation time: 00 hr 05 min 10 sec)
Heartbeat CPU 0 instructions: 58000368 cycles: 28144939 heartbeat IPC: 0.3808 cumulative IPC: 0.5606 (Simulation time: 00 hr 05 min 18 sec)
Heartbeat CPU 0 instructions: 58500370 cycles: 29421882 heartbeat IPC: 0.3916 cumulative IPC: 0.5467 (Simulation time: 00 hr 05 min 27 sec)
Heartbeat CPU 0 instructions: 59000377 cycles: 30281680 heartbeat IPC: 0.5815 cumulative IPC: 0.5486 (Simulation time: 00 hr 05 min 33 sec)
Heartbeat CPU 0 instructions: 59500377 cycles: 31606761 heartbeat IPC: 0.3773 cumulative IPC: 0.5358 (Simulation time: 00 hr 05 min 41 sec)
Heartbeat CPU 0 instructions: 60000377 cycles: 32720019 heartbeat IPC: 0.4491 cumulative IPC: 0.5306 (Simulation time: 00 hr 05 min 49 sec)
Heartbeat CPU 0 instructions: 60500377 cycles: 33781738 heartbeat IPC: 0.4709 cumulative IPC: 0.5275 (Simulation time: 00 hr 05 min 56 sec)
Heartbeat CPU 0 instructions: 61000379 cycles: 34840760 heartbeat IPC: 0.4721 cumulative IPC: 0.5247 (Simulation time: 00 hr 06 min 02 sec)
Heartbeat CPU 0 instructions: 61500383 cycles: 36463367 heartbeat IPC: 0.3081 cumulative IPC: 0.5091 (Simulation time: 00 hr 06 min 13 sec)
Heartbeat CPU 0 instructions: 62000385 cycles: 37900861 heartbeat IPC: 0.3478 cumulative IPC: 0.4995 (Simulation time: 00 hr 06 min 22 sec)
Heartbeat CPU 0 instructions: 62500385 cycles: 39072917 heartbeat IPC: 0.4266 cumulative IPC: 0.4961 (Simulation time: 00 hr 06 min 30 sec)
Heartbeat CPU 0 instructions: 63000388 cycles: 41059496 heartbeat IPC: 0.2517 cumulative IPC: 0.4782 (Simulation time: 00 hr 06 min 42 sec)
Heartbeat CPU 0 instructions: 63500394 cycles: 42085497 heartbeat IPC: 0.4873 cumulative IPC: 0.4785 (Simulation time: 00 hr 06 min 49 sec)
Heartbeat CPU 0 instructions: 64000394 cycles: 43432607 heartbeat IPC: 0.3712 cumulative IPC: 0.4737 (Simulation time: 00 hr 06 min 57 sec)
Heartbeat CPU 0 instructions: 64500397 cycles: 44420718 heartbeat IPC: 0.506 cumulative IPC: 0.4747 (Simulation time: 00 hr 07 min 04 sec)
Heartbeat CPU 0 instructions: 65000399 cycles: 45613963 heartbeat IPC: 0.419 cumulative IPC: 0.4726 (Simulation time: 00 hr 07 min 12 sec)
Heartbeat CPU 0 instructions: 65500402 cycles: 46595995 heartbeat IPC: 0.5092 cumulative IPC: 0.4737 (Simulation time: 00 hr 07 min 18 sec)
Heartbeat CPU 0 instructions: 66000402 cycles: 47669614 heartbeat IPC: 0.4657 cumulative IPC: 0.4735 (Simulation time: 00 hr 07 min 25 sec)
Heartbeat CPU 0 instructions: 66500405 cycles: 48727053 heartbeat IPC: 0.4728 cumulative IPC: 0.4734 (Simulation time: 00 hr 07 min 32 sec)
Heartbeat CPU 0 instructions: 67000405 cycles: 50086410 heartbeat IPC: 0.3678 cumulative IPC: 0.4695 (Simulation time: 00 hr 07 min 41 sec)
Heartbeat CPU 0 instructions: 67500405 cycles: 51360084 heartbeat IPC: 0.3926 cumulative IPC: 0.4669 (Simulation time: 00 hr 07 min 49 sec)
Heartbeat CPU 0 instructions: 68000405 cycles: 52285477 heartbeat IPC: 0.5403 cumulative IPC: 0.4686 (Simulation time: 00 hr 07 min 55 sec)
Heartbeat CPU 0 instructions: 68500408 cycles: 53549839 heartbeat IPC: 0.3955 cumulative IPC: 0.4663 (Simulation time: 00 hr 08 min 03 sec)
Heartbeat CPU 0 instructions: 69000409 cycles: 54370751 heartbeat IPC: 0.6091 cumulative IPC: 0.4692 (Simulation time: 00 hr 08 min 09 sec)
Heartbeat CPU 0 instructions: 69500409 cycles: 55299452 heartbeat IPC: 0.5384 cumulative IPC: 0.4707 (Simulation time: 00 hr 08 min 15 sec)
Heartbeat CPU 0 instructions: 70000410 cycles: 56978275 heartbeat IPC: 0.2978 cumulative IPC: 0.464 (Simulation time: 00 hr 08 min 26 sec)
Heartbeat CPU 0 instructions: 70500412 cycles: 59029879 heartbeat IPC: 0.2437 cumulative IPC: 0.454 (Simulation time: 00 hr 08 min 38 sec)
Heartbeat CPU 0 instructions: 71000414 cycles: 60212869 heartbeat IPC: 0.4227 cumulative IPC: 0.4532 (Simulation time: 00 hr 08 min 46 sec)
Heartbeat CPU 0 instructions: 71500417 cycles: 61033017 heartbeat IPC: 0.6096 cumulative IPC: 0.4559 (Simulation time: 00 hr 08 min 52 sec)
Heartbeat CPU 0 instructions: 72000417 cycles: 62381534 heartbeat IPC: 0.3708 cumulative IPC: 0.4535 (Simulation time: 00 hr 09 min 00 sec)
Heartbeat CPU 0 instructions: 72500417 cycles: 63719624 heartbeat IPC: 0.3737 cumulative IPC: 0.4514 (Simulation time: 00 hr 09 min 09 sec)
Heartbeat CPU 0 instructions: 73000417 cycles: 65743027 heartbeat IPC: 0.2471 cumulative IPC: 0.4434 (Simulation time: 00 hr 09 min 24 sec)
Heartbeat CPU 0 instructions: 73500420 cycles: 67558630 heartbeat IPC: 0.2754 cumulative IPC: 0.4378 (Simulation time: 00 hr 09 min 36 sec)
Heartbeat CPU 0 instructions: 74000420 cycles: 69361042 heartbeat IPC: 0.2774 cumulative IPC: 0.4325 (Simulation time: 00 hr 09 min 50 sec)
Heartbeat CPU 0 instructions: 74500421 cycles: 71109907 heartbeat IPC: 0.2859 cumulative IPC: 0.4281 (Simulation time: 00 hr 10 min 02 sec)
Heartbeat CPU 0 instructions: 75000422 cycles: 72851972 heartbeat IPC: 0.287 cumulative IPC: 0.4239 (Simulation time: 00 hr 10 min 15 sec)
Heartbeat CPU 0 instructions: 75500425 cycles: 74569535 heartbeat IPC: 0.2911 cumulative IPC: 0.4201 (Simulation time: 00 hr 10 min 27 sec)
Heartbeat CPU 0 instructions: 76000425 cycles: 76297114 heartbeat IPC: 0.2894 cumulative IPC: 0.4165 (Simulation time: 00 hr 10 min 39 sec)
Heartbeat CPU 0 instructions: 76500427 cycles: 78025165 heartbeat IPC: 0.2893 cumulative IPC: 0.4131 (Simulation time: 00 hr 10 min 52 sec)
Heartbeat CPU 0 instructions: 77000427 cycles: 79754909 heartbeat IPC: 0.2891 cumulative IPC: 0.4098 (Simulation time: 00 hr 11 min 04 sec)
Heartbeat CPU 0 instructions: 77500430 cycles: 81488638 heartbeat IPC: 0.2884 cumulative IPC: 0.4067 (Simulation time: 00 hr 11 min 17 sec)
Heartbeat CPU 0 instructions: 78000431 cycles: 83163384 heartbeat IPC: 0.2986 cumulative IPC: 0.4041 (Simulation time: 00 hr 11 min 29 sec)
Heartbeat CPU 0 instructions: 78500432 cycles: 84873021 heartbeat IPC: 0.2925 cumulative IPC: 0.4014 (Simulation time: 00 hr 11 min 41 sec)
Heartbeat CPU 0 instructions: 79000434 cycles: 86537203 heartbeat IPC: 0.3004 cumulative IPC: 0.3991 (Simulation time: 00 hr 11 min 53 sec)
Heartbeat CPU 0 instructions: 79500436 cycles: 88259532 heartbeat IPC: 0.2903 cumulative IPC: 0.3966 (Simulation time: 00 hr 12 min 06 sec)
Heartbeat CPU 0 instructions: 80000440 cycles: 89974007 heartbeat IPC: 0.2916 cumulative IPC: 0.3942 (Simulation time: 00 hr 12 min 18 sec)
Heartbeat CPU 0 instructions: 80500440 cycles: 91651094 heartbeat IPC: 0.2981 cumulative IPC: 0.3922 (Simulation time: 00 hr 12 min 30 sec)
Heartbeat CPU 0 instructions: 81000441 cycles: 94008338 heartbeat IPC: 0.2121 cumulative IPC: 0.3869 (Simulation time: 00 hr 12 min 45 sec)
Heartbeat CPU 0 instructions: 81500445 cycles: 95346436 heartbeat IPC: 0.3737 cumulative IPC: 0.3866 (Simulation time: 00 hr 12 min 55 sec)
Heartbeat CPU 0 instructions: 82000445 cycles: 96592332 heartbeat IPC: 0.4013 cumulative IPC: 0.3869 (Simulation time: 00 hr 13 min 04 sec)
Heartbeat CPU 0 instructions: 82500447 cycles: 97551251 heartbeat IPC: 0.5214 cumulative IPC: 0.3884 (Simulation time: 00 hr 13 min 12 sec)
Heartbeat CPU 0 instructions: 83000447 cycles: 98303883 heartbeat IPC: 0.6643 cumulative IPC: 0.3909 (Simulation time: 00 hr 13 min 18 sec)
Heartbeat CPU 0 instructions: 83500448 cycles: 99886810 heartbeat IPC: 0.3159 cumulative IPC: 0.3895 (Simulation time: 00 hr 13 min 29 sec)
Heartbeat CPU 0 instructions: 84000448 cycles: 101188734 heartbeat IPC: 0.384 cumulative IPC: 0.3894 (Simulation time: 00 hr 13 min 38 sec)
Heartbeat CPU 0 instructions: 84500450 cycles: 102508777 heartbeat IPC: 0.3788 cumulative IPC: 0.3892 (Simulation time: 00 hr 13 min 48 sec)
Heartbeat CPU 0 instructions: 85000451 cycles: 103758781 heartbeat IPC: 0.4 cumulative IPC: 0.3894 (Simulation time: 00 hr 13 min 57 sec)
Heartbeat CPU 0 instructions: 85500454 cycles: 104869261 heartbeat IPC: 0.4503 cumulative IPC: 0.3901 (Simulation time: 00 hr 14 min 05 sec)
Heartbeat CPU 0 instructions: 86000456 cycles: 106993410 heartbeat IPC: 0.2354 cumulative IPC: 0.3866 (Simulation time: 00 hr 14 min 20 sec)
Heartbeat CPU 0 instructions: 86500458 cycles: 107421260 heartbeat IPC: 1.169 cumulative IPC: 0.3902 (Simulation time: 00 hr 14 min 24 sec)
Heartbeat CPU 0 instructions: 87000460 cycles: 107733461 heartbeat IPC: 1.602 cumulative IPC: 0.3942 (Simulation time: 00 hr 14 min 27 sec)
Heartbeat CPU 0 instructions: 87500460 cycles: 108109360 heartbeat IPC: 1.33 cumulative IPC: 0.3979 (Simulation time: 00 hr 14 min 31 sec)
Heartbeat CPU 0 instructions: 88000460 cycles: 108409397 heartbeat IPC: 1.666 cumulative IPC: 0.402 (Simulation time: 00 hr 14 min 34 sec)
Heartbeat CPU 0 instructions: 88500460 cycles: 108794391 heartbeat IPC: 1.299 cumulative IPC: 0.4056 (Simulation time: 00 hr 14 min 37 sec)
Heartbeat CPU 0 instructions: 89000467 cycles: 111442804 heartbeat IPC: 0.1888 cumulative IPC: 0.3997 (Simulation time: 00 hr 14 min 56 sec)
Heartbeat CPU 0 instructions: 89500472 cycles: 113006769 heartbeat IPC: 0.3197 cumulative IPC: 0.3985 (Simulation time: 00 hr 15 min 06 sec)
Heartbeat CPU 0 instructions: 90000472 cycles: 114035093 heartbeat IPC: 0.4862 cumulative IPC: 0.3994 (Simulation time: 00 hr 15 min 14 sec)
Heartbeat CPU 0 instructions: 90500472 cycles: 115405899 heartbeat IPC: 0.3647 cumulative IPC: 0.3989 (Simulation time: 00 hr 15 min 24 sec)
Heartbeat CPU 0 instructions: 91000472 cycles: 116777639 heartbeat IPC: 0.3645 cumulative IPC: 0.3984 (Simulation time: 00 hr 15 min 34 sec)
Heartbeat CPU 0 instructions: 91500476 cycles: 118022790 heartbeat IPC: 0.4016 cumulative IPC: 0.3985 (Simulation time: 00 hr 15 min 43 sec)
Heartbeat CPU 0 instructions: 92000476 cycles: 118427602 heartbeat IPC: 1.235 cumulative IPC: 0.4017 (Simulation time: 00 hr 15 min 47 sec)
Heartbeat CPU 0 instructions: 92500476 cycles: 118970537 heartbeat IPC: 0.9209 cumulative IPC: 0.4044 (Simulation time: 00 hr 15 min 51 sec)
Heartbeat CPU 0 instructions: 93000479 cycles: 119329190 heartbeat IPC: 1.394 cumulative IPC: 0.4078 (Simulation time: 00 hr 15 min 55 sec)
Heartbeat CPU 0 instructions: 93500483 cycles: 119639306 heartbeat IPC: 1.612 cumulative IPC: 0.4113 (Simulation time: 00 hr 15 min 58 sec)
Heartbeat CPU 0 instructions: 94000484 cycles: 119949008 heartbeat IPC: 1.614 cumulative IPC: 0.4148 (Simulation time: 00 hr 16 min 01 sec)
Heartbeat CPU 0 instructions: 94500489 cycles: 120260344 heartbeat IPC: 1.606 cumulative IPC: 0.4183 (Simulation time: 00 hr 16 min 04 sec)
Heartbeat CPU 0 instructions: 95000489 cycles: 120580109 heartbeat IPC: 1.564 cumulative IPC: 0.4217 (Simulation time: 00 hr 16 min 08 sec)
Heartbeat CPU 0 instructions: 95500489 cycles: 120922604 heartbeat IPC: 1.46 cumulative IPC: 0.425 (Simulation time: 00 hr 16 min 11 sec)
Heartbeat CPU 0 instructions: 96000490 cycles: 121254085 heartbeat IPC: 1.508 cumulative IPC: 0.4284 (Simulation time: 00 hr 16 min 14 sec)
Heartbeat CPU 0 instructions: 96500491 cycles: 121603789 heartbeat IPC: 1.43 cumulative IPC: 0.4316 (Simulation time: 00 hr 16 min 18 sec)
Heartbeat CPU 0 instructions: 97000497 cycles: 121935547 heartbeat IPC: 1.507 cumulative IPC: 0.4349 (Simulation time: 00 hr 16 min 21 sec)
Heartbeat CPU 0 instructions: 97500498 cycles: 122286906 heartbeat IPC: 1.423 cumulative IPC: 0.4381 (Simulation time: 00 hr 16 min 25 sec)
Heartbeat CPU 0 instructions: 98000499 cycles: 122479524 heartbeat IPC: 2.596 cumulative IPC: 0.442 (Simulation time: 00 hr 16 min 27 sec)
Heartbeat CPU 0 instructions: 98500499 cycles: 124234986 heartbeat IPC: 0.2848 cumulative IPC: 0.4395 (Simulation time: 00 hr 16 min 39 sec)
Heartbeat CPU 0 instructions: 99000499 cycles: 125260099 heartbeat IPC: 0.4878 cumulative IPC: 0.4399 (Simulation time: 00 hr 16 min 47 sec)
Heartbeat CPU 0 instructions: 99500499 cycles: 126450907 heartbeat IPC: 0.4199 cumulative IPC: 0.4397 (Simulation time: 00 hr 16 min 56 sec)
Heartbeat CPU 0 instructions: 100000506 cycles: 127422401 heartbeat IPC: 0.5147 cumulative IPC: 0.4403 (Simulation time: 00 hr 17 min 03 sec)
Heartbeat CPU 0 instructions: 100500507 cycles: 128871811 heartbeat IPC: 0.345 cumulative IPC: 0.4391 (Simulation time: 00 hr 17 min 15 sec)
Heartbeat CPU 0 instructions: 101000509 cycles: 130876821 heartbeat IPC: 0.2494 cumulative IPC: 0.4359 (Simulation time: 00 hr 17 min 32 sec)
Heartbeat CPU 0 instructions: 101500515 cycles: 132709171 heartbeat IPC: 0.2729 cumulative IPC: 0.4334 (Simulation time: 00 hr 17 min 46 sec)
Heartbeat CPU 0 instructions: 102000515 cycles: 134432518 heartbeat IPC: 0.2901 cumulative IPC: 0.4313 (Simulation time: 00 hr 17 min 59 sec)
Heartbeat CPU 0 instructions: 102500518 cycles: 136274517 heartbeat IPC: 0.2714 cumulative IPC: 0.4289 (Simulation time: 00 hr 18 min 12 sec)
Heartbeat CPU 0 instructions: 103000522 cycles: 138015125 heartbeat IPC: 0.2873 cumulative IPC: 0.4269 (Simulation time: 00 hr 18 min 25 sec)
Heartbeat CPU 0 instructions: 103500525 cycles: 139721668 heartbeat IPC: 0.293 cumulative IPC: 0.4251 (Simulation time: 00 hr 18 min 38 sec)
Heartbeat CPU 0 instructions: 104000526 cycles: 141447201 heartbeat IPC: 0.2898 cumulative IPC: 0.4233 (Simulation time: 00 hr 18 min 50 sec)
Heartbeat CPU 0 instructions: 104500530 cycles: 143175374 heartbeat IPC: 0.2893 cumulative IPC: 0.4215 (Simulation time: 00 hr 19 min 03 sec)
Heartbeat CPU 0 instructions: 105000531 cycles: 144900724 heartbeat IPC: 0.2898 cumulative IPC: 0.4198 (Simulation time: 00 hr 19 min 15 sec)
Heartbeat CPU 0 instructions: 105500531 cycles: 146654348 heartbeat IPC: 0.2851 cumulative IPC: 0.418 (Simulation time: 00 hr 19 min 28 sec)
Heartbeat CPU 0 instructions: 106000535 cycles: 148404372 heartbeat IPC: 0.2857 cumulative IPC: 0.4163 (Simulation time: 00 hr 19 min 40 sec)
Heartbeat CPU 0 instructions: 106500537 cycles: 150111617 heartbeat IPC: 0.2929 cumulative IPC: 0.4147 (Simulation time: 00 hr 19 min 52 sec)
Heartbeat CPU 0 instructions: 107000537 cycles: 151836827 heartbeat IPC: 0.2898 cumulative IPC: 0.4132 (Simulation time: 00 hr 20 min 05 sec)
Heartbeat CPU 0 instructions: 107500537 cycles: 153507032 heartbeat IPC: 0.2994 cumulative IPC: 0.4118 (Simulation time: 00 hr 20 min 17 sec)
Heartbeat CPU 0 instructions: 108000537 cycles: 155214960 heartbeat IPC: 0.2928 cumulative IPC: 0.4104 (Simulation time: 00 hr 20 min 29 sec)
Heartbeat CPU 0 instructions: 108500537 cycles: 156978986 heartbeat IPC: 0.2834 cumulative IPC: 0.4088 (Simulation time: 00 hr 20 min 42 sec)
Heartbeat CPU 0 instructions: 109000540 cycles: 158637536 heartbeat IPC: 0.3015 cumulative IPC: 0.4076 (Simulation time: 00 hr 20 min 54 sec)
Heartbeat CPU 0 instructions: 109500543 cycles: 160350517 heartbeat IPC: 0.2919 cumulative IPC: 0.4062 (Simulation time: 00 hr 21 min 06 sec)
Heartbeat CPU 0 instructions: 110000546 cycles: 162078391 heartbeat IPC: 0.2894 cumulative IPC: 0.4049 (Simulation time: 00 hr 21 min 19 sec)
Heartbeat CPU 0 instructions: 110500547 cycles: 163764275 heartbeat IPC: 0.2966 cumulative IPC: 0.4036 (Simulation time: 00 hr 21 min 31 sec)
Heartbeat CPU 0 instructions: 111000547 cycles: 165468399 heartbeat IPC: 0.2934 cumulative IPC: 0.4024 (Simulation time: 00 hr 21 min 43 sec)
Heartbeat CPU 0 instructions: 111500550 cycles: 167086654 heartbeat IPC: 0.309 cumulative IPC: 0.4014 (Simulation time: 00 hr 21 min 55 sec)
Heartbeat CPU 0 instructions: 112000550 cycles: 169730120 heartbeat IPC: 0.1891 cumulative IPC: 0.3978 (Simulation time: 00 hr 22 min 12 sec)
Heartbeat CPU 0 instructions: 112500550 cycles: 171585653 heartbeat IPC: 0.2695 cumulative IPC: 0.3963 (Simulation time: 00 hr 22 min 25 sec)
Heartbeat CPU 0 instructions: 113000550 cycles: 172722750 heartbeat IPC: 0.4397 cumulative IPC: 0.3966 (Simulation time: 00 hr 22 min 33 sec)
Heartbeat CPU 0 instructions: 113500550 cycles: 174752954 heartbeat IPC: 0.2463 cumulative IPC: 0.3947 (Simulation time: 00 hr 22 min 47 sec)
Heartbeat CPU 0 instructions: 114000554 cycles: 176078067 heartbeat IPC: 0.3773 cumulative IPC: 0.3946 (Simulation time: 00 hr 22 min 56 sec)
Heartbeat CPU 0 instructions: 114500554 cycles: 177274471 heartbeat IPC: 0.4179 cumulative IPC: 0.3947 (Simulation time: 00 hr 23 min 05 sec)
Heartbeat CPU 0 instructions: 115000554 cycles: 178138297 heartbeat IPC: 0.5788 cumulative IPC: 0.3957 (Simulation time: 00 hr 23 min 12 sec)
Heartbeat CPU 0 instructions: 115500554 cycles: 179102048 heartbeat IPC: 0.5188 cumulative IPC: 0.3964 (Simulation time: 00 hr 23 min 19 sec)
Heartbeat CPU 0 instructions: 116000556 cycles: 180443152 heartbeat IPC: 0.3728 cumulative IPC: 0.3962 (Simulation time: 00 hr 23 min 29 sec)
Heartbeat CPU 0 instructions: 116500559 cycles: 182324377 heartbeat IPC: 0.2658 cumulative IPC: 0.3948 (Simulation time: 00 hr 23 min 42 sec)
Heartbeat CPU 0 instructions: 117000561 cycles: 183359002 heartbeat IPC: 0.4833 cumulative IPC: 0.3953 (Simulation time: 00 hr 23 min 50 sec)
Heartbeat CPU 0 instructions: 117500561 cycles: 184678372 heartbeat IPC: 0.379 cumulative IPC: 0.3952 (Simulation time: 00 hr 23 min 59 sec)
Heartbeat CPU 0 instructions: 118000564 cycles: 186207030 heartbeat IPC: 0.3271 cumulative IPC: 0.3946 (Simulation time: 00 hr 24 min 10 sec)
Heartbeat CPU 0 instructions: 118500565 cycles: 187702767 heartbeat IPC: 0.3343 cumulative IPC: 0.3941 (Simulation time: 00 hr 24 min 21 sec)
Heartbeat CPU 0 instructions: 119000565 cycles: 188580062 heartbeat IPC: 0.5699 cumulative IPC: 0.395 (Simulation time: 00 hr 24 min 28 sec)
Heartbeat CPU 0 instructions: 119500565 cycles: 189720380 heartbeat IPC: 0.4385 cumulative IPC: 0.3952 (Simulation time: 00 hr 24 min 36 sec)
Heartbeat CPU 0 instructions: 120000565 cycles: 190539353 heartbeat IPC: 0.6105 cumulative IPC: 0.3962 (Simulation time: 00 hr 24 min 42 sec)
Heartbeat CPU 0 instructions: 120500565 cycles: 191699612 heartbeat IPC: 0.4309 cumulative IPC: 0.3965 (Simulation time: 00 hr 24 min 51 sec)
Heartbeat CPU 0 instructions: 121000565 cycles: 192771033 heartbeat IPC: 0.4667 cumulative IPC: 0.3969 (Simulation time: 00 hr 24 min 59 sec)
Heartbeat CPU 0 instructions: 121500567 cycles: 194867948 heartbeat IPC: 0.2384 cumulative IPC: 0.395 (Simulation time: 00 hr 25 min 14 sec)
Heartbeat CPU 0 instructions: 122000567 cycles: 195951118 heartbeat IPC: 0.4616 cumulative IPC: 0.3954 (Simulation time: 00 hr 25 min 22 sec)
Heartbeat CPU 0 instructions: 122500572 cycles: 197226893 heartbeat IPC: 0.3919 cumulative IPC: 0.3954 (Simulation time: 00 hr 25 min 32 sec)
Heartbeat CPU 0 instructions: 123000573 cycles: 198176747 heartbeat IPC: 0.5264 cumulative IPC: 0.3961 (Simulation time: 00 hr 25 min 39 sec)
Heartbeat CPU 0 instructions: 123500576 cycles: 199419985 heartbeat IPC: 0.4022 cumulative IPC: 0.3961 (Simulation time: 00 hr 25 min 48 sec)
Heartbeat CPU 0 instructions: 124000578 cycles: 200706752 heartbeat IPC: 0.3886 cumulative IPC: 0.3961 (Simulation time: 00 hr 25 min 57 sec)
Heartbeat CPU 0 instructions: 124500579 cycles: 201792432 heartbeat IPC: 0.4605 cumulative IPC: 0.3965 (Simulation time: 00 hr 26 min 06 sec)
Heartbeat CPU 0 instructions: 125000581 cycles: 203177806 heartbeat IPC: 0.3609 cumulative IPC: 0.3962 (Simulation time: 00 hr 26 min 16 sec)
Heartbeat CPU 0 instructions: 125500583 cycles: 204618058 heartbeat IPC: 0.3472 cumulative IPC: 0.3958 (Simulation time: 00 hr 26 min 26 sec)
Heartbeat CPU 0 instructions: 126000589 cycles: 206383499 heartbeat IPC: 0.2832 cumulative IPC: 0.3948 (Simulation time: 00 hr 26 min 39 sec)
Heartbeat CPU 0 instructions: 126500594 cycles: 207316314 heartbeat IPC: 0.536 cumulative IPC: 0.3955 (Simulation time: 00 hr 26 min 46 sec)
Heartbeat CPU 0 instructions: 127000594 cycles: 208528003 heartbeat IPC: 0.4126 cumulative IPC: 0.3956 (Simulation time: 00 hr 26 min 55 sec)
Heartbeat CPU 0 instructions: 127500597 cycles: 209438907 heartbeat IPC: 0.5489 cumulative IPC: 0.3963 (Simulation time: 00 hr 27 min 02 sec)
Heartbeat CPU 0 instructions: 128000598 cycles: 211110465 heartbeat IPC: 0.2991 cumulative IPC: 0.3955 (Simulation time: 00 hr 27 min 14 sec)
Heartbeat CPU 0 instructions: 128500598 cycles: 212148868 heartbeat IPC: 0.4815 cumulative IPC: 0.3959 (Simulation time: 00 hr 27 min 22 sec)
Heartbeat CPU 0 instructions: 129000600 cycles: 213342792 heartbeat IPC: 0.4188 cumulative IPC: 0.3961 (Simulation time: 00 hr 27 min 31 sec)
Heartbeat CPU 0 instructions: 129500602 cycles: 215237362 heartbeat IPC: 0.2639 cumulative IPC: 0.3948 (Simulation time: 00 hr 27 min 45 sec)
Heartbeat CPU 0 instructions: 130000603 cycles: 216777875 heartbeat IPC: 0.3246 cumulative IPC: 0.3943 (Simulation time: 00 hr 27 min 56 sec)
Heartbeat CPU 0 instructions: 130500605 cycles: 218058310 heartbeat IPC: 0.3905 cumulative IPC: 0.3943 (Simulation time: 00 hr 28 min 05 sec)
Heartbeat CPU 0 instructions: 131000605 cycles: 219469079 heartbeat IPC: 0.3544 cumulative IPC: 0.394 (Simulation time: 00 hr 28 min 16 sec)
Heartbeat CPU 0 instructions: 131500606 cycles: 221156713 heartbeat IPC: 0.2963 cumulative IPC: 0.3932 (Simulation time: 00 hr 28 min 28 sec)
Heartbeat CPU 0 instructions: 132000607 cycles: 222121573 heartbeat IPC: 0.5182 cumulative IPC: 0.3938 (Simulation time: 00 hr 28 min 35 sec)
Heartbeat CPU 0 instructions: 132500611 cycles: 223849067 heartbeat IPC: 0.2894 cumulative IPC: 0.3929 (Simulation time: 00 hr 28 min 47 sec)
Heartbeat CPU 0 instructions: 133000611 cycles: 224882312 heartbeat IPC: 0.4839 cumulative IPC: 0.3934 (Simulation time: 00 hr 28 min 55 sec)
Heartbeat CPU 0 instructions: 133500612 cycles: 225828099 heartbeat IPC: 0.5287 cumulative IPC: 0.394 (Simulation time: 00 hr 29 min 03 sec)
Heartbeat CPU 0 instructions: 134000613 cycles: 227419438 heartbeat IPC: 0.3142 cumulative IPC: 0.3934 (Simulation time: 00 hr 29 min 14 sec)
Heartbeat CPU 0 instructions: 134500614 cycles: 228625550 heartbeat IPC: 0.4146 cumulative IPC: 0.3935 (Simulation time: 00 hr 29 min 23 sec)
Heartbeat CPU 0 instructions: 135000615 cycles: 229944035 heartbeat IPC: 0.3792 cumulative IPC: 0.3934 (Simulation time: 00 hr 29 min 33 sec)
Heartbeat CPU 0 instructions: 135500622 cycles: 231631848 heartbeat IPC: 0.2962 cumulative IPC: 0.3926 (Simulation time: 00 hr 29 min 45 sec)
Heartbeat CPU 0 instructions: 136000622 cycles: 233024310 heartbeat IPC: 0.3591 cumulative IPC: 0.3924 (Simulation time: 00 hr 29 min 56 sec)
Heartbeat CPU 0 instructions: 136500623 cycles: 233927181 heartbeat IPC: 0.5538 cumulative IPC: 0.3931 (Simulation time: 00 hr 30 min 03 sec)
Heartbeat CPU 0 instructions: 137000626 cycles: 235796959 heartbeat IPC: 0.2674 cumulative IPC: 0.392 (Simulation time: 00 hr 30 min 16 sec)
Heartbeat CPU 0 instructions: 137500627 cycles: 237177967 heartbeat IPC: 0.3621 cumulative IPC: 0.3918 (Simulation time: 00 hr 30 min 26 sec)
Heartbeat CPU 0 instructions: 138000627 cycles: 238970877 heartbeat IPC: 0.2789 cumulative IPC: 0.3909 (Simulation time: 00 hr 30 min 39 sec)
Heartbeat CPU 0 instructions: 138500629 cycles: 240073933 heartbeat IPC: 0.4533 cumulative IPC: 0.3913 (Simulation time: 00 hr 30 min 48 sec)
Heartbeat CPU 0 instructions: 139000629 cycles: 241561517 heartbeat IPC: 0.3361 cumulative IPC: 0.3909 (Simulation time: 00 hr 30 min 59 sec)
Heartbeat CPU 0 instructions: 139500630 cycles: 243102483 heartbeat IPC: 0.3245 cumulative IPC: 0.3904 (Simulation time: 00 hr 31 min 10 sec)
Heartbeat CPU 0 instructions: 140000630 cycles: 244400981 heartbeat IPC: 0.3851 cumulative IPC: 0.3904 (Simulation time: 00 hr 31 min 20 sec)
Heartbeat CPU 0 instructions: 140500630 cycles: 245368314 heartbeat IPC: 0.5169 cumulative IPC: 0.3909 (Simulation time: 00 hr 31 min 28 sec)
Heartbeat CPU 0 instructions: 141000631 cycles: 246581182 heartbeat IPC: 0.4122 cumulative IPC: 0.3911 (Simulation time: 00 hr 31 min 37 sec)
Heartbeat CPU 0 instructions: 141500638 cycles: 247639075 heartbeat IPC: 0.4726 cumulative IPC: 0.3914 (Simulation time: 00 hr 31 min 45 sec)
Heartbeat CPU 0 instructions: 142000640 cycles: 248801642 heartbeat IPC: 0.4301 cumulative IPC: 0.3916 (Simulation time: 00 hr 31 min 54 sec)
Heartbeat CPU 0 instructions: 142500643 cycles: 250079052 heartbeat IPC: 0.3914 cumulative IPC: 0.3916 (Simulation time: 00 hr 32 min 04 sec)
Heartbeat CPU 0 instructions: 143000643 cycles: 252151869 heartbeat IPC: 0.2412 cumulative IPC: 0.3903 (Simulation time: 00 hr 32 min 19 sec)
Heartbeat CPU 0 instructions: 143500643 cycles: 253478263 heartbeat IPC: 0.377 cumulative IPC: 0.3902 (Simulation time: 00 hr 32 min 28 sec)
Heartbeat CPU 0 instructions: 144000646 cycles: 255394334 heartbeat IPC: 0.261 cumulative IPC: 0.3892 (Simulation time: 00 hr 32 min 42 sec)
Heartbeat CPU 0 instructions: 144500646 cycles: 256598886 heartbeat IPC: 0.4151 cumulative IPC: 0.3893 (Simulation time: 00 hr 32 min 51 sec)
Heartbeat CPU 0 instructions: 145000647 cycles: 257531916 heartbeat IPC: 0.5359 cumulative IPC: 0.3899 (Simulation time: 00 hr 32 min 58 sec)
Heartbeat CPU 0 instructions: 145500648 cycles: 258609285 heartbeat IPC: 0.4641 cumulative IPC: 0.3902 (Simulation time: 00 hr 33 min 07 sec)
Heartbeat CPU 0 instructions: 146000653 cycles: 259566605 heartbeat IPC: 0.5223 cumulative IPC: 0.3907 (Simulation time: 00 hr 33 min 14 sec)
Heartbeat CPU 0 instructions: 146500656 cycles: 260550188 heartbeat IPC: 0.5083 cumulative IPC: 0.3912 (Simulation time: 00 hr 33 min 22 sec)
Heartbeat CPU 0 instructions: 147000661 cycles: 261298755 heartbeat IPC: 0.6679 cumulative IPC: 0.392 (Simulation time: 00 hr 33 min 28 sec)
Heartbeat CPU 0 instructions: 147500664 cycles: 262825517 heartbeat IPC: 0.3275 cumulative IPC: 0.3916 (Simulation time: 00 hr 33 min 39 sec)
Heartbeat CPU 0 instructions: 148000664 cycles: 263853467 heartbeat IPC: 0.4864 cumulative IPC: 0.392 (Simulation time: 00 hr 33 min 47 sec)
Heartbeat CPU 0 instructions: 148500666 cycles: 264553255 heartbeat IPC: 0.7145 cumulative IPC: 0.3929 (Simulation time: 00 hr 33 min 53 sec)
Heartbeat CPU 0 instructions: 149000666 cycles: 265195672 heartbeat IPC: 0.7783 cumulative IPC: 0.3939 (Simulation time: 00 hr 33 min 59 sec)
Heartbeat CPU 0 instructions: 149500669 cycles: 266021863 heartbeat IPC: 0.6052 cumulative IPC: 0.3946 (Simulation time: 00 hr 34 min 05 sec)
Heartbeat CPU 0 instructions: 150000669 cycles: 267030566 heartbeat IPC: 0.4957 cumulative IPC: 0.395 (Simulation time: 00 hr 34 min 13 sec)
Heartbeat CPU 0 instructions: 150500669 cycles: 268090758 heartbeat IPC: 0.4716 cumulative IPC: 0.3953 (Simulation time: 00 hr 34 min 21 sec)
Heartbeat CPU 0 instructions: 151000669 cycles: 269181469 heartbeat IPC: 0.4584 cumulative IPC: 0.3956 (Simulation time: 00 hr 34 min 30 sec)
Heartbeat CPU 0 instructions: 151500675 cycles: 270472271 heartbeat IPC: 0.3874 cumulative IPC: 0.3956 (Simulation time: 00 hr 34 min 39 sec)
Heartbeat CPU 0 instructions: 152000677 cycles: 271754301 heartbeat IPC: 0.39 cumulative IPC: 0.3955 (Simulation time: 00 hr 34 min 49 sec)
Heartbeat CPU 0 instructions: 152500680 cycles: 272690408 heartbeat IPC: 0.5341 cumulative IPC: 0.396 (Simulation time: 00 hr 34 min 56 sec)
Heartbeat CPU 0 instructions: 153000681 cycles: 273345854 heartbeat IPC: 0.7628 cumulative IPC: 0.397 (Simulation time: 00 hr 35 min 02 sec)
Heartbeat CPU 0 instructions: 153500681 cycles: 274107016 heartbeat IPC: 0.6569 cumulative IPC: 0.3977 (Simulation time: 00 hr 35 min 08 sec)
Heartbeat CPU 0 instructions: 154000683 cycles: 274489222 heartbeat IPC: 1.308 cumulative IPC: 0.3991 (Simulation time: 00 hr 35 min 12 sec)
Heartbeat CPU 0 instructions: 154500683 cycles: 275486185 heartbeat IPC: 0.5015 cumulative IPC: 0.3994 (Simulation time: 00 hr 35 min 19 sec)
Heartbeat CPU 0 instructions: 155000683 cycles: 277512708 heartbeat IPC: 0.2467 cumulative IPC: 0.3983 (Simulation time: 00 hr 35 min 33 sec)
Heartbeat CPU 0 instructions: 155500689 cycles: 278362677 heartbeat IPC: 0.5883 cumulative IPC: 0.3989 (Simulation time: 00 hr 35 min 40 sec)
Heartbeat CPU 0 instructions: 156000689 cycles: 279984528 heartbeat IPC: 0.3083 cumulative IPC: 0.3983 (Simulation time: 00 hr 35 min 52 sec)
Heartbeat CPU 0 instructions: 156500689 cycles: 281096358 heartbeat IPC: 0.4497 cumulative IPC: 0.3985 (Simulation time: 00 hr 36 min 01 sec)
Heartbeat CPU 0 instructions: 157000692 cycles: 282362764 heartbeat IPC: 0.3948 cumulative IPC: 0.3985 (Simulation time: 00 hr 36 min 10 sec)
Heartbeat CPU 0 instructions: 157500698 cycles: 283468704 heartbeat IPC: 0.4521 cumulative IPC: 0.3987 (Simulation time: 00 hr 36 min 19 sec)
Heartbeat CPU 0 instructions: 158000698 cycles: 284375648 heartbeat IPC: 0.5513 cumulative IPC: 0.3993 (Simulation time: 00 hr 36 min 26 sec)
Heartbeat CPU 0 instructions: 158500700 cycles: 285262583 heartbeat IPC: 0.5637 cumulative IPC: 0.3998 (Simulation time: 00 hr 36 min 33 sec)
Heartbeat CPU 0 instructions: 159000701 cycles: 287040236 heartbeat IPC: 0.2813 cumulative IPC: 0.399 (Simulation time: 00 hr 36 min 46 sec)
Heartbeat CPU 0 instructions: 159500701 cycles: 288030518 heartbeat IPC: 0.5049 cumulative IPC: 0.3994 (Simulation time: 00 hr 36 min 53 sec)
Heartbeat CPU 0 instructions: 160000701 cycles: 290282613 heartbeat IPC: 0.222 cumulative IPC: 0.398 (Simulation time: 00 hr 37 min 09 sec)
Heartbeat CPU 0 instructions: 160500708 cycles: 291495024 heartbeat IPC: 0.4124 cumulative IPC: 0.398 (Simulation time: 00 hr 37 min 19 sec)
Heartbeat CPU 0 instructions: 161000714 cycles: 292005587 heartbeat IPC: 0.9793 cumulative IPC: 0.3991 (Simulation time: 00 hr 37 min 24 sec)
Heartbeat CPU 0 instructions: 161500719 cycles: 293676132 heartbeat IPC: 0.2993 cumulative IPC: 0.3985 (Simulation time: 00 hr 37 min 36 sec)
Heartbeat CPU 0 instructions: 162000719 cycles: 294550721 heartbeat IPC: 0.5717 cumulative IPC: 0.399 (Simulation time: 00 hr 37 min 42 sec)
Heartbeat CPU 0 instructions: 162500725 cycles: 295457161 heartbeat IPC: 0.5516 cumulative IPC: 0.3995 (Simulation time: 00 hr 37 min 50 sec)
Heartbeat CPU 0 instructions: 163000726 cycles: 296327839 heartbeat IPC: 0.5743 cumulative IPC: 0.4001 (Simulation time: 00 hr 37 min 57 sec)
Heartbeat CPU 0 instructions: 163500733 cycles: 297714301 heartbeat IPC: 0.3606 cumulative IPC: 0.3999 (Simulation time: 00 hr 38 min 07 sec)
Heartbeat CPU 0 instructions: 164000734 cycles: 298798943 heartbeat IPC: 0.461 cumulative IPC: 0.4001 (Simulation time: 00 hr 38 min 15 sec)
Heartbeat CPU 0 instructions: 164500735 cycles: 299909463 heartbeat IPC: 0.4502 cumulative IPC: 0.4003 (Simulation time: 00 hr 38 min 24 sec)
Heartbeat CPU 0 instructions: 165000735 cycles: 301356666 heartbeat IPC: 0.3455 cumulative IPC: 0.4 (Simulation time: 00 hr 38 min 34 sec)
Heartbeat CPU 0 instructions: 165500736 cycles: 302435881 heartbeat IPC: 0.4633 cumulative IPC: 0.4003 (Simulation time: 00 hr 38 min 42 sec)
Heartbeat CPU 0 instructions: 166000739 cycles: 303302982 heartbeat IPC: 0.5766 cumulative IPC: 0.4008 (Simulation time: 00 hr 38 min 49 sec)
Heartbeat CPU 0 instructions: 166500741 cycles: 304382512 heartbeat IPC: 0.4632 cumulative IPC: 0.401 (Simulation time: 00 hr 38 min 58 sec)
Heartbeat CPU 0 instructions: 167000741 cycles: 305291829 heartbeat IPC: 0.5499 cumulative IPC: 0.4015 (Simulation time: 00 hr 39 min 05 sec)
Heartbeat CPU 0 instructions: 167500742 cycles: 306144645 heartbeat IPC: 0.5863 cumulative IPC: 0.402 (Simulation time: 00 hr 39 min 12 sec)
Heartbeat CPU 0 instructions: 168000742 cycles: 307397429 heartbeat IPC: 0.3991 cumulative IPC: 0.402 (Simulation time: 00 hr 39 min 21 sec)
Heartbeat CPU 0 instructions: 168500744 cycles: 308826826 heartbeat IPC: 0.3498 cumulative IPC: 0.4018 (Simulation time: 00 hr 39 min 32 sec)
Heartbeat CPU 0 instructions: 169000745 cycles: 310050384 heartbeat IPC: 0.4086 cumulative IPC: 0.4018 (Simulation time: 00 hr 39 min 41 sec)
Heartbeat CPU 0 instructions: 169500745 cycles: 310746911 heartbeat IPC: 0.7178 cumulative IPC: 0.4025 (Simulation time: 00 hr 39 min 47 sec)
Heartbeat CPU 0 instructions: 170000746 cycles: 311573100 heartbeat IPC: 0.6052 cumulative IPC: 0.4031 (Simulation time: 00 hr 39 min 53 sec)
Heartbeat CPU 0 instructions: 170500752 cycles: 312468565 heartbeat IPC: 0.5584 cumulative IPC: 0.4036 (Simulation time: 00 hr 40 min 00 sec)
Heartbeat CPU 0 instructions: 171000754 cycles: 312892011 heartbeat IPC: 1.181 cumulative IPC: 0.4047 (Simulation time: 00 hr 40 min 04 sec)
Heartbeat CPU 0 instructions: 171500754 cycles: 313379787 heartbeat IPC: 1.025 cumulative IPC: 0.4057 (Simulation time: 00 hr 40 min 09 sec)
Heartbeat CPU 0 instructions: 172000754 cycles: 314957866 heartbeat IPC: 0.3168 cumulative IPC: 0.4052 (Simulation time: 00 hr 40 min 20 sec)
Heartbeat CPU 0 instructions: 172500754 cycles: 316208450 heartbeat IPC: 0.3998 cumulative IPC: 0.4052 (Simulation time: 00 hr 40 min 29 sec)
Heartbeat CPU 0 instructions: 173000755 cycles: 317292017 heartbeat IPC: 0.4614 cumulative IPC: 0.4054 (Simulation time: 00 hr 40 min 38 sec)
Heartbeat CPU 0 instructions: 173500759 cycles: 318289661 heartbeat IPC: 0.5012 cumulative IPC: 0.4057 (Simulation time: 00 hr 40 min 45 sec)
Heartbeat CPU 0 instructions: 174000765 cycles: 319077758 heartbeat IPC: 0.6344 cumulative IPC: 0.4063 (Simulation time: 00 hr 40 min 52 sec)
Heartbeat CPU 0 instructions: 174500766 cycles: 320176044 heartbeat IPC: 0.4553 cumulative IPC: 0.4065 (Simulation time: 00 hr 41 min 00 sec)
Heartbeat CPU 0 instructions: 175000766 cycles: 322238282 heartbeat IPC: 0.2425 cumulative IPC: 0.4054 (Simulation time: 00 hr 41 min 15 sec)
Heartbeat CPU 0 instructions: 175500766 cycles: 323419937 heartbeat IPC: 0.4231 cumulative IPC: 0.4054 (Simulation time: 00 hr 41 min 24 sec)
Heartbeat CPU 0 instructions: 176000766 cycles: 324462228 heartbeat IPC: 0.4797 cumulative IPC: 0.4057 (Simulation time: 00 hr 41 min 32 sec)
Heartbeat CPU 0 instructions: 176500767 cycles: 324850900 heartbeat IPC: 1.286 cumulative IPC: 0.4068 (Simulation time: 00 hr 41 min 35 sec)
Heartbeat CPU 0 instructions: 177000772 cycles: 325168468 heartbeat IPC: 1.574 cumulative IPC: 0.408 (Simulation time: 00 hr 41 min 38 sec)
Heartbeat CPU 0 instructions: 177500772 cycles: 326086718 heartbeat IPC: 0.5445 cumulative IPC: 0.4084 (Simulation time: 00 hr 41 min 46 sec)
Heartbeat CPU 0 instructions: 178000778 cycles: 327360207 heartbeat IPC: 0.3926 cumulative IPC: 0.4083 (Simulation time: 00 hr 41 min 55 sec)
Heartbeat CPU 0 instructions: 178500780 cycles: 328034154 heartbeat IPC: 0.7419 cumulative IPC: 0.409 (Simulation time: 00 hr 42 min 01 sec)
Heartbeat CPU 0 instructions: 179000782 cycles: 328930714 heartbeat IPC: 0.5577 cumulative IPC: 0.4095 (Simulation time: 00 hr 42 min 08 sec)
Heartbeat CPU 0 instructions: 179500783 cycles: 329831749 heartbeat IPC: 0.5549 cumulative IPC: 0.4099 (Simulation time: 00 hr 42 min 15 sec)
Heartbeat CPU 0 instructions: 180000784 cycles: 330203940 heartbeat IPC: 1.343 cumulative IPC: 0.411 (Simulation time: 00 hr 42 min 19 sec)
Heartbeat CPU 0 instructions: 180500784 cycles: 330589189 heartbeat IPC: 1.298 cumulative IPC: 0.412 (Simulation time: 00 hr 42 min 22 sec)
Heartbeat CPU 0 instructions: 181000785 cycles: 331772337 heartbeat IPC: 0.4226 cumulative IPC: 0.4121 (Simulation time: 00 hr 42 min 31 sec)
Heartbeat CPU 0 instructions: 181500789 cycles: 332830994 heartbeat IPC: 0.4723 cumulative IPC: 0.4123 (Simulation time: 00 hr 42 min 39 sec)
Heartbeat CPU 0 instructions: 182000791 cycles: 333882146 heartbeat IPC: 0.4757 cumulative IPC: 0.4125 (Simulation time: 00 hr 42 min 47 sec)
Heartbeat CPU 0 instructions: 182500792 cycles: 334657973 heartbeat IPC: 0.6445 cumulative IPC: 0.4131 (Simulation time: 00 hr 42 min 54 sec)
Heartbeat CPU 0 instructions: 183000796 cycles: 335521460 heartbeat IPC: 0.5791 cumulative IPC: 0.4135 (Simulation time: 00 hr 43 min 00 sec)
Heartbeat CPU 0 instructions: 183500796 cycles: 336869218 heartbeat IPC: 0.371 cumulative IPC: 0.4133 (Simulation time: 00 hr 43 min 11 sec)
Heartbeat CPU 0 instructions: 184000798 cycles: 338620502 heartbeat IPC: 0.2855 cumulative IPC: 0.4126 (Simulation time: 00 hr 43 min 23 sec)
Heartbeat CPU 0 instructions: 184500798 cycles: 339480617 heartbeat IPC: 0.5813 cumulative IPC: 0.4131 (Simulation time: 00 hr 43 min 30 sec)
Heartbeat CPU 0 instructions: 185000798 cycles: 340434949 heartbeat IPC: 0.5239 cumulative IPC: 0.4134 (Simulation time: 00 hr 43 min 37 sec)
Heartbeat CPU 0 instructions: 185500798 cycles: 341516650 heartbeat IPC: 0.4622 cumulative IPC: 0.4136 (Simulation time: 00 hr 43 min 46 sec)
Heartbeat CPU 0 instructions: 186000801 cycles: 342797484 heartbeat IPC: 0.3904 cumulative IPC: 0.4135 (Simulation time: 00 hr 43 min 55 sec)
Heartbeat CPU 0 instructions: 186500807 cycles: 343590588 heartbeat IPC: 0.6304 cumulative IPC: 0.414 (Simulation time: 00 hr 44 min 02 sec)
Heartbeat CPU 0 instructions: 187000814 cycles: 344735809 heartbeat IPC: 0.4366 cumulative IPC: 0.4141 (Simulation time: 00 hr 44 min 10 sec)
Heartbeat CPU 0 instructions: 187500815 cycles: 346251468 heartbeat IPC: 0.3299 cumulative IPC: 0.4137 (Simulation time: 00 hr 44 min 21 sec)
Heartbeat CPU 0 instructions: 188000815 cycles: 347421565 heartbeat IPC: 0.4273 cumulative IPC: 0.4137 (Simulation time: 00 hr 44 min 30 sec)
Heartbeat CPU 0 instructions: 188500816 cycles: 348997874 heartbeat IPC: 0.3172 cumulative IPC: 0.4133 (Simulation time: 00 hr 44 min 41 sec)
Heartbeat CPU 0 instructions: 189000819 cycles: 350117919 heartbeat IPC: 0.4464 cumulative IPC: 0.4134 (Simulation time: 00 hr 44 min 49 sec)
Heartbeat CPU 0 instructions: 189500825 cycles: 351965930 heartbeat IPC: 0.2706 cumulative IPC: 0.4126 (Simulation time: 00 hr 45 min 02 sec)
Heartbeat CPU 0 instructions: 190000826 cycles: 352771464 heartbeat IPC: 0.6207 cumulative IPC: 0.4131 (Simulation time: 00 hr 45 min 09 sec)
Heartbeat CPU 0 instructions: 190500826 cycles: 353726729 heartbeat IPC: 0.5234 cumulative IPC: 0.4134 (Simulation time: 00 hr 45 min 16 sec)
Heartbeat CPU 0 instructions: 191000826 cycles: 354959914 heartbeat IPC: 0.4055 cumulative IPC: 0.4134 (Simulation time: 00 hr 45 min 25 sec)
Heartbeat CPU 0 instructions: 191500828 cycles: 355865083 heartbeat IPC: 0.5524 cumulative IPC: 0.4138 (Simulation time: 00 hr 45 min 32 sec)
Heartbeat CPU 0 instructions: 192000829 cycles: 357091036 heartbeat IPC: 0.4078 cumulative IPC: 0.4137 (Simulation time: 00 hr 45 min 41 sec)
Heartbeat CPU 0 instructions: 192500830 cycles: 358243250 heartbeat IPC: 0.4339 cumulative IPC: 0.4138 (Simulation time: 00 hr 45 min 50 sec)
Heartbeat CPU 0 instructions: 193000835 cycles: 359236317 heartbeat IPC: 0.5035 cumulative IPC: 0.4141 (Simulation time: 00 hr 45 min 58 sec)
Heartbeat CPU 0 instructions: 193500836 cycles: 359588993 heartbeat IPC: 1.418 cumulative IPC: 0.4151 (Simulation time: 00 hr 46 min 01 sec)
Heartbeat CPU 0 instructions: 194000837 cycles: 359991168 heartbeat IPC: 1.243 cumulative IPC: 0.416 (Simulation time: 00 hr 46 min 05 sec)
Heartbeat CPU 0 instructions: 194500838 cycles: 361895533 heartbeat IPC: 0.2626 cumulative IPC: 0.4152 (Simulation time: 00 hr 46 min 18 sec)
Heartbeat CPU 0 instructions: 195000841 cycles: 362832780 heartbeat IPC: 0.5335 cumulative IPC: 0.4155 (Simulation time: 00 hr 46 min 25 sec)
Heartbeat CPU 0 instructions: 195500841 cycles: 363772634 heartbeat IPC: 0.532 cumulative IPC: 0.4158 (Simulation time: 00 hr 46 min 33 sec)
Heartbeat CPU 0 instructions: 196000846 cycles: 364856696 heartbeat IPC: 0.4612 cumulative IPC: 0.416 (Simulation time: 00 hr 46 min 41 sec)
Heartbeat CPU 0 instructions: 196500848 cycles: 365870649 heartbeat IPC: 0.4931 cumulative IPC: 0.4162 (Simulation time: 00 hr 46 min 49 sec)
Heartbeat CPU 0 instructions: 197000850 cycles: 366881576 heartbeat IPC: 0.4946 cumulative IPC: 0.4164 (Simulation time: 00 hr 46 min 57 sec)
Heartbeat CPU 0 instructions: 197500853 cycles: 368222005 heartbeat IPC: 0.373 cumulative IPC: 0.4163 (Simulation time: 00 hr 47 min 07 sec)
Heartbeat CPU 0 instructions: 198000855 cycles: 369175568 heartbeat IPC: 0.5244 cumulative IPC: 0.4166 (Simulation time: 00 hr 47 min 14 sec)
Heartbeat CPU 0 instructions: 198500856 cycles: 370334658 heartbeat IPC: 0.4314 cumulative IPC: 0.4166 (Simulation time: 00 hr 47 min 23 sec)
Heartbeat CPU 0 instructions: 199000860 cycles: 371490062 heartbeat IPC: 0.4328 cumulative IPC: 0.4167 (Simulation time: 00 hr 47 min 31 sec)
Heartbeat CPU 0 instructions: 199500860 cycles: 372789879 heartbeat IPC: 0.3847 cumulative IPC: 0.4165 (Simulation time: 00 hr 47 min 41 sec)
Heartbeat CPU 0 instructions: 200000861 cycles: 374018624 heartbeat IPC: 0.4069 cumulative IPC: 0.4165 (Simulation time: 00 hr 47 min 50 sec)
Heartbeat CPU 0 instructions: 200500863 cycles: 374948150 heartbeat IPC: 0.5379 cumulative IPC: 0.4168 (Simulation time: 00 hr 47 min 57 sec)
Heartbeat CPU 0 instructions: 201000863 cycles: 376169912 heartbeat IPC: 0.4092 cumulative IPC: 0.4168 (Simulation time: 00 hr 48 min 06 sec)
Heartbeat CPU 0 instructions: 201500868 cycles: 377235141 heartbeat IPC: 0.4694 cumulative IPC: 0.4169 (Simulation time: 00 hr 48 min 14 sec)
Heartbeat CPU 0 instructions: 202000873 cycles: 378341602 heartbeat IPC: 0.4519 cumulative IPC: 0.417 (Simulation time: 00 hr 48 min 22 sec)
Heartbeat CPU 0 instructions: 202500874 cycles: 379329922 heartbeat IPC: 0.5059 cumulative IPC: 0.4173 (Simulation time: 00 hr 48 min 30 sec)
Heartbeat CPU 0 instructions: 203000875 cycles: 380794109 heartbeat IPC: 0.3415 cumulative IPC: 0.417 (Simulation time: 00 hr 48 min 40 sec)
Heartbeat CPU 0 instructions: 203500876 cycles: 381906737 heartbeat IPC: 0.4494 cumulative IPC: 0.4171 (Simulation time: 00 hr 48 min 49 sec)
Heartbeat CPU 0 instructions: 204000876 cycles: 383123263 heartbeat IPC: 0.411 cumulative IPC: 0.4171 (Simulation time: 00 hr 48 min 58 sec)
Heartbeat CPU 0 instructions: 204500877 cycles: 384152735 heartbeat IPC: 0.4857 cumulative IPC: 0.4173 (Simulation time: 00 hr 49 min 06 sec)
Heartbeat CPU 0 instructions: 205000877 cycles: 385206216 heartbeat IPC: 0.4746 cumulative IPC: 0.4174 (Simulation time: 00 hr 49 min 14 sec)
Heartbeat CPU 0 instructions: 205500877 cycles: 386242829 heartbeat IPC: 0.4823 cumulative IPC: 0.4176 (Simulation time: 00 hr 49 min 22 sec)
Heartbeat CPU 0 instructions: 206000877 cycles: 387489313 heartbeat IPC: 0.4011 cumulative IPC: 0.4175 (Simulation time: 00 hr 49 min 31 sec)
Heartbeat CPU 0 instructions: 206500877 cycles: 388701897 heartbeat IPC: 0.4123 cumulative IPC: 0.4175 (Simulation time: 00 hr 49 min 40 sec)
Heartbeat CPU 0 instructions: 207000878 cycles: 389515306 heartbeat IPC: 0.6147 cumulative IPC: 0.418 (Simulation time: 00 hr 49 min 47 sec)
Heartbeat CPU 0 instructions: 207500878 cycles: 390662709 heartbeat IPC: 0.4358 cumulative IPC: 0.418 (Simulation time: 00 hr 49 min 56 sec)
Heartbeat CPU 0 instructions: 208000880 cycles: 391717326 heartbeat IPC: 0.4741 cumulative IPC: 0.4182 (Simulation time: 00 hr 50 min 04 sec)
Heartbeat CPU 0 instructions: 208500885 cycles: 392669231 heartbeat IPC: 0.5253 cumulative IPC: 0.4184 (Simulation time: 00 hr 50 min 11 sec)
Heartbeat CPU 0 instructions: 209000887 cycles: 394437560 heartbeat IPC: 0.2828 cumulative IPC: 0.4178 (Simulation time: 00 hr 50 min 24 sec)
Heartbeat CPU 0 instructions: 209500890 cycles: 395541785 heartbeat IPC: 0.4528 cumulative IPC: 0.4179 (Simulation time: 00 hr 50 min 32 sec)
Heartbeat CPU 0 instructions: 210000891 cycles: 396571547 heartbeat IPC: 0.4856 cumulative IPC: 0.4181 (Simulation time: 00 hr 50 min 40 sec)
Heartbeat CPU 0 instructions: 210500893 cycles: 397647396 heartbeat IPC: 0.4648 cumulative IPC: 0.4182 (Simulation time: 00 hr 50 min 48 sec)
Heartbeat CPU 0 instructions: 211000893 cycles: 398889208 heartbeat IPC: 0.4026 cumulative IPC: 0.4182 (Simulation time: 00 hr 50 min 57 sec)
Heartbeat CPU 0 instructions: 211500895 cycles: 399919867 heartbeat IPC: 0.4851 cumulative IPC: 0.4183 (Simulation time: 00 hr 51 min 05 sec)
Heartbeat CPU 0 instructions: 212000895 cycles: 400629282 heartbeat IPC: 0.7048 cumulative IPC: 0.4189 (Simulation time: 00 hr 51 min 11 sec)
Heartbeat CPU 0 instructions: 212500902 cycles: 401649048 heartbeat IPC: 0.4903 cumulative IPC: 0.4191 (Simulation time: 00 hr 51 min 19 sec)
Heartbeat CPU 0 instructions: 213000903 cycles: 402547799 heartbeat IPC: 0.5563 cumulative IPC: 0.4194 (Simulation time: 00 hr 51 min 26 sec)
Heartbeat CPU 0 instructions: 213500903 cycles: 403572885 heartbeat IPC: 0.4878 cumulative IPC: 0.4196 (Simulation time: 00 hr 51 min 33 sec)
Heartbeat CPU 0 instructions: 214000903 cycles: 405237924 heartbeat IPC: 0.3003 cumulative IPC: 0.419 (Simulation time: 00 hr 51 min 46 sec)
Heartbeat CPU 0 instructions: 214500903 cycles: 406876898 heartbeat IPC: 0.3051 cumulative IPC: 0.4186 (Simulation time: 00 hr 51 min 58 sec)
Heartbeat CPU 0 instructions: 215000903 cycles: 408100875 heartbeat IPC: 0.4085 cumulative IPC: 0.4185 (Simulation time: 00 hr 52 min 07 sec)
Heartbeat CPU 0 instructions: 215500909 cycles: 409181280 heartbeat IPC: 0.4628 cumulative IPC: 0.4187 (Simulation time: 00 hr 52 min 15 sec)
Heartbeat CPU 0 instructions: 216000909 cycles: 410586801 heartbeat IPC: 0.3557 cumulative IPC: 0.4184 (Simulation time: 00 hr 52 min 25 sec)
Heartbeat CPU 0 instructions: 216500910 cycles: 412076989 heartbeat IPC: 0.3355 cumulative IPC: 0.4181 (Simulation time: 00 hr 52 min 36 sec)
Heartbeat CPU 0 instructions: 217000911 cycles: 413141997 heartbeat IPC: 0.4695 cumulative IPC: 0.4183 (Simulation time: 00 hr 52 min 44 sec)
Heartbeat CPU 0 instructions: 217500912 cycles: 414254449 heartbeat IPC: 0.4495 cumulative IPC: 0.4184 (Simulation time: 00 hr 52 min 53 sec)
Heartbeat CPU 0 instructions: 218000913 cycles: 416122156 heartbeat IPC: 0.2677 cumulative IPC: 0.4177 (Simulation time: 00 hr 53 min 06 sec)
Heartbeat CPU 0 instructions: 218500913 cycles: 417242727 heartbeat IPC: 0.4462 cumulative IPC: 0.4177 (Simulation time: 00 hr 53 min 15 sec)
Heartbeat CPU 0 instructions: 219000914 cycles: 418974300 heartbeat IPC: 0.2888 cumulative IPC: 0.4172 (Simulation time: 00 hr 53 min 27 sec)
Heartbeat CPU 0 instructions: 219500917 cycles: 419370864 heartbeat IPC: 1.261 cumulative IPC: 0.418 (Simulation time: 00 hr 53 min 31 sec)
Heartbeat CPU 0 instructions: 220000921 cycles: 419716538 heartbeat IPC: 1.446 cumulative IPC: 0.4189 (Simulation time: 00 hr 53 min 34 sec)
Heartbeat CPU 0 instructions: 220500925 cycles: 420068448 heartbeat IPC: 1.421 cumulative IPC: 0.4198 (Simulation time: 00 hr 53 min 38 sec)
Heartbeat CPU 0 instructions: 221000926 cycles: 420508259 heartbeat IPC: 1.137 cumulative IPC: 0.4205 (Simulation time: 00 hr 53 min 42 sec)
Heartbeat CPU 0 instructions: 221500930 cycles: 420859844 heartbeat IPC: 1.422 cumulative IPC: 0.4214 (Simulation time: 00 hr 53 min 45 sec)
Heartbeat CPU 0 instructions: 222000935 cycles: 421214801 heartbeat IPC: 1.409 cumulative IPC: 0.4223 (Simulation time: 00 hr 53 min 49 sec)
Heartbeat CPU 0 instructions: 222500936 cycles: 421558841 heartbeat IPC: 1.453 cumulative IPC: 0.4231 (Simulation time: 00 hr 53 min 52 sec)
Heartbeat CPU 0 instructions: 223000942 cycles: 421913226 heartbeat IPC: 1.411 cumulative IPC: 0.424 (Simulation time: 00 hr 53 min 55 sec)
Heartbeat CPU 0 instructions: 223500942 cycles: 422263761 heartbeat IPC: 1.426 cumulative IPC: 0.4248 (Simulation time: 00 hr 53 min 59 sec)
Heartbeat CPU 0 instructions: 224000942 cycles: 422665839 heartbeat IPC: 1.244 cumulative IPC: 0.4256 (Simulation time: 00 hr 54 min 03 sec)
Heartbeat CPU 0 instructions: 224500942 cycles: 423045782 heartbeat IPC: 1.316 cumulative IPC: 0.4265 (Simulation time: 00 hr 54 min 06 sec)
Heartbeat CPU 0 instructions: 225000943 cycles: 423436951 heartbeat IPC: 1.278 cumulative IPC: 0.4273 (Simulation time: 00 hr 54 min 10 sec)
Heartbeat CPU 0 instructions: 225500944 cycles: 423644702 heartbeat IPC: 2.407 cumulative IPC: 0.4283 (Simulation time: 00 hr 54 min 12 sec)
Heartbeat CPU 0 instructions: 226000950 cycles: 425142316 heartbeat IPC: 0.3339 cumulative IPC: 0.4279 (Simulation time: 00 hr 54 min 23 sec)
Heartbeat CPU 0 instructions: 226500951 cycles: 425905639 heartbeat IPC: 0.655 cumulative IPC: 0.4284 (Simulation time: 00 hr 54 min 29 sec)
Heartbeat CPU 0 instructions: 227000958 cycles: 427831911 heartbeat IPC: 0.2596 cumulative IPC: 0.4276 (Simulation time: 00 hr 54 min 43 sec)
Heartbeat CPU 0 instructions: 227500960 cycles: 429639141 heartbeat IPC: 0.2767 cumulative IPC: 0.4269 (Simulation time: 00 hr 54 min 56 sec)
Heartbeat CPU 0 instructions: 228000961 cycles: 430777725 heartbeat IPC: 0.4391 cumulative IPC: 0.427 (Simulation time: 00 hr 55 min 04 sec)
Heartbeat CPU 0 instructions: 228500964 cycles: 432154240 heartbeat IPC: 0.3632 cumulative IPC: 0.4268 (Simulation time: 00 hr 55 min 15 sec)
Heartbeat CPU 0 instructions: 229000966 cycles: 433108079 heartbeat IPC: 0.5242 cumulative IPC: 0.427 (Simulation time: 00 hr 55 min 22 sec)
Heartbeat CPU 0 instructions: 229500967 cycles: 435143023 heartbeat IPC: 0.2457 cumulative IPC: 0.4261 (Simulation time: 00 hr 55 min 36 sec)
Heartbeat CPU 0 instructions: 230000968 cycles: 436772262 heartbeat IPC: 0.3069 cumulative IPC: 0.4256 (Simulation time: 00 hr 55 min 48 sec)
Heartbeat CPU 0 instructions: 230500968 cycles: 438147311 heartbeat IPC: 0.3636 cumulative IPC: 0.4254 (Simulation time: 00 hr 55 min 58 sec)
Heartbeat CPU 0 instructions: 231000970 cycles: 439256185 heartbeat IPC: 0.4509 cumulative IPC: 0.4255 (Simulation time: 00 hr 56 min 06 sec)
Heartbeat CPU 0 instructions: 231500974 cycles: 440062072 heartbeat IPC: 0.6204 cumulative IPC: 0.4259 (Simulation time: 00 hr 56 min 13 sec)
Heartbeat CPU 0 instructions: 232000974 cycles: 440945643 heartbeat IPC: 0.5659 cumulative IPC: 0.4262 (Simulation time: 00 hr 56 min 20 sec)
Heartbeat CPU 0 instructions: 232500975 cycles: 441894372 heartbeat IPC: 0.527 cumulative IPC: 0.4264 (Simulation time: 00 hr 56 min 27 sec)
Heartbeat CPU 0 instructions: 233000982 cycles: 443687538 heartbeat IPC: 0.2788 cumulative IPC: 0.4258 (Simulation time: 00 hr 56 min 40 sec)
Heartbeat CPU 0 instructions: 233500983 cycles: 444666156 heartbeat IPC: 0.5109 cumulative IPC: 0.426 (Simulation time: 00 hr 56 min 47 sec)
Heartbeat CPU 0 instructions: 234000990 cycles: 445906047 heartbeat IPC: 0.4033 cumulative IPC: 0.4259 (Simulation time: 00 hr 56 min 57 sec)
Heartbeat CPU 0 instructions: 234500990 cycles: 446777210 heartbeat IPC: 0.5739 cumulative IPC: 0.4262 (Simulation time: 00 hr 57 min 04 sec)
Heartbeat CPU 0 instructions: 235000993 cycles: 447934602 heartbeat IPC: 0.432 cumulative IPC: 0.4262 (Simulation time: 00 hr 57 min 12 sec)
Heartbeat CPU 0 instructions: 235500995 cycles: 448924980 heartbeat IPC: 0.5049 cumulative IPC: 0.4264 (Simulation time: 00 hr 57 min 20 sec)
Heartbeat CPU 0 instructions: 236000999 cycles: 450008065 heartbeat IPC: 0.4616 cumulative IPC: 0.4265 (Simulation time: 00 hr 57 min 28 sec)
Heartbeat CPU 0 instructions: 236500999 cycles: 451242162 heartbeat IPC: 0.4052 cumulative IPC: 0.4264 (Simulation time: 00 hr 57 min 37 sec)
Heartbeat CPU 0 instructions: 237001002 cycles: 452480242 heartbeat IPC: 0.4039 cumulative IPC: 0.4264 (Simulation time: 00 hr 57 min 46 sec)
Heartbeat CPU 0 instructions: 237501006 cycles: 453666341 heartbeat IPC: 0.4216 cumulative IPC: 0.4263 (Simulation time: 00 hr 57 min 55 sec)
Heartbeat CPU 0 instructions: 238001011 cycles: 454823660 heartbeat IPC: 0.432 cumulative IPC: 0.4264 (Simulation time: 00 hr 58 min 04 sec)
Heartbeat CPU 0 instructions: 238501013 cycles: 455849010 heartbeat IPC: 0.4876 cumulative IPC: 0.4265 (Simulation time: 00 hr 58 min 12 sec)
Heartbeat CPU 0 instructions: 239001013 cycles: 456784857 heartbeat IPC: 0.5343 cumulative IPC: 0.4267 (Simulation time: 00 hr 58 min 19 sec)
Heartbeat CPU 0 instructions: 239501016 cycles: 458199387 heartbeat IPC: 0.3535 cumulative IPC: 0.4265 (Simulation time: 00 hr 58 min 29 sec)
Heartbeat CPU 0 instructions: 240001016 cycles: 459566918 heartbeat IPC: 0.3656 cumulative IPC: 0.4263 (Simulation time: 00 hr 58 min 39 sec)
Heartbeat CPU 0 instructions: 240501016 cycles: 461106162 heartbeat IPC: 0.3248 cumulative IPC: 0.426 (Simulation time: 00 hr 58 min 51 sec)
Heartbeat CPU 0 instructions: 241001016 cycles: 462087962 heartbeat IPC: 0.5093 cumulative IPC: 0.4261 (Simulation time: 00 hr 58 min 59 sec)
Heartbeat CPU 0 instructions: 241501017 cycles: 463623632 heartbeat IPC: 0.3256 cumulative IPC: 0.4258 (Simulation time: 00 hr 59 min 09 sec)
Heartbeat CPU 0 instructions: 242001024 cycles: 464427599 heartbeat IPC: 0.6219 cumulative IPC: 0.4261 (Simulation time: 00 hr 59 min 16 sec)
Heartbeat CPU 0 instructions: 242501024 cycles: 465353526 heartbeat IPC: 0.54 cumulative IPC: 0.4264 (Simulation time: 00 hr 59 min 23 sec)
Heartbeat CPU 0 instructions: 243001025 cycles: 467019847 heartbeat IPC: 0.3001 cumulative IPC: 0.4259 (Simulation time: 00 hr 59 min 35 sec)
Heartbeat CPU 0 instructions: 243501032 cycles: 467867246 heartbeat IPC: 0.59 cumulative IPC: 0.4262 (Simulation time: 00 hr 59 min 41 sec)
Heartbeat CPU 0 instructions: 244001034 cycles: 468947150 heartbeat IPC: 0.463 cumulative IPC: 0.4263 (Simulation time: 00 hr 59 min 50 sec)
Heartbeat CPU 0 instructions: 244501036 cycles: 470170185 heartbeat IPC: 0.4088 cumulative IPC: 0.4263 (Simulation time: 00 hr 59 min 59 sec)
Heartbeat CPU 0 instructions: 245001037 cycles: 470978395 heartbeat IPC: 0.6187 cumulative IPC: 0.4266 (Simulation time: 01 hr 00 min 05 sec)
Heartbeat CPU 0 instructions: 245501038 cycles: 471822400 heartbeat IPC: 0.5924 cumulative IPC: 0.4269 (Simulation time: 01 hr 00 min 12 sec)
Heartbeat CPU 0 instructions: 246001038 cycles: 472934644 heartbeat IPC: 0.4495 cumulative IPC: 0.427 (Simulation time: 01 hr 00 min 21 sec)
Heartbeat CPU 0 instructions: 246501041 cycles: 474290992 heartbeat IPC: 0.3686 cumulative IPC: 0.4268 (Simulation time: 01 hr 00 min 30 sec)
Heartbeat CPU 0 instructions: 247001044 cycles: 475374376 heartbeat IPC: 0.4615 cumulative IPC: 0.4269 (Simulation time: 01 hr 00 min 39 sec)
Heartbeat CPU 0 instructions: 247501046 cycles: 476546118 heartbeat IPC: 0.4267 cumulative IPC: 0.4269 (Simulation time: 01 hr 00 min 48 sec)
Heartbeat CPU 0 instructions: 248001049 cycles: 477498770 heartbeat IPC: 0.5249 cumulative IPC: 0.4271 (Simulation time: 01 hr 00 min 55 sec)
Heartbeat CPU 0 instructions: 248501056 cycles: 478688777 heartbeat IPC: 0.4202 cumulative IPC: 0.4271 (Simulation time: 01 hr 01 min 05 sec)
Heartbeat CPU 0 instructions: 249001063 cycles: 480086404 heartbeat IPC: 0.3578 cumulative IPC: 0.4268 (Simulation time: 01 hr 01 min 15 sec)
Heartbeat CPU 0 instructions: 249501064 cycles: 481240192 heartbeat IPC: 0.4334 cumulative IPC: 0.4269 (Simulation time: 01 hr 01 min 24 sec)
Simulation finished CPU 0 instructions: 200000003 cycles: 468121249 cumulative IPC: 0.4272 (Simulation time: 01 hr 01 min 30 sec)
Simulation complete CPU 0 instructions: 200000003 cycles: 468121249 cumulative IPC: 0.4272 (Simulation time: 01 hr 01 min 30 sec)

ChampSim completed all CPUs

=== Simulation ===
CPU 0 runs /local-ssd/ben/dpc4-traces/gtraces_v2/sierra.a.6_0001.champsim.gz

Region of Interest Statistics

CPU 0 cumulative IPC: 0.4272 instructions: 200000003 cycles: 468121249
CPU 0 Branch Prediction Accuracy: 87.58% MPKI: 24.53 Average ROB Occupancy at Mispredict: 19.45
Branch type MPKI
BRANCH_DIRECT_JUMP: 1.721
BRANCH_INDIRECT: 0.233
BRANCH_CONDITIONAL: 20.08
BRANCH_DIRECT_CALL: 1.197
BRANCH_INDIRECT_CALL: 0.3042
BRANCH_RETURN: 0.9903

cpu0->cpu0_STLB TOTAL        ACCESS:    3111968 HIT:    2339029 MISS:     772939 MSHR_MERGE:          0
cpu0->cpu0_STLB LOAD         ACCESS:    3111968 HIT:    2339029 MISS:     772939 MSHR_MERGE:          0
cpu0->cpu0_STLB RFO          ACCESS:          0 HIT:          0 MISS:          0 MSHR_MERGE:          0
cpu0->cpu0_STLB PREFETCH     ACCESS:          0 HIT:          0 MISS:          0 MSHR_MERGE:          0
cpu0->cpu0_STLB WRITE        ACCESS:          0 HIT:          0 MISS:          0 MSHR_MERGE:          0
cpu0->cpu0_STLB TRANSLATION  ACCESS:          0 HIT:          0 MISS:          0 MSHR_MERGE:          0
cpu0->cpu0_STLB PREFETCH REQUESTED:          0 ISSUED:          0 USEFUL:          0 USELESS:          0
cpu0->cpu0_STLB AVERAGE MISS LATENCY: 111.1 cycles
cpu0->cpu0_L2C TOTAL        ACCESS:   14096169 HIT:   10278899 MISS:    3817270 MSHR_MERGE:          0
cpu0->cpu0_L2C LOAD         ACCESS:    9706133 HIT:    7536998 MISS:    2169135 MSHR_MERGE:          0
cpu0->cpu0_L2C RFO          ACCESS:     925800 HIT:     497628 MISS:     428172 MSHR_MERGE:          0
cpu0->cpu0_L2C PREFETCH     ACCESS:     931371 HIT:      11682 MISS:     919689 MSHR_MERGE:          0
cpu0->cpu0_L2C WRITE        ACCESS:    1709679 HIT:    1709587 MISS:         92 MSHR_MERGE:          0
cpu0->cpu0_L2C TRANSLATION  ACCESS:     823186 HIT:     523004 MISS:     300182 MSHR_MERGE:          0
cpu0->cpu0_L2C PREFETCH REQUESTED:          0 ISSUED:          0 USEFUL:          0 USELESS:          0
cpu0->cpu0_L2C AVERAGE MISS LATENCY: 196.5 cycles
cpu0->cpu0_L1I TOTAL        ACCESS:   21129884 HIT:   12247218 MISS:    8882666 MSHR_MERGE:    2202619
cpu0->cpu0_L1I LOAD         ACCESS:   21129884 HIT:   12247218 MISS:    8882666 MSHR_MERGE:    2202619
cpu0->cpu0_L1I RFO          ACCESS:          0 HIT:          0 MISS:          0 MSHR_MERGE:          0
cpu0->cpu0_L1I PREFETCH     ACCESS:          0 HIT:          0 MISS:          0 MSHR_MERGE:          0
cpu0->cpu0_L1I WRITE        ACCESS:          0 HIT:          0 MISS:          0 MSHR_MERGE:          0
cpu0->cpu0_L1I TRANSLATION  ACCESS:          0 HIT:          0 MISS:          0 MSHR_MERGE:          0
cpu0->cpu0_L1I PREFETCH REQUESTED:          0 ISSUED:          0 USEFUL:          0 USELESS:          0
cpu0->cpu0_L1I AVERAGE MISS LATENCY: 26 cycles
cpu0->cpu0_L1D TOTAL        ACCESS:   62025907 HIT:   52312031 MISS:    9713876 MSHR_MERGE:    4007382
cpu0->cpu0_L1D LOAD         ACCESS:   33938875 HIT:   29761564 MISS:    4177311 MSHR_MERGE:    1151198
cpu0->cpu0_L1D RFO          ACCESS:          0 HIT:          0 MISS:          0 MSHR_MERGE:          0
cpu0->cpu0_L1D PREFETCH     ACCESS:    2361318 HIT:     630698 MISS:    1730620 MSHR_MERGE:     799249
cpu0->cpu0_L1D WRITE        ACCESS:   23704576 HIT:   20727159 MISS:    2977417 MSHR_MERGE:    2051592
cpu0->cpu0_L1D TRANSLATION  ACCESS:    2021138 HIT:    1192610 MISS:     828528 MSHR_MERGE:       5343
cpu0->cpu0_L1D PREFETCH REQUESTED:    3023217 ISSUED:    2361318 USEFUL:     528300 USELESS:     403071
cpu0->cpu0_L1D AVERAGE MISS LATENCY: 106.8 cycles
cpu0->cpu0_ITLB TOTAL        ACCESS:   17249967 HIT:   16313740 MISS:     936227 MSHR_MERGE:     439220
cpu0->cpu0_ITLB LOAD         ACCESS:   17249967 HIT:   16313740 MISS:     936227 MSHR_MERGE:     439220
cpu0->cpu0_ITLB RFO          ACCESS:          0 HIT:          0 MISS:          0 MSHR_MERGE:          0
cpu0->cpu0_ITLB PREFETCH     ACCESS:          0 HIT:          0 MISS:          0 MSHR_MERGE:          0
cpu0->cpu0_ITLB WRITE        ACCESS:          0 HIT:          0 MISS:          0 MSHR_MERGE:          0
cpu0->cpu0_ITLB TRANSLATION  ACCESS:          0 HIT:          0 MISS:          0 MSHR_MERGE:          0
cpu0->cpu0_ITLB PREFETCH REQUESTED:          0 ISSUED:          0 USEFUL:          0 USELESS:          0
cpu0->cpu0_ITLB AVERAGE MISS LATENCY: 15.76 cycles
cpu0->cpu0_DTLB TOTAL        ACCESS:   56660861 HIT:   52373296 MISS:    4287565 MSHR_MERGE:    1672604
cpu0->cpu0_DTLB LOAD         ACCESS:   56660861 HIT:   52373296 MISS:    4287565 MSHR_MERGE:    1672604
cpu0->cpu0_DTLB RFO          ACCESS:          0 HIT:          0 MISS:          0 MSHR_MERGE:          0
cpu0->cpu0_DTLB PREFETCH     ACCESS:          0 HIT:          0 MISS:          0 MSHR_MERGE:          0
cpu0->cpu0_DTLB WRITE        ACCESS:          0 HIT:          0 MISS:          0 MSHR_MERGE:          0
cpu0->cpu0_DTLB TRANSLATION  ACCESS:          0 HIT:          0 MISS:          0 MSHR_MERGE:          0
cpu0->cpu0_DTLB PREFETCH REQUESTED:          0 ISSUED:          0 USEFUL:          0 USELESS:          0
cpu0->cpu0_DTLB AVERAGE MISS LATENCY: 36.09 cycles
cpu0->LLC TOTAL        ACCESS:    4699153 HIT:    1201995 MISS:    3497158 MSHR_MERGE:          0
cpu0->LLC LOAD         ACCESS:    2169135 HIT:     412542 MISS:    1756593 MSHR_MERGE:          0
cpu0->LLC RFO          ACCESS:     428172 HIT:      37055 MISS:     391117 MSHR_MERGE:          0
cpu0->LLC PREFETCH     ACCESS:     919689 HIT:       1869 MISS:     917820 MSHR_MERGE:          0
cpu0->LLC WRITE        ACCESS:     881975 HIT:     662785 MISS:     219190 MSHR_MERGE:          0
cpu0->LLC TRANSLATION  ACCESS:     300182 HIT:      87744 MISS:     212438 MSHR_MERGE:          0
cpu0->LLC PREFETCH REQUESTED:          0 ISSUED:          0 USEFUL:          0 USELESS:          0
cpu0->LLC AVERAGE MISS LATENCY: 196.6 cycles

DRAM Statistics

Channel 0 RQ ROW_BUFFER_HIT:     316402
  ROW_BUFFER_MISS:    2961535
  AVG DBUS CONGESTED CYCLE: 28.04
Channel 0 WQ ROW_BUFFER_HIT:     214459
  ROW_BUFFER_MISS:     593498
  FULL:          0
Channel 0 REFRESHES ISSUED:      39007
