[VMEM] WARNING: physical memory size is smaller than virtual memory size.

*** ChampSim Multicore Out-of-Order Simulator ***
Warmup Instructions: 50000000
Simulation Instructions: 200000000
Number of CPUs: 1
Page size: 4096
Core 0: /local-ssd/ben/dpc4-traces/gtraces_v2/tango_0002.champsim.gz
Off-chip DRAM Size: 64 GiB Channels: 1 Width: 64-bit Data Rate: 4807 MT/s
[BTB] WARNING: target of return is a lower address than the corresponding call. This is usually a problem with your trace.
[BTB] WARNING: target of return is a lower address than the corresponding call. This is usually a problem with your trace.
[BTB] WARNING: target of return is a lower address than the corresponding call. This is usually a problem with your trace.
[BTB] WARNING: target of return is a lower address than the corresponding call. This is usually a problem with your trace.
Heartbeat CPU 0 instructions: 500004 cycles: 259436 heartbeat IPC: 1.927 cumulative IPC: 1.927 (Simulation time: 00 hr 00 min 03 sec)
[BTB] WARNING: target of return is a lower address than the corresponding call. This is usually a problem with your trace.
[BTB] WARNING: target of return is a lower address than the corresponding call. This is usually a problem with your trace.
[BTB] WARNING: target of return is a lower address than the corresponding call. This is usually a problem with your trace.
[BTB] WARNING: target of return is a lower address than the corresponding call. This is usually a problem with your trace.
[BTB] WARNING: target of return is a lower address than the corresponding call. This is usually a problem with your trace.
[BTB] WARNING: target of return is a lower address than the corresponding call. This is usually a problem with your trace.
Heartbeat CPU 0 instructions: 1000005 cycles: 470157 heartbeat IPC: 2.373 cumulative IPC: 2.127 (Simulation time: 00 hr 00 min 06 sec)
Heartbeat CPU 0 instructions: 1500006 cycles: 655117 heartbeat IPC: 2.703 cumulative IPC: 2.29 (Simulation time: 00 hr 00 min 09 sec)
Heartbeat CPU 0 instructions: 2000013 cycles: 814101 heartbeat IPC: 3.145 cumulative IPC: 2.457 (Simulation time: 00 hr 00 min 11 sec)
Heartbeat CPU 0 instructions: 2500013 cycles: 989475 heartbeat IPC: 2.851 cumulative IPC: 2.527 (Simulation time: 00 hr 00 min 14 sec)
Heartbeat CPU 0 instructions: 3000016 cycles: 1141456 heartbeat IPC: 3.29 cumulative IPC: 2.628 (Simulation time: 00 hr 00 min 16 sec)
Heartbeat CPU 0 instructions: 3500018 cycles: 1258454 heartbeat IPC: 4.274 cumulative IPC: 2.781 (Simulation time: 00 hr 00 min 17 sec)
Heartbeat CPU 0 instructions: 4000020 cycles: 1382082 heartbeat IPC: 4.044 cumulative IPC: 2.894 (Simulation time: 00 hr 00 min 19 sec)
Heartbeat CPU 0 instructions: 4500024 cycles: 1497023 heartbeat IPC: 4.35 cumulative IPC: 3.006 (Simulation time: 00 hr 00 min 21 sec)
Heartbeat CPU 0 instructions: 5000024 cycles: 1619157 heartbeat IPC: 4.094 cumulative IPC: 3.088 (Simulation time: 00 hr 00 min 22 sec)
Heartbeat CPU 0 instructions: 5500024 cycles: 1762008 heartbeat IPC: 3.5 cumulative IPC: 3.121 (Simulation time: 00 hr 00 min 24 sec)
Heartbeat CPU 0 instructions: 6000024 cycles: 1930463 heartbeat IPC: 2.968 cumulative IPC: 3.108 (Simulation time: 00 hr 00 min 27 sec)
Heartbeat CPU 0 instructions: 6500026 cycles: 2097801 heartbeat IPC: 2.988 cumulative IPC: 3.098 (Simulation time: 00 hr 00 min 29 sec)
Heartbeat CPU 0 instructions: 7000027 cycles: 2240934 heartbeat IPC: 3.493 cumulative IPC: 3.124 (Simulation time: 00 hr 00 min 31 sec)
Heartbeat CPU 0 instructions: 7500030 cycles: 2371634 heartbeat IPC: 3.826 cumulative IPC: 3.162 (Simulation time: 00 hr 00 min 33 sec)
Heartbeat CPU 0 instructions: 8000033 cycles: 2546032 heartbeat IPC: 2.867 cumulative IPC: 3.142 (Simulation time: 00 hr 00 min 35 sec)
Heartbeat CPU 0 instructions: 8500035 cycles: 2696373 heartbeat IPC: 3.326 cumulative IPC: 3.152 (Simulation time: 00 hr 00 min 38 sec)
Heartbeat CPU 0 instructions: 9000038 cycles: 2845695 heartbeat IPC: 3.348 cumulative IPC: 3.163 (Simulation time: 00 hr 00 min 40 sec)
Heartbeat CPU 0 instructions: 9500038 cycles: 3000628 heartbeat IPC: 3.227 cumulative IPC: 3.166 (Simulation time: 00 hr 00 min 42 sec)
Heartbeat CPU 0 instructions: 10000040 cycles: 3137471 heartbeat IPC: 3.654 cumulative IPC: 3.187 (Simulation time: 00 hr 00 min 44 sec)
Heartbeat CPU 0 instructions: 10500045 cycles: 3261210 heartbeat IPC: 4.041 cumulative IPC: 3.22 (Simulation time: 00 hr 00 min 46 sec)
Heartbeat CPU 0 instructions: 11000051 cycles: 3376530 heartbeat IPC: 4.336 cumulative IPC: 3.258 (Simulation time: 00 hr 00 min 48 sec)
Heartbeat CPU 0 instructions: 11500052 cycles: 3484520 heartbeat IPC: 4.63 cumulative IPC: 3.3 (Simulation time: 00 hr 00 min 49 sec)
Heartbeat CPU 0 instructions: 12000054 cycles: 3639238 heartbeat IPC: 3.232 cumulative IPC: 3.297 (Simulation time: 00 hr 00 min 52 sec)
Heartbeat CPU 0 instructions: 12500057 cycles: 3792355 heartbeat IPC: 3.265 cumulative IPC: 3.296 (Simulation time: 00 hr 00 min 54 sec)
Heartbeat CPU 0 instructions: 13000062 cycles: 3946595 heartbeat IPC: 3.242 cumulative IPC: 3.294 (Simulation time: 00 hr 00 min 56 sec)
Heartbeat CPU 0 instructions: 13500064 cycles: 4118052 heartbeat IPC: 2.916 cumulative IPC: 3.278 (Simulation time: 00 hr 00 min 59 sec)
Heartbeat CPU 0 instructions: 14000071 cycles: 4240462 heartbeat IPC: 4.085 cumulative IPC: 3.302 (Simulation time: 00 hr 01 min 01 sec)
Heartbeat CPU 0 instructions: 14500076 cycles: 4398786 heartbeat IPC: 3.158 cumulative IPC: 3.296 (Simulation time: 00 hr 01 min 03 sec)
Heartbeat CPU 0 instructions: 15000082 cycles: 4532777 heartbeat IPC: 3.732 cumulative IPC: 3.309 (Simulation time: 00 hr 01 min 05 sec)
Heartbeat CPU 0 instructions: 15500084 cycles: 4681600 heartbeat IPC: 3.36 cumulative IPC: 3.311 (Simulation time: 00 hr 01 min 08 sec)
Heartbeat CPU 0 instructions: 16000091 cycles: 4834408 heartbeat IPC: 3.272 cumulative IPC: 3.31 (Simulation time: 00 hr 01 min 10 sec)
Heartbeat CPU 0 instructions: 16500097 cycles: 4995381 heartbeat IPC: 3.106 cumulative IPC: 3.303 (Simulation time: 00 hr 01 min 13 sec)
Heartbeat CPU 0 instructions: 17000103 cycles: 5149832 heartbeat IPC: 3.237 cumulative IPC: 3.301 (Simulation time: 00 hr 01 min 15 sec)
Heartbeat CPU 0 instructions: 17500109 cycles: 5284944 heartbeat IPC: 3.701 cumulative IPC: 3.311 (Simulation time: 00 hr 01 min 17 sec)
Heartbeat CPU 0 instructions: 18000111 cycles: 5421415 heartbeat IPC: 3.664 cumulative IPC: 3.32 (Simulation time: 00 hr 01 min 19 sec)
Heartbeat CPU 0 instructions: 18500113 cycles: 5550889 heartbeat IPC: 3.862 cumulative IPC: 3.333 (Simulation time: 00 hr 01 min 21 sec)
Heartbeat CPU 0 instructions: 19000114 cycles: 5663164 heartbeat IPC: 4.453 cumulative IPC: 3.355 (Simulation time: 00 hr 01 min 23 sec)
Heartbeat CPU 0 instructions: 19500121 cycles: 5814776 heartbeat IPC: 3.298 cumulative IPC: 3.354 (Simulation time: 00 hr 01 min 25 sec)
Heartbeat CPU 0 instructions: 20000122 cycles: 5958872 heartbeat IPC: 3.47 cumulative IPC: 3.356 (Simulation time: 00 hr 01 min 27 sec)
Heartbeat CPU 0 instructions: 20500128 cycles: 6074917 heartbeat IPC: 4.309 cumulative IPC: 3.375 (Simulation time: 00 hr 01 min 29 sec)
Heartbeat CPU 0 instructions: 21000130 cycles: 6199636 heartbeat IPC: 4.009 cumulative IPC: 3.387 (Simulation time: 00 hr 01 min 30 sec)
Heartbeat CPU 0 instructions: 21500137 cycles: 6350913 heartbeat IPC: 3.305 cumulative IPC: 3.385 (Simulation time: 00 hr 01 min 33 sec)
Heartbeat CPU 0 instructions: 22000139 cycles: 6502590 heartbeat IPC: 3.296 cumulative IPC: 3.383 (Simulation time: 00 hr 01 min 35 sec)
Heartbeat CPU 0 instructions: 22500146 cycles: 6658671 heartbeat IPC: 3.204 cumulative IPC: 3.379 (Simulation time: 00 hr 01 min 38 sec)
Heartbeat CPU 0 instructions: 23000150 cycles: 6807268 heartbeat IPC: 3.365 cumulative IPC: 3.379 (Simulation time: 00 hr 01 min 40 sec)
Heartbeat CPU 0 instructions: 23500150 cycles: 6958697 heartbeat IPC: 3.302 cumulative IPC: 3.377 (Simulation time: 00 hr 01 min 42 sec)
Heartbeat CPU 0 instructions: 24000153 cycles: 7077545 heartbeat IPC: 4.207 cumulative IPC: 3.391 (Simulation time: 00 hr 01 min 44 sec)
Heartbeat CPU 0 instructions: 24500157 cycles: 7242635 heartbeat IPC: 3.029 cumulative IPC: 3.383 (Simulation time: 00 hr 01 min 47 sec)
Heartbeat CPU 0 instructions: 25000160 cycles: 7392466 heartbeat IPC: 3.337 cumulative IPC: 3.382 (Simulation time: 00 hr 01 min 49 sec)
Heartbeat CPU 0 instructions: 25500165 cycles: 7537397 heartbeat IPC: 3.45 cumulative IPC: 3.383 (Simulation time: 00 hr 01 min 51 sec)
Heartbeat CPU 0 instructions: 26000171 cycles: 7672123 heartbeat IPC: 3.711 cumulative IPC: 3.389 (Simulation time: 00 hr 01 min 53 sec)
Heartbeat CPU 0 instructions: 26500178 cycles: 7832998 heartbeat IPC: 3.108 cumulative IPC: 3.383 (Simulation time: 00 hr 01 min 56 sec)
Heartbeat CPU 0 instructions: 27000184 cycles: 7989264 heartbeat IPC: 3.2 cumulative IPC: 3.38 (Simulation time: 00 hr 01 min 58 sec)
Heartbeat CPU 0 instructions: 27500186 cycles: 8124616 heartbeat IPC: 3.694 cumulative IPC: 3.385 (Simulation time: 00 hr 02 min 00 sec)
Heartbeat CPU 0 instructions: 28000187 cycles: 8260785 heartbeat IPC: 3.672 cumulative IPC: 3.39 (Simulation time: 00 hr 02 min 02 sec)
Heartbeat CPU 0 instructions: 28500189 cycles: 8386701 heartbeat IPC: 3.971 cumulative IPC: 3.398 (Simulation time: 00 hr 02 min 04 sec)
Heartbeat CPU 0 instructions: 29000194 cycles: 8528625 heartbeat IPC: 3.523 cumulative IPC: 3.4 (Simulation time: 00 hr 02 min 07 sec)
Heartbeat CPU 0 instructions: 29500201 cycles: 8674874 heartbeat IPC: 3.419 cumulative IPC: 3.401 (Simulation time: 00 hr 02 min 09 sec)
Heartbeat CPU 0 instructions: 30000203 cycles: 8826982 heartbeat IPC: 3.287 cumulative IPC: 3.399 (Simulation time: 00 hr 02 min 11 sec)
Heartbeat CPU 0 instructions: 30500204 cycles: 8976556 heartbeat IPC: 3.343 cumulative IPC: 3.398 (Simulation time: 00 hr 02 min 14 sec)
Heartbeat CPU 0 instructions: 31000208 cycles: 9087770 heartbeat IPC: 4.496 cumulative IPC: 3.411 (Simulation time: 00 hr 02 min 15 sec)
Heartbeat CPU 0 instructions: 31500213 cycles: 9227151 heartbeat IPC: 3.587 cumulative IPC: 3.414 (Simulation time: 00 hr 02 min 18 sec)
Heartbeat CPU 0 instructions: 32000218 cycles: 9363248 heartbeat IPC: 3.674 cumulative IPC: 3.418 (Simulation time: 00 hr 02 min 20 sec)
Heartbeat CPU 0 instructions: 32500223 cycles: 9484113 heartbeat IPC: 4.137 cumulative IPC: 3.427 (Simulation time: 00 hr 02 min 21 sec)
Heartbeat CPU 0 instructions: 33000229 cycles: 9602741 heartbeat IPC: 4.215 cumulative IPC: 3.437 (Simulation time: 00 hr 02 min 23 sec)
Heartbeat CPU 0 instructions: 33500232 cycles: 9742455 heartbeat IPC: 3.579 cumulative IPC: 3.439 (Simulation time: 00 hr 02 min 25 sec)
Heartbeat CPU 0 instructions: 34000237 cycles: 9884943 heartbeat IPC: 3.509 cumulative IPC: 3.44 (Simulation time: 00 hr 02 min 28 sec)
Heartbeat CPU 0 instructions: 34500244 cycles: 10015738 heartbeat IPC: 3.823 cumulative IPC: 3.445 (Simulation time: 00 hr 02 min 30 sec)
Heartbeat CPU 0 instructions: 35000246 cycles: 10171073 heartbeat IPC: 3.219 cumulative IPC: 3.441 (Simulation time: 00 hr 02 min 32 sec)
Heartbeat CPU 0 instructions: 35500246 cycles: 10305895 heartbeat IPC: 3.709 cumulative IPC: 3.445 (Simulation time: 00 hr 02 min 34 sec)
Heartbeat CPU 0 instructions: 36000247 cycles: 10443172 heartbeat IPC: 3.642 cumulative IPC: 3.447 (Simulation time: 00 hr 02 min 36 sec)
Heartbeat CPU 0 instructions: 36500249 cycles: 10575264 heartbeat IPC: 3.785 cumulative IPC: 3.451 (Simulation time: 00 hr 02 min 38 sec)
Heartbeat CPU 0 instructions: 37000251 cycles: 10710826 heartbeat IPC: 3.688 cumulative IPC: 3.454 (Simulation time: 00 hr 02 min 40 sec)
Heartbeat CPU 0 instructions: 37500256 cycles: 10848199 heartbeat IPC: 3.64 cumulative IPC: 3.457 (Simulation time: 00 hr 02 min 42 sec)
Heartbeat CPU 0 instructions: 38000257 cycles: 10991205 heartbeat IPC: 3.496 cumulative IPC: 3.457 (Simulation time: 00 hr 02 min 45 sec)
Heartbeat CPU 0 instructions: 38500262 cycles: 11143643 heartbeat IPC: 3.28 cumulative IPC: 3.455 (Simulation time: 00 hr 02 min 47 sec)
Heartbeat CPU 0 instructions: 39000263 cycles: 11267820 heartbeat IPC: 4.027 cumulative IPC: 3.461 (Simulation time: 00 hr 02 min 49 sec)
Heartbeat CPU 0 instructions: 39500266 cycles: 11377288 heartbeat IPC: 4.568 cumulative IPC: 3.472 (Simulation time: 00 hr 02 min 51 sec)
Heartbeat CPU 0 instructions: 40000270 cycles: 11484439 heartbeat IPC: 4.666 cumulative IPC: 3.483 (Simulation time: 00 hr 02 min 53 sec)
Heartbeat CPU 0 instructions: 40500271 cycles: 11594087 heartbeat IPC: 4.56 cumulative IPC: 3.493 (Simulation time: 00 hr 02 min 54 sec)
Heartbeat CPU 0 instructions: 41000276 cycles: 11736722 heartbeat IPC: 3.505 cumulative IPC: 3.493 (Simulation time: 00 hr 02 min 56 sec)
Heartbeat CPU 0 instructions: 41500277 cycles: 11871899 heartbeat IPC: 3.699 cumulative IPC: 3.496 (Simulation time: 00 hr 02 min 58 sec)
Heartbeat CPU 0 instructions: 42000278 cycles: 12012629 heartbeat IPC: 3.553 cumulative IPC: 3.496 (Simulation time: 00 hr 03 min 00 sec)
Heartbeat CPU 0 instructions: 42500282 cycles: 12185028 heartbeat IPC: 2.9 cumulative IPC: 3.488 (Simulation time: 00 hr 03 min 03 sec)
Heartbeat CPU 0 instructions: 43000288 cycles: 12321748 heartbeat IPC: 3.657 cumulative IPC: 3.49 (Simulation time: 00 hr 03 min 05 sec)
Heartbeat CPU 0 instructions: 43500295 cycles: 12485755 heartbeat IPC: 3.049 cumulative IPC: 3.484 (Simulation time: 00 hr 03 min 08 sec)
Heartbeat CPU 0 instructions: 44000295 cycles: 12638978 heartbeat IPC: 3.263 cumulative IPC: 3.481 (Simulation time: 00 hr 03 min 10 sec)
Heartbeat CPU 0 instructions: 44500301 cycles: 12788777 heartbeat IPC: 3.338 cumulative IPC: 3.48 (Simulation time: 00 hr 03 min 13 sec)
Heartbeat CPU 0 instructions: 45000307 cycles: 12914197 heartbeat IPC: 3.987 cumulative IPC: 3.485 (Simulation time: 00 hr 03 min 15 sec)
Heartbeat CPU 0 instructions: 45500313 cycles: 13019400 heartbeat IPC: 4.753 cumulative IPC: 3.495 (Simulation time: 00 hr 03 min 16 sec)
Heartbeat CPU 0 instructions: 46000315 cycles: 13124035 heartbeat IPC: 4.779 cumulative IPC: 3.505 (Simulation time: 00 hr 03 min 18 sec)
Heartbeat CPU 0 instructions: 46500318 cycles: 13230640 heartbeat IPC: 4.69 cumulative IPC: 3.515 (Simulation time: 00 hr 03 min 20 sec)
Heartbeat CPU 0 instructions: 47000318 cycles: 13337512 heartbeat IPC: 4.678 cumulative IPC: 3.524 (Simulation time: 00 hr 03 min 21 sec)
Heartbeat CPU 0 instructions: 47500321 cycles: 13442038 heartbeat IPC: 4.784 cumulative IPC: 3.534 (Simulation time: 00 hr 03 min 23 sec)
Heartbeat CPU 0 instructions: 48000326 cycles: 13547635 heartbeat IPC: 4.735 cumulative IPC: 3.543 (Simulation time: 00 hr 03 min 25 sec)
Heartbeat CPU 0 instructions: 48500326 cycles: 13651259 heartbeat IPC: 4.825 cumulative IPC: 3.553 (Simulation time: 00 hr 03 min 26 sec)
Heartbeat CPU 0 instructions: 49000330 cycles: 13757942 heartbeat IPC: 4.687 cumulative IPC: 3.562 (Simulation time: 00 hr 03 min 28 sec)
Heartbeat CPU 0 instructions: 49500332 cycles: 13862136 heartbeat IPC: 4.799 cumulative IPC: 3.571 (Simulation time: 00 hr 03 min 29 sec)
Warmup halting CPU 0 at instruction 50000004 cycle 13964599 for remainder of phase
Warmup finished CPU 0 instructions: 50000004 cycles: 13964599 cumulative IPC: 3.58 (Simulation time: 00 hr 03 min 31 sec)
Warmup complete CPU 0 instructions: 50000004 cycles: 13964599 cumulative IPC: 3.58 (Simulation time: 00 hr 03 min 31 sec)
Heartbeat CPU 0 instructions: 50000335 cycles: 13964644 heartbeat IPC: 4.878 cumulative IPC: 7.356 (Simulation time: 00 hr 03 min 31 sec)
Heartbeat CPU 0 instructions: 50500335 cycles: 14270205 heartbeat IPC: 1.636 cumulative IPC: 1.637 (Simulation time: 00 hr 03 min 34 sec)
Heartbeat CPU 0 instructions: 51000335 cycles: 14589469 heartbeat IPC: 1.566 cumulative IPC: 1.601 (Simulation time: 00 hr 03 min 37 sec)
Heartbeat CPU 0 instructions: 51500338 cycles: 14903094 heartbeat IPC: 1.594 cumulative IPC: 1.599 (Simulation time: 00 hr 03 min 40 sec)
Heartbeat CPU 0 instructions: 52000338 cycles: 15221741 heartbeat IPC: 1.569 cumulative IPC: 1.591 (Simulation time: 00 hr 03 min 43 sec)
Heartbeat CPU 0 instructions: 52500338 cycles: 15570816 heartbeat IPC: 1.432 cumulative IPC: 1.557 (Simulation time: 00 hr 03 min 46 sec)
Heartbeat CPU 0 instructions: 53000339 cycles: 15897094 heartbeat IPC: 1.532 cumulative IPC: 1.553 (Simulation time: 00 hr 03 min 49 sec)
Heartbeat CPU 0 instructions: 53500341 cycles: 16192547 heartbeat IPC: 1.692 cumulative IPC: 1.571 (Simulation time: 00 hr 03 min 52 sec)
Heartbeat CPU 0 instructions: 54000343 cycles: 16485108 heartbeat IPC: 1.709 cumulative IPC: 1.587 (Simulation time: 00 hr 03 min 55 sec)
Heartbeat CPU 0 instructions: 54500343 cycles: 16783941 heartbeat IPC: 1.673 cumulative IPC: 1.596 (Simulation time: 00 hr 03 min 58 sec)
Heartbeat CPU 0 instructions: 55000345 cycles: 17072216 heartbeat IPC: 1.734 cumulative IPC: 1.609 (Simulation time: 00 hr 04 min 01 sec)
Heartbeat CPU 0 instructions: 55500348 cycles: 17360739 heartbeat IPC: 1.733 cumulative IPC: 1.62 (Simulation time: 00 hr 04 min 04 sec)
Heartbeat CPU 0 instructions: 56000348 cycles: 17656696 heartbeat IPC: 1.689 cumulative IPC: 1.625 (Simulation time: 00 hr 04 min 06 sec)
Heartbeat CPU 0 instructions: 56500352 cycles: 17984068 heartbeat IPC: 1.527 cumulative IPC: 1.617 (Simulation time: 00 hr 04 min 10 sec)
Heartbeat CPU 0 instructions: 57000354 cycles: 18297515 heartbeat IPC: 1.595 cumulative IPC: 1.616 (Simulation time: 00 hr 04 min 13 sec)
Heartbeat CPU 0 instructions: 57500359 cycles: 18599391 heartbeat IPC: 1.656 cumulative IPC: 1.618 (Simulation time: 00 hr 04 min 16 sec)
Heartbeat CPU 0 instructions: 58000366 cycles: 18899176 heartbeat IPC: 1.668 cumulative IPC: 1.621 (Simulation time: 00 hr 04 min 18 sec)
Heartbeat CPU 0 instructions: 58500373 cycles: 19200725 heartbeat IPC: 1.658 cumulative IPC: 1.623 (Simulation time: 00 hr 04 min 21 sec)
Heartbeat CPU 0 instructions: 59000373 cycles: 19497161 heartbeat IPC: 1.687 cumulative IPC: 1.627 (Simulation time: 00 hr 04 min 24 sec)
Heartbeat CPU 0 instructions: 59500373 cycles: 19822883 heartbeat IPC: 1.535 cumulative IPC: 1.622 (Simulation time: 00 hr 04 min 27 sec)
Heartbeat CPU 0 instructions: 60000373 cycles: 20134155 heartbeat IPC: 1.606 cumulative IPC: 1.621 (Simulation time: 00 hr 04 min 30 sec)
Heartbeat CPU 0 instructions: 60500378 cycles: 20423759 heartbeat IPC: 1.727 cumulative IPC: 1.626 (Simulation time: 00 hr 04 min 33 sec)
Heartbeat CPU 0 instructions: 61000381 cycles: 21107370 heartbeat IPC: 0.7314 cumulative IPC: 1.54 (Simulation time: 00 hr 04 min 38 sec)
Heartbeat CPU 0 instructions: 61500381 cycles: 21682714 heartbeat IPC: 0.869 cumulative IPC: 1.49 (Simulation time: 00 hr 04 min 42 sec)
Heartbeat CPU 0 instructions: 62000384 cycles: 22110449 heartbeat IPC: 1.169 cumulative IPC: 1.473 (Simulation time: 00 hr 04 min 46 sec)
Heartbeat CPU 0 instructions: 62500387 cycles: 22635784 heartbeat IPC: 0.9518 cumulative IPC: 1.442 (Simulation time: 00 hr 04 min 50 sec)
Heartbeat CPU 0 instructions: 63000393 cycles: 23098657 heartbeat IPC: 1.08 cumulative IPC: 1.423 (Simulation time: 00 hr 04 min 54 sec)
Heartbeat CPU 0 instructions: 63500400 cycles: 23561435 heartbeat IPC: 1.08 cumulative IPC: 1.407 (Simulation time: 00 hr 04 min 59 sec)
Heartbeat CPU 0 instructions: 64000400 cycles: 24010003 heartbeat IPC: 1.115 cumulative IPC: 1.394 (Simulation time: 00 hr 05 min 03 sec)
Heartbeat CPU 0 instructions: 64500403 cycles: 24492631 heartbeat IPC: 1.036 cumulative IPC: 1.377 (Simulation time: 00 hr 05 min 07 sec)
Heartbeat CPU 0 instructions: 65000410 cycles: 24780555 heartbeat IPC: 1.737 cumulative IPC: 1.387 (Simulation time: 00 hr 05 min 10 sec)
Heartbeat CPU 0 instructions: 65500411 cycles: 25234727 heartbeat IPC: 1.101 cumulative IPC: 1.375 (Simulation time: 00 hr 05 min 14 sec)
Heartbeat CPU 0 instructions: 66000412 cycles: 25748107 heartbeat IPC: 0.9739 cumulative IPC: 1.358 (Simulation time: 00 hr 05 min 18 sec)
Heartbeat CPU 0 instructions: 66500412 cycles: 26229883 heartbeat IPC: 1.038 cumulative IPC: 1.345 (Simulation time: 00 hr 05 min 22 sec)
Heartbeat CPU 0 instructions: 67000415 cycles: 26557600 heartbeat IPC: 1.526 cumulative IPC: 1.35 (Simulation time: 00 hr 05 min 25 sec)
Heartbeat CPU 0 instructions: 67500416 cycles: 26870268 heartbeat IPC: 1.599 cumulative IPC: 1.356 (Simulation time: 00 hr 05 min 28 sec)
Heartbeat CPU 0 instructions: 68000423 cycles: 27245979 heartbeat IPC: 1.331 cumulative IPC: 1.355 (Simulation time: 00 hr 05 min 31 sec)
Heartbeat CPU 0 instructions: 68500429 cycles: 27571824 heartbeat IPC: 1.534 cumulative IPC: 1.36 (Simulation time: 00 hr 05 min 35 sec)
Heartbeat CPU 0 instructions: 69000429 cycles: 27893941 heartbeat IPC: 1.552 cumulative IPC: 1.364 (Simulation time: 00 hr 05 min 38 sec)
Heartbeat CPU 0 instructions: 69500429 cycles: 29550846 heartbeat IPC: 0.3018 cumulative IPC: 1.251 (Simulation time: 00 hr 05 min 49 sec)
Heartbeat CPU 0 instructions: 70000430 cycles: 30983833 heartbeat IPC: 0.3489 cumulative IPC: 1.175 (Simulation time: 00 hr 06 min 00 sec)
Heartbeat CPU 0 instructions: 70500430 cycles: 32327303 heartbeat IPC: 0.3722 cumulative IPC: 1.116 (Simulation time: 00 hr 06 min 11 sec)
Heartbeat CPU 0 instructions: 71000434 cycles: 33385733 heartbeat IPC: 0.4724 cumulative IPC: 1.081 (Simulation time: 00 hr 06 min 18 sec)
Heartbeat CPU 0 instructions: 71500435 cycles: 34329902 heartbeat IPC: 0.5296 cumulative IPC: 1.056 (Simulation time: 00 hr 06 min 24 sec)
Heartbeat CPU 0 instructions: 72000437 cycles: 35053002 heartbeat IPC: 0.6915 cumulative IPC: 1.043 (Simulation time: 00 hr 06 min 29 sec)
Heartbeat CPU 0 instructions: 72500437 cycles: 36009865 heartbeat IPC: 0.5225 cumulative IPC: 1.021 (Simulation time: 00 hr 06 min 36 sec)
Heartbeat CPU 0 instructions: 73000438 cycles: 36930209 heartbeat IPC: 0.5433 cumulative IPC: 1.002 (Simulation time: 00 hr 06 min 42 sec)
Heartbeat CPU 0 instructions: 73500438 cycles: 37993011 heartbeat IPC: 0.4705 cumulative IPC: 0.978 (Simulation time: 00 hr 06 min 49 sec)
Heartbeat CPU 0 instructions: 74000439 cycles: 38961905 heartbeat IPC: 0.5161 cumulative IPC: 0.9601 (Simulation time: 00 hr 06 min 55 sec)
Heartbeat CPU 0 instructions: 74500440 cycles: 39935727 heartbeat IPC: 0.5134 cumulative IPC: 0.9434 (Simulation time: 00 hr 07 min 02 sec)
Heartbeat CPU 0 instructions: 75000442 cycles: 40867108 heartbeat IPC: 0.5368 cumulative IPC: 0.9293 (Simulation time: 00 hr 07 min 08 sec)
Heartbeat CPU 0 instructions: 75500443 cycles: 42161160 heartbeat IPC: 0.3864 cumulative IPC: 0.9044 (Simulation time: 00 hr 07 min 16 sec)
Heartbeat CPU 0 instructions: 76000448 cycles: 43273928 heartbeat IPC: 0.4493 cumulative IPC: 0.8871 (Simulation time: 00 hr 07 min 23 sec)
Heartbeat CPU 0 instructions: 76500449 cycles: 44135487 heartbeat IPC: 0.5803 cumulative IPC: 0.8783 (Simulation time: 00 hr 07 min 29 sec)
Heartbeat CPU 0 instructions: 77000449 cycles: 45073413 heartbeat IPC: 0.5331 cumulative IPC: 0.8679 (Simulation time: 00 hr 07 min 35 sec)
Heartbeat CPU 0 instructions: 77500449 cycles: 46087185 heartbeat IPC: 0.4932 cumulative IPC: 0.8561 (Simulation time: 00 hr 07 min 42 sec)
Heartbeat CPU 0 instructions: 78000449 cycles: 47305640 heartbeat IPC: 0.4104 cumulative IPC: 0.8398 (Simulation time: 00 hr 07 min 51 sec)
Heartbeat CPU 0 instructions: 78500452 cycles: 48102299 heartbeat IPC: 0.6276 cumulative IPC: 0.8349 (Simulation time: 00 hr 07 min 57 sec)
Heartbeat CPU 0 instructions: 79000452 cycles: 49080523 heartbeat IPC: 0.5111 cumulative IPC: 0.8258 (Simulation time: 00 hr 08 min 04 sec)
Heartbeat CPU 0 instructions: 79500457 cycles: 49960591 heartbeat IPC: 0.5681 cumulative IPC: 0.8195 (Simulation time: 00 hr 08 min 11 sec)
Heartbeat CPU 0 instructions: 80000461 cycles: 51014704 heartbeat IPC: 0.4743 cumulative IPC: 0.8097 (Simulation time: 00 hr 08 min 18 sec)
Heartbeat CPU 0 instructions: 80500465 cycles: 52512772 heartbeat IPC: 0.3338 cumulative IPC: 0.7912 (Simulation time: 00 hr 08 min 27 sec)
Heartbeat CPU 0 instructions: 81000469 cycles: 53287241 heartbeat IPC: 0.6456 cumulative IPC: 0.7884 (Simulation time: 00 hr 08 min 33 sec)
Heartbeat CPU 0 instructions: 81500469 cycles: 54248056 heartbeat IPC: 0.5204 cumulative IPC: 0.782 (Simulation time: 00 hr 08 min 39 sec)
Heartbeat CPU 0 instructions: 82000476 cycles: 54815441 heartbeat IPC: 0.8812 cumulative IPC: 0.7833 (Simulation time: 00 hr 08 min 44 sec)
Heartbeat CPU 0 instructions: 82500478 cycles: 55186567 heartbeat IPC: 1.347 cumulative IPC: 0.7884 (Simulation time: 00 hr 08 min 47 sec)
Heartbeat CPU 0 instructions: 83000479 cycles: 55541440 heartbeat IPC: 1.409 cumulative IPC: 0.7937 (Simulation time: 00 hr 08 min 50 sec)
Heartbeat CPU 0 instructions: 83500479 cycles: 55872404 heartbeat IPC: 1.511 cumulative IPC: 0.7994 (Simulation time: 00 hr 08 min 53 sec)
Heartbeat CPU 0 instructions: 84000479 cycles: 56205049 heartbeat IPC: 1.503 cumulative IPC: 0.8049 (Simulation time: 00 hr 08 min 56 sec)
Heartbeat CPU 0 instructions: 84500479 cycles: 56559199 heartbeat IPC: 1.412 cumulative IPC: 0.81 (Simulation time: 00 hr 09 min 00 sec)
Heartbeat CPU 0 instructions: 85000481 cycles: 56886805 heartbeat IPC: 1.526 cumulative IPC: 0.8154 (Simulation time: 00 hr 09 min 03 sec)
Heartbeat CPU 0 instructions: 85500487 cycles: 57218593 heartbeat IPC: 1.507 cumulative IPC: 0.8207 (Simulation time: 00 hr 09 min 06 sec)
Heartbeat CPU 0 instructions: 86000489 cycles: 57621053 heartbeat IPC: 1.242 cumulative IPC: 0.8246 (Simulation time: 00 hr 09 min 09 sec)
Heartbeat CPU 0 instructions: 86500493 cycles: 57945051 heartbeat IPC: 1.543 cumulative IPC: 0.8299 (Simulation time: 00 hr 09 min 12 sec)
Heartbeat CPU 0 instructions: 87000500 cycles: 58258297 heartbeat IPC: 1.596 cumulative IPC: 0.8353 (Simulation time: 00 hr 09 min 15 sec)
Heartbeat CPU 0 instructions: 87500500 cycles: 58589780 heartbeat IPC: 1.508 cumulative IPC: 0.8403 (Simulation time: 00 hr 09 min 18 sec)
Heartbeat CPU 0 instructions: 88000501 cycles: 58893342 heartbeat IPC: 1.647 cumulative IPC: 0.8458 (Simulation time: 00 hr 09 min 21 sec)
Heartbeat CPU 0 instructions: 88500503 cycles: 59221259 heartbeat IPC: 1.525 cumulative IPC: 0.8507 (Simulation time: 00 hr 09 min 25 sec)
Heartbeat CPU 0 instructions: 89000504 cycles: 59549672 heartbeat IPC: 1.522 cumulative IPC: 0.8556 (Simulation time: 00 hr 09 min 28 sec)
Heartbeat CPU 0 instructions: 89500507 cycles: 59885972 heartbeat IPC: 1.487 cumulative IPC: 0.8602 (Simulation time: 00 hr 09 min 31 sec)
Heartbeat CPU 0 instructions: 90000507 cycles: 60186027 heartbeat IPC: 1.666 cumulative IPC: 0.8654 (Simulation time: 00 hr 09 min 34 sec)
Heartbeat CPU 0 instructions: 90500507 cycles: 60494755 heartbeat IPC: 1.62 cumulative IPC: 0.8704 (Simulation time: 00 hr 09 min 37 sec)
Heartbeat CPU 0 instructions: 91000510 cycles: 60793127 heartbeat IPC: 1.676 cumulative IPC: 0.8755 (Simulation time: 00 hr 09 min 40 sec)
Heartbeat CPU 0 instructions: 91500512 cycles: 61110574 heartbeat IPC: 1.575 cumulative IPC: 0.8803 (Simulation time: 00 hr 09 min 43 sec)
Heartbeat CPU 0 instructions: 92000513 cycles: 62317887 heartbeat IPC: 0.4141 cumulative IPC: 0.8686 (Simulation time: 00 hr 09 min 52 sec)
Heartbeat CPU 0 instructions: 92500515 cycles: 62834660 heartbeat IPC: 0.9675 cumulative IPC: 0.8697 (Simulation time: 00 hr 09 min 56 sec)
Heartbeat CPU 0 instructions: 93000515 cycles: 63160492 heartbeat IPC: 1.535 cumulative IPC: 0.8741 (Simulation time: 00 hr 10 min 00 sec)
Heartbeat CPU 0 instructions: 93500518 cycles: 63520226 heartbeat IPC: 1.39 cumulative IPC: 0.8778 (Simulation time: 00 hr 10 min 04 sec)
Heartbeat CPU 0 instructions: 94000518 cycles: 63829166 heartbeat IPC: 1.618 cumulative IPC: 0.8824 (Simulation time: 00 hr 10 min 07 sec)
Heartbeat CPU 0 instructions: 94500523 cycles: 64135365 heartbeat IPC: 1.633 cumulative IPC: 0.887 (Simulation time: 00 hr 10 min 11 sec)
Heartbeat CPU 0 instructions: 95000523 cycles: 64453590 heartbeat IPC: 1.571 cumulative IPC: 0.8913 (Simulation time: 00 hr 10 min 14 sec)
Heartbeat CPU 0 instructions: 95500524 cycles: 64778246 heartbeat IPC: 1.54 cumulative IPC: 0.8954 (Simulation time: 00 hr 10 min 18 sec)
Heartbeat CPU 0 instructions: 96000527 cycles: 65115471 heartbeat IPC: 1.483 cumulative IPC: 0.8993 (Simulation time: 00 hr 10 min 21 sec)
Heartbeat CPU 0 instructions: 96500527 cycles: 65756934 heartbeat IPC: 0.7795 cumulative IPC: 0.8978 (Simulation time: 00 hr 10 min 27 sec)
Heartbeat CPU 0 instructions: 97000527 cycles: 66369997 heartbeat IPC: 0.8156 cumulative IPC: 0.8969 (Simulation time: 00 hr 10 min 32 sec)
Heartbeat CPU 0 instructions: 97500528 cycles: 66899460 heartbeat IPC: 0.9444 cumulative IPC: 0.8973 (Simulation time: 00 hr 10 min 36 sec)
Heartbeat CPU 0 instructions: 98000528 cycles: 67342199 heartbeat IPC: 1.129 cumulative IPC: 0.8993 (Simulation time: 00 hr 10 min 41 sec)
Heartbeat CPU 0 instructions: 98500530 cycles: 67829983 heartbeat IPC: 1.025 cumulative IPC: 0.9004 (Simulation time: 00 hr 10 min 45 sec)
Heartbeat CPU 0 instructions: 99000535 cycles: 68285919 heartbeat IPC: 1.097 cumulative IPC: 0.902 (Simulation time: 00 hr 10 min 50 sec)
Heartbeat CPU 0 instructions: 99500536 cycles: 68727877 heartbeat IPC: 1.131 cumulative IPC: 0.9039 (Simulation time: 00 hr 10 min 54 sec)
Heartbeat CPU 0 instructions: 100000542 cycles: 69176446 heartbeat IPC: 1.115 cumulative IPC: 0.9056 (Simulation time: 00 hr 10 min 59 sec)
Heartbeat CPU 0 instructions: 100500547 cycles: 69648008 heartbeat IPC: 1.06 cumulative IPC: 0.9069 (Simulation time: 00 hr 11 min 04 sec)
Heartbeat CPU 0 instructions: 101000548 cycles: 70037095 heartbeat IPC: 1.285 cumulative IPC: 0.9095 (Simulation time: 00 hr 11 min 08 sec)
Heartbeat CPU 0 instructions: 101500553 cycles: 70436299 heartbeat IPC: 1.253 cumulative IPC: 0.912 (Simulation time: 00 hr 11 min 12 sec)
Heartbeat CPU 0 instructions: 102000556 cycles: 70972516 heartbeat IPC: 0.9325 cumulative IPC: 0.9122 (Simulation time: 00 hr 11 min 17 sec)
Heartbeat CPU 0 instructions: 102500557 cycles: 72443511 heartbeat IPC: 0.3399 cumulative IPC: 0.8978 (Simulation time: 00 hr 11 min 28 sec)
Heartbeat CPU 0 instructions: 103000563 cycles: 72849021 heartbeat IPC: 1.233 cumulative IPC: 0.9001 (Simulation time: 00 hr 11 min 32 sec)
Heartbeat CPU 0 instructions: 103500569 cycles: 73242795 heartbeat IPC: 1.27 cumulative IPC: 0.9025 (Simulation time: 00 hr 11 min 36 sec)
Heartbeat CPU 0 instructions: 104000572 cycles: 73645903 heartbeat IPC: 1.24 cumulative IPC: 0.9048 (Simulation time: 00 hr 11 min 40 sec)
Heartbeat CPU 0 instructions: 104500573 cycles: 74054775 heartbeat IPC: 1.223 cumulative IPC: 0.907 (Simulation time: 00 hr 11 min 44 sec)
Heartbeat CPU 0 instructions: 105000576 cycles: 74444373 heartbeat IPC: 1.283 cumulative IPC: 0.9094 (Simulation time: 00 hr 11 min 48 sec)
Heartbeat CPU 0 instructions: 105500579 cycles: 76032792 heartbeat IPC: 0.3148 cumulative IPC: 0.8942 (Simulation time: 00 hr 12 min 00 sec)
Heartbeat CPU 0 instructions: 106000581 cycles: 77282945 heartbeat IPC: 0.4 cumulative IPC: 0.8844 (Simulation time: 00 hr 12 min 11 sec)
Heartbeat CPU 0 instructions: 106500588 cycles: 78704819 heartbeat IPC: 0.3517 cumulative IPC: 0.8727 (Simulation time: 00 hr 12 min 23 sec)
Heartbeat CPU 0 instructions: 107000591 cycles: 79538659 heartbeat IPC: 0.5996 cumulative IPC: 0.8693 (Simulation time: 00 hr 12 min 31 sec)
Heartbeat CPU 0 instructions: 107500592 cycles: 79849304 heartbeat IPC: 1.61 cumulative IPC: 0.8727 (Simulation time: 00 hr 12 min 35 sec)
Heartbeat CPU 0 instructions: 108000598 cycles: 80304627 heartbeat IPC: 1.098 cumulative IPC: 0.8743 (Simulation time: 00 hr 12 min 41 sec)
Heartbeat CPU 0 instructions: 108500602 cycles: 80716727 heartbeat IPC: 1.213 cumulative IPC: 0.8764 (Simulation time: 00 hr 12 min 47 sec)
Heartbeat CPU 0 instructions: 109000604 cycles: 81001543 heartbeat IPC: 1.756 cumulative IPC: 0.8801 (Simulation time: 00 hr 12 min 51 sec)
Heartbeat CPU 0 instructions: 109500604 cycles: 81321997 heartbeat IPC: 1.56 cumulative IPC: 0.8834 (Simulation time: 00 hr 12 min 55 sec)
Heartbeat CPU 0 instructions: 110000604 cycles: 81622038 heartbeat IPC: 1.666 cumulative IPC: 0.8868 (Simulation time: 00 hr 13 min 00 sec)
Heartbeat CPU 0 instructions: 110500605 cycles: 81996442 heartbeat IPC: 1.335 cumulative IPC: 0.8893 (Simulation time: 00 hr 13 min 05 sec)
Heartbeat CPU 0 instructions: 111000609 cycles: 82327611 heartbeat IPC: 1.51 cumulative IPC: 0.8923 (Simulation time: 00 hr 13 min 10 sec)
Heartbeat CPU 0 instructions: 111500610 cycles: 82718559 heartbeat IPC: 1.279 cumulative IPC: 0.8945 (Simulation time: 00 hr 13 min 15 sec)
Heartbeat CPU 0 instructions: 112000610 cycles: 83041485 heartbeat IPC: 1.548 cumulative IPC: 0.8976 (Simulation time: 00 hr 13 min 20 sec)
Heartbeat CPU 0 instructions: 112500612 cycles: 83324851 heartbeat IPC: 1.765 cumulative IPC: 0.9011 (Simulation time: 00 hr 13 min 25 sec)
Heartbeat CPU 0 instructions: 113000614 cycles: 83555492 heartbeat IPC: 2.168 cumulative IPC: 0.9053 (Simulation time: 00 hr 13 min 28 sec)
Heartbeat CPU 0 instructions: 113500619 cycles: 83914018 heartbeat IPC: 1.395 cumulative IPC: 0.9078 (Simulation time: 00 hr 13 min 34 sec)
Heartbeat CPU 0 instructions: 114000626 cycles: 84336015 heartbeat IPC: 1.185 cumulative IPC: 0.9095 (Simulation time: 00 hr 13 min 40 sec)
Heartbeat CPU 0 instructions: 114500627 cycles: 84710904 heartbeat IPC: 1.334 cumulative IPC: 0.9117 (Simulation time: 00 hr 13 min 45 sec)
Heartbeat CPU 0 instructions: 115000627 cycles: 86258396 heartbeat IPC: 0.3231 cumulative IPC: 0.8991 (Simulation time: 00 hr 13 min 58 sec)
Heartbeat CPU 0 instructions: 115500632 cycles: 87420433 heartbeat IPC: 0.4303 cumulative IPC: 0.8917 (Simulation time: 00 hr 14 min 07 sec)
Heartbeat CPU 0 instructions: 116000632 cycles: 88489285 heartbeat IPC: 0.4678 cumulative IPC: 0.8856 (Simulation time: 00 hr 14 min 15 sec)
Heartbeat CPU 0 instructions: 116500632 cycles: 89510268 heartbeat IPC: 0.4897 cumulative IPC: 0.8803 (Simulation time: 00 hr 14 min 23 sec)
Heartbeat CPU 0 instructions: 117000632 cycles: 90470452 heartbeat IPC: 0.5207 cumulative IPC: 0.8758 (Simulation time: 00 hr 14 min 30 sec)
Heartbeat CPU 0 instructions: 117500634 cycles: 91416652 heartbeat IPC: 0.5284 cumulative IPC: 0.8715 (Simulation time: 00 hr 14 min 37 sec)
Heartbeat CPU 0 instructions: 118000634 cycles: 92436435 heartbeat IPC: 0.4903 cumulative IPC: 0.8666 (Simulation time: 00 hr 14 min 45 sec)
Heartbeat CPU 0 instructions: 118500634 cycles: 94809092 heartbeat IPC: 0.2107 cumulative IPC: 0.8473 (Simulation time: 00 hr 15 min 01 sec)
Heartbeat CPU 0 instructions: 119000640 cycles: 96599272 heartbeat IPC: 0.2793 cumulative IPC: 0.835 (Simulation time: 00 hr 15 min 14 sec)
Heartbeat CPU 0 instructions: 119500647 cycles: 98207932 heartbeat IPC: 0.3108 cumulative IPC: 0.825 (Simulation time: 00 hr 15 min 25 sec)
Heartbeat CPU 0 instructions: 120000648 cycles: 99233802 heartbeat IPC: 0.4874 cumulative IPC: 0.8209 (Simulation time: 00 hr 15 min 33 sec)
Heartbeat CPU 0 instructions: 120500649 cycles: 99730976 heartbeat IPC: 1.006 cumulative IPC: 0.822 (Simulation time: 00 hr 15 min 37 sec)
Heartbeat CPU 0 instructions: 121000655 cycles: 100705580 heartbeat IPC: 0.513 cumulative IPC: 0.8185 (Simulation time: 00 hr 15 min 44 sec)
Heartbeat CPU 0 instructions: 121500655 cycles: 101558040 heartbeat IPC: 0.5865 cumulative IPC: 0.8163 (Simulation time: 00 hr 15 min 51 sec)
Heartbeat CPU 0 instructions: 122000656 cycles: 102549158 heartbeat IPC: 0.5045 cumulative IPC: 0.8128 (Simulation time: 00 hr 15 min 59 sec)
Heartbeat CPU 0 instructions: 122500660 cycles: 104012202 heartbeat IPC: 0.3418 cumulative IPC: 0.8051 (Simulation time: 00 hr 16 min 09 sec)
Heartbeat CPU 0 instructions: 123000661 cycles: 105111375 heartbeat IPC: 0.4549 cumulative IPC: 0.8009 (Simulation time: 00 hr 16 min 17 sec)
Heartbeat CPU 0 instructions: 123500663 cycles: 106176847 heartbeat IPC: 0.4693 cumulative IPC: 0.7971 (Simulation time: 00 hr 16 min 25 sec)
Heartbeat CPU 0 instructions: 124000665 cycles: 106873093 heartbeat IPC: 0.7181 cumulative IPC: 0.7965 (Simulation time: 00 hr 16 min 31 sec)
Heartbeat CPU 0 instructions: 124500665 cycles: 107824477 heartbeat IPC: 0.5256 cumulative IPC: 0.7937 (Simulation time: 00 hr 16 min 38 sec)
Heartbeat CPU 0 instructions: 125000665 cycles: 108489955 heartbeat IPC: 0.7513 cumulative IPC: 0.7934 (Simulation time: 00 hr 16 min 44 sec)
Heartbeat CPU 0 instructions: 125500665 cycles: 110050216 heartbeat IPC: 0.3205 cumulative IPC: 0.7858 (Simulation time: 00 hr 16 min 55 sec)
Heartbeat CPU 0 instructions: 126000667 cycles: 111407104 heartbeat IPC: 0.3685 cumulative IPC: 0.78 (Simulation time: 00 hr 17 min 05 sec)
Heartbeat CPU 0 instructions: 126500669 cycles: 112479099 heartbeat IPC: 0.4664 cumulative IPC: 0.7765 (Simulation time: 00 hr 17 min 13 sec)
Heartbeat CPU 0 instructions: 127000670 cycles: 113671935 heartbeat IPC: 0.4192 cumulative IPC: 0.7723 (Simulation time: 00 hr 17 min 22 sec)
Heartbeat CPU 0 instructions: 127500676 cycles: 114598922 heartbeat IPC: 0.5394 cumulative IPC: 0.7701 (Simulation time: 00 hr 17 min 29 sec)
Heartbeat CPU 0 instructions: 128000678 cycles: 115610065 heartbeat IPC: 0.4945 cumulative IPC: 0.7674 (Simulation time: 00 hr 17 min 40 sec)
Heartbeat CPU 0 instructions: 128500678 cycles: 116220102 heartbeat IPC: 0.8196 cumulative IPC: 0.7677 (Simulation time: 00 hr 17 min 46 sec)
Heartbeat CPU 0 instructions: 129000685 cycles: 116829996 heartbeat IPC: 0.8198 cumulative IPC: 0.768 (Simulation time: 00 hr 17 min 52 sec)
Heartbeat CPU 0 instructions: 129500688 cycles: 117391629 heartbeat IPC: 0.8903 cumulative IPC: 0.7687 (Simulation time: 00 hr 17 min 58 sec)
Heartbeat CPU 0 instructions: 130000689 cycles: 117875604 heartbeat IPC: 1.033 cumulative IPC: 0.7699 (Simulation time: 00 hr 18 min 03 sec)
Heartbeat CPU 0 instructions: 130500691 cycles: 119488945 heartbeat IPC: 0.3099 cumulative IPC: 0.7629 (Simulation time: 00 hr 18 min 15 sec)
Heartbeat CPU 0 instructions: 131000696 cycles: 120100854 heartbeat IPC: 0.8171 cumulative IPC: 0.7632 (Simulation time: 00 hr 18 min 20 sec)
Heartbeat CPU 0 instructions: 131500698 cycles: 121730730 heartbeat IPC: 0.3068 cumulative IPC: 0.7563 (Simulation time: 00 hr 18 min 32 sec)
Heartbeat CPU 0 instructions: 132000698 cycles: 122871931 heartbeat IPC: 0.4381 cumulative IPC: 0.7529 (Simulation time: 00 hr 18 min 40 sec)
Heartbeat CPU 0 instructions: 132500698 cycles: 123350615 heartbeat IPC: 1.045 cumulative IPC: 0.7542 (Simulation time: 00 hr 18 min 45 sec)
Heartbeat CPU 0 instructions: 133000702 cycles: 124425729 heartbeat IPC: 0.4651 cumulative IPC: 0.7514 (Simulation time: 00 hr 18 min 53 sec)
Heartbeat CPU 0 instructions: 133500704 cycles: 125393326 heartbeat IPC: 0.5167 cumulative IPC: 0.7494 (Simulation time: 00 hr 19 min 03 sec)
Heartbeat CPU 0 instructions: 134000707 cycles: 126399611 heartbeat IPC: 0.4969 cumulative IPC: 0.7471 (Simulation time: 00 hr 19 min 10 sec)
Heartbeat CPU 0 instructions: 134500707 cycles: 127403680 heartbeat IPC: 0.498 cumulative IPC: 0.7449 (Simulation time: 00 hr 19 min 18 sec)
Heartbeat CPU 0 instructions: 135000711 cycles: 128553486 heartbeat IPC: 0.4349 cumulative IPC: 0.7418 (Simulation time: 00 hr 19 min 26 sec)
Heartbeat CPU 0 instructions: 135500714 cycles: 129460622 heartbeat IPC: 0.5512 cumulative IPC: 0.7403 (Simulation time: 00 hr 19 min 33 sec)
Heartbeat CPU 0 instructions: 136000715 cycles: 130678523 heartbeat IPC: 0.4105 cumulative IPC: 0.7369 (Simulation time: 00 hr 19 min 42 sec)
Heartbeat CPU 0 instructions: 136500719 cycles: 131268221 heartbeat IPC: 0.8479 cumulative IPC: 0.7374 (Simulation time: 00 hr 19 min 47 sec)
Heartbeat CPU 0 instructions: 137000720 cycles: 132456900 heartbeat IPC: 0.4206 cumulative IPC: 0.7342 (Simulation time: 00 hr 19 min 56 sec)
Heartbeat CPU 0 instructions: 137500722 cycles: 133199617 heartbeat IPC: 0.6732 cumulative IPC: 0.7339 (Simulation time: 00 hr 20 min 02 sec)
Heartbeat CPU 0 instructions: 138000726 cycles: 134158239 heartbeat IPC: 0.5216 cumulative IPC: 0.7322 (Simulation time: 00 hr 20 min 09 sec)
Heartbeat CPU 0 instructions: 138500728 cycles: 135401831 heartbeat IPC: 0.4021 cumulative IPC: 0.7288 (Simulation time: 00 hr 20 min 18 sec)
Heartbeat CPU 0 instructions: 139000732 cycles: 136466620 heartbeat IPC: 0.4696 cumulative IPC: 0.7265 (Simulation time: 00 hr 20 min 25 sec)
Heartbeat CPU 0 instructions: 139500732 cycles: 137403721 heartbeat IPC: 0.5336 cumulative IPC: 0.7251 (Simulation time: 00 hr 20 min 33 sec)
Heartbeat CPU 0 instructions: 140000732 cycles: 138478823 heartbeat IPC: 0.4651 cumulative IPC: 0.7228 (Simulation time: 00 hr 20 min 41 sec)
Heartbeat CPU 0 instructions: 140500732 cycles: 139728901 heartbeat IPC: 0.4 cumulative IPC: 0.7196 (Simulation time: 00 hr 20 min 50 sec)
Heartbeat CPU 0 instructions: 141000734 cycles: 140886714 heartbeat IPC: 0.4319 cumulative IPC: 0.717 (Simulation time: 00 hr 20 min 58 sec)
Heartbeat CPU 0 instructions: 141500734 cycles: 142070013 heartbeat IPC: 0.4225 cumulative IPC: 0.7143 (Simulation time: 00 hr 21 min 07 sec)
Heartbeat CPU 0 instructions: 142000737 cycles: 143217719 heartbeat IPC: 0.4357 cumulative IPC: 0.7118 (Simulation time: 00 hr 21 min 16 sec)
Heartbeat CPU 0 instructions: 142500737 cycles: 144508566 heartbeat IPC: 0.3873 cumulative IPC: 0.7086 (Simulation time: 00 hr 21 min 25 sec)
Heartbeat CPU 0 instructions: 143000741 cycles: 145226821 heartbeat IPC: 0.6961 cumulative IPC: 0.7085 (Simulation time: 00 hr 21 min 31 sec)
Heartbeat CPU 0 instructions: 143500741 cycles: 145745737 heartbeat IPC: 0.9635 cumulative IPC: 0.7095 (Simulation time: 00 hr 21 min 36 sec)
Heartbeat CPU 0 instructions: 144000743 cycles: 146663837 heartbeat IPC: 0.5446 cumulative IPC: 0.7084 (Simulation time: 00 hr 21 min 43 sec)
Heartbeat CPU 0 instructions: 144500744 cycles: 147310401 heartbeat IPC: 0.7733 cumulative IPC: 0.7087 (Simulation time: 00 hr 21 min 48 sec)
Heartbeat CPU 0 instructions: 145000745 cycles: 147839756 heartbeat IPC: 0.9445 cumulative IPC: 0.7096 (Simulation time: 00 hr 21 min 53 sec)
Heartbeat CPU 0 instructions: 145500750 cycles: 148515404 heartbeat IPC: 0.74 cumulative IPC: 0.7098 (Simulation time: 00 hr 21 min 58 sec)
Heartbeat CPU 0 instructions: 146000750 cycles: 149546060 heartbeat IPC: 0.4851 cumulative IPC: 0.7081 (Simulation time: 00 hr 22 min 06 sec)
Heartbeat CPU 0 instructions: 146500752 cycles: 150444726 heartbeat IPC: 0.5564 cumulative IPC: 0.7071 (Simulation time: 00 hr 22 min 13 sec)
Heartbeat CPU 0 instructions: 147000756 cycles: 151025330 heartbeat IPC: 0.8612 cumulative IPC: 0.7077 (Simulation time: 00 hr 22 min 18 sec)
Heartbeat CPU 0 instructions: 147500759 cycles: 152294454 heartbeat IPC: 0.394 cumulative IPC: 0.7048 (Simulation time: 00 hr 22 min 28 sec)
Heartbeat CPU 0 instructions: 148000765 cycles: 153192253 heartbeat IPC: 0.5569 cumulative IPC: 0.7039 (Simulation time: 00 hr 22 min 35 sec)
Heartbeat CPU 0 instructions: 148500765 cycles: 154227925 heartbeat IPC: 0.4828 cumulative IPC: 0.7023 (Simulation time: 00 hr 22 min 43 sec)
Heartbeat CPU 0 instructions: 149000765 cycles: 156188562 heartbeat IPC: 0.255 cumulative IPC: 0.6961 (Simulation time: 00 hr 22 min 56 sec)
Heartbeat CPU 0 instructions: 149500766 cycles: 157214869 heartbeat IPC: 0.4872 cumulative IPC: 0.6946 (Simulation time: 00 hr 23 min 04 sec)
Heartbeat CPU 0 instructions: 150000766 cycles: 158274137 heartbeat IPC: 0.472 cumulative IPC: 0.693 (Simulation time: 00 hr 23 min 12 sec)
Heartbeat CPU 0 instructions: 150500766 cycles: 158926420 heartbeat IPC: 0.7665 cumulative IPC: 0.6933 (Simulation time: 00 hr 23 min 17 sec)
Heartbeat CPU 0 instructions: 151000766 cycles: 159720266 heartbeat IPC: 0.6298 cumulative IPC: 0.6929 (Simulation time: 00 hr 23 min 23 sec)
Heartbeat CPU 0 instructions: 151500766 cycles: 160492767 heartbeat IPC: 0.6472 cumulative IPC: 0.6927 (Simulation time: 00 hr 23 min 30 sec)
Heartbeat CPU 0 instructions: 152000773 cycles: 161469893 heartbeat IPC: 0.5117 cumulative IPC: 0.6915 (Simulation time: 00 hr 23 min 37 sec)
Heartbeat CPU 0 instructions: 152500774 cycles: 162605135 heartbeat IPC: 0.4404 cumulative IPC: 0.6896 (Simulation time: 00 hr 23 min 46 sec)
Heartbeat CPU 0 instructions: 153000777 cycles: 163573144 heartbeat IPC: 0.5165 cumulative IPC: 0.6885 (Simulation time: 00 hr 23 min 54 sec)
Heartbeat CPU 0 instructions: 153500779 cycles: 164377208 heartbeat IPC: 0.6218 cumulative IPC: 0.6881 (Simulation time: 00 hr 24 min 00 sec)
Heartbeat CPU 0 instructions: 154000783 cycles: 165480331 heartbeat IPC: 0.4533 cumulative IPC: 0.6864 (Simulation time: 00 hr 24 min 08 sec)
Heartbeat CPU 0 instructions: 154500784 cycles: 166057076 heartbeat IPC: 0.8669 cumulative IPC: 0.6871 (Simulation time: 00 hr 24 min 13 sec)
Heartbeat CPU 0 instructions: 155000788 cycles: 166587663 heartbeat IPC: 0.9424 cumulative IPC: 0.688 (Simulation time: 00 hr 24 min 18 sec)
Heartbeat CPU 0 instructions: 155500790 cycles: 167411472 heartbeat IPC: 0.6069 cumulative IPC: 0.6875 (Simulation time: 00 hr 24 min 25 sec)
Heartbeat CPU 0 instructions: 156000790 cycles: 168283720 heartbeat IPC: 0.5732 cumulative IPC: 0.6869 (Simulation time: 00 hr 24 min 31 sec)
Heartbeat CPU 0 instructions: 156500790 cycles: 169199004 heartbeat IPC: 0.5463 cumulative IPC: 0.6861 (Simulation time: 00 hr 24 min 38 sec)
Heartbeat CPU 0 instructions: 157000796 cycles: 170231165 heartbeat IPC: 0.4844 cumulative IPC: 0.6847 (Simulation time: 00 hr 24 min 46 sec)
Heartbeat CPU 0 instructions: 157500799 cycles: 170643989 heartbeat IPC: 1.211 cumulative IPC: 0.6861 (Simulation time: 00 hr 24 min 50 sec)
Heartbeat CPU 0 instructions: 158000799 cycles: 172038704 heartbeat IPC: 0.3585 cumulative IPC: 0.6832 (Simulation time: 00 hr 25 min 00 sec)
Heartbeat CPU 0 instructions: 158500800 cycles: 173151999 heartbeat IPC: 0.4491 cumulative IPC: 0.6816 (Simulation time: 00 hr 25 min 08 sec)
Heartbeat CPU 0 instructions: 159000801 cycles: 174310414 heartbeat IPC: 0.4316 cumulative IPC: 0.6798 (Simulation time: 00 hr 25 min 17 sec)
Heartbeat CPU 0 instructions: 159500801 cycles: 175460642 heartbeat IPC: 0.4347 cumulative IPC: 0.678 (Simulation time: 00 hr 25 min 25 sec)
Heartbeat CPU 0 instructions: 160000806 cycles: 176315102 heartbeat IPC: 0.5852 cumulative IPC: 0.6776 (Simulation time: 00 hr 25 min 33 sec)
Heartbeat CPU 0 instructions: 160500806 cycles: 177601258 heartbeat IPC: 0.3888 cumulative IPC: 0.6753 (Simulation time: 00 hr 25 min 43 sec)
Heartbeat CPU 0 instructions: 161000807 cycles: 178727813 heartbeat IPC: 0.4438 cumulative IPC: 0.6737 (Simulation time: 00 hr 25 min 52 sec)
Heartbeat CPU 0 instructions: 161500807 cycles: 179593450 heartbeat IPC: 0.5776 cumulative IPC: 0.6732 (Simulation time: 00 hr 25 min 58 sec)
Heartbeat CPU 0 instructions: 162000814 cycles: 180116656 heartbeat IPC: 0.9557 cumulative IPC: 0.6741 (Simulation time: 00 hr 26 min 03 sec)
Heartbeat CPU 0 instructions: 162500815 cycles: 180920385 heartbeat IPC: 0.6221 cumulative IPC: 0.6738 (Simulation time: 00 hr 26 min 10 sec)
Heartbeat CPU 0 instructions: 163000820 cycles: 181831793 heartbeat IPC: 0.5486 cumulative IPC: 0.6732 (Simulation time: 00 hr 26 min 17 sec)
Heartbeat CPU 0 instructions: 163500820 cycles: 182686929 heartbeat IPC: 0.5847 cumulative IPC: 0.6727 (Simulation time: 00 hr 26 min 23 sec)
Heartbeat CPU 0 instructions: 164000822 cycles: 183696957 heartbeat IPC: 0.495 cumulative IPC: 0.6717 (Simulation time: 00 hr 26 min 31 sec)
Heartbeat CPU 0 instructions: 164500825 cycles: 185056886 heartbeat IPC: 0.3677 cumulative IPC: 0.6692 (Simulation time: 00 hr 26 min 41 sec)
Heartbeat CPU 0 instructions: 165000829 cycles: 185636664 heartbeat IPC: 0.8624 cumulative IPC: 0.6699 (Simulation time: 00 hr 26 min 46 sec)
Heartbeat CPU 0 instructions: 165500830 cycles: 186429594 heartbeat IPC: 0.6306 cumulative IPC: 0.6697 (Simulation time: 00 hr 26 min 52 sec)
Heartbeat CPU 0 instructions: 166000831 cycles: 187362745 heartbeat IPC: 0.5358 cumulative IPC: 0.669 (Simulation time: 00 hr 26 min 59 sec)
Heartbeat CPU 0 instructions: 166500834 cycles: 188331431 heartbeat IPC: 0.5162 cumulative IPC: 0.6681 (Simulation time: 00 hr 27 min 06 sec)
Heartbeat CPU 0 instructions: 167000838 cycles: 189145414 heartbeat IPC: 0.6143 cumulative IPC: 0.6679 (Simulation time: 00 hr 27 min 13 sec)
Heartbeat CPU 0 instructions: 167500845 cycles: 190262217 heartbeat IPC: 0.4477 cumulative IPC: 0.6665 (Simulation time: 00 hr 27 min 21 sec)
Heartbeat CPU 0 instructions: 168000849 cycles: 190551408 heartbeat IPC: 1.729 cumulative IPC: 0.6682 (Simulation time: 00 hr 27 min 24 sec)
Heartbeat CPU 0 instructions: 168500849 cycles: 191354455 heartbeat IPC: 0.6226 cumulative IPC: 0.668 (Simulation time: 00 hr 27 min 31 sec)
Heartbeat CPU 0 instructions: 169000849 cycles: 192659941 heartbeat IPC: 0.383 cumulative IPC: 0.6659 (Simulation time: 00 hr 27 min 40 sec)
Heartbeat CPU 0 instructions: 169500849 cycles: 193304454 heartbeat IPC: 0.7758 cumulative IPC: 0.6663 (Simulation time: 00 hr 27 min 46 sec)
Heartbeat CPU 0 instructions: 170000849 cycles: 194589275 heartbeat IPC: 0.3892 cumulative IPC: 0.6644 (Simulation time: 00 hr 27 min 55 sec)
Heartbeat CPU 0 instructions: 170500849 cycles: 195481746 heartbeat IPC: 0.5602 cumulative IPC: 0.6639 (Simulation time: 00 hr 28 min 02 sec)
Heartbeat CPU 0 instructions: 171000849 cycles: 196006823 heartbeat IPC: 0.9522 cumulative IPC: 0.6647 (Simulation time: 00 hr 28 min 09 sec)
Heartbeat CPU 0 instructions: 171500849 cycles: 196304080 heartbeat IPC: 1.682 cumulative IPC: 0.6663 (Simulation time: 00 hr 28 min 12 sec)
Heartbeat CPU 0 instructions: 172000849 cycles: 196826756 heartbeat IPC: 0.9566 cumulative IPC: 0.6672 (Simulation time: 00 hr 28 min 17 sec)
Heartbeat CPU 0 instructions: 172500850 cycles: 197164824 heartbeat IPC: 1.479 cumulative IPC: 0.6687 (Simulation time: 00 hr 28 min 20 sec)
Heartbeat CPU 0 instructions: 173000850 cycles: 197539120 heartbeat IPC: 1.336 cumulative IPC: 0.67 (Simulation time: 00 hr 28 min 24 sec)
Heartbeat CPU 0 instructions: 173500851 cycles: 198701816 heartbeat IPC: 0.43 cumulative IPC: 0.6685 (Simulation time: 00 hr 28 min 32 sec)
Heartbeat CPU 0 instructions: 174000858 cycles: 199703064 heartbeat IPC: 0.4994 cumulative IPC: 0.6676 (Simulation time: 00 hr 28 min 39 sec)
Heartbeat CPU 0 instructions: 174500858 cycles: 200986930 heartbeat IPC: 0.3894 cumulative IPC: 0.6657 (Simulation time: 00 hr 28 min 50 sec)
Heartbeat CPU 0 instructions: 175000858 cycles: 202485718 heartbeat IPC: 0.3336 cumulative IPC: 0.6631 (Simulation time: 00 hr 29 min 02 sec)
Heartbeat CPU 0 instructions: 175500858 cycles: 203492146 heartbeat IPC: 0.4968 cumulative IPC: 0.6622 (Simulation time: 00 hr 29 min 10 sec)
Heartbeat CPU 0 instructions: 176000858 cycles: 204968432 heartbeat IPC: 0.3387 cumulative IPC: 0.6597 (Simulation time: 00 hr 29 min 20 sec)
Heartbeat CPU 0 instructions: 176500858 cycles: 206175293 heartbeat IPC: 0.4143 cumulative IPC: 0.6581 (Simulation time: 00 hr 29 min 29 sec)
Heartbeat CPU 0 instructions: 177000859 cycles: 206813795 heartbeat IPC: 0.7831 cumulative IPC: 0.6586 (Simulation time: 00 hr 29 min 35 sec)
Heartbeat CPU 0 instructions: 177500862 cycles: 207647742 heartbeat IPC: 0.5996 cumulative IPC: 0.6583 (Simulation time: 00 hr 29 min 42 sec)
Heartbeat CPU 0 instructions: 178000864 cycles: 207993252 heartbeat IPC: 1.447 cumulative IPC: 0.6597 (Simulation time: 00 hr 29 min 45 sec)
Heartbeat CPU 0 instructions: 178500864 cycles: 208424749 heartbeat IPC: 1.159 cumulative IPC: 0.6608 (Simulation time: 00 hr 29 min 49 sec)
Heartbeat CPU 0 instructions: 179000864 cycles: 209375062 heartbeat IPC: 0.5261 cumulative IPC: 0.6602 (Simulation time: 00 hr 29 min 56 sec)
Heartbeat CPU 0 instructions: 179500864 cycles: 210366548 heartbeat IPC: 0.5043 cumulative IPC: 0.6594 (Simulation time: 00 hr 30 min 03 sec)
Heartbeat CPU 0 instructions: 180000870 cycles: 211561209 heartbeat IPC: 0.4185 cumulative IPC: 0.6579 (Simulation time: 00 hr 30 min 12 sec)
Heartbeat CPU 0 instructions: 180500874 cycles: 212124254 heartbeat IPC: 0.888 cumulative IPC: 0.6586 (Simulation time: 00 hr 30 min 17 sec)
Heartbeat CPU 0 instructions: 181000878 cycles: 213229106 heartbeat IPC: 0.4526 cumulative IPC: 0.6574 (Simulation time: 00 hr 30 min 25 sec)
Heartbeat CPU 0 instructions: 181500884 cycles: 214347481 heartbeat IPC: 0.4471 cumulative IPC: 0.6562 (Simulation time: 00 hr 30 min 33 sec)
Heartbeat CPU 0 instructions: 182000891 cycles: 215784072 heartbeat IPC: 0.3481 cumulative IPC: 0.6541 (Simulation time: 00 hr 30 min 43 sec)
Heartbeat CPU 0 instructions: 182500897 cycles: 216552963 heartbeat IPC: 0.6503 cumulative IPC: 0.654 (Simulation time: 00 hr 30 min 49 sec)
Heartbeat CPU 0 instructions: 183000897 cycles: 217378876 heartbeat IPC: 0.6054 cumulative IPC: 0.6538 (Simulation time: 00 hr 30 min 56 sec)
Heartbeat CPU 0 instructions: 183500899 cycles: 218361835 heartbeat IPC: 0.5087 cumulative IPC: 0.6531 (Simulation time: 00 hr 31 min 03 sec)
Heartbeat CPU 0 instructions: 184000900 cycles: 219295129 heartbeat IPC: 0.5357 cumulative IPC: 0.6526 (Simulation time: 00 hr 31 min 10 sec)
Heartbeat CPU 0 instructions: 184500901 cycles: 220520196 heartbeat IPC: 0.4081 cumulative IPC: 0.6512 (Simulation time: 00 hr 31 min 21 sec)
Heartbeat CPU 0 instructions: 185000908 cycles: 221579872 heartbeat IPC: 0.4718 cumulative IPC: 0.6502 (Simulation time: 00 hr 31 min 30 sec)
Heartbeat CPU 0 instructions: 185500914 cycles: 222267792 heartbeat IPC: 0.7268 cumulative IPC: 0.6505 (Simulation time: 00 hr 31 min 36 sec)
Heartbeat CPU 0 instructions: 186000914 cycles: 223140578 heartbeat IPC: 0.5729 cumulative IPC: 0.6502 (Simulation time: 00 hr 31 min 42 sec)
Heartbeat CPU 0 instructions: 186500921 cycles: 224076071 heartbeat IPC: 0.5345 cumulative IPC: 0.6497 (Simulation time: 00 hr 31 min 49 sec)
Heartbeat CPU 0 instructions: 187000923 cycles: 224916193 heartbeat IPC: 0.5952 cumulative IPC: 0.6494 (Simulation time: 00 hr 31 min 56 sec)
Heartbeat CPU 0 instructions: 187500923 cycles: 225862878 heartbeat IPC: 0.5282 cumulative IPC: 0.6489 (Simulation time: 00 hr 32 min 03 sec)
Heartbeat CPU 0 instructions: 188000923 cycles: 226337906 heartbeat IPC: 1.053 cumulative IPC: 0.6498 (Simulation time: 00 hr 32 min 07 sec)
Heartbeat CPU 0 instructions: 188500923 cycles: 227160424 heartbeat IPC: 0.6079 cumulative IPC: 0.6496 (Simulation time: 00 hr 32 min 14 sec)
Heartbeat CPU 0 instructions: 189000923 cycles: 227668581 heartbeat IPC: 0.9839 cumulative IPC: 0.6504 (Simulation time: 00 hr 32 min 18 sec)
Heartbeat CPU 0 instructions: 189500929 cycles: 228101180 heartbeat IPC: 1.156 cumulative IPC: 0.6515 (Simulation time: 00 hr 32 min 22 sec)
Heartbeat CPU 0 instructions: 190000932 cycles: 228366213 heartbeat IPC: 1.887 cumulative IPC: 0.653 (Simulation time: 00 hr 32 min 25 sec)
Heartbeat CPU 0 instructions: 190500933 cycles: 228654203 heartbeat IPC: 1.736 cumulative IPC: 0.6544 (Simulation time: 00 hr 32 min 28 sec)
Heartbeat CPU 0 instructions: 191000936 cycles: 228986117 heartbeat IPC: 1.506 cumulative IPC: 0.6558 (Simulation time: 00 hr 32 min 32 sec)
Heartbeat CPU 0 instructions: 191500936 cycles: 229294640 heartbeat IPC: 1.621 cumulative IPC: 0.6571 (Simulation time: 00 hr 32 min 35 sec)
Heartbeat CPU 0 instructions: 192000941 cycles: 230360123 heartbeat IPC: 0.4693 cumulative IPC: 0.6562 (Simulation time: 00 hr 32 min 42 sec)
Heartbeat CPU 0 instructions: 192500941 cycles: 231305582 heartbeat IPC: 0.5288 cumulative IPC: 0.6557 (Simulation time: 00 hr 32 min 49 sec)
Heartbeat CPU 0 instructions: 193000945 cycles: 232748478 heartbeat IPC: 0.3465 cumulative IPC: 0.6536 (Simulation time: 00 hr 32 min 59 sec)
Heartbeat CPU 0 instructions: 193500946 cycles: 233040763 heartbeat IPC: 1.711 cumulative IPC: 0.655 (Simulation time: 00 hr 33 min 03 sec)
Heartbeat CPU 0 instructions: 194000953 cycles: 233693887 heartbeat IPC: 0.7656 cumulative IPC: 0.6554 (Simulation time: 00 hr 33 min 08 sec)
Heartbeat CPU 0 instructions: 194500953 cycles: 234251360 heartbeat IPC: 0.8969 cumulative IPC: 0.656 (Simulation time: 00 hr 33 min 12 sec)
Heartbeat CPU 0 instructions: 195000953 cycles: 235577223 heartbeat IPC: 0.3771 cumulative IPC: 0.6543 (Simulation time: 00 hr 33 min 22 sec)
Heartbeat CPU 0 instructions: 195500954 cycles: 236449390 heartbeat IPC: 0.5733 cumulative IPC: 0.654 (Simulation time: 00 hr 33 min 29 sec)
Heartbeat CPU 0 instructions: 196000954 cycles: 236768875 heartbeat IPC: 1.565 cumulative IPC: 0.6553 (Simulation time: 00 hr 33 min 32 sec)
Heartbeat CPU 0 instructions: 196500954 cycles: 237949042 heartbeat IPC: 0.4237 cumulative IPC: 0.6541 (Simulation time: 00 hr 33 min 40 sec)
Heartbeat CPU 0 instructions: 197000955 cycles: 238868086 heartbeat IPC: 0.544 cumulative IPC: 0.6536 (Simulation time: 00 hr 33 min 47 sec)
Heartbeat CPU 0 instructions: 197500957 cycles: 240028859 heartbeat IPC: 0.4307 cumulative IPC: 0.6525 (Simulation time: 00 hr 33 min 56 sec)
Heartbeat CPU 0 instructions: 198000958 cycles: 240762316 heartbeat IPC: 0.6817 cumulative IPC: 0.6526 (Simulation time: 00 hr 34 min 01 sec)
Heartbeat CPU 0 instructions: 198500958 cycles: 241427901 heartbeat IPC: 0.7512 cumulative IPC: 0.6529 (Simulation time: 00 hr 34 min 07 sec)
Heartbeat CPU 0 instructions: 199000958 cycles: 242121096 heartbeat IPC: 0.7213 cumulative IPC: 0.6531 (Simulation time: 00 hr 34 min 13 sec)
Heartbeat CPU 0 instructions: 199500961 cycles: 243362232 heartbeat IPC: 0.4029 cumulative IPC: 0.6517 (Simulation time: 00 hr 34 min 22 sec)
Heartbeat CPU 0 instructions: 200000961 cycles: 244083464 heartbeat IPC: 0.6933 cumulative IPC: 0.6518 (Simulation time: 00 hr 34 min 28 sec)
Heartbeat CPU 0 instructions: 200500966 cycles: 245281239 heartbeat IPC: 0.4174 cumulative IPC: 0.6506 (Simulation time: 00 hr 34 min 37 sec)
Heartbeat CPU 0 instructions: 201000973 cycles: 246279555 heartbeat IPC: 0.5009 cumulative IPC: 0.65 (Simulation time: 00 hr 34 min 44 sec)
Heartbeat CPU 0 instructions: 201500973 cycles: 247709408 heartbeat IPC: 0.3497 cumulative IPC: 0.6481 (Simulation time: 00 hr 34 min 55 sec)
Heartbeat CPU 0 instructions: 202000976 cycles: 248557295 heartbeat IPC: 0.5897 cumulative IPC: 0.6479 (Simulation time: 00 hr 35 min 02 sec)
Heartbeat CPU 0 instructions: 202500976 cycles: 249919764 heartbeat IPC: 0.367 cumulative IPC: 0.6463 (Simulation time: 00 hr 35 min 12 sec)
Heartbeat CPU 0 instructions: 203000976 cycles: 250851088 heartbeat IPC: 0.5369 cumulative IPC: 0.6459 (Simulation time: 00 hr 35 min 19 sec)
Heartbeat CPU 0 instructions: 203500977 cycles: 251926228 heartbeat IPC: 0.4651 cumulative IPC: 0.6451 (Simulation time: 00 hr 35 min 27 sec)
Heartbeat CPU 0 instructions: 204000981 cycles: 253149287 heartbeat IPC: 0.4088 cumulative IPC: 0.6439 (Simulation time: 00 hr 35 min 36 sec)
Heartbeat CPU 0 instructions: 204500981 cycles: 254136197 heartbeat IPC: 0.5066 cumulative IPC: 0.6433 (Simulation time: 00 hr 35 min 46 sec)
Heartbeat CPU 0 instructions: 205000985 cycles: 255635607 heartbeat IPC: 0.3335 cumulative IPC: 0.6414 (Simulation time: 00 hr 35 min 56 sec)
Heartbeat CPU 0 instructions: 205500985 cycles: 257074300 heartbeat IPC: 0.3475 cumulative IPC: 0.6396 (Simulation time: 00 hr 36 min 06 sec)
Heartbeat CPU 0 instructions: 206000986 cycles: 258384318 heartbeat IPC: 0.3817 cumulative IPC: 0.6383 (Simulation time: 00 hr 36 min 16 sec)
Heartbeat CPU 0 instructions: 206500987 cycles: 259611230 heartbeat IPC: 0.4075 cumulative IPC: 0.6371 (Simulation time: 00 hr 36 min 25 sec)
Heartbeat CPU 0 instructions: 207000987 cycles: 260664842 heartbeat IPC: 0.4746 cumulative IPC: 0.6364 (Simulation time: 00 hr 36 min 33 sec)
Heartbeat CPU 0 instructions: 207500987 cycles: 261937312 heartbeat IPC: 0.3929 cumulative IPC: 0.6352 (Simulation time: 00 hr 36 min 42 sec)
Heartbeat CPU 0 instructions: 208000992 cycles: 262942746 heartbeat IPC: 0.4973 cumulative IPC: 0.6346 (Simulation time: 00 hr 36 min 49 sec)
Heartbeat CPU 0 instructions: 208500998 cycles: 264016581 heartbeat IPC: 0.4656 cumulative IPC: 0.6339 (Simulation time: 00 hr 36 min 57 sec)
Heartbeat CPU 0 instructions: 209001001 cycles: 265093306 heartbeat IPC: 0.4644 cumulative IPC: 0.6331 (Simulation time: 00 hr 37 min 05 sec)
Heartbeat CPU 0 instructions: 209501001 cycles: 266188227 heartbeat IPC: 0.4567 cumulative IPC: 0.6324 (Simulation time: 00 hr 37 min 13 sec)
Heartbeat CPU 0 instructions: 210001003 cycles: 267371204 heartbeat IPC: 0.4227 cumulative IPC: 0.6314 (Simulation time: 00 hr 37 min 22 sec)
Heartbeat CPU 0 instructions: 210501003 cycles: 268284457 heartbeat IPC: 0.5475 cumulative IPC: 0.6311 (Simulation time: 00 hr 37 min 29 sec)
Heartbeat CPU 0 instructions: 211001007 cycles: 269035207 heartbeat IPC: 0.666 cumulative IPC: 0.6312 (Simulation time: 00 hr 37 min 35 sec)
Heartbeat CPU 0 instructions: 211501007 cycles: 269350744 heartbeat IPC: 1.585 cumulative IPC: 0.6324 (Simulation time: 00 hr 37 min 38 sec)
Heartbeat CPU 0 instructions: 212001007 cycles: 269651977 heartbeat IPC: 1.66 cumulative IPC: 0.6336 (Simulation time: 00 hr 37 min 41 sec)
Heartbeat CPU 0 instructions: 212501008 cycles: 270529945 heartbeat IPC: 0.5695 cumulative IPC: 0.6334 (Simulation time: 00 hr 37 min 48 sec)
Heartbeat CPU 0 instructions: 213001010 cycles: 271873931 heartbeat IPC: 0.372 cumulative IPC: 0.632 (Simulation time: 00 hr 37 min 57 sec)
Heartbeat CPU 0 instructions: 213501014 cycles: 273008515 heartbeat IPC: 0.4407 cumulative IPC: 0.6312 (Simulation time: 00 hr 38 min 06 sec)
Heartbeat CPU 0 instructions: 214001014 cycles: 274121708 heartbeat IPC: 0.4492 cumulative IPC: 0.6304 (Simulation time: 00 hr 38 min 14 sec)
Heartbeat CPU 0 instructions: 214501014 cycles: 274855040 heartbeat IPC: 0.6818 cumulative IPC: 0.6305 (Simulation time: 00 hr 38 min 20 sec)
Heartbeat CPU 0 instructions: 215001016 cycles: 276059106 heartbeat IPC: 0.4153 cumulative IPC: 0.6295 (Simulation time: 00 hr 38 min 29 sec)
Heartbeat CPU 0 instructions: 215501017 cycles: 276905125 heartbeat IPC: 0.591 cumulative IPC: 0.6294 (Simulation time: 00 hr 38 min 35 sec)
Heartbeat CPU 0 instructions: 216001019 cycles: 278197094 heartbeat IPC: 0.387 cumulative IPC: 0.6282 (Simulation time: 00 hr 38 min 45 sec)
Heartbeat CPU 0 instructions: 216501019 cycles: 279049245 heartbeat IPC: 0.5868 cumulative IPC: 0.6281 (Simulation time: 00 hr 38 min 51 sec)
Heartbeat CPU 0 instructions: 217001019 cycles: 279745260 heartbeat IPC: 0.7184 cumulative IPC: 0.6283 (Simulation time: 00 hr 38 min 57 sec)
Heartbeat CPU 0 instructions: 217501024 cycles: 280294052 heartbeat IPC: 0.9111 cumulative IPC: 0.6289 (Simulation time: 00 hr 39 min 02 sec)
Heartbeat CPU 0 instructions: 218001024 cycles: 281549432 heartbeat IPC: 0.3983 cumulative IPC: 0.6278 (Simulation time: 00 hr 39 min 12 sec)
Heartbeat CPU 0 instructions: 218501030 cycles: 282845897 heartbeat IPC: 0.3857 cumulative IPC: 0.6267 (Simulation time: 00 hr 39 min 21 sec)
Heartbeat CPU 0 instructions: 219001030 cycles: 283965379 heartbeat IPC: 0.4466 cumulative IPC: 0.6259 (Simulation time: 00 hr 39 min 29 sec)
Heartbeat CPU 0 instructions: 219501030 cycles: 284972041 heartbeat IPC: 0.4967 cumulative IPC: 0.6254 (Simulation time: 00 hr 39 min 37 sec)
Heartbeat CPU 0 instructions: 220001031 cycles: 285841588 heartbeat IPC: 0.575 cumulative IPC: 0.6253 (Simulation time: 00 hr 39 min 44 sec)
Heartbeat CPU 0 instructions: 220501031 cycles: 287098942 heartbeat IPC: 0.3977 cumulative IPC: 0.6242 (Simulation time: 00 hr 39 min 53 sec)
Heartbeat CPU 0 instructions: 221001037 cycles: 287894520 heartbeat IPC: 0.6285 cumulative IPC: 0.6243 (Simulation time: 00 hr 39 min 59 sec)
Heartbeat CPU 0 instructions: 221501037 cycles: 288407077 heartbeat IPC: 0.9755 cumulative IPC: 0.6249 (Simulation time: 00 hr 40 min 04 sec)
Heartbeat CPU 0 instructions: 222001039 cycles: 289353969 heartbeat IPC: 0.528 cumulative IPC: 0.6246 (Simulation time: 00 hr 40 min 11 sec)
Heartbeat CPU 0 instructions: 222501039 cycles: 290310207 heartbeat IPC: 0.5229 cumulative IPC: 0.6242 (Simulation time: 00 hr 40 min 18 sec)
Heartbeat CPU 0 instructions: 223001041 cycles: 291201637 heartbeat IPC: 0.5609 cumulative IPC: 0.624 (Simulation time: 00 hr 40 min 25 sec)
Heartbeat CPU 0 instructions: 223501047 cycles: 291918429 heartbeat IPC: 0.6976 cumulative IPC: 0.6242 (Simulation time: 00 hr 40 min 31 sec)
Heartbeat CPU 0 instructions: 224001052 cycles: 292668215 heartbeat IPC: 0.6669 cumulative IPC: 0.6243 (Simulation time: 00 hr 40 min 37 sec)
Heartbeat CPU 0 instructions: 224501058 cycles: 293974775 heartbeat IPC: 0.3827 cumulative IPC: 0.6232 (Simulation time: 00 hr 40 min 46 sec)
Heartbeat CPU 0 instructions: 225001058 cycles: 295335438 heartbeat IPC: 0.3675 cumulative IPC: 0.622 (Simulation time: 00 hr 40 min 56 sec)
Heartbeat CPU 0 instructions: 225501058 cycles: 297051118 heartbeat IPC: 0.2914 cumulative IPC: 0.62 (Simulation time: 00 hr 41 min 09 sec)
Heartbeat CPU 0 instructions: 226001060 cycles: 298015208 heartbeat IPC: 0.5186 cumulative IPC: 0.6196 (Simulation time: 00 hr 41 min 16 sec)
Heartbeat CPU 0 instructions: 226501065 cycles: 299049150 heartbeat IPC: 0.4836 cumulative IPC: 0.6191 (Simulation time: 00 hr 41 min 24 sec)
Heartbeat CPU 0 instructions: 227001068 cycles: 300217298 heartbeat IPC: 0.428 cumulative IPC: 0.6183 (Simulation time: 00 hr 41 min 33 sec)
Heartbeat CPU 0 instructions: 227501068 cycles: 301474993 heartbeat IPC: 0.3976 cumulative IPC: 0.6174 (Simulation time: 00 hr 41 min 42 sec)
Heartbeat CPU 0 instructions: 228001068 cycles: 302157280 heartbeat IPC: 0.7328 cumulative IPC: 0.6176 (Simulation time: 00 hr 41 min 48 sec)
Heartbeat CPU 0 instructions: 228501068 cycles: 303169208 heartbeat IPC: 0.4941 cumulative IPC: 0.6172 (Simulation time: 00 hr 41 min 56 sec)
Heartbeat CPU 0 instructions: 229001074 cycles: 304266009 heartbeat IPC: 0.4559 cumulative IPC: 0.6166 (Simulation time: 00 hr 42 min 04 sec)
Heartbeat CPU 0 instructions: 229501074 cycles: 304896800 heartbeat IPC: 0.7927 cumulative IPC: 0.617 (Simulation time: 00 hr 42 min 09 sec)
Heartbeat CPU 0 instructions: 230001075 cycles: 305518853 heartbeat IPC: 0.8038 cumulative IPC: 0.6174 (Simulation time: 00 hr 42 min 14 sec)
Heartbeat CPU 0 instructions: 230501077 cycles: 306787391 heartbeat IPC: 0.3942 cumulative IPC: 0.6164 (Simulation time: 00 hr 42 min 23 sec)
Heartbeat CPU 0 instructions: 231001080 cycles: 307552272 heartbeat IPC: 0.6537 cumulative IPC: 0.6165 (Simulation time: 00 hr 42 min 29 sec)
Heartbeat CPU 0 instructions: 231501080 cycles: 308135452 heartbeat IPC: 0.8574 cumulative IPC: 0.617 (Simulation time: 00 hr 42 min 35 sec)
Heartbeat CPU 0 instructions: 232001083 cycles: 309167176 heartbeat IPC: 0.4846 cumulative IPC: 0.6165 (Simulation time: 00 hr 42 min 42 sec)
Heartbeat CPU 0 instructions: 232501084 cycles: 310279701 heartbeat IPC: 0.4494 cumulative IPC: 0.6159 (Simulation time: 00 hr 42 min 50 sec)
Heartbeat CPU 0 instructions: 233001089 cycles: 311271399 heartbeat IPC: 0.5042 cumulative IPC: 0.6155 (Simulation time: 00 hr 42 min 58 sec)
Heartbeat CPU 0 instructions: 233501091 cycles: 312198950 heartbeat IPC: 0.5391 cumulative IPC: 0.6153 (Simulation time: 00 hr 43 min 05 sec)
Heartbeat CPU 0 instructions: 234001096 cycles: 313026442 heartbeat IPC: 0.6042 cumulative IPC: 0.6153 (Simulation time: 00 hr 43 min 12 sec)
Heartbeat CPU 0 instructions: 234501097 cycles: 313871365 heartbeat IPC: 0.5918 cumulative IPC: 0.6152 (Simulation time: 00 hr 43 min 18 sec)
Heartbeat CPU 0 instructions: 235001097 cycles: 314843861 heartbeat IPC: 0.5141 cumulative IPC: 0.6149 (Simulation time: 00 hr 43 min 26 sec)
Heartbeat CPU 0 instructions: 235501097 cycles: 315771074 heartbeat IPC: 0.5393 cumulative IPC: 0.6146 (Simulation time: 00 hr 43 min 33 sec)
Heartbeat CPU 0 instructions: 236001100 cycles: 316548245 heartbeat IPC: 0.6434 cumulative IPC: 0.6147 (Simulation time: 00 hr 43 min 39 sec)
Heartbeat CPU 0 instructions: 236501101 cycles: 317757952 heartbeat IPC: 0.4133 cumulative IPC: 0.6139 (Simulation time: 00 hr 43 min 49 sec)
Heartbeat CPU 0 instructions: 237001103 cycles: 318863772 heartbeat IPC: 0.4522 cumulative IPC: 0.6133 (Simulation time: 00 hr 43 min 58 sec)
Heartbeat CPU 0 instructions: 237501103 cycles: 320153945 heartbeat IPC: 0.3875 cumulative IPC: 0.6124 (Simulation time: 00 hr 44 min 07 sec)
Heartbeat CPU 0 instructions: 238001103 cycles: 321097672 heartbeat IPC: 0.5298 cumulative IPC: 0.6121 (Simulation time: 00 hr 44 min 14 sec)
Heartbeat CPU 0 instructions: 238501106 cycles: 322179450 heartbeat IPC: 0.4622 cumulative IPC: 0.6116 (Simulation time: 00 hr 44 min 22 sec)
Heartbeat CPU 0 instructions: 239001106 cycles: 323122169 heartbeat IPC: 0.5304 cumulative IPC: 0.6113 (Simulation time: 00 hr 44 min 30 sec)
Heartbeat CPU 0 instructions: 239501106 cycles: 324689201 heartbeat IPC: 0.3191 cumulative IPC: 0.6099 (Simulation time: 00 hr 44 min 44 sec)
Heartbeat CPU 0 instructions: 240001109 cycles: 325804426 heartbeat IPC: 0.4483 cumulative IPC: 0.6093 (Simulation time: 00 hr 44 min 52 sec)
Heartbeat CPU 0 instructions: 240501110 cycles: 326163911 heartbeat IPC: 1.391 cumulative IPC: 0.6102 (Simulation time: 00 hr 44 min 56 sec)
Heartbeat CPU 0 instructions: 241001111 cycles: 326803136 heartbeat IPC: 0.7822 cumulative IPC: 0.6105 (Simulation time: 00 hr 45 min 01 sec)
Heartbeat CPU 0 instructions: 241501116 cycles: 327561764 heartbeat IPC: 0.6591 cumulative IPC: 0.6107 (Simulation time: 00 hr 45 min 07 sec)
Heartbeat CPU 0 instructions: 242001119 cycles: 329003320 heartbeat IPC: 0.3468 cumulative IPC: 0.6095 (Simulation time: 00 hr 45 min 17 sec)
Heartbeat CPU 0 instructions: 242501125 cycles: 330259276 heartbeat IPC: 0.3981 cumulative IPC: 0.6086 (Simulation time: 00 hr 45 min 26 sec)
Heartbeat CPU 0 instructions: 243001125 cycles: 331213600 heartbeat IPC: 0.5239 cumulative IPC: 0.6084 (Simulation time: 00 hr 45 min 33 sec)
Heartbeat CPU 0 instructions: 243501125 cycles: 331797960 heartbeat IPC: 0.8556 cumulative IPC: 0.6088 (Simulation time: 00 hr 45 min 38 sec)
Heartbeat CPU 0 instructions: 244001125 cycles: 332733632 heartbeat IPC: 0.5344 cumulative IPC: 0.6086 (Simulation time: 00 hr 45 min 45 sec)
Heartbeat CPU 0 instructions: 244501132 cycles: 334385549 heartbeat IPC: 0.3027 cumulative IPC: 0.607 (Simulation time: 00 hr 46 min 00 sec)
Heartbeat CPU 0 instructions: 245001134 cycles: 335345340 heartbeat IPC: 0.5209 cumulative IPC: 0.6068 (Simulation time: 00 hr 46 min 07 sec)
Heartbeat CPU 0 instructions: 245501135 cycles: 336419089 heartbeat IPC: 0.4657 cumulative IPC: 0.6063 (Simulation time: 00 hr 46 min 15 sec)
Heartbeat CPU 0 instructions: 246001142 cycles: 337382625 heartbeat IPC: 0.5189 cumulative IPC: 0.606 (Simulation time: 00 hr 46 min 23 sec)
Heartbeat CPU 0 instructions: 246501142 cycles: 338090296 heartbeat IPC: 0.7065 cumulative IPC: 0.6062 (Simulation time: 00 hr 46 min 29 sec)
Heartbeat CPU 0 instructions: 247001146 cycles: 338848761 heartbeat IPC: 0.6592 cumulative IPC: 0.6064 (Simulation time: 00 hr 46 min 35 sec)
Heartbeat CPU 0 instructions: 247501147 cycles: 340201159 heartbeat IPC: 0.3697 cumulative IPC: 0.6054 (Simulation time: 00 hr 46 min 44 sec)
Heartbeat CPU 0 instructions: 248001148 cycles: 341107690 heartbeat IPC: 0.5516 cumulative IPC: 0.6052 (Simulation time: 00 hr 46 min 51 sec)
Heartbeat CPU 0 instructions: 248501148 cycles: 342357328 heartbeat IPC: 0.4001 cumulative IPC: 0.6045 (Simulation time: 00 hr 47 min 00 sec)
Heartbeat CPU 0 instructions: 249001151 cycles: 343344159 heartbeat IPC: 0.5067 cumulative IPC: 0.6042 (Simulation time: 00 hr 47 min 07 sec)
Heartbeat CPU 0 instructions: 249501153 cycles: 344380670 heartbeat IPC: 0.4824 cumulative IPC: 0.6038 (Simulation time: 00 hr 47 min 15 sec)
Simulation finished CPU 0 instructions: 200000000 cycles: 331496952 cumulative IPC: 0.6033 (Simulation time: 00 hr 47 min 23 sec)
Simulation complete CPU 0 instructions: 200000000 cycles: 331496952 cumulative IPC: 0.6033 (Simulation time: 00 hr 47 min 23 sec)

ChampSim completed all CPUs

=== Simulation ===
CPU 0 runs /local-ssd/ben/dpc4-traces/gtraces_v2/tango_0002.champsim.gz

Region of Interest Statistics

CPU 0 cumulative IPC: 0.6033 instructions: 200000000 cycles: 331496952
CPU 0 Branch Prediction Accuracy: 89.4% MPKI: 19.18 Average ROB Occupancy at Mispredict: 24.87
Branch type MPKI
BRANCH_DIRECT_JUMP: 0.5358
BRANCH_INDIRECT: 0.4551
BRANCH_CONDITIONAL: 16.34
BRANCH_DIRECT_CALL: 0.803
BRANCH_INDIRECT_CALL: 0.2726
BRANCH_RETURN: 0.774

cpu0->cpu0_STLB TOTAL        ACCESS:    2346322 HIT:    1721234 MISS:     625088 MSHR_MERGE:          0
cpu0->cpu0_STLB LOAD         ACCESS:    2346322 HIT:    1721234 MISS:     625088 MSHR_MERGE:          0
cpu0->cpu0_STLB RFO          ACCESS:          0 HIT:          0 MISS:          0 MSHR_MERGE:          0
cpu0->cpu0_STLB PREFETCH     ACCESS:          0 HIT:          0 MISS:          0 MSHR_MERGE:          0
cpu0->cpu0_STLB WRITE        ACCESS:          0 HIT:          0 MISS:          0 MSHR_MERGE:          0
cpu0->cpu0_STLB TRANSLATION  ACCESS:          0 HIT:          0 MISS:          0 MSHR_MERGE:          0
cpu0->cpu0_STLB PREFETCH REQUESTED:          0 ISSUED:          0 USEFUL:          0 USELESS:          0
cpu0->cpu0_STLB AVERAGE MISS LATENCY: 109.9 cycles
cpu0->cpu0_L2C TOTAL        ACCESS:    7452347 HIT:    5631464 MISS:    1820883 MSHR_MERGE:          0
cpu0->cpu0_L2C LOAD         ACCESS:    4623655 HIT:    3672116 MISS:     951539 MSHR_MERGE:          0
cpu0->cpu0_L2C RFO          ACCESS:     759742 HIT:     188474 MISS:     571268 MSHR_MERGE:          0
cpu0->cpu0_L2C PREFETCH     ACCESS:     160603 HIT:      66516 MISS:      94087 MSHR_MERGE:          0
cpu0->cpu0_L2C WRITE        ACCESS:    1210975 HIT:    1210924 MISS:         51 MSHR_MERGE:          0
cpu0->cpu0_L2C TRANSLATION  ACCESS:     697372 HIT:     493434 MISS:     203938 MSHR_MERGE:          0
cpu0->cpu0_L2C PREFETCH REQUESTED:          0 ISSUED:          0 USEFUL:          0 USELESS:          0
cpu0->cpu0_L2C AVERAGE MISS LATENCY: 204.7 cycles
cpu0->cpu0_L1I TOTAL        ACCESS:   16507842 HIT:   12909537 MISS:    3598305 MSHR_MERGE:     798982
cpu0->cpu0_L1I LOAD         ACCESS:   16507842 HIT:   12909537 MISS:    3598305 MSHR_MERGE:     798982
cpu0->cpu0_L1I RFO          ACCESS:          0 HIT:          0 MISS:          0 MSHR_MERGE:          0
cpu0->cpu0_L1I PREFETCH     ACCESS:          0 HIT:          0 MISS:          0 MSHR_MERGE:          0
cpu0->cpu0_L1I WRITE        ACCESS:          0 HIT:          0 MISS:          0 MSHR_MERGE:          0
cpu0->cpu0_L1I TRANSLATION  ACCESS:          0 HIT:          0 MISS:          0 MSHR_MERGE:          0
cpu0->cpu0_L1I PREFETCH REQUESTED:          0 ISSUED:          0 USEFUL:          0 USELESS:          0
cpu0->cpu0_L1I AVERAGE MISS LATENCY: 25.03 cycles
cpu0->cpu0_L1D TOTAL        ACCESS:   61919747 HIT:   54973204 MISS:    6946543 MSHR_MERGE:    3504443
cpu0->cpu0_L1D LOAD         ACCESS:   32621927 HIT:   30013915 MISS:    2608012 MSHR_MERGE:     783670
cpu0->cpu0_L1D RFO          ACCESS:          0 HIT:          0 MISS:          0 MSHR_MERGE:          0
cpu0->cpu0_L1D PREFETCH     ACCESS:     800966 HIT:     552523 MISS:     248443 MSHR_MERGE:      87840
cpu0->cpu0_L1D WRITE        ACCESS:   26866365 HIT:   23478415 MISS:    3387950 MSHR_MERGE:    2628167
cpu0->cpu0_L1D TRANSLATION  ACCESS:    1630489 HIT:     928351 MISS:     702138 MSHR_MERGE:       4766
cpu0->cpu0_L1D PREFETCH REQUESTED:    1303865 ISSUED:     800962 USEFUL:     123206 USELESS:      37420
cpu0->cpu0_L1D AVERAGE MISS LATENCY: 101.1 cycles
cpu0->cpu0_ITLB TOTAL        ACCESS:   13853335 HIT:   13385129 MISS:     468206 MSHR_MERGE:     221916
cpu0->cpu0_ITLB LOAD         ACCESS:   13853335 HIT:   13385129 MISS:     468206 MSHR_MERGE:     221916
cpu0->cpu0_ITLB RFO          ACCESS:          0 HIT:          0 MISS:          0 MSHR_MERGE:          0
cpu0->cpu0_ITLB PREFETCH     ACCESS:          0 HIT:          0 MISS:          0 MSHR_MERGE:          0
cpu0->cpu0_ITLB WRITE        ACCESS:          0 HIT:          0 MISS:          0 MSHR_MERGE:          0
cpu0->cpu0_ITLB TRANSLATION  ACCESS:          0 HIT:          0 MISS:          0 MSHR_MERGE:          0
cpu0->cpu0_ITLB PREFETCH REQUESTED:          0 ISSUED:          0 USEFUL:          0 USELESS:          0
cpu0->cpu0_ITLB AVERAGE MISS LATENCY: 18.4 cycles
cpu0->cpu0_DTLB TOTAL        ACCESS:   57502801 HIT:   53745186 MISS:    3757615 MSHR_MERGE:    1657583
cpu0->cpu0_DTLB LOAD         ACCESS:   57502801 HIT:   53745186 MISS:    3757615 MSHR_MERGE:    1657583
cpu0->cpu0_DTLB RFO          ACCESS:          0 HIT:          0 MISS:          0 MSHR_MERGE:          0
cpu0->cpu0_DTLB PREFETCH     ACCESS:          0 HIT:          0 MISS:          0 MSHR_MERGE:          0
cpu0->cpu0_DTLB WRITE        ACCESS:          0 HIT:          0 MISS:          0 MSHR_MERGE:          0
cpu0->cpu0_DTLB TRANSLATION  ACCESS:          0 HIT:          0 MISS:          0 MSHR_MERGE:          0
cpu0->cpu0_DTLB PREFETCH REQUESTED:          0 ISSUED:          0 USEFUL:          0 USELESS:          0
cpu0->cpu0_DTLB AVERAGE MISS LATENCY: 36.45 cycles
cpu0->LLC TOTAL        ACCESS:    2657825 HIT:     733789 MISS:    1924036 MSHR_MERGE:          0
cpu0->LLC LOAD         ACCESS:     951539 HIT:     228006 MISS:     723533 MSHR_MERGE:          0
cpu0->LLC RFO          ACCESS:     571268 HIT:      15764 MISS:     555504 MSHR_MERGE:          0
cpu0->LLC PREFETCH     ACCESS:      94087 HIT:      17527 MISS:      76560 MSHR_MERGE:          0
cpu0->LLC WRITE        ACCESS:     836993 HIT:     425460 MISS:     411533 MSHR_MERGE:          0
cpu0->LLC TRANSLATION  ACCESS:     203938 HIT:      47032 MISS:     156906 MSHR_MERGE:          0
cpu0->LLC PREFETCH REQUESTED:          0 ISSUED:          0 USEFUL:          0 USELESS:          0
cpu0->LLC AVERAGE MISS LATENCY: 173.8 cycles

DRAM Statistics

Channel 0 RQ ROW_BUFFER_HIT:      17123
  ROW_BUFFER_MISS:    1495360
  AVG DBUS CONGESTED CYCLE: 29.39
Channel 0 WQ ROW_BUFFER_HIT:     194672
  ROW_BUFFER_MISS:     607630
  FULL:         74
Channel 0 REFRESHES ISSUED:      27623
